data_PCOD9108941
_publ_section_title
;
Structure prediction by ZEFSAII (Michael W. Deem and Ramdas Pophale) SiO2 
 PCOD9108941
Probable space group: P -1
;
_chemical_formula_sum "Si O2"
_cell_formula_units_Z 16
_cell_length_a 14.110660
_cell_length_b 5.983261
_cell_length_c 15.603698
_cell_angle_alpha 120.271500
_cell_angle_beta 139.968837
_cell_angle_gamma 74.094210
_cell_volume 716.799563
_symmetry_space_group_name_H-M "P -1"
_symmetry_group_IT_number 2
_symmetry_cell_setting 'triclinic'
loop_
_space_group_symop_operation_xyz
x,y,z
-x,-y,-z
loop_
_atom_site_type_symbol
_atom_site_label
_atom_site_fract_x
_atom_site_fract_y
_atom_site_fract_z
Si Si1 0.978466 0.466995 0.579855
Si Si2 0.265508 0.338681 0.821487
Si Si3 0.967939 0.031885 0.759221
Si Si4 0.323654 0.226218 0.394970
Si Si5 0.529623 0.087508 0.939007
Si Si6 0.243719 0.769641 0.484481
Si Si7 0.285010 0.320235 0.034158
Si Si8 0.522535 0.126410 0.675110
O O1 0.007559 0.757676 0.699578
O O2 0.819633 0.326424 0.484201
O O3 0.000000 0.500000 0.500000
O O4 0.897867 0.696286 0.337277
O O5 0.375179 0.170322 0.821949
O O6 0.257746 0.282273 0.906047
O O7 0.345944 0.644091 0.924886
O O8 0.834723 0.955157 0.720969
O O9 0.892425 0.160141 0.652655
O O10 0.118883 0.215164 0.935581
O O11 0.294802 0.520413 0.426250
O O12 0.441281 0.214043 0.551182
O O13 0.389785 0.102057 0.335346
O O14 0.500000 0.000000 0.000000
O O15 0.596432 0.862399 0.894164
O O16 0.385065 0.009131 0.619610
O O17 0.361772 0.620877 0.161951
#
# Coordination Sequence:
#
# PCOD9108941 Si02
#       8
#     2   2   2   2   2   2   2   2
#     4  11  23  42  65  91 125 177 224 261 311 378
#     4  10  20  41  60  88 125 170 216 264 311 369
#     4  10  21  41  65  92 131 168 208 273 318 379
#     4   9  21  43  66  94 128 161 215 265 322 385
#     4   9  20  39  59  86 127 167 206 265 315 370
#     4  10  21  44  64  89 129 169 213 270 318 376
#     4  11  21  39  64  94 132 166 209 262 329 379
#     4  10  22  41  67  97 125 166 209 266 328 395
#
# _framework density 22.321441
#
# number of rings (size 3 to 8) (size 9 to 14) (size 15 to 20)
#    0.000    2.000    2.500    0.375    0.000    2.000 
#   24.750    0.625    0.000    0.000    0.000    0.000 
#    0.000    0.000    0.000    0.000    0.000    0.000 
#
# Total GULP energy -89461.848657 kJ/mol
# GULP energy per Si atom -5591.365541 kJ/mol
# Density = 2.227064 g / cm^3
# Si number density = 22.321441 Si / 1000 Ang^3
#
#
#
# Elastic Constant Matrix: (Units=GPa)
#
#
# Indices 1 2 3 4 5 6 
#
# 1 90.6257 25.6959 48.6235 -3.9846 14.9730 -16.2340
# 2 25.6959 74.3707 23.2090 -2.3772 5.3282 -12.1079
# 3 48.6235 23.2090 109.8663 14.7043 23.4074 -14.0050
# 4 -3.9846 -2.3772 14.7043 27.8741 5.0213 12.7314
# 5 14.9730 5.3282 23.4074 5.0213 30.3175 -0.7385
# 6 -16.2340 -12.1079 -14.0050 12.7314 -0.7385 28.7692
#
#
#
# Elastic Compliance Matrix: (Units=1/GPa)
#
#
# Indices 1 2 3 4 5 6 
#
# 1 0.016487 -0.002888 -0.006182 0.004683 -0.003567 0.002915
# 2 -0.002888 0.015590 -0.001391 -0.000349 -0.000075 0.004407
# 3 -0.006182 -0.001391 0.016572 -0.012780 -0.007150 0.009466
# 4 0.004683 -0.000349 -0.012780 0.056955 -0.002524 -0.028995
# 5 -0.003567 -0.000075 -0.007150 -0.002524 0.040615 -0.003365
# 6 0.002915 0.004407 0.009466 -0.028995 -0.003365 0.055612
#
#
# Mechanical properties :
#
#
# Convention : Reuss Voigt Hill
#
# Bulk Modulus (GPa) = 36.06455 52.21327 44.13891
# Shear Modulus (GPa) = 21.55220 29.21446 25.38333
#
# Velocity S-wave (km/s) = 3.11068 3.62167 3.37586
# Velocity P-wave (km/s) = 5.39386 6.39773 5.91713
#
# Compressibility (1/GPa) = 0.02772806
#
# Stress axis : x y z
#
# Youngs Moduli (GPa) = 60.65258 64.14533 60.34194
#
# Poissons Ratio (x) = 0.18522 0.37304
# Poissons Ratio (y) = 0.17514 0.08393
# Poissons Ratio (z) = 0.37496 0.08922
#
# Static dielectric constant tensor:
#      x y z
#    x 1.840550 0.017240 0.014480 
#    y 0.017240 1.824600 -0.008480 
#    z 0.014480 -0.008480 1.816020 
# 
# From -- ./inp_files/571817.got.cif
#   From: 2010.05.17/outbox.cif.g08.bks.cpg/sg2_286_cif.got.tgz:571817.got - 2010.06.03 11:33:40.
