data_PCOD9108624
_publ_section_title
;
Structure prediction by ZEFSAII (Michael W. Deem and Ramdas Pophale) SiO2 
 PCOD9108624
Probable space group: P -1
;
_chemical_formula_sum "Si O2"
_cell_formula_units_Z 16
_cell_length_a 9.497819
_cell_length_b 23.788918
_cell_length_c 8.950758
_cell_angle_alpha 130.094652
_cell_angle_beta 30.919688
_cell_angle_gamma 130.934601
_cell_volume 767.342119
_symmetry_space_group_name_H-M "P -1"
_symmetry_group_IT_number 2
_symmetry_cell_setting 'triclinic'
loop_
_space_group_symop_operation_xyz
x,y,z
-x,-y,-z
loop_
_atom_site_type_symbol
_atom_site_label
_atom_site_fract_x
_atom_site_fract_y
_atom_site_fract_z
Si Si1 0.427620 0.001148 0.892294
Si Si2 0.914338 0.747725 0.487348
Si Si3 0.878723 0.408451 0.438285
Si Si4 0.279340 0.382157 0.803038
Si Si5 0.854563 0.949547 0.189429
Si Si6 0.967001 0.368226 0.600121
Si Si7 0.488101 0.151208 0.919289
Si Si8 0.592642 0.463421 0.205797
O O1 0.666169 0.984903 0.535122
O O2 0.398404 0.084150 0.008650
O O3 0.500000 0.000000 0.000000
O O4 0.126514 0.941772 0.023242
O O5 0.006026 0.709320 0.485350
O O6 0.850439 0.682447 0.308517
O O7 0.638067 0.777898 0.810115
O O8 0.173825 0.819559 0.337866
O O9 0.608784 0.390448 0.545346
O O10 0.793703 0.370607 0.611616
O O11 0.000000 0.500000 0.500000
O O12 0.109842 0.371087 0.092004
O O13 0.263666 0.465396 0.905692
O O14 0.640131 0.880534 0.179606
O O15 0.000000 0.000000 0.000000
O O16 0.287105 0.414094 0.344852
O O17 0.812773 0.412173 0.933354
O O18 0.500000 0.500000 0.500000
#
# Coordination Sequence:
#
# PCOD9108624 Si02
#       8
#     2   2   2   2   2   2   2   2
#     4  11  22  41  72 110 133 161 216 272 307 358
#     4  12  26  42  61  90 130 177 210 253 316 401
#     4  12  23  41  61  89 115 154 204 284 337 368
#     4  12  24  40  62  88 122 162 210 267 337 371
#     4  10  20  40  70 100 133 170 215 261 302 364
#     4  12  25  39  62  88 120 157 216 265 318 378
#     4  11  23  44  65  92 133 175 211 248 315 384
#     4  12  22  37  63  91 113 149 218 283 310 358
#
# _framework density 20.851195000000001
#
# number of rings (size 3 to 8) (size 9 to 14) (size 15 to 20)
#    0.000    0.500    3.750    7.125    1.750    0.000 
#    0.000    7.500    0.000    0.000    0.000    0.000 
#    0.000    0.000    0.000    0.000    0.000    0.000 
#
# Total GULP energy -89370.168573 kJ/mol
# GULP energy per Si atom -5585.635536 kJ/mol
# Density = 2.080374 g / cm^3
# Si number density = 20.851195 Si / 1000 Ang^3
#
#
#
# Elastic Constant Matrix: (Units=GPa)
#
#
# Indices 1 2 3 4 5 6 
#
# 1 106.8858 28.8556 14.6831 -1.5670 -0.7754 0.8862
# 2 28.8556 56.0930 1.1537 0.8054 4.8244 7.3522
# 3 14.6831 1.1537 113.3522 6.2478 6.4214 1.0693
# 4 -1.5670 0.8054 6.2478 25.8824 6.2492 -14.6664
# 5 -0.7754 4.8244 6.4214 6.2492 30.2976 -8.5002
# 6 0.8862 7.3522 1.0693 -14.6664 -8.5002 35.8042
#
#
#
# Elastic Compliance Matrix: (Units=1/GPa)
#
#
# Indices 1 2 3 4 5 6 
#
# 1 0.011306 -0.006288 -0.001649 0.002188 0.001862 0.002399
# 2 -0.006288 0.022538 0.001193 -0.004385 -0.005214 -0.007542
# 3 -0.001649 0.001193 0.009345 -0.003165 -0.002206 -0.002304
# 4 0.002188 -0.004385 -0.003165 0.052823 -0.003359 0.021781
# 5 0.001862 -0.005214 -0.002206 -0.003359 0.037459 0.008607
# 6 0.002399 -0.007542 -0.002304 0.021781 0.008607 0.040453
#
#
# Mechanical properties :
#
#
# Convention : Reuss Voigt Hill
#
# Bulk Modulus (GPa) = 33.66960 40.63510 37.15235
# Shear Modulus (GPa) = 25.34074 33.83941 29.59008
#
# Velocity S-wave (km/s) = 3.48992 4.03289 3.77119
# Velocity P-wave (km/s) = 5.69403 6.41998 6.06787
#
# Compressibility (1/GPa) = 0.02970038
#
# Stress axis : x y z
#
# Youngs Moduli (GPa) = 88.45206 44.37029 107.01218
#
# Poissons Ratio (x) = 0.27900 0.17648
# Poissons Ratio (y) = 0.55618 -0.12770
# Poissons Ratio (z) = 0.14587 -0.05295
#
# Static dielectric constant tensor:
#      x y z
#    x 1.791350 0.018000 0.012540 
#    y 0.018000 1.776600 -0.044890 
#    z 0.012540 -0.044890 1.826870 
# 
# From -- ./inp_files/226415.got.cif
#   From: 2010.05.17/outbox.cif.g08.bks.cpg/sg2_114_cif.got.tgz:226415.got - 2010.06.03 11:33:40.
