data_PCOD9108800
_publ_section_title
;
Structure prediction by ZEFSAII (Michael W. Deem and Ramdas Pophale) SiO2 
 PCOD9108800
Probable space group: P -1
;
_chemical_formula_sum "Si O2"
_cell_formula_units_Z 13
_cell_length_a 13.095225
_cell_length_b 8.205905
_cell_length_c 9.589622
_cell_angle_alpha 96.053359
_cell_angle_beta 144.097879
_cell_angle_gamma 64.318030
_cell_volume 482.207657
_symmetry_space_group_name_H-M "P -1"
_symmetry_group_IT_number 2
_symmetry_cell_setting 'triclinic'
loop_
_space_group_symop_operation_xyz
x,y,z
-x,-y,-z
loop_
_atom_site_type_symbol
_atom_site_label
_atom_site_fract_x
_atom_site_fract_y
_atom_site_fract_z
Si Si1 0.419842 0.614109 0.272362
Si Si2 0.122007 0.298554 0.826447
Si Si3 0.518331 0.938155 0.348041
Si Si4 0.222597 0.775569 0.546926
Si Si5 0.500000 0.500000 0.000000
Si Si6 0.068219 0.106620 0.191658
Si Si7 0.246608 0.309795 0.665731
O O1 0.500000 0.500000 0.500000
O O2 0.456836 0.789758 0.320484
O O3 0.559158 0.453554 0.282952
O O4 0.168136 0.708156 0.998778
O O5 0.180861 0.251842 0.724760
O O6 0.981888 0.221118 0.710805
O O7 0.949958 0.543382 0.647671
O O8 0.329764 0.180983 0.145531
O O9 0.743116 0.880500 0.657668
O O10 0.573083 0.874832 0.242313
O O11 0.195276 0.951029 0.445465
O O12 0.287869 0.750619 0.775701
O O13 0.671760 0.558477 0.186075
O O14 0.000000 0.000000 0.000000
#
# Coordination Sequence:
#
# PCOD9108800 Si02
#       7
#     2   2   2   2   1   2   2
#     4  12  26  50  72 103 142 189 246 301 355 427
#     4  10  21  41  71 102 148 186 230 288 358 433
#     4  12  25  46  74 104 143 188 246 296 356 432
#     4  11  23  47  69 109 149 184 238 293 365 425
#     4  10  20  40  72 100 154 178 228 292 358 426
#     4  12  28  49  72 103 141 194 249 301 358 419
#     4  10  22  42  65 112 143 191 232 284 366 433
#
# _framework density 26.959340999999998
#
# number of rings (size 3 to 8) (size 9 to 14) (size 15 to 20)
#    0.000    0.923    6.154    1.385    0.000    6.154 
#    0.000    4.615    0.000    0.000    0.000    0.000 
#    0.000    0.000    0.000    0.000    0.000    0.000 
#
# Total GULP energy -72504.476763 kJ/mol
# GULP energy per Si atom -5577.267443 kJ/mol
# Density = 2.689798 g / cm^3
# Si number density = 26.959341 Si / 1000 Ang^3
#
#
#
# Elastic Constant Matrix: (Units=GPa)
#
#
# Indices 1 2 3 4 5 6 
#
# 1 68.6143 22.5450 50.7014 -0.2454 4.0371 23.0678
# 2 22.5450 76.7900 66.7984 18.5016 8.4639 20.7480
# 3 50.7014 66.7984 187.7533 3.5749 29.1085 40.1561
# 4 -0.2454 18.5016 3.5749 61.7054 15.8705 0.0847
# 5 4.0371 8.4639 29.1085 15.8705 34.2439 -0.3274
# 6 23.0678 20.7480 40.1561 0.0847 -0.3274 42.0390
#
#
#
# Elastic Compliance Matrix: (Units=1/GPa)
#
#
# Indices 1 2 3 4 5 6 
#
# 1 0.019889 -0.000944 -0.003680 0.000386 0.000772 -0.006927
# 2 -0.000944 0.021826 -0.007358 -0.007220 0.004287 -0.003178
# 3 -0.003680 -0.007358 0.011468 0.003946 -0.009376 -0.005384
# 4 0.000386 -0.007220 0.003946 0.021073 -0.011387 -0.000549
# 5 0.000772 0.004287 -0.009376 -0.011387 0.041363 0.006762
# 6 -0.006927 -0.003178 -0.005384 -0.000549 0.006762 0.034353
#
#
# Mechanical properties :
#
#
# Convention : Reuss Voigt Hill
#
# Bulk Modulus (GPa) = 34.22616 68.13858 51.18237
# Shear Modulus (GPa) = 27.22191 40.47185 33.84688
#
# Velocity S-wave (km/s) = 3.18109 3.87876 3.54712
# Velocity P-wave (km/s) = 5.12010 6.73715 5.98350
#
# Compressibility (1/GPa) = 0.02921742
#
# Stress axis : x y z
#
# Youngs Moduli (GPa) = 50.27973 45.81776 87.20185
#
# Poissons Ratio (x) = 0.04327 0.32094
# Poissons Ratio (y) = 0.04748 0.64159
# Poissons Ratio (z) = 0.18505 0.33710
#
# Static dielectric constant tensor:
#      x y z
#    x 1.824080 0.026040 0.273900 
#    y 0.026040 2.099820 -0.071210 
#    z 0.273900 -0.071210 1.930860 
# 
# From -- ./inp_files/445996.got.cif
#   From: 2010.05.17/outbox.cif.g08.bks.cpg/sg2_223_cif.got.tgz:445996.got - 2010.06.03 11:33:40.
