data_PCOD9108210
_publ_section_title
;
Structure prediction by ZEFSAII (Michael W. Deem and Ramdas Pophale) SiO2 
 PCOD9108210
Probable space group: P -1
;
_chemical_formula_sum "Si O2"
_cell_formula_units_Z 14
_cell_length_a 10.222345
_cell_length_b 9.202286
_cell_length_c 8.828654
_cell_angle_alpha 94.248795
_cell_angle_beta 125.886927
_cell_angle_gamma 84.216038
_cell_volume 669.310773
_symmetry_space_group_name_H-M "P -1"
_symmetry_group_IT_number 2
_symmetry_cell_setting 'triclinic'
loop_
_space_group_symop_operation_xyz
x,y,z
-x,-y,-z
loop_
_atom_site_type_symbol
_atom_site_label
_atom_site_fract_x
_atom_site_fract_y
_atom_site_fract_z
Si Si1 0.745000 0.915259 0.262541
Si Si2 0.241337 0.097997 0.253101
Si Si3 0.729736 0.692372 0.977428
Si Si4 0.145092 0.530524 0.706565
Si Si5 0.972422 0.150633 0.316151
Si Si6 0.489916 0.851141 0.315451
Si Si7 0.521201 0.522019 0.196705
O O1 0.681200 0.813777 0.080495
O O2 0.894067 0.838261 0.457030
O O3 0.594094 0.941685 0.274370
O O4 0.831365 0.049915 0.262133
O O5 0.084471 0.086653 0.250593
O O6 0.391281 0.154332 0.458257
O O7 0.320015 0.942143 0.235528
O O8 0.199966 0.216209 0.103165
O O9 0.835531 0.576393 0.143875
O O10 0.585064 0.598744 0.812255
O O11 0.288725 0.513157 0.678238
O O12 0.000000 0.500000 0.500000
O O13 0.114645 0.692600 0.762795
O O14 0.477098 0.686663 0.233844
O O15 0.500000 0.500000 0.000000
#
# Coordination Sequence:
#
# PCOD9108210 Si02
#       7
#     2   2   2   2   2   2   2
#     4  10  20  40  67  93 119 172 230 257 302 391
#     4  10  24  40  62  96 136 168 205 273 328 387
#     4  11  23  39  64 101 125 163 223 270 319 376
#     4  11  20  40  65  92 129 169 212 273 313 383
#     4  10  22  40  64  93 128 173 211 262 330 378
#     4  10  20  44  66  89 133 174 211 264 323 386
#     4  10  21  39  67  98 120 166 224 272 308 372
#
# _framework density 20.917038000000002
#
# number of rings (size 3 to 8) (size 9 to 14) (size 15 to 20)
#    0.000    1.714    4.286    0.857    2.000    4.571 
#    0.000    1.429    0.000    0.000    0.000    0.000 
#    0.000    0.000    0.000    0.000    0.000    0.000 
#
# Total GULP energy -78064.381023 kJ/mol
# GULP energy per Si atom -5576.027216 kJ/mol
# Density = 2.086943 g / cm^3
# Si number density = 20.917038 Si / 1000 Ang^3
#
#
#
# Elastic Constant Matrix: (Units=GPa)
#
#
# Indices 1 2 3 4 5 6 
#
# 1 96.3717 62.3601 26.8843 3.1689 -5.4814 -4.3816
# 2 62.3601 89.9013 30.9552 4.8957 2.4716 -29.4917
# 3 26.8843 30.9552 54.6244 -4.2039 1.3462 1.5312
# 4 3.1689 4.8957 -4.2039 36.1120 5.3838 -3.6804
# 5 -5.4814 2.4716 1.3462 5.3838 28.1840 2.7626
# 6 -4.3816 -29.4917 1.5312 -3.6804 2.7626 28.1118
#
#
#
# Elastic Compliance Matrix: (Units=1/GPa)
#
#
# Indices 1 2 3 4 5 6 
#
# 1 0.029299 -0.031981 0.004068 -0.002655 0.011826 -0.030715
# 2 -0.031981 0.060835 -0.019970 0.001036 -0.016848 0.061716
# 3 0.004068 -0.019970 0.028397 0.003033 0.002737 -0.021735
# 4 -0.002655 0.001036 0.003033 0.029686 -0.006920 0.005074
# 5 0.011826 -0.016848 0.002737 -0.006920 0.042515 -0.021065
# 6 -0.030715 0.061716 -0.021735 0.005074 -0.021065 0.099448
#
#
# Mechanical properties :
#
#
# Convention : Reuss Voigt Hill
#
# Bulk Modulus (GPa) = 43.92488 53.47741 48.70114
# Shear Modulus (GPa) = 12.70539 26.52809 19.61674
#
# Velocity S-wave (km/s) = 2.46726 3.56512 3.06573
# Velocity P-wave (km/s) = 5.40015 6.52447 5.98875
#
# Compressibility (1/GPa) = 0.02276614
#
# Stress axis : x y z
#
# Youngs Moduli (GPa) = 34.13083 16.43782 35.21535
#
# Poissons Ratio (x) = 0.52569 -0.14327
# Poissons Ratio (y) = 1.09153 0.70326
# Poissons Ratio (z) = -0.13886 0.32827
#
# Static dielectric constant tensor:
#      x y z
#    x 1.781350 0.026970 0.053630 
#    y 0.026970 1.786050 0.030800 
#    z 0.053630 0.030800 1.854940 
# 
# From -- ./inp_files/158968.got.cif
#   From: 2010.05.17/outbox.cif.g08.bks.cpg/sg2_80_cif.got.tgz:158968.got - 2010.06.03 11:33:40.
