data_PCOD9108930
_publ_section_title
;
Structure prediction by ZEFSAII (Michael W. Deem and Ramdas Pophale) SiO2 
 PCOD9108930
Probable space group: P -1
;
_chemical_formula_sum "Si O2"
_cell_formula_units_Z 16
_cell_length_a 18.794512
_cell_length_b 8.321107
_cell_length_c 5.154441
_cell_angle_alpha 65.798775
_cell_angle_beta 57.906597
_cell_angle_gamma 64.583815
_cell_volume 599.140046
_symmetry_space_group_name_H-M "P -1"
_symmetry_group_IT_number 2
_symmetry_cell_setting 'triclinic'
loop_
_space_group_symop_operation_xyz
x,y,z
-x,-y,-z
loop_
_atom_site_type_symbol
_atom_site_label
_atom_site_fract_x
_atom_site_fract_y
_atom_site_fract_z
Si Si1 0.578290 0.720755 0.068889
Si Si2 0.268225 0.466088 0.806139
Si Si3 0.864742 0.606166 0.549777
Si Si4 0.989536 0.714759 0.656521
Si Si5 0.705364 0.834263 0.396247
Si Si6 0.897336 0.037118 0.959410
Si Si7 0.782235 0.167811 0.601560
Si Si8 0.608531 0.101343 0.773199
O O1 0.636099 0.561076 0.240867
O O2 0.479008 0.735861 0.188339
O O3 0.637094 0.721046 0.700758
O O4 0.578506 0.923127 0.050117
O O5 0.266069 0.261090 0.866607
O O6 0.239615 0.614687 0.542129
O O7 0.193767 0.516560 0.132155
O O8 0.918373 0.666309 0.638492
O O9 0.792223 0.768632 0.444992
O O10 0.933699 0.469874 0.320491
O O11 0.035263 0.844245 0.313954
O O12 0.950568 0.830524 0.910318
O O13 0.650737 0.035410 0.451689
O O14 0.822464 0.092683 0.846561
O O15 0.852674 0.080109 0.297751
O O16 0.689143 0.129809 0.756329
#
# Coordination Sequence:
#
# PCOD9108930 Si02
#       8
#     2   2   2   2   2   2   2   2
#     4   8  20  41  64  93 132 161 225 259 323 383
#     4  11  22  37  66  94 132 170 213 271 326 387
#     4  10  20  41  59  94 125 171 215 268 320 388
#     4  10  22  41  66  88 131 168 224 266 326 381
#     4   9  19  37  64  88 127 165 214 264 318 385
#     4  11  26  46  63  96 133 174 215 275 325 385
#     4  12  26  44  69  95 137 172 217 267 336 382
#     4   9  20  42  66  95 127 172 216 267 319 395
#
# _framework density 26.704940000000001
#
# number of rings (size 3 to 8) (size 9 to 14) (size 15 to 20)
#    0.750    1.250    1.250    1.500    3.500    3.000 
#    6.750    2.500    0.000    0.000    0.000    0.000 
#    0.000    0.000    0.000    0.000    0.000    0.000 
#
# Total GULP energy -89536.998274 kJ/mol
# GULP energy per Si atom -5596.062392 kJ/mol
# Density = 2.664416 g / cm^3
# Si number density = 26.704940 Si / 1000 Ang^3
#
#
#
# Elastic Constant Matrix: (Units=GPa)
#
#
# Indices 1 2 3 4 5 6 
#
# 1 169.6865 37.8207 44.6074 15.5254 -28.4434 -21.0598
# 2 37.8207 101.0905 21.2450 11.7280 -10.6785 -22.6383
# 3 44.6074 21.2450 90.8725 16.8983 -4.9175 -14.5345
# 4 15.5254 11.7280 16.8983 42.2206 -5.0507 -9.6063
# 5 -28.4434 -10.6785 -4.9175 -5.0507 42.2102 4.0358
# 6 -21.0598 -22.6383 -14.5345 -9.6063 4.0358 42.5725
#
#
#
# Elastic Compliance Matrix: (Units=1/GPa)
#
#
# Indices 1 2 3 4 5 6 
#
# 1 0.008000 -0.001477 -0.003001 -0.000426 0.004461 0.001629
# 2 -0.001477 0.012035 -0.001020 -0.001108 0.001325 0.004945
# 3 -0.003001 -0.001020 0.013656 -0.003805 -0.001326 0.001903
# 4 -0.000426 -0.001108 -0.003805 0.026748 0.001830 0.003763
# 5 0.004461 0.001325 -0.001326 0.001830 0.027067 0.000306
# 6 0.001629 0.004945 0.001903 0.003763 0.000306 0.028394
#
#
# Mechanical properties :
#
#
# Convention : Reuss Voigt Hill
#
# Bulk Modulus (GPa) = 44.06082 63.22174 53.64128
# Shear Modulus (GPa) = 37.18557 42.59909 39.89233
#
# Velocity S-wave (km/s) = 3.73562 3.99830 3.86919
# Velocity P-wave (km/s) = 5.92802 6.71124 6.33175
#
# Compressibility (1/GPa) = 0.02269590
#
# Stress axis : x y z
#
# Youngs Moduli (GPa) = 124.99806 83.09064 73.22860
#
# Poissons Ratio (x) = 0.12273 0.21973
# Poissons Ratio (y) = 0.18463 0.07468
# Poissons Ratio (z) = 0.37507 0.08474
#
# Static dielectric constant tensor:
#      x y z
#    x 2.061950 0.041150 -0.007610 
#    y 0.041150 2.158130 -0.066310 
#    z -0.007610 -0.066310 2.141700 
# 
# From -- ./inp_files/106867.got.cif
#   From: 2010.05.17/outbox.cif.g08.bks.cpg/sg2_54_cif.got.tgz:106867.got - 2010.06.03 11:33:40.
