data_PCOD9108750
_publ_section_title
;
Structure prediction by ZEFSAII (Michael W. Deem and Ramdas Pophale) SiO2 
 PCOD9108750
Probable space group: P -1
;
_chemical_formula_sum "Si O2"
_cell_formula_units_Z 14
_cell_length_a 7.870446
_cell_length_b 15.098226
_cell_length_c 14.367772
_cell_angle_alpha 151.622234
_cell_angle_beta 52.438230
_cell_angle_gamma 111.420949
_cell_volume 573.044781
_symmetry_space_group_name_H-M "P -1"
_symmetry_group_IT_number 2
_symmetry_cell_setting 'triclinic'
loop_
_space_group_symop_operation_xyz
x,y,z
-x,-y,-z
loop_
_atom_site_type_symbol
_atom_site_label
_atom_site_fract_x
_atom_site_fract_y
_atom_site_fract_z
Si Si1 0.639982 0.027205 0.588497
Si Si2 0.878111 0.322072 0.847477
Si Si3 0.827861 0.590203 0.934583
Si Si4 0.607808 0.464149 0.715442
Si Si5 0.759111 0.710674 0.762447
Si Si6 0.682565 0.583066 0.476914
Si Si7 0.370140 0.900486 0.719652
O O1 0.761848 0.172455 0.715665
O O2 0.500540 0.975439 0.669021
O O3 0.408027 0.191456 0.757772
O O4 0.885902 0.810730 0.292897
O O5 0.915414 0.428054 0.840396
O O6 0.659814 0.500962 0.141248
O O7 0.728079 0.493507 0.796217
O O8 0.058272 0.593627 0.809886
O O9 0.579880 0.645516 0.819841
O O10 0.748523 0.230570 0.412130
O O11 0.710115 0.720743 0.678958
O O12 0.000000 0.500000 0.500000
O O13 0.777865 0.898756 0.981668
O O14 0.500000 0.500000 0.500000
O O15 0.558357 0.734611 0.573597
#
# Coordination Sequence:
#
# PCOD9108750 Si02
#       7
#     2   2   2   2   2   2   2
#     4  10  20  40  71 102 140 188 234 285 366 415
#     4  10  21  42  76 102 147 188 237 300 358 422
#     4  11  22  47  73 105 150 187 241 303 350 429
#     4  11  23  42  75 105 145 190 238 297 361 425
#     4  12  24  48  70  98 148 186 241 304 349 429
#     4  12  25  45  71 108 145 188 246 303 356 430
#     4  12  24  44  71 106 143 191 241 287 370 423
#
# _framework density 24.430900000000001
#
# number of rings (size 3 to 8) (size 9 to 14) (size 15 to 20)
#    0.000    0.857    7.143    2.143    0.000    1.143 
#    2.571    2.857   18.857    0.000    0.000    0.000 
#    0.000    0.000    0.000    0.000    0.000    0.000 
#
# Total GULP energy -78222.994256 kJ/mol
# GULP energy per Si atom -5587.356733 kJ/mol
# Density = 2.437529 g / cm^3
# Si number density = 24.430900 Si / 1000 Ang^3
#
#
#
# Elastic Constant Matrix: (Units=GPa)
#
#
# Indices 1 2 3 4 5 6 
#
# 1 99.9562 26.2466 34.2372 12.7681 -24.9753 -4.8730
# 2 26.2466 81.6906 8.2952 6.1223 -9.1062 2.4877
# 3 34.2372 8.2952 129.8399 1.3676 -12.6449 23.2505
# 4 12.7681 6.1223 1.3676 39.1811 8.4103 -7.6102
# 5 -24.9753 -9.1062 -12.6449 8.4103 42.0005 0.0397
# 6 -4.8730 2.4877 23.2505 -7.6102 0.0397 33.7329
#
#
#
# Elastic Compliance Matrix: (Units=1/GPa)
#
#
# Indices 1 2 3 4 5 6 
#
# 1 0.014970 -0.003251 -0.003537 -0.005299 0.008190 0.003635
# 2 -0.003251 0.013612 0.000570 -0.001868 0.001566 -0.002290
# 3 -0.003537 0.000570 0.010128 -0.001078 0.001293 -0.007779
# 4 -0.005299 -0.001868 -0.001078 0.031141 -0.010123 0.007153
# 5 0.008190 0.001566 0.001293 -0.010123 0.031437 -0.002144
# 6 0.003635 -0.002290 -0.007779 0.007153 -0.002144 0.037316
#
#
# Mechanical properties :
#
#
# Convention : Reuss Voigt Hill
#
# Bulk Modulus (GPa) = 38.06166 49.89384 43.97775
# Shear Modulus (GPa) = 31.28912 39.16343 35.22627
#
# Velocity S-wave (km/s) = 3.58260 4.00813 3.80132
# Velocity P-wave (km/s) = 5.72070 6.47201 6.10792
#
# Compressibility (1/GPa) = 0.02627316
#
# Stress axis : x y z
#
# Youngs Moduli (GPa) = 66.80013 73.46281 98.73310
#
# Poissons Ratio (x) = 0.23885 0.34925
# Poissons Ratio (y) = 0.21719 -0.05626
# Poissons Ratio (z) = 0.23629 -0.04186
#
# Static dielectric constant tensor:
#      x y z
#    x 2.012050 0.013640 0.042120 
#    y 0.013640 2.042920 -0.071430 
#    z 0.042120 -0.071430 2.060500 
# 
# From -- ./inp_files/505679.got.cif
#   From: 2010.05.17/outbox.cif.g08.bks.cpg/sg2_253_cif.got.tgz:505679.got - 2010.06.03 11:33:40.
