data_PCOD9108741
_publ_section_title
;
Structure prediction by ZEFSAII (Michael W. Deem and Ramdas Pophale) SiO2 
 PCOD9108741
Probable space group: P -1
;
_chemical_formula_sum "Si O2"
_cell_formula_units_Z 14
_cell_length_a 15.118635
_cell_length_b 9.515612
_cell_length_c 14.280364
_cell_angle_alpha 114.830394
_cell_angle_beta 30.859102
_cell_angle_gamma 133.729434
_cell_volume 672.933115
_symmetry_space_group_name_H-M "P -1"
_symmetry_group_IT_number 2
_symmetry_cell_setting 'triclinic'
loop_
_space_group_symop_operation_xyz
x,y,z
-x,-y,-z
loop_
_atom_site_type_symbol
_atom_site_label
_atom_site_fract_x
_atom_site_fract_y
_atom_site_fract_z
Si Si1 0.799658 0.751185 0.570443
Si Si2 0.501140 0.128632 0.654014
Si Si3 0.233222 0.339835 0.649637
Si Si4 0.247280 0.521537 0.032500
Si Si5 0.834370 0.356461 0.229505
Si Si6 0.952764 0.509387 0.439712
Si Si7 0.909981 0.915231 0.951713
O O1 0.793351 0.713796 0.452650
O O2 0.867120 0.628940 0.524242
O O3 0.530656 0.655115 0.806512
O O4 0.000000 0.000000 0.500000
O O5 0.634801 0.240889 0.464316
O O6 0.730077 0.251028 0.545567
O O7 0.296978 0.865634 0.768265
O O8 0.363304 0.194426 0.828665
O O9 0.500000 0.500000 0.500000
O O10 0.153337 0.466260 0.774580
O O11 0.069976 0.114255 0.790875
O O12 0.181285 0.606606 0.194036
O O13 0.100224 0.269481 0.116695
O O14 0.103174 0.485225 0.059947
O O15 0.000000 0.500000 0.500000
O O16 0.000000 0.000000 0.000000
#
# Coordination Sequence:
#
# PCOD9108741 Si02
#       7
#     2   2   2   2   2   2   2
#     4  12  28  51  71 106 149 188 242 310 364 433
#     4  10  20  40  70  99 142 177 238 287 357 420
#     4  12  27  44  69 110 151 188 245 304 362 424
#     4  11  23  47  76  98 145 190 241 289 369 429
#     4  10  21  42  71 103 141 185 233 299 356 428
#     4  11  26  46  72 106 142 191 246 291 356 442
#     4  12  23  41  71 105 142 190 237 295 369 433
#
# _framework density 20.804444
#
# number of rings (size 3 to 8) (size 9 to 14) (size 15 to 20)
#    0.000    0.857    5.714    1.714    6.000    2.857 
#    2.571    0.000    0.000    0.000    0.000    0.000 
#    0.000    0.000    0.000    0.000    0.000    0.000 
#
# Total GULP energy -78120.056442 kJ/mol
# GULP energy per Si atom -5580.004032 kJ/mol
# Density = 2.075709 g / cm^3
# Si number density = 20.804444 Si / 1000 Ang^3
#
#
#
# Elastic Constant Matrix: (Units=GPa)
#
#
# Indices 1 2 3 4 5 6 
#
# 1 135.5598 61.4003 60.5747 -1.3432 0.8955 -15.7328
# 2 61.4003 119.6809 46.4563 1.8462 -18.1801 -15.6707
# 3 60.5747 46.4563 122.2668 6.3607 -26.0689 -11.2787
# 4 -1.3432 1.8462 6.3607 33.6599 -8.1052 -1.7170
# 5 0.8955 -18.1801 -26.0689 -8.1052 23.6838 12.3668
# 6 -15.7328 -15.6707 -11.2787 -1.7170 12.3668 29.0522
#
#
#
# Elastic Compliance Matrix: (Units=1/GPa)
#
#
# Indices 1 2 3 4 5 6 
#
# 1 0.015500 -0.006394 -0.008706 -0.001961 -0.021221 0.010483
# 2 -0.006394 0.013064 0.000595 0.001789 0.012202 -0.001273
# 3 -0.008706 0.000595 0.016495 0.001810 0.023730 -0.007984
# 4 -0.001961 0.001789 0.001810 0.033105 0.017270 -0.004789
# 5 -0.021221 0.012202 0.023730 0.017270 0.104976 -0.039363
# 6 0.010483 -0.001273 -0.007984 -0.004789 -0.039363 0.052784
#
#
# Mechanical properties :
#
#
# Convention : Reuss Voigt Hill
#
# Bulk Modulus (GPa) = 62.30411 79.37446 70.83929
# Shear Modulus (GPa) = 18.49917 31.21758 24.85838
#
# Velocity S-wave (km/s) = 2.98517 3.87786 3.46042
# Velocity P-wave (km/s) = 6.47257 7.63452 7.07743
#
# Compressibility (1/GPa) = 0.01605030
#
# Stress axis : x y z
#
# Youngs Moduli (GPa) = 64.51519 76.54619 60.62545
#
# Poissons Ratio (x) = 0.48941 0.52778
# Poissons Ratio (y) = 0.41249 -0.03607
# Poissons Ratio (z) = 0.56164 -0.04554
#
# Static dielectric constant tensor:
#      x y z
#    x 1.762190 0.017580 0.017540 
#    y 0.017580 1.804900 0.038110 
#    z 0.017540 0.038110 1.807390 
# 
# From -- ./inp_files/272915.got.cif
#   From: 2010.05.17/outbox.cif.g08.bks.cpg/sg2_137_cif.got.tgz:272915.got - 2010.06.03 11:33:40.
