data_PCOD9108850
_publ_section_title
;
Structure prediction by ZEFSAII (Michael W. Deem and Ramdas Pophale) SiO2 
 PCOD9108850
Probable space group: P -1
;
_chemical_formula_sum "Si O2"
_cell_formula_units_Z 16
_cell_length_a 17.383042
_cell_length_b 9.363632
_cell_length_c 5.399097
_cell_angle_alpha 119.412500
_cell_angle_beta 117.971882
_cell_angle_gamma 54.622192
_cell_volume 602.700175
_symmetry_space_group_name_H-M "P -1"
_symmetry_group_IT_number 2
_symmetry_cell_setting 'triclinic'
loop_
_space_group_symop_operation_xyz
x,y,z
-x,-y,-z
loop_
_atom_site_type_symbol
_atom_site_label
_atom_site_fract_x
_atom_site_fract_y
_atom_site_fract_z
Si Si1 0.545509 0.385950 0.217983
Si Si2 0.227169 0.998223 0.161374
Si Si3 0.958742 0.699915 0.725645
Si Si4 0.603779 0.735852 0.148482
Si Si5 0.315097 0.185158 0.147245
Si Si6 0.712087 0.336673 0.724276
Si Si7 0.935004 0.134437 0.299641
Si Si8 0.864316 0.419539 0.791321
O O1 0.500000 0.500000 0.500000
O O2 0.655105 0.357929 0.397602
O O3 0.500000 0.500000 0.000000
O O4 0.508118 0.230916 0.011998
O O5 0.158322 0.198600 0.346159
O O6 0.285659 0.028997 0.054064
O O7 0.293736 0.835788 0.304964
O O8 0.144911 0.937331 0.918465
O O9 0.000000 0.500000 0.500000
O O10 0.991067 0.839345 0.753753
O O11 0.023272 0.647169 0.027200
O O12 0.630622 0.780598 0.499833
O O13 0.630155 0.834784 0.046618
O O14 0.664206 0.519741 0.976098
O O15 0.211548 0.369836 0.117313
O O16 0.819596 0.310211 0.797111
O O17 0.869281 0.345877 0.462635
O O18 0.000000 0.000000 0.500000
#
# Coordination Sequence:
#
# PCOD9108850 Si02
#       8
#     2   2   2   2   2   2   2   2
#     4  10  20  40  73 107 134 177 227 281 346 421
#     4  12  25  43  63 101 135 182 235 288 350 398
#     4  12  27  43  65  92 136 182 232 282 344 415
#     4  10  22  46  68 101 137 180 227 283 346 422
#     4  11  26  41  68  97 139 183 231 282 341 418
#     4  10  22  41  71 100 135 172 232 290 343 408
#     4  12  24  41  64  91 130 177 231 295 344 400
#     4  11  23  43  64  93 129 183 231 281 346 407
#
# _framework density 26.547198999999999
#
# number of rings (size 3 to 8) (size 9 to 14) (size 15 to 20)
#    0.000    1.000    2.500    4.875    7.000    3.000 
#    0.000    1.250    0.000    0.000    0.000    0.000 
#    0.000    0.000    0.000    0.000    0.000    0.000 
#
# Total GULP energy -89512.668882 kJ/mol
# GULP energy per Si atom -5594.541805 kJ/mol
# Density = 2.648678 g / cm^3
# Si number density = 26.547199 Si / 1000 Ang^3
#
#
#
# Elastic Constant Matrix: (Units=GPa)
#
#
# Indices 1 2 3 4 5 6 
#
# 1 124.4765 34.8422 -0.9029 -12.5176 -7.3587 29.0265
# 2 34.8422 113.6371 18.9131 -11.9108 -0.0899 26.2376
# 3 -0.9029 18.9131 109.6342 -17.0115 4.8809 7.8475
# 4 -12.5176 -11.9108 -17.0115 43.3901 3.5917 -8.8764
# 5 -7.3587 -0.0899 4.8809 3.5917 25.5204 -3.7390
# 6 29.0265 26.2376 7.8475 -8.8764 -3.7390 57.4625
#
#
#
# Elastic Compliance Matrix: (Units=1/GPa)
#
#
# Indices 1 2 3 4 5 6 
#
# 1 0.009776 -0.002110 0.000887 0.001675 0.001861 -0.003716
# 2 -0.002110 0.010596 -0.001378 0.001130 -0.000975 -0.003473
# 3 0.000887 -0.001378 0.010128 0.003888 -0.002344 -0.000754
# 4 0.001675 0.001130 0.003888 0.026054 -0.003646 0.001894
# 5 0.001861 -0.000975 -0.002344 -0.003646 0.040961 0.001927
# 6 -0.003716 -0.003473 -0.000754 0.001894 0.001927 0.021387
#
#
# Mechanical properties :
#
#
# Convention : Reuss Voigt Hill
#
# Bulk Modulus (GPa) = 39.52819 50.38359 44.95589
# Shear Modulus (GPa) = 37.72594 44.93431 41.33012
#
# Velocity S-wave (km/s) = 3.77382 4.11861 3.94998
# Velocity P-wave (km/s) = 5.82332 6.45270 6.14607
#
# Compressibility (1/GPa) = 0.02529840
#
# Stress axis : x y z
#
# Youngs Moduli (GPa) = 102.29465 94.37738 98.73715
#
# Poissons Ratio (x) = 0.19914 -0.08763
# Poissons Ratio (y) = 0.21585 0.13605
# Poissons Ratio (z) = -0.09078 0.13004
#
# Static dielectric constant tensor:
#      x y z
#    x 2.133230 -0.072270 -0.007450 
#    y -0.072270 2.209540 0.032150 
#    z -0.007450 0.032150 2.179280 
# 
# From -- ./inp_files/99774.got.cif
#   From: 2010.05.17/outbox.cif.g08.bks.cpg/sg2_50_cif.got.tgz:99774.got - 2010.06.03 11:33:40.
