data_PCOD9108054
_publ_section_title
;
Structure prediction by ZEFSAII (Michael W. Deem and Ramdas Pophale) SiO2 
 PCOD9108054
Probable space group: P -1
;
_chemical_formula_sum "Si O2"
_cell_formula_units_Z 16
_cell_length_a 16.282381
_cell_length_b 15.477710
_cell_length_c 12.254905
_cell_angle_alpha 123.619584
_cell_angle_beta 141.734887
_cell_angle_gamma 26.880059
_cell_volume 736.672327
_symmetry_space_group_name_H-M "P -1"
_symmetry_group_IT_number 2
_symmetry_cell_setting 'triclinic'
loop_
_space_group_symop_operation_xyz
x,y,z
-x,-y,-z
loop_
_atom_site_type_symbol
_atom_site_label
_atom_site_fract_x
_atom_site_fract_y
_atom_site_fract_z
Si Si1 0.324754 0.294888 0.725571
Si Si2 0.783906 0.040172 0.674873
Si Si3 0.315766 0.498659 0.401453
Si Si4 0.175554 0.460249 0.915626
Si Si5 0.245698 0.868932 0.047296
Si Si6 0.563247 0.913891 0.671130
Si Si7 0.273161 0.211128 0.991032
Si Si8 0.279905 0.611825 0.197967
O O1 0.324219 0.298600 0.858162
O O2 0.000000 0.500000 0.500000
O O3 0.498290 0.079260 0.704950
O O4 0.467697 0.299688 0.833744
O O5 0.576242 0.236377 0.505336
O O6 0.706422 0.973437 0.551694
O O7 0.109804 0.851111 0.867825
O O8 0.705108 0.146007 0.783658
O O9 0.267439 0.576472 0.283999
O O10 0.434094 0.516916 0.603823
O O11 0.028467 0.639510 0.236232
O O12 0.253669 0.343850 0.025038
O O13 0.829424 0.696897 0.721434
O O14 0.266162 0.517027 0.047579
O O15 0.991237 0.125770 0.925423
O O16 0.650117 0.844691 0.840701
O O17 0.500000 0.000000 0.000000
#
# Coordination Sequence:
#
# PCOD9108054 Si02
#       8
#     2   2   2   2   2   2   2   2
#     4  12  27  41  63  98 133 165 221 271 314 387
#     4  10  22  39  72  92 124 179 214 260 329 384
#     4  10  20  40  66  96 124 168 220 264 318 389
#     4  12  23  41  66  94 126 175 211 264 326 380
#     4  10  22  44  64  96 132 166 216 269 319 388
#     4  12  23  44  68  94 129 174 218 262 325 389
#     4  12  23  40  64  97 136 163 213 278 319 377
#     4  10  21  39  70  91 124 174 214 261 326 383
#
# _framework density 21.719290999999998
#
# number of rings (size 3 to 8) (size 9 to 14) (size 15 to 20)
#    0.000    1.000    5.000    1.875    1.750    1.000 
#    2.250    1.250    0.000    0.000    0.000    0.000 
#    0.000    0.000    0.000    0.000    0.000    0.000 
#
# Total GULP energy -89393.936610 kJ/mol
# GULP energy per Si atom -5587.121038 kJ/mol
# Density = 2.166986 g / cm^3
# Si number density = 21.719291 Si / 1000 Ang^3
#
#
#
# Elastic Constant Matrix: (Units=GPa)
#
#
# Indices 1 2 3 4 5 6 
#
# 1 75.5496 -2.5044 33.1556 2.8116 14.3041 -9.5975
# 2 -2.5044 37.4759 5.3959 7.4084 13.5337 -2.8346
# 3 33.1556 5.3959 121.4858 14.9809 37.8109 -3.7262
# 4 2.8116 7.4084 14.9809 23.3533 11.8650 10.9259
# 5 14.3041 13.5337 37.8109 11.8650 57.8297 -1.8128
# 6 -9.5975 -2.8346 -3.7262 10.9259 -1.8128 20.7166
#
#
#
# Elastic Compliance Matrix: (Units=1/GPa)
#
#
# Indices 1 2 3 4 5 6 
#
# 1 0.016579 0.003909 -0.003287 -0.005146 -0.001491 0.010208
# 2 0.003909 0.033123 0.001770 -0.015698 -0.006204 0.014398
# 3 -0.003287 0.001770 0.011791 -0.006516 -0.005856 0.003765
# 4 -0.005146 -0.015698 -0.006516 0.079687 -0.008663 -0.048489
# 5 -0.001491 -0.006204 -0.005856 -0.008663 0.024849 0.004150
# 6 0.010208 0.014398 0.003765 -0.048489 0.004150 0.081583
#
#
# Mechanical properties :
#
#
# Convention : Reuss Voigt Hill
#
# Bulk Modulus (GPa) = 15.08795 34.06728 24.57762
# Shear Modulus (GPa) = 18.87371 33.61087 26.24229
#
# Velocity S-wave (km/s) = 2.95105 3.93811 3.47976
# Velocity P-wave (km/s) = 4.30970 6.03304 5.24267
#
# Compressibility (1/GPa) = 0.06627804
#
# Stress axis : x y z
#
# Youngs Moduli (GPa) = 60.31794 30.19074 84.80813
#
# Poissons Ratio (x) = -0.11801 0.27873
# Poissons Ratio (y) = -0.23578 -0.15013
# Poissons Ratio (z) = 0.19824 -0.05344
#
# Static dielectric constant tensor:
#      x y z
#    x 1.805410 0.026400 -0.012030 
#    y 0.026400 1.780150 -0.009610 
#    z -0.012030 -0.009610 1.836440 
# 
# From -- ./inp_files/455820.got.cif
#   From: 2010.05.17/outbox.cif.g08.bks.cpg/sg2_228_cif.got.tgz:455820.got - 2010.06.03 11:33:40.
