data_PCOD9108445
_publ_section_title
;
Structure prediction by ZEFSAII (Michael W. Deem and Ramdas Pophale) SiO2 
 PCOD9108445
Probable space group: P -1
;
_chemical_formula_sum "Si O2"
_cell_formula_units_Z 13
_cell_length_a 13.844563
_cell_length_b 8.129263
_cell_length_c 8.569052
_cell_angle_alpha 80.290949
_cell_angle_beta 127.644201
_cell_angle_gamma 133.764822
_cell_volume 494.188724
_symmetry_space_group_name_H-M "P -1"
_symmetry_group_IT_number 2
_symmetry_cell_setting 'triclinic'
loop_
_space_group_symop_operation_xyz
x,y,z
-x,-y,-z
loop_
_atom_site_type_symbol
_atom_site_label
_atom_site_fract_x
_atom_site_fract_y
_atom_site_fract_z
Si Si1 0.800636 0.620862 0.955238
Si Si2 0.000000 0.000000 0.500000
Si Si3 0.083660 0.652423 0.220354
Si Si4 0.167209 0.814851 0.727964
Si Si5 0.578896 0.931539 0.342649
Si Si6 0.615077 0.706963 0.940090
Si Si7 0.700533 0.669391 0.519156
O O1 0.765155 0.719922 0.040162
O O2 0.762792 0.670221 0.746570
O O3 0.643421 0.311271 0.857447
O O4 0.006072 0.760537 0.135375
O O5 0.854257 0.789166 0.524021
O O6 0.060795 0.865543 0.546159
O O7 0.303876 0.865915 0.432666
O O8 0.978385 0.456563 0.292253
O O9 0.000000 0.500000 0.000000
O O10 0.314307 0.896583 0.734968
O O11 0.288891 0.029494 0.947678
O O12 0.630884 0.788110 0.427891
O O13 0.484904 0.612565 0.682195
O O14 0.500000 0.500000 0.000000
#
# Coordination Sequence:
#
# PCOD9108445 Si02
#       7
#     2   1   2   2   2   2   2
#     4  11  25  45  71 102 138 184 223 288 350 393
#     4  10  20  40  68  96 130 174 224 274 344 384
#     4  12  29  45  64 101 143 184 232 276 344 418
#     4  11  24  44  67 102 136 176 227 289 340 411
#     4  10  23  46  67  98 138 177 230 287 335 406
#     4  11  20  43  73 103 131 170 238 286 336 413
#     4  10  22  40  70 101 136 173 228 288 338 396
#
# _framework density 26.305738000000002
#
# number of rings (size 3 to 8) (size 9 to 14) (size 15 to 20)
#    0.000    1.231    4.615    3.231    8.615    1.846 
#    2.769    0.000    0.000    0.000    0.000    0.000 
#    0.000    0.000    0.000    0.000    0.000    0.000 
#
# Total GULP energy -72605.679273 kJ/mol
# GULP energy per Si atom -5585.052252 kJ/mol
# Density = 2.624586 g / cm^3
# Si number density = 26.305738 Si / 1000 Ang^3
#
#
#
# Elastic Constant Matrix: (Units=GPa)
#
#
# Indices 1 2 3 4 5 6 
#
# 1 77.6818 -10.2923 0.6572 1.2350 -0.0347 18.6116
# 2 -10.2923 85.5695 15.6065 11.0494 -3.7749 12.5745
# 3 0.6572 15.6065 82.4374 20.0436 1.7357 -9.9699
# 4 1.2350 11.0494 20.0436 54.9273 -5.0502 -5.7664
# 5 -0.0347 -3.7749 1.7357 -5.0502 34.7837 7.4084
# 6 18.6116 12.5745 -9.9699 -5.7664 7.4084 35.6001
#
#
#
# Elastic Compliance Matrix: (Units=1/GPa)
#
#
# Indices 1 2 3 4 5 6 
#
# 1 0.016209 0.004299 -0.002031 -0.001425 0.002800 -0.011375
# 2 0.004299 0.014702 -0.003438 -0.002483 0.003439 -0.009521
# 3 -0.002031 -0.003438 0.014656 -0.004228 -0.003069 0.006335
# 4 -0.001425 -0.002483 -0.004228 0.020839 0.002253 0.003344
# 5 0.002800 0.003439 -0.003069 0.002253 0.031686 -0.009767
# 6 -0.011375 -0.009521 0.006335 0.003344 -0.009767 0.041748
#
#
# Mechanical properties :
#
#
# Convention : Reuss Voigt Hill
#
# Bulk Modulus (GPa) = 23.13348 28.62571 25.87959
# Shear Modulus (GPa) = 31.93098 41.04338 36.48718
#
# Velocity S-wave (km/s) = 3.48780 3.95428 3.72834
# Velocity P-wave (km/s) = 5.00328 5.63507 5.32855
#
# Compressibility (1/GPa) = 0.04322740
#
# Stress axis : x y z
#
# Youngs Moduli (GPa) = 61.69420 68.01828 68.23070
#
# Poissons Ratio (x) = -0.29242 0.13860
# Poissons Ratio (y) = -0.26523 0.23455
# Poissons Ratio (z) = 0.12532 0.23382
#
# Static dielectric constant tensor:
#      x y z
#    x 2.040860 -0.017680 -0.056060 
#    y -0.017680 2.065370 0.067360 
#    z -0.056060 0.067360 2.202610 
# 
# From -- ./inp_files/150486.got.cif
#   From: 2010.05.17/outbox.cif.g08.bks.cpg/sg2_76_cif.got.tgz:150486.got - 2010.06.03 11:33:40.
