data_PCOD9108287
_publ_section_title
;
Structure prediction by ZEFSAII (Michael W. Deem and Ramdas Pophale) SiO2 
 PCOD9108287
Probable space group: P -1
;
_chemical_formula_sum "Si O2"
_cell_formula_units_Z 14
_cell_length_a 10.265540
_cell_length_b 19.905289
_cell_length_c 8.973723
_cell_angle_alpha 29.257714
_cell_angle_beta 48.066440
_cell_angle_gamma 50.541968
_cell_volume 659.707520
_symmetry_space_group_name_H-M "P -1"
_symmetry_group_IT_number 2
_symmetry_cell_setting 'triclinic'
loop_
_space_group_symop_operation_xyz
x,y,z
-x,-y,-z
loop_
_atom_site_type_symbol
_atom_site_label
_atom_site_fract_x
_atom_site_fract_y
_atom_site_fract_z
Si Si1 0.285332 0.662285 0.685843
Si Si2 0.403124 0.511289 0.394277
Si Si3 0.992023 0.482174 0.361465
Si Si4 0.839190 0.941454 0.650104
Si Si5 0.403237 0.774925 0.690672
Si Si6 0.080522 0.929976 0.222885
Si Si7 0.791896 0.805140 0.239097
O O1 0.467292 0.578205 0.649398
O O2 0.313799 0.728694 0.697016
O O3 0.215126 0.788126 0.384845
O O4 0.136094 0.563598 0.015963
O O5 0.500000 0.500000 0.500000
O O6 0.207406 0.470126 0.631210
O O7 0.376901 0.667577 0.047759
O O8 0.052681 0.318324 0.603247
O O9 0.000000 0.500000 0.500000
O O10 0.922637 0.894451 0.519666
O O11 0.684114 0.069575 0.505412
O O12 0.783041 0.826508 0.025714
O O13 0.000000 0.000000 0.500000
O O14 0.609084 0.768565 0.510625
O O15 0.174369 0.048658 0.001456
O O16 0.000000 0.000000 0.000000
#
# Coordination Sequence:
#
# PCOD9108287 Si02
#       7
#     2   2   2   2   2   2   2
#     4  12  25  46  71 104 140 183 243 285 343 430
#     4  12  28  44  70 106 145 184 230 296 357 412
#     4  12  24  45  77 103 138 185 239 288 351 416
#     4  10  20  40  67  97 130 177 233 278 342 412
#     4  12  22  45  70 104 135 179 243 291 342 422
#     4  11  26  44  66  99 142 184 228 288 353 418
#     4  11  23  43  73 102 132 184 235 292 348 412
#
# _framework density 21.221526999999998
#
# number of rings (size 3 to 8) (size 9 to 14) (size 15 to 20)
#    0.000    0.571    5.714    4.286    4.000    1.714 
#    0.000    0.714    0.000    0.000    0.000    0.000 
#    0.000    0.000    0.000    0.000    0.000    0.000 
#
# Total GULP energy -78341.617234 kJ/mol
# GULP energy per Si atom -5595.829802 kJ/mol
# Density = 2.117323 g / cm^3
# Si number density = 21.221527 Si / 1000 Ang^3
#
#
#
# Elastic Constant Matrix: (Units=GPa)
#
#
# Indices 1 2 3 4 5 6 
#
# 1 71.5444 12.2716 15.0796 0.7732 9.8657 -24.7038
# 2 12.2716 89.5985 18.0476 -8.2800 -11.3723 -38.1189
# 3 15.0796 18.0476 76.7109 -12.2906 -2.6246 -14.0703
# 4 0.7732 -8.2800 -12.2906 37.3175 -9.2580 1.0818
# 5 9.8657 -11.3723 -2.6246 -9.2580 37.8996 4.7312
# 6 -24.7038 -38.1189 -14.0703 1.0818 4.7312 31.9598
#
#
#
# Elastic Compliance Matrix: (Units=1/GPa)
#
#
# Indices 1 2 3 4 5 6 
#
# 1 0.024004 0.008009 -0.002007 -0.002213 -0.008082 0.028494
# 2 0.008009 0.026964 -0.000045 0.005351 0.002596 0.037767
# 3 -0.002007 -0.000045 0.015241 0.005498 0.002337 0.004572
# 4 -0.002213 0.005351 0.005498 0.032153 0.009849 0.004547
# 5 -0.008082 0.002596 0.002337 0.009849 0.032748 -0.007303
# 6 0.028494 0.037767 0.004572 0.004547 -0.007303 0.101300
#
#
# Mechanical properties :
#
#
# Convention : Reuss Voigt Hill
#
# Bulk Modulus (GPa) = 12.80036 36.51679 24.65858
# Shear Modulus (GPa) = 20.28098 34.26571 27.27334
#
# Velocity S-wave (km/s) = 3.09476 4.02265 3.58882
# Velocity P-wave (km/s) = 4.33762 6.23060 5.36821
#
# Compressibility (1/GPa) = 0.07812278
#
# Stress axis : x y z
#
# Youngs Moduli (GPa) = 41.65978 37.08587 65.61366
#
# Poissons Ratio (x) = -0.29703 0.13172
# Poissons Ratio (y) = -0.33366 0.00295
# Poissons Ratio (z) = 0.08363 0.00167
#
# Static dielectric constant tensor:
#      x y z
#    x 1.756030 0.014750 -0.004390 
#    y 0.014750 1.786970 -0.012270 
#    z -0.004390 -0.012270 1.784180 
# 
# From -- ./inp_files/214020.got.cif
#   From: 2010.05.17/outbox.cif.g08.bks.cpg/sg2_108_cif.got.tgz:214020.got - 2010.06.03 11:33:40.
