data_PCOD9108756
_publ_section_title
;
Structure prediction by ZEFSAII (Michael W. Deem and Ramdas Pophale) SiO2 
 PCOD9108756
Probable space group: P -1
;
_chemical_formula_sum "Si O2"
_cell_formula_units_Z 13
_cell_length_a 5.398290
_cell_length_b 9.130906
_cell_length_c 16.902095
_cell_angle_alpha 68.450178
_cell_angle_beta 52.657130
_cell_angle_gamma 45.328377
_cell_volume 468.445486
_symmetry_space_group_name_H-M "P -1"
_symmetry_group_IT_number 2
_symmetry_cell_setting 'triclinic'
loop_
_space_group_symop_operation_xyz
x,y,z
-x,-y,-z
loop_
_atom_site_type_symbol
_atom_site_label
_atom_site_fract_x
_atom_site_fract_y
_atom_site_fract_z
Si Si1 0.427616 0.252541 0.232188
Si Si2 0.441390 0.832715 0.528051
Si Si3 0.541703 0.884321 0.331982
Si Si4 0.500000 0.000000 0.000000
Si Si5 0.612178 0.647742 0.946752
Si Si6 0.487307 0.539300 0.689808
Si Si7 0.556492 0.757234 0.186611
O O1 0.618522 0.219262 0.115383
O O2 0.506012 0.377708 0.243907
O O3 0.953613 0.367553 0.280948
O O4 0.601829 0.051765 0.288288
O O5 0.605752 0.755669 0.421887
O O6 0.623341 0.637587 0.587124
O O7 0.500000 0.000000 0.500000
O O8 0.955320 0.968106 0.604297
O O9 0.718904 0.781244 0.232219
O O10 0.437904 0.936337 0.115052
O O11 0.470669 0.189662 0.006631
O O12 0.096872 0.461480 0.879923
O O13 0.500000 0.500000 0.000000
O O14 0.707942 0.299913 0.712461
#
# Coordination Sequence:
#
# PCOD9108756 Si02
#       7
#     2   2   2   1   2   2   2
#     4  10  20  43  67 100 144 192 234 303 374 434
#     4  10  20  40  71 103 142 194 249 302 376 450
#     4  10  21  42  68 102 145 195 242 303 377 443
#     4  12  24  46  76 102 148 202 250 314 390 438
#     4  11  25  47  70 109 150 197 261 316 374 465
#     4  10  22  41  71 101 148 186 244 307 361 452
#     4  11  25  47  69 110 147 196 255 307 379 456
#
# _framework density 27.751362
#
# number of rings (size 3 to 8) (size 9 to 14) (size 15 to 20)
#    0.000    1.538    3.077    1.385    0.000    2.462 
#   13.846    0.769    0.000    0.000    0.000    0.000 
#    0.000    0.000    0.000    0.000    0.000    0.000 
#
# Total GULP energy -72368.504520 kJ/mol
# GULP energy per Si atom -5566.808040 kJ/mol
# Density = 2.768820 g / cm^3
# Si number density = 27.751362 Si / 1000 Ang^3
#
#
#
# Elastic Constant Matrix: (Units=GPa)
#
#
# Indices 1 2 3 4 5 6 
#
# 1 82.5548 77.7848 47.5094 -10.9276 5.9701 24.2394
# 2 77.7848 178.0681 89.9602 -52.0031 3.4141 22.1615
# 3 47.5094 89.9602 180.4805 -41.9067 31.1146 12.9287
# 4 -10.9276 -52.0031 -41.9067 83.5981 5.3404 6.1007
# 5 5.9701 3.4141 31.1146 5.3404 54.6847 -6.5979
# 6 24.2394 22.1615 12.9287 6.1007 -6.5979 69.8898
#
#
#
# Elastic Compliance Matrix: (Units=1/GPa)
#
#
# Indices 1 2 3 4 5 6 
#
# 1 0.023113 -0.009763 -0.001457 -0.003373 -0.001296 -0.004479
# 2 -0.009763 0.012883 -0.002807 0.005287 0.001280 -0.000520
# 3 -0.001457 -0.002807 0.008980 0.002970 -0.005188 -0.001015
# 4 -0.003373 0.005287 0.002970 0.016740 -0.003632 -0.002860
# 5 -0.001296 0.001280 -0.005188 -0.003632 0.022065 0.003403
# 6 -0.004479 -0.000520 -0.001015 -0.002860 0.003403 0.016785
#
#
# Mechanical properties :
#
#
# Convention : Reuss Voigt Hill
#
# Bulk Modulus (GPa) = 59.09410 96.84580 77.96995
# Shear Modulus (GPa) = 37.24093 56.69113 46.96603
#
# Velocity S-wave (km/s) = 3.66724 4.52466 4.11833
# Velocity P-wave (km/s) = 6.26673 7.89115 7.12538
#
# Compressibility (1/GPa) = 0.01692216
#
# Stress axis : x y z
#
# Youngs Moduli (GPa) = 43.26630 77.62167 111.35466
#
# Poissons Ratio (x) = 0.75782 0.16220
# Poissons Ratio (y) = 0.42241 0.31261
# Poissons Ratio (z) = 0.06302 0.21791
#
# Static dielectric constant tensor:
#      x y z
#    x 2.487950 -0.097800 -0.168060 
#    y -0.097800 2.152940 0.038530 
#    z -0.168060 0.038530 2.347910 
# 
# From -- ./inp_files/479052.got.cif
#   From: 2010.05.17/outbox.cif.g08.bks.cpg/sg2_240_cif.got.tgz:479052.got - 2010.06.03 11:33:40.
