data_PCOD9108568
_publ_section_title
;
Structure prediction by ZEFSAII (Michael W. Deem and Ramdas Pophale) SiO2 
 PCOD9108568
Probable space group: P -1
;
_chemical_formula_sum "Si O2"
_cell_formula_units_Z 14
_cell_length_a 12.638531
_cell_length_b 9.845441
_cell_length_c 11.463404
_cell_angle_alpha 39.700157
_cell_angle_beta 99.387139
_cell_angle_gamma 124.147498
_cell_volume 649.326490
_symmetry_space_group_name_H-M "P -1"
_symmetry_group_IT_number 2
_symmetry_cell_setting 'triclinic'
loop_
_space_group_symop_operation_xyz
x,y,z
-x,-y,-z
loop_
_atom_site_type_symbol
_atom_site_label
_atom_site_fract_x
_atom_site_fract_y
_atom_site_fract_z
Si Si1 0.687977 0.472336 0.521060
Si Si2 0.753207 0.002808 0.059132
Si Si3 0.855160 0.928245 0.559242
Si Si4 0.440093 0.539276 0.251146
Si Si5 0.453396 0.045608 0.580751
Si Si6 0.824446 0.244309 0.159215
Si Si7 0.038620 0.452150 0.415378
O O1 0.746583 0.749614 0.268667
O O2 0.598192 0.444567 0.633423
O O3 0.575827 0.181113 0.614018
O O4 0.827609 0.531781 0.553451
O O5 0.606561 0.852382 0.056590
O O6 0.751138 0.128659 0.096280
O O7 0.898804 0.277347 0.836292
O O8 0.821297 0.021864 0.377586
O O9 0.902986 0.144046 0.531754
O O10 0.701106 0.589481 0.768329
O O11 0.000000 0.000000 0.500000
O O12 0.456091 0.306198 0.392877
O O13 0.500000 0.000000 0.500000
O O14 0.285051 0.759183 0.781061
O O15 0.000000 0.500000 0.000000
O O16 0.000000 0.500000 0.500000
#
# Coordination Sequence:
#
# PCOD9108568 Si02
#       7
#     2   2   2   2   2   2   2
#     4  11  21  43  70  92 133 175 220 272 328 397
#     4  11  21  44  69  95 127 176 230 265 325 403
#     4  11  21  40  63  94 132 168 217 279 327 390
#     4  10  20  40  69  93 127 173 222 272 325 397
#     4  10  21  37  66  98 131 171 217 278 337 382
#     4  11  20  36  66  96 124 169 225 268 315 402
#     4  12  28  42  65 100 138 174 220 278 338 390
#
# _framework density 21.560801000000001
#
# number of rings (size 3 to 8) (size 9 to 14) (size 15 to 20)
#    0.000    1.143    7.143    0.857    4.000    1.143 
#    2.571    5.000    0.000    0.000    0.000    0.000 
#    0.000    0.000    0.000    0.000    0.000    0.000 
#
# Total GULP energy -78071.047604 kJ/mol
# GULP energy per Si atom -5576.503400 kJ/mol
# Density = 2.151173 g / cm^3
# Si number density = 21.560801 Si / 1000 Ang^3
#
#
#
# Elastic Constant Matrix: (Units=GPa)
#
#
# Indices 1 2 3 4 5 6 
#
# 1 52.0227 30.8252 22.3889 -4.8579 -14.3569 -4.1517
# 2 30.8252 153.9492 30.0828 -16.1187 -30.3310 -5.5025
# 3 22.3889 30.0828 57.9280 5.2429 -9.0683 -1.0331
# 4 -4.8579 -16.1187 5.2429 27.8789 3.7793 -21.1138
# 5 -14.3569 -30.3310 -9.0683 3.7793 28.2182 -1.1907
# 6 -4.1517 -5.5025 -1.0331 -21.1138 -1.1907 43.9164
#
#
#
# Elastic Compliance Matrix: (Units=1/GPa)
#
#
# Indices 1 2 3 4 5 6 
#
# 1 0.028114 -0.000258 -0.010136 0.011579 0.009565 0.008213
# 2 -0.000258 0.010546 -0.004918 0.010851 0.008450 0.006627
# 3 -0.010136 -0.004918 0.024889 -0.015659 -0.000708 -0.008537
# 4 0.011579 0.010851 -0.015659 0.075839 0.003996 0.038656
# 5 0.009565 0.008450 -0.000708 0.003996 0.048844 0.005192
# 6 0.008213 0.006627 -0.008537 0.038656 0.005192 0.042902
#
#
# Mechanical properties :
#
#
# Convention : Reuss Voigt Hill
#
# Bulk Modulus (GPa) = 30.37284 47.83263 39.10273
# Shear Modulus (GPa) = 18.33294 32.04289 25.18792
#
# Velocity S-wave (km/s) = 2.91914 3.85926 3.42164
# Velocity P-wave (km/s) = 5.04772 6.48781 5.81254
#
# Compressibility (1/GPa) = 0.03292415
#
# Stress axis : x y z
#
# Youngs Moduli (GPa) = 35.56947 94.82066 40.17906
#
# Poissons Ratio (x) = 0.02448 0.40726
# Poissons Ratio (y) = 0.00918 0.19760
# Poissons Ratio (z) = 0.36053 0.46633
#
# Static dielectric constant tensor:
#      x y z
#    x 1.827830 0.067770 -0.029460 
#    y 0.067770 1.813610 -0.094990 
#    z -0.029460 -0.094990 1.919430 
# 
# From -- ./inp_files/398755.got.cif
#   From: 2010.05.17/outbox.cif.g08.bks.cpg/sg2_200_cif.got.tgz:398755.got - 2010.06.03 11:33:40.
