data_PCOD9108729
_publ_section_title
;
Structure prediction by ZEFSAII (Michael W. Deem and Ramdas Pophale) SiO2 
 PCOD9108729
Probable space group: P -1
;
_chemical_formula_sum "Si O2"
_cell_formula_units_Z 16
_cell_length_a 13.768394
_cell_length_b 9.286668
_cell_length_c 22.863438
_cell_angle_alpha 46.902248
_cell_angle_beta 21.820849
_cell_angle_gamma 48.861447
_cell_volume 790.446563
_symmetry_space_group_name_H-M "P -1"
_symmetry_group_IT_number 2
_symmetry_cell_setting 'triclinic'
loop_
_space_group_symop_operation_xyz
x,y,z
-x,-y,-z
loop_
_atom_site_type_symbol
_atom_site_label
_atom_site_fract_x
_atom_site_fract_y
_atom_site_fract_z
Si Si1 0.878331 0.488544 0.748115
Si Si2 0.904815 0.228720 0.988955
Si Si3 0.556338 0.211620 0.076406
Si Si4 0.802762 0.472910 0.324715
Si Si5 0.279814 0.536147 0.863970
Si Si6 0.382126 0.095375 0.958550
Si Si7 0.946072 0.958216 0.735563
Si Si8 0.852996 0.622869 0.494299
O O1 0.742307 0.711311 0.766860
O O2 0.070043 0.467726 0.701622
O O3 0.000685 0.441062 0.630186
O O4 0.658531 0.339047 0.929400
O O5 0.123407 0.375104 0.808987
O O6 0.698356 0.260539 0.042845
O O7 0.780960 0.295499 0.100867
O O8 0.000000 0.000000 0.000000
O O9 0.627053 0.987572 0.079013
O O10 0.500000 0.500000 0.500000
O O11 0.913064 0.251521 0.305227
O O12 0.373405 0.330001 0.900477
O O13 0.545155 0.587777 0.668606
O O14 0.000000 0.500000 0.000000
O O15 0.660618 0.998170 0.853453
O O16 0.136992 0.044087 0.149070
O O17 0.109453 0.145411 0.580587
O O18 0.000000 0.500000 0.500000
#
# Coordination Sequence:
#
# PCOD9108729 Si02
#       8
#     2   2   2   2   2   2   2   2
#     4  10  22  40  67 101 131 175 225 280 340 416
#     4  11  25  45  66  97 135 182 226 279 351 408
#     4  10  20  40  70  98 134 173 225 282 342 404
#     4  11  25  45  69  95 136 180 228 287 345 413
#     4  12  27  45  68  99 144 181 225 285 352 416
#     4  11  21  42  70 101 132 178 230 273 347 411
#     4  11  23  42  70  99 134 177 231 285 334 418
#     4  12  25  44  68 104 139 177 232 290 344 408
#
# _framework density 20.241723
#
# number of rings (size 3 to 8) (size 9 to 14) (size 15 to 20)
#    0.000    1.000    5.000    1.500    3.500    0.000 
#    0.000    2.500    0.000    0.000    0.000    0.000 
#    0.000    0.000    0.000    0.000    0.000    0.000 
#
# Total GULP energy -89296.597566 kJ/mol
# GULP energy per Si atom -5581.037348 kJ/mol
# Density = 2.019565 g / cm^3
# Si number density = 20.241723 Si / 1000 Ang^3
#
#
#
# Elastic Constant Matrix: (Units=GPa)
#
#
# Indices 1 2 3 4 5 6 
#
# 1 60.7581 15.4087 31.8258 15.5907 9.3907 13.1969
# 2 15.4087 146.3568 40.8900 11.7007 12.2363 1.5019
# 3 31.8258 40.8900 115.2150 10.8916 0.3847 -4.9530
# 4 15.5907 11.7007 10.8916 38.7479 3.8146 6.0308
# 5 9.3907 12.2363 0.3847 3.8146 31.2581 5.6298
# 6 13.1969 1.5019 -4.9530 6.0308 5.6298 33.3397
#
#
#
# Elastic Compliance Matrix: (Units=1/GPa)
#
#
# Indices 1 2 3 4 5 6 
#
# 1 0.023970 0.000279 -0.006495 -0.006089 -0.004952 -0.008528
# 2 0.000279 0.007935 -0.002754 -0.001424 -0.002961 -0.000119
# 3 -0.006495 -0.002754 0.011691 -0.000711 0.002218 0.004186
# 4 -0.006089 -0.001424 -0.000711 0.029396 -0.000682 -0.002834
# 5 -0.004952 -0.002961 0.002218 -0.000682 0.035310 -0.003416
# 6 -0.008528 -0.000119 0.004186 -0.002834 -0.003416 0.035087
#
#
# Mechanical properties :
#
#
# Convention : Reuss Voigt Hill
#
# Bulk Modulus (GPa) = 38.97620 55.39764 47.18692
# Shear Modulus (GPa) = 29.43269 36.28284 32.85776
#
# Velocity S-wave (km/s) = 3.81735 4.23836 4.03335
# Velocity P-wave (km/s) = 6.22308 7.16792 6.71215
#
# Compressibility (1/GPa) = 0.02565669
#
# Stress axis : x y z
#
# Youngs Moduli (GPa) = 41.71898 126.01919 85.53856
#
# Poissons Ratio (x) = -0.03519 0.55556
# Poissons Ratio (y) = -0.01165 0.23557
# Poissons Ratio (z) = 0.27096 0.34705
#
# Static dielectric constant tensor:
#      x y z
#    x 1.667420 0.044550 0.017460 
#    y 0.044550 1.720340 -0.048630 
#    z 0.017460 -0.048630 1.719690 
# 
# From -- ./inp_files/354512.got.cif
#   From: 2010.05.17/outbox.cif.g08.bks.cpg/sg2_178_cif.got.tgz:354512.got - 2010.06.03 11:33:40.
