data_PCOD9108408
_publ_section_title
;
Structure prediction by ZEFSAII (Michael W. Deem and Ramdas Pophale) SiO2 
 PCOD9108408
Probable space group: P -1
;
_chemical_formula_sum "Si O2"
_cell_formula_units_Z 12
_cell_length_a 6.912271
_cell_length_b 6.986390
_cell_length_c 15.659967
_cell_angle_alpha 129.889206
_cell_angle_beta 116.444017
_cell_angle_gamma 54.049694
_cell_volume 466.842405
_symmetry_space_group_name_H-M "P -1"
_symmetry_group_IT_number 2
_symmetry_cell_setting 'triclinic'
loop_
_space_group_symop_operation_xyz
x,y,z
-x,-y,-z
loop_
_atom_site_type_symbol
_atom_site_label
_atom_site_fract_x
_atom_site_fract_y
_atom_site_fract_z
Si Si1 0.100109 0.197794 0.276246
Si Si2 0.732373 0.786999 0.333615
Si Si3 0.315781 0.596764 0.914659
Si Si4 0.648950 0.224347 0.293125
Si Si5 0.288029 0.275364 0.497232
Si Si6 0.781197 0.841268 0.893815
O O1 0.000423 0.524168 0.324237
O O2 0.886057 0.151816 0.262905
O O3 0.303862 0.129049 0.367643
O O4 0.185026 0.045010 0.160474
O O5 0.615555 0.600947 0.210927
O O6 0.685026 0.879809 0.451027
O O7 0.720168 0.006145 0.322636
O O8 0.055557 0.618864 0.901317
O O9 0.500000 0.500000 0.000000
O O10 0.285012 0.908040 0.981735
O O11 0.584149 0.524440 0.407465
O O12 0.433383 0.235060 0.194252
O O13 0.000000 0.500000 0.500000
#
# Coordination Sequence:
#
# PCOD9108408 Si02
#       6
#     2   2   2   2   2   2
#     4  10  24  43  65  99 134 169 222 278 322 391
#     4  10  21  40  67  92 130 173 213 275 323 383
#     4  10  20  40  68  93 135 174 213 279 330 374
#     4  11  22  42  69  95 132 177 222 262 337 399
#     4  11  25  41  62  99 136 171 221 275 328 394
#     4  10  22  41  68  98 132 175 219 269 330 394
#
# _framework density 25.704608
#
# number of rings (size 3 to 8) (size 9 to 14) (size 15 to 20)
#    0.000    1.667    1.667    3.000    0.000    8.000 
#    0.000   14.167    0.000    0.000    0.000    0.000 
#    0.000    0.000    0.000    0.000    0.000    0.000 
#
# Total GULP energy -66929.627180 kJ/mol
# GULP energy per Si atom -5577.468932 kJ/mol
# Density = 2.564610 g / cm^3
# Si number density = 25.704608 Si / 1000 Ang^3
#
#
#
# Elastic Constant Matrix: (Units=GPa)
#
#
# Indices 1 2 3 4 5 6 
#
# 1 95.8025 24.1995 47.9801 7.8406 2.2451 28.3199
# 2 24.1995 127.1771 52.3463 -14.9393 7.7383 12.1029
# 3 47.9801 52.3463 212.2078 -3.2688 1.2221 -1.1104
# 4 7.8406 -14.9393 -3.2688 59.1949 -15.9074 8.5891
# 5 2.2451 7.7383 1.2221 -15.9074 71.7533 -2.8453
# 6 28.3199 12.1029 -1.1104 8.5891 -2.8453 23.3395
#
#
#
# Elastic Compliance Matrix: (Units=1/GPa)
#
#
# Indices 1 2 3 4 5 6 
#
# 1 0.020240 0.000744 -0.004877 0.000537 -0.001525 -0.025561
# 2 0.000744 0.009906 -0.002598 0.003160 -0.000640 -0.007404
# 3 -0.004877 -0.002598 0.006484 -0.000664 0.000488 0.007877
# 4 0.000537 0.003160 -0.000664 0.019913 0.003704 -0.009198
# 5 -0.001525 -0.000640 0.000488 0.003704 0.014972 0.002668
# 6 -0.025561 -0.007404 0.007877 -0.009198 0.002668 0.081785
#
#
# Mechanical properties :
#
#
# Convention : Reuss Voigt Hill
#
# Bulk Modulus (GPa) = 43.16140 76.02659 59.59400
# Shear Modulus (GPa) = 28.65586 51.56829 40.11208
#
# Velocity S-wave (km/s) = 3.34251 4.48391 3.95460
# Velocity P-wave (km/s) = 5.63243 7.51322 6.63976
#
# Compressibility (1/GPa) = 0.02316885
#
# Stress axis : x y z
#
# Youngs Moduli (GPa) = 49.40665 100.95253 154.22504
#
# Poissons Ratio (x) = -0.07513 0.75209
# Poissons Ratio (y) = -0.03677 0.40069
# Poissons Ratio (z) = 0.24094 0.26229
#
# Static dielectric constant tensor:
#      x y z
#    x 2.301840 -0.252510 -0.045000 
#    y -0.252510 2.219200 0.003480 
#    z -0.045000 0.003480 2.036490 
# 
# From -- ./inp_files/553895.got.cif
#   From: 2010.05.17/outbox.cif.g08.bks.cpg/sg2_277_cif.got.tgz:553895.got - 2010.06.03 11:33:40.
