data_PCOD9108940
_publ_section_title
;
Structure prediction by ZEFSAII (Michael W. Deem and Ramdas Pophale) SiO2 
 PCOD9108940
Probable space group: P -1
;
_chemical_formula_sum "Si O2"
_cell_formula_units_Z 14
_cell_length_a 8.498183
_cell_length_b 10.032785
_cell_length_c 7.568355
_cell_angle_alpha 115.573221
_cell_angle_beta 88.920234
_cell_angle_gamma 98.551406
_cell_volume 574.850875
_symmetry_space_group_name_H-M "P -1"
_symmetry_group_IT_number 2
_symmetry_cell_setting 'triclinic'
loop_
_space_group_symop_operation_xyz
x,y,z
-x,-y,-z
loop_
_atom_site_type_symbol
_atom_site_label
_atom_site_fract_x
_atom_site_fract_y
_atom_site_fract_z
Si Si1 0.762958 0.808157 0.105606
Si Si2 0.143965 0.516855 0.138489
Si Si3 0.871387 0.852434 0.777434
Si Si4 0.175245 0.733353 0.571796
Si Si5 0.469932 0.222789 0.405487
Si Si6 0.461555 0.660944 0.143065
Si Si7 0.230179 0.006827 0.455117
O O1 0.805539 0.646705 0.963184
O O2 0.841792 0.911213 0.006689
O O3 0.571027 0.785256 0.099995
O O4 0.802486 0.861541 0.333850
O O5 0.129766 0.580554 0.372388
O O6 0.274927 0.643110 0.117685
O O7 0.000000 0.500000 0.000000
O O8 0.693894 0.754279 0.677832
O O9 0.882057 0.981615 0.702974
O O10 0.021932 0.766311 0.703170
O O11 0.352669 0.749407 0.666693
O O12 0.206560 0.863178 0.494863
O O13 0.497459 0.319841 0.639195
O O14 0.404795 0.056728 0.391629
O O15 0.500000 0.500000 0.000000
#
# Coordination Sequence:
#
# PCOD9108940 Si02
#       7
#     2   2   2   2   2   2   2
#     4  10  20  41  60  88 118 156 197 241 292 358
#     4  10  21  36  61  89 119 153 199 244 296 349
#     4  10  22  36  63  87 121 156 196 240 300 347
#     4  11  20  38  61  89 118 157 200 242 294 353
#     4   8  19  36  58  87 116 153 194 244 292 344
#     4   8  16  34  59  78 113 156 190 231 291 347
#     4   9  20  39  65  83 121 159 193 246 294 345
#
# _framework density 24.354140999999998
#
# number of rings (size 3 to 8) (size 9 to 14) (size 15 to 20)
#    0.857    1.714    0.000    1.714    2.000    1.143 
#    2.571    7.143    0.000    0.000    0.000    0.000 
#    0.000    0.000    0.000    0.000    0.000    0.000 
#
# Total GULP energy -77963.356341 kJ/mol
# GULP energy per Si atom -5568.811167 kJ/mol
# Density = 2.429871 g / cm^3
# Si number density = 24.354141 Si / 1000 Ang^3
#
#
#
# Elastic Constant Matrix: (Units=GPa)
#
#
# Indices 1 2 3 4 5 6 
#
# 1 184.5954 3.5236 45.8216 -11.9656 -3.4205 16.6426
# 2 3.5236 39.2636 22.5539 -4.1536 -3.6277 5.3895
# 3 45.8216 22.5539 95.6092 -3.6520 -9.1952 -1.6125
# 4 -11.9656 -4.1536 -3.6520 36.1853 1.8464 -13.1163
# 5 -3.4205 -3.6277 -9.1952 1.8464 37.3508 0.6544
# 6 16.6426 5.3895 -1.6125 -13.1163 0.6544 19.6564
#
#
#
# Elastic Compliance Matrix: (Units=1/GPa)
#
#
# Indices 1 2 3 4 5 6 
#
# 1 0.007027 0.002713 -0.004145 -0.000442 0.000037 -0.007330
# 2 0.002713 0.032142 -0.008992 -0.000930 0.001422 -0.012515
# 3 -0.004145 -0.008992 0.015001 0.002091 0.002187 0.008528
# 4 -0.000442 -0.000930 0.002091 0.036937 -0.001889 0.025511
# 5 0.000037 0.001422 0.002187 -0.001889 0.027589 -0.002421
# 6 -0.007330 -0.012515 0.008528 0.025511 -0.002421 0.078315
#
#
# Mechanical properties :
#
#
# Convention : Reuss Voigt Hill
#
# Bulk Modulus (GPa) = 30.01038 51.47404 40.74221
# Shear Modulus (GPa) = 21.83733 35.14310 28.49022
#
# Velocity S-wave (km/s) = 2.99767 3.80281 3.42399
# Velocity P-wave (km/s) = 4.93261 6.36108 5.69183
#
# Compressibility (1/GPa) = 0.03332181
#
# Stress axis : x y z
#
# Youngs Moduli (GPa) = 142.30457 31.11225 66.66244
#
# Poissons Ratio (x) = -0.08441 0.27630
# Poissons Ratio (y) = -0.38607 0.59944
# Poissons Ratio (z) = 0.58982 0.27977
#
# Static dielectric constant tensor:
#      x y z
#    x 2.085430 0.045630 -0.030700 
#    y 0.045630 2.006240 -0.005690 
#    z -0.030700 -0.005690 1.940330 
# 
# From -- ./inp_files/172681.got.cif
#   From: 2010.05.17/outbox.cif.g08.bks.cpg/sg2_87_cif.got.tgz:172681.got - 2010.06.03 11:33:40.
