data_PCOD9108208
_publ_section_title
;
Structure prediction by ZEFSAII (Michael W. Deem and Ramdas Pophale) SiO2 
 PCOD9108208
Probable space group: P -1
;
_chemical_formula_sum "Si O2"
_cell_formula_units_Z 16
_cell_length_a 14.167033
_cell_length_b 8.465108
_cell_length_c 12.167480
_cell_angle_alpha 90.052772
_cell_angle_beta 99.124111
_cell_angle_gamma 31.562988
_cell_volume 728.262312
_symmetry_space_group_name_H-M "P -1"
_symmetry_group_IT_number 2
_symmetry_cell_setting 'triclinic'
loop_
_space_group_symop_operation_xyz
x,y,z
-x,-y,-z
loop_
_atom_site_type_symbol
_atom_site_label
_atom_site_fract_x
_atom_site_fract_y
_atom_site_fract_z
Si Si1 0.801199 0.600598 0.523696
Si Si2 0.867989 0.920824 0.769403
Si Si3 0.553977 0.918098 0.679812
Si Si4 0.760986 0.785499 0.893534
Si Si5 0.550302 0.253603 0.048625
Si Si6 0.492133 0.642287 0.721370
Si Si7 0.188141 0.038517 0.500000
Si Si8 0.142126 0.668162 0.977413
O O1 0.736127 0.684537 0.636732
O O2 0.806022 0.778703 0.493448
O O3 0.003405 0.243598 0.530649
O O4 0.631526 0.767504 0.421707
O O5 0.864605 0.756080 0.829045
O O6 0.837039 0.963395 0.632863
O O7 0.057151 0.738760 0.843801
O O8 0.682397 0.275305 0.781039
O O9 0.577697 0.983858 0.793857
O O10 0.546307 0.742500 0.698067
O O11 0.866608 0.475409 0.948023
O O12 0.695417 0.967552 0.991322
O O13 0.622833 0.169997 0.186853
O O14 0.500000 0.500000 0.000000
O O15 0.356170 0.427372 0.014376
O O16 0.374746 0.726124 0.602301
O O17 0.000000 0.000000 0.000000
#
# Coordination Sequence:
#
# PCOD9108208 Si02
#       8
#     2   2   2   2   2   2   2   2
#     4   9  20  39  62  98 129 175 225 282 335 400
#     4  12  24  44  66 101 138 177 230 280 339 405
#     4  10  20  40  67  92 135 174 226 278 342 399
#     4  12  24  42  71 102 134 187 224 278 347 409
#     4  12  25  46  68  98 139 182 228 281 340 404
#     4  11  23  45  64  94 142 183 221 284 338 397
#     4  10  22  40  68  97 130 176 229 279 336 403
#     4  12  25  46  68 102 137 178 229 284 342 408
#
# _framework density 21.970105
#
# number of rings (size 3 to 8) (size 9 to 14) (size 15 to 20)
#    0.000    1.000    5.000    1.125    1.750    2.000 
#    6.750    0.625    0.000    0.000    0.000    0.000 
#    0.000    0.000    0.000    0.000    0.000    0.000 
#
# Total GULP energy -89407.380184 kJ/mol
# GULP energy per Si atom -5587.961262 kJ/mol
# Density = 2.192010 g / cm^3
# Si number density = 21.970105 Si / 1000 Ang^3
#
#
#
# Elastic Constant Matrix: (Units=GPa)
#
#
# Indices 1 2 3 4 5 6 
#
# 1 74.2956 22.5553 31.4414 -1.8227 -5.4104 -1.6533
# 2 22.5553 43.1874 16.4803 9.7953 -11.0161 4.7653
# 3 31.4414 16.4803 130.3232 5.9936 19.5727 -12.6586
# 4 -1.8227 9.7953 5.9936 23.4691 3.3209 -9.3070
# 5 -5.4104 -11.0161 19.5727 3.3209 41.4024 0.5947
# 6 -1.6533 4.7653 -12.6586 -9.3070 0.5947 25.9784
#
#
#
# Elastic Compliance Matrix: (Units=1/GPa)
#
#
# Indices 1 2 3 4 5 6 
#
# 1 0.018367 -0.010877 -0.003013 0.008605 0.000172 0.004775
# 2 -0.010877 0.044382 -0.006256 -0.029014 0.015997 -0.022642
# 3 -0.003013 -0.006256 0.010923 0.003761 -0.007636 0.007800
# 4 0.008605 -0.029014 0.003761 0.069531 -0.014424 0.032943
# 5 0.000172 0.015997 -0.007636 -0.014424 0.033379 -0.012576
# 6 0.004775 -0.022642 0.007800 0.032943 -0.012576 0.058842
#
#
# Mechanical properties :
#
#
# Convention : Reuss Voigt Hill
#
# Bulk Modulus (GPa) = 29.95865 43.19558 36.57712
# Shear Modulus (GPa) = 17.43105 29.99193 23.71149
#
# Velocity S-wave (km/s) = 2.81979 3.69877 3.28878
# Velocity P-wave (km/s) = 4.92619 6.15995 5.57729
#
# Compressibility (1/GPa) = 0.03337934
#
# Stress axis : x y z
#
# Youngs Moduli (GPa) = 54.44515 22.53140 91.55149
#
# Poissons Ratio (x) = 0.24508 0.27589
# Poissons Ratio (y) = 0.59221 0.57273
# Poissons Ratio (z) = 0.16407 0.14095
#
# Static dielectric constant tensor:
#      x y z
#    x 1.811070 -0.016670 0.016240 
#    y -0.016670 1.798460 -0.002040 
#    z 0.016240 -0.002040 1.845070 
# 
# From -- ./inp_files/223593.got.cif
#   From: 2010.05.17/outbox.cif.g08.bks.cpg/sg2_112_cif.got.tgz:223593.got - 2010.06.03 11:33:40.
