data_PCOD9108438
_publ_section_title
;
Structure prediction by ZEFSAII (Michael W. Deem and Ramdas Pophale) SiO2 
 PCOD9108438
Probable space group: P -1
;
_chemical_formula_sum "Si O2"
_cell_formula_units_Z 16
_cell_length_a 10.891654
_cell_length_b 11.546597
_cell_length_c 13.374382
_cell_angle_alpha 121.643446
_cell_angle_beta 35.044050
_cell_angle_gamma 131.738931
_cell_volume 719.851472
_symmetry_space_group_name_H-M "P -1"
_symmetry_group_IT_number 2
_symmetry_cell_setting 'triclinic'
loop_
_space_group_symop_operation_xyz
x,y,z
-x,-y,-z
loop_
_atom_site_type_symbol
_atom_site_label
_atom_site_fract_x
_atom_site_fract_y
_atom_site_fract_z
Si Si1 0.377655 0.171131 0.897339
Si Si2 0.227351 0.650594 0.873183
Si Si3 0.880437 0.033835 0.406432
Si Si4 0.579894 0.524577 0.575724
Si Si5 0.276885 0.964932 0.064877
Si Si6 0.938110 0.367545 0.566932
Si Si7 0.579246 0.247002 0.420782
Si Si8 0.862461 0.098604 0.228104
O O1 0.359127 0.092371 0.980730
O O2 0.653736 0.305062 0.757851
O O3 0.283390 0.029926 0.816577
O O4 0.149258 0.205702 0.061871
O O5 0.463313 0.629993 0.739148
O O6 0.240172 0.659376 0.747999
O O7 0.201220 0.796985 0.993580
O O8 0.000000 0.500000 0.000000
O O9 0.939179 0.209345 0.460145
O O10 0.839579 0.007126 0.302740
O O11 0.630739 0.905450 0.562383
O O12 0.084528 0.986480 0.271439
O O13 0.500000 0.500000 0.500000
O O14 0.465402 0.341923 0.595488
O O15 0.855746 0.580742 0.458147
O O16 0.500000 0.000000 0.000000
O O17 0.000000 0.500000 0.500000
O O18 0.727615 0.199309 0.375377
#
# Coordination Sequence:
#
# PCOD9108438 Si02
#       8
#     2   2   2   2   2   2   2   2
#     4  10  23  41  66  98 131 173 221 277 321 406
#     4  11  23  41  61  93 128 172 219 269 322 384
#     4  11  23  39  68  99 125 173 225 272 323 404
#     4  10  25  43  63  94 137 177 222 268 341 392
#     4  11  23  42  65  90 127 172 220 269 328 383
#     4  12  25  43  66 103 140 171 218 282 340 389
#     4  11  21  41  66  95 127 177 222 268 322 401
#     4  10  20  40  68  96 127 166 230 263 336 382
#
# _framework density 22.226806
#
# number of rings (size 3 to 8) (size 9 to 14) (size 15 to 20)
#    0.000    1.250    2.500    2.625    1.750    5.000 
#    0.000   10.000    0.000    0.000    0.000    0.000 
#    0.000    0.000    0.000    0.000    0.000    0.000 
#
# Total GULP energy -89132.880905 kJ/mol
# GULP energy per Si atom -5570.805057 kJ/mol
# Density = 2.217622 g / cm^3
# Si number density = 22.226806 Si / 1000 Ang^3
#
#
#
# Elastic Constant Matrix: (Units=GPa)
#
#
# Indices 1 2 3 4 5 6 
#
# 1 93.6276 12.9568 25.0631 -18.4135 -31.2366 9.0367
# 2 12.9568 105.3677 49.5924 -4.9200 -20.5685 -6.6078
# 3 25.0631 49.5924 93.7210 -13.9968 -32.9238 -4.8936
# 4 -18.4135 -4.9200 -13.9968 46.1436 -6.3778 -6.2447
# 5 -31.2366 -20.5685 -32.9238 -6.3778 39.8353 10.6968
# 6 9.0367 -6.6078 -4.8936 -6.2447 10.6968 29.3989
#
#
#
# Elastic Compliance Matrix: (Units=1/GPa)
#
#
# Indices 1 2 3 4 5 6 
#
# 1 0.021822 0.000094 0.004426 0.011930 0.026206 -0.012951
# 2 0.000094 0.012754 -0.006395 -0.000223 0.000969 0.001373
# 3 0.004426 -0.006395 0.021327 0.009771 0.020615 -0.004673
# 4 0.011930 -0.000223 0.009771 0.032101 0.023479 -0.003815
# 5 0.026206 0.000969 0.020615 0.023479 0.074027 -0.026354
# 6 -0.012951 0.001373 -0.004673 -0.003815 -0.026354 0.046305
#
#
# Mechanical properties :
#
#
# Convention : Reuss Voigt Hill
#
# Bulk Modulus (GPa) = 19.17417 51.99343 35.58380
# Shear Modulus (GPa) = 21.78929 36.74914 29.26921
#
# Velocity S-wave (km/s) = 3.13440 4.07058 3.63277
# Velocity P-wave (km/s) = 4.66311 6.74802 5.80002
#
# Compressibility (1/GPa) = 0.05215349
#
# Stress axis : x y z
#
# Youngs Moduli (GPa) = 45.82523 78.40836 46.88818
#
# Poissons Ratio (x) = -0.00736 -0.20754
# Poissons Ratio (y) = -0.00430 0.29984
# Poissons Ratio (z) = -0.20283 0.50141
#
# Static dielectric constant tensor:
#      x y z
#    x 1.750310 -0.142610 -0.136980 
#    y -0.142610 1.724680 -0.075430 
#    z -0.136980 -0.075430 1.873340 
# 
# From -- ./inp_files/519029.got.cif
#   From: 2010.05.17/outbox.cif.g08.bks.cpg/sg2_260_cif.got.tgz:519029.got - 2010.06.03 11:33:40.
