data_PCOD9108240
_publ_section_title
;
Structure prediction by ZEFSAII (Michael W. Deem and Ramdas Pophale) SiO2 
 PCOD9108240
Probable space group: P -1
;
_chemical_formula_sum "Si O2"
_cell_formula_units_Z 14
_cell_length_a 10.381785
_cell_length_b 12.579469
_cell_length_c 10.095783
_cell_angle_alpha 146.958284
_cell_angle_beta 128.713840
_cell_angle_gamma 67.471496
_cell_volume 529.177690
_symmetry_space_group_name_H-M "P -1"
_symmetry_group_IT_number 2
_symmetry_cell_setting 'triclinic'
loop_
_space_group_symop_operation_xyz
x,y,z
-x,-y,-z
loop_
_atom_site_type_symbol
_atom_site_label
_atom_site_fract_x
_atom_site_fract_y
_atom_site_fract_z
Si Si1 0.681602 0.944709 0.917019
Si Si2 0.889302 0.200948 0.858491
Si Si3 0.288027 0.938635 0.647569
Si Si4 0.985569 0.260637 0.273957
Si Si5 0.676836 0.465610 0.121187
Si Si6 0.556763 0.455317 0.305315
Si Si7 0.232743 0.500850 0.254431
O O1 0.495006 0.978511 0.812698
O O2 0.829887 0.115599 0.110266
O O3 0.638587 0.704521 0.601363
O O4 0.736575 0.962091 0.125457
O O5 0.748847 0.317880 0.924054
O O6 0.956356 0.159188 0.002741
O O7 0.060109 0.352811 0.055192
O O8 0.796785 0.027406 0.509482
O O9 0.203547 0.692545 0.363487
O O10 0.165854 0.318161 0.532017
O O11 0.000000 0.500000 0.500000
O O12 0.621664 0.366139 0.126926
O O13 0.500000 0.500000 0.000000
O O14 0.349951 0.407240 0.139199
O O15 0.635971 0.406568 0.441290
#
# Coordination Sequence:
#
# PCOD9108240 Si02
#       7
#     2   2   2   2   2   2   2
#     4  10  22  40  63  94 133 174 218 271 330 383
#     4  11  22  40  69 100 128 174 228 263 321 398
#     4  10  21  38  66  94 128 176 224 268 314 390
#     4  10  22  40  67  92 127 174 217 266 325 397
#     4  11  22  39  64  99 129 165 218 272 327 383
#     4  10  22  39  65  98 135 170 214 276 330 375
#     4  10  20  40  67  94 126 176 222 264 314 396
#
# _framework density 26.456140000000001
#
# number of rings (size 3 to 8) (size 9 to 14) (size 15 to 20)
#    0.000    1.714    1.429    3.857    2.000    2.286 
#    0.000    0.714    3.143    0.000    0.000    0.000 
#    0.000    0.000    0.000    0.000    0.000    0.000 
#
# Total GULP energy -78409.094098 kJ/mol
# GULP energy per Si atom -5600.649578 kJ/mol
# Density = 2.639592 g / cm^3
# Si number density = 26.456140 Si / 1000 Ang^3
#
#
#
# Elastic Constant Matrix: (Units=GPa)
#
#
# Indices 1 2 3 4 5 6 
#
# 1 191.4092 30.8600 58.6377 12.2020 5.6907 14.3260
# 2 30.8600 75.9413 41.6388 -2.8392 12.4479 0.5687
# 3 58.6377 41.6388 142.5763 -6.7677 -2.4570 14.1307
# 4 12.2020 -2.8392 -6.7677 38.6988 3.8350 5.8037
# 5 5.6907 12.4479 -2.4570 3.8350 40.1274 -3.7180
# 6 14.3260 0.5687 14.1307 5.8037 -3.7180 42.0240
#
#
#
# Elastic Compliance Matrix: (Units=1/GPa)
#
#
# Indices 1 2 3 4 5 6 
#
# 1 0.006371 -0.001362 -0.002227 -0.002278 -0.000505 -0.001135
# 2 -0.001362 0.017173 -0.004601 0.001254 -0.005431 0.001125
# 3 -0.002227 -0.004601 0.009668 0.002255 0.001881 -0.002574
# 4 -0.002278 0.001254 0.002255 0.027959 -0.002982 -0.004124
# 5 -0.000505 -0.005431 0.001881 -0.002982 0.027303 0.002441
# 6 -0.001135 0.001125 -0.002574 -0.004124 0.002441 0.025819
#
#
# Mechanical properties :
#
#
# Convention : Reuss Voigt Hill
#
# Bulk Modulus (GPa) = 59.40768 74.68888 67.04828
# Shear Modulus (GPa) = 36.68816 42.75605 39.72210
#
# Velocity S-wave (km/s) = 3.72795 4.02445 3.87904
# Velocity P-wave (km/s) = 6.40579 7.06310 6.74246
#
# Compressibility (1/GPa) = 0.01683284
#
# Stress axis : x y z
#
# Youngs Moduli (GPa) = 156.95150 58.23144 103.43498
#
# Poissons Ratio (x) = 0.07931 0.23035
# Poissons Ratio (y) = 0.21377 0.47587
# Poissons Ratio (z) = 0.34953 0.26790
#
# Static dielectric constant tensor:
#      x y z
#    x 2.060810 -0.065190 -0.024000 
#    y -0.065190 2.180760 -0.012620 
#    z -0.024000 -0.012620 2.078800 
# 
# From -- ./inp_files/436240.got.cif
#   From: 2010.05.17/outbox.cif.g08.bks.cpg/sg2_219_cif.got.tgz:436240.got - 2010.06.03 11:33:40.
