data_PCOD9108763
_publ_section_title
;
Structure prediction by ZEFSAII (Michael W. Deem and Ramdas Pophale) SiO2 
 PCOD9108763
Probable space group: P -1
;
_chemical_formula_sum "Si O2"
_cell_formula_units_Z 16
_cell_length_a 20.720709
_cell_length_b 11.292484
_cell_length_c 7.260737
_cell_angle_alpha 96.567239
_cell_angle_beta 96.829886
_cell_angle_gamma 22.966271
_cell_volume 658.146755
_symmetry_space_group_name_H-M "P -1"
_symmetry_group_IT_number 2
_symmetry_cell_setting 'triclinic'
loop_
_space_group_symop_operation_xyz
x,y,z
-x,-y,-z
loop_
_atom_site_type_symbol
_atom_site_label
_atom_site_fract_x
_atom_site_fract_y
_atom_site_fract_z
Si Si1 0.092480 0.748899 0.860408
Si Si2 0.923865 0.617720 0.794202
Si Si3 0.506721 0.316892 0.288860
Si Si4 0.603848 0.643277 0.246074
Si Si5 0.799584 0.310436 0.634756
Si Si6 0.185973 0.351525 0.742131
Si Si7 0.443324 0.688967 0.264083
Si Si8 0.242216 0.345362 0.355805
O O1 0.280888 0.475597 0.867534
O O2 0.103558 0.590947 0.884380
O O3 0.977975 0.953165 0.673247
O O4 0.000000 0.000000 0.000000
O O5 0.880732 0.553061 0.727993
O O6 0.054381 0.468651 0.685373
O O7 0.748250 0.979623 0.790237
O O8 0.000000 0.500000 0.000000
O O9 0.333157 0.540758 0.264906
O O10 0.505248 0.450868 0.230219
O O11 0.545706 0.279139 0.514237
O O12 0.648512 0.993028 0.198534
O O13 0.722954 0.427564 0.425981
O O14 0.551189 0.599072 0.166172
O O15 0.430935 0.998876 0.298271
O O16 0.801736 0.448952 0.690961
O O17 0.237406 0.338113 0.574569
#
# Coordination Sequence:
#
# PCOD9108763 Si02
#       8
#     2   2   2   2   2   2   2   2
#     4  12  28  43  62 100 144 182 222 279 351 416
#     4  11  25  43  65 104 148 182 216 278 354 419
#     4  10  20  40  71 105 128 176 232 286 327 399
#     4  10  20  43  69  99 130 174 230 285 331 403
#     4  11  21  41  68  97 132 175 229 287 338 397
#     4  12  23  44  70  96 137 179 234 284 332 403
#     4   9  20  41  70 103 137 171 230 278 341 398
#     4  11  22  42  74 101 130 176 237 283 339 401
#
# _framework density 24.310687000000001
#
# number of rings (size 3 to 8) (size 9 to 14) (size 15 to 20)
#    0.000    1.250    5.000    2.625    1.750    1.000 
#    4.500    1.875    0.000    0.000    0.000    0.000 
#    0.000    0.000    0.000    0.000    0.000    0.000 
#
# Total GULP energy -89523.131426 kJ/mol
# GULP energy per Si atom -5595.195714 kJ/mol
# Density = 2.425535 g / cm^3
# Si number density = 24.310687 Si / 1000 Ang^3
#
#
#
# Elastic Constant Matrix: (Units=GPa)
#
#
# Indices 1 2 3 4 5 6 
#
# 1 173.9008 99.1885 8.9810 9.8822 9.4953 2.1182
# 2 99.1885 134.5280 6.2072 3.6236 14.5886 -5.3846
# 3 8.9810 6.2072 56.2259 -2.7805 14.4126 2.8276
# 4 9.8822 3.6236 -2.7805 26.8943 2.4757 2.1941
# 5 9.4953 14.5886 14.4126 2.4757 25.0455 2.6843
# 6 2.1182 -5.3846 2.8276 2.1941 2.6843 60.7326
#
#
#
# Elastic Compliance Matrix: (Units=1/GPa)
#
#
# Indices 1 2 3 4 5 6 
#
# 1 0.010273 -0.007658 -0.001338 -0.002964 0.001730 -0.000944
# 2 -0.007658 0.013712 0.001278 0.001531 -0.006146 0.001640
# 3 -0.001338 0.001278 0.021359 0.003744 -0.012855 -0.000401
# 4 -0.002964 0.001531 0.003744 0.039063 -0.005666 -0.001096
# 5 0.001730 -0.006146 -0.012855 -0.005666 0.051030 -0.002057
# 6 -0.000944 0.001640 -0.000401 -0.001096 -0.002057 0.016793
#
#
# Mechanical properties :
#
#
# Convention : Reuss Voigt Hill
#
# Bulk Modulus (GPa) = 33.43679 65.93426 49.68552
# Shear Modulus (GPa) = 28.14767 39.21969 33.68368
#
# Velocity S-wave (km/s) = 3.40638 4.02091 3.72634
# Velocity P-wave (km/s) = 5.40880 6.98121 6.24469
#
# Compressibility (1/GPa) = 0.02990718
#
# Stress axis : x y z
#
# Youngs Moduli (GPa) = 97.34252 72.92993 46.81968
#
# Poissons Ratio (x) = 0.55851 0.06265
# Poissons Ratio (y) = 0.74547 -0.05984
# Poissons Ratio (z) = 0.13025 -0.09322
#
# Static dielectric constant tensor:
#      x y z
#    x 1.929420 -0.013710 -0.045410 
#    y -0.013710 1.844390 0.023510 
#    z -0.045410 0.023510 2.118530 
# 
# From -- ./inp_files/346241.got.cif
#   From: 2010.05.17/outbox.cif.g08.bks.cpg/sg2_174_cif.got.tgz:346241.got - 2010.06.03 11:33:40.
