data_PCOD9108087
_publ_section_title
;
Structure prediction by ZEFSAII (Michael W. Deem and Ramdas Pophale) SiO2 
 PCOD9108087
Probable space group: P -1
;
_chemical_formula_sum "Si O2"
_cell_formula_units_Z 11
_cell_length_a 14.994151
_cell_length_b 8.507902
_cell_length_c 8.631135
_cell_angle_alpha 96.142407
_cell_angle_beta 42.695779
_cell_angle_gamma 63.917965
_cell_volume 474.772710
_symmetry_space_group_name_H-M "P -1"
_symmetry_group_IT_number 2
_symmetry_cell_setting 'triclinic'
loop_
_space_group_symop_operation_xyz
x,y,z
-x,-y,-z
loop_
_atom_site_type_symbol
_atom_site_label
_atom_site_fract_x
_atom_site_fract_y
_atom_site_fract_z
Si Si1 0.187433 0.447193 0.649161
Si Si2 0.201984 0.981863 0.797861
Si Si3 0.149814 0.826112 0.147811
Si Si4 0.500000 0.000000 0.500000
Si Si5 0.141325 0.467164 0.046036
Si Si6 0.573406 0.479248 0.735515
O O1 0.337496 0.426277 0.370936
O O2 0.078813 0.411695 0.684104
O O3 0.274433 0.313947 0.693730
O O4 0.989351 0.734549 0.982399
O O5 0.390785 0.922090 0.590147
O O6 0.268256 0.793584 0.565696
O O7 0.122792 0.961415 0.047778
O O8 0.129438 0.659719 0.118832
O O9 0.380681 0.647455 0.886458
O O10 0.000000 0.000000 0.500000
O O11 0.693868 0.784753 0.096413
O O12 0.500000 0.500000 0.000000
#
# Coordination Sequence:
#
# PCOD9108087 Si02
#       6
#     2   2   2   1   2   2
#     4  10  22  40  68  95 126 167 213 271 320 372
#     4  11  22  42  69  91 133 167 218 261 324 380
#     4  12  25  43  67  96 129 174 215 262 319 388
#     4  10  20  40  66  98 118 182 206 266 312 384
#     4  10  21  41  67  94 130 166 219 258 325 375
#     4  12  24  40  64  97 129 169 216 263 318 381
#
# _framework density 23.168980999999999
#
# number of rings (size 3 to 8) (size 9 to 14) (size 15 to 20)
#    0.000    1.091    3.636    3.273    2.545    0.000 
#    3.273    3.636    0.000    0.000    0.000    0.000 
#    0.000    0.000    0.000    0.000    0.000    0.000 
#
# Total GULP energy -61325.750360 kJ/mol
# GULP energy per Si atom -5575.068215 kJ/mol
# Density = 2.311625 g / cm^3
# Si number density = 23.168981 Si / 1000 Ang^3
#
#
#
# Elastic Constant Matrix: (Units=GPa)
#
#
# Indices 1 2 3 4 5 6 
#
# 1 129.6054 54.0388 55.2953 -19.7521 -35.4188 36.0193
# 2 54.0388 102.2149 40.6079 -17.6027 4.0025 30.2600
# 3 55.2953 40.6079 84.1603 -25.7157 -6.4430 13.0333
# 4 -19.7521 -17.6027 -25.7157 45.4262 1.7950 -13.6760
# 5 -35.4188 4.0025 -6.4430 1.7950 56.9477 -11.0367
# 6 36.0193 30.2600 13.0333 -13.6760 -11.0367 46.3786
#
#
#
# Elastic Compliance Matrix: (Units=1/GPa)
#
#
# Indices 1 2 3 4 5 6 
#
# 1 0.016763 -0.004586 -0.007458 -0.000897 0.008748 -0.006113
# 2 -0.004586 0.016234 -0.004146 -0.000005 -0.005870 -0.007264
# 3 -0.007458 -0.004146 0.020445 0.008241 -0.001352 0.004860
# 4 -0.000897 -0.000005 0.008241 0.028343 0.000826 0.006938
# 5 0.008748 -0.005870 -0.001352 0.000826 0.023882 0.003343
# 6 -0.006113 -0.007264 0.004860 0.006938 0.003343 0.032524
#
#
# Mechanical properties :
#
#
# Convention : Reuss Voigt Hill
#
# Bulk Modulus (GPa) = 47.48170 68.42940 57.95555
# Shear Modulus (GPa) = 28.15425 40.81974 34.48700
#
# Velocity S-wave (km/s) = 3.48971 4.20197 3.86229
# Velocity P-wave (km/s) = 6.06429 7.28979 6.70510
#
# Compressibility (1/GPa) = 0.02106075
#
# Stress axis : x y z
#
# Youngs Moduli (GPa) = 59.65555 61.59722 48.91256
#
# Poissons Ratio (x) = 0.28251 0.36480
# Poissons Ratio (y) = 0.27361 0.20279
# Poissons Ratio (z) = 0.44492 0.25538
#
# Static dielectric constant tensor:
#      x y z
#    x 2.531170 -0.785060 -0.503810 
#    y -0.785060 2.810300 0.626660 
#    z -0.503810 0.626660 2.250260 
# 
# From -- ./inp_files/144362.got.cif
#   From: 2010.05.17/outbox.cif.g08.bks.cpg/sg2_73_cif.got.tgz:144362.got - 2010.06.03 11:33:40.
