data_PCOD9108936
_publ_section_title
;
Structure prediction by ZEFSAII (Michael W. Deem and Ramdas Pophale) SiO2 
 PCOD9108936
Probable space group: P -1
;
_chemical_formula_sum "Si O2"
_cell_formula_units_Z 16
_cell_length_a 18.487167
_cell_length_b 7.936640
_cell_length_c 19.103900
_cell_angle_alpha 52.504391
_cell_angle_beta 158.652629
_cell_angle_gamma 131.053432
_cell_volume 769.409429
_symmetry_space_group_name_H-M "P -1"
_symmetry_group_IT_number 2
_symmetry_cell_setting 'triclinic'
loop_
_space_group_symop_operation_xyz
x,y,z
-x,-y,-z
loop_
_atom_site_type_symbol
_atom_site_label
_atom_site_fract_x
_atom_site_fract_y
_atom_site_fract_z
Si Si1 0.895205 0.067753 0.741589
Si Si2 0.302634 0.482936 0.779654
Si Si3 0.701341 0.928181 0.217885
Si Si4 0.119238 0.182552 0.457201
Si Si5 0.112564 0.776168 0.457318
Si Si6 0.450590 0.728729 0.412603
Si Si7 0.075293 0.559459 0.225809
Si Si8 0.863952 0.288984 0.977264
O O1 0.877476 0.199406 0.622135
O O2 0.985283 0.243516 0.839933
O O3 0.659375 0.909207 0.582713
O O4 0.033418 0.907348 0.889586
O O5 0.288460 0.286584 0.761848
O O6 0.296888 0.700757 0.677339
O O7 0.101166 0.412761 0.666053
O O8 0.500000 0.500000 0.000000
O O9 0.715536 0.861540 0.328194
O O10 0.907655 0.122363 0.328525
O O11 0.500000 0.000000 0.000000
O O12 0.152112 0.416323 0.389467
O O13 0.099429 0.002692 0.423339
O O14 0.500000 0.500000 0.500000
O O15 0.266798 0.676074 0.317142
O O16 0.362231 0.788106 0.243910
O O17 0.896433 0.387966 0.060200
O O18 0.000000 0.500000 0.000000
#
# Coordination Sequence:
#
# PCOD9108936 Si02
#       8
#     2   2   2   2   2   2   2   2
#     4  12  23  42  66  95 128 167 215 262 315 381
#     4  10  21  37  61  89 123 161 208 257 310 370
#     4  10  21  37  60  90 120 164 206 252 312 371
#     4  10  20  41  60  84 128 161 205 259 310 370
#     4  10  21  39  62  86 124 169 200 260 317 361
#     4  11  22  44  66  90 130 166 207 265 320 376
#     4  11  23  42  66  95 125 170 213 261 320 374
#     4  10  22  43  64  89 127 164 209 262 321 369
#
# _framework density 20.795171
#
# number of rings (size 3 to 8) (size 9 to 14) (size 15 to 20)
#    0.000    1.500    3.750    1.875    0.000    6.000 
#    6.750    0.000    0.000    0.000    0.000    0.000 
#    0.000    0.000    0.000    0.000    0.000    0.000 
#
# Total GULP energy -89368.121870 kJ/mol
# GULP energy per Si atom -5585.507617 kJ/mol
# Density = 2.074784 g / cm^3
# Si number density = 20.795171 Si / 1000 Ang^3
#
#
#
# Elastic Constant Matrix: (Units=GPa)
#
#
# Indices 1 2 3 4 5 6 
#
# 1 83.6732 32.1462 16.6613 -6.1411 -21.2206 -15.5446
# 2 32.1462 74.7089 25.4316 -16.0180 -7.9219 -17.1347
# 3 16.6613 25.4316 121.4012 -13.8921 -14.9810 -6.2814
# 4 -6.1411 -16.0180 -13.8921 26.1756 -0.9827 -4.9055
# 5 -21.2206 -7.9219 -14.9810 -0.9827 24.8712 -1.5759
# 6 -15.5446 -17.1347 -6.2814 -4.9055 -1.5759 31.8088
#
#
#
# Elastic Compliance Matrix: (Units=1/GPa)
#
#
# Indices 1 2 3 4 5 6 
#
# 1 0.019659 -0.003717 0.001326 0.005480 0.017211 0.009565
# 2 -0.003717 0.021639 -0.001261 0.014106 0.004278 0.011978
# 3 0.001326 -0.001261 0.010028 0.005730 0.007199 0.003189
# 4 0.005480 0.014106 0.005730 0.055665 0.016137 0.020792
# 5 0.017211 0.004278 0.007199 0.016137 0.062351 0.017715
# 6 0.009565 0.011978 0.003189 0.020792 0.017715 0.047278
#
#
# Mechanical properties :
#
#
# Convention : Reuss Voigt Hill
#
# Bulk Modulus (GPa) = 22.71501 47.58462 35.14981
# Shear Modulus (GPa) = 20.95569 30.27408 25.61489
#
# Velocity S-wave (km/s) = 3.17790 3.81966 3.51347
# Velocity P-wave (km/s) = 4.94089 6.51040 5.77917
#
# Compressibility (1/GPa) = 0.04402376
#
# Stress axis : x y z
#
# Youngs Moduli (GPa) = 50.86657 46.21237 99.71734
#
# Poissons Ratio (x) = 0.17177 -0.13227
# Poissons Ratio (y) = 0.18907 0.12576
# Poissons Ratio (z) = -0.06747 0.05828
#
# Static dielectric constant tensor:
#      x y z
#    x 1.767940 -0.013010 -0.025050 
#    y -0.013010 1.769600 0.032480 
#    z -0.025050 0.032480 1.766400 
# 
# From -- ./inp_files/575529.got.cif
#   From: 2010.05.17/outbox.cif.g08.bks.cpg/sg2_288_cif.got.tgz:575529.got - 2010.06.03 11:33:40.
