data_PCOD9108481
_publ_section_title
;
Structure prediction by ZEFSAII (Michael W. Deem and Ramdas Pophale) SiO2 
 PCOD9108481
Probable space group: P -1
;
_chemical_formula_sum "Si O2"
_cell_formula_units_Z 15
_cell_length_a 8.214728
_cell_length_b 8.497166
_cell_length_c 11.886561
_cell_angle_alpha 115.936413
_cell_angle_beta 79.701378
_cell_angle_gamma 61.409788
_cell_volume 570.570929
_symmetry_space_group_name_H-M "P -1"
_symmetry_group_IT_number 2
_symmetry_cell_setting 'triclinic'
loop_
_space_group_symop_operation_xyz
x,y,z
-x,-y,-z
loop_
_atom_site_type_symbol
_atom_site_label
_atom_site_fract_x
_atom_site_fract_y
_atom_site_fract_z
Si Si1 0.353429 0.758164 0.125904
Si Si2 0.486182 0.707042 0.709268
Si Si3 0.957988 0.829191 0.147666
Si Si4 0.000000 0.000000 0.500000
Si Si5 0.095841 0.504420 0.837967
Si Si6 0.749681 0.843586 0.830447
Si Si7 0.526185 0.297795 0.661084
Si Si8 0.094555 0.629859 0.543441
O O1 0.436148 0.785904 0.239834
O O2 0.123578 0.823367 0.203857
O O3 0.364721 0.893219 0.067284
O O4 0.500000 0.500000 0.000000
O O5 0.598369 0.803580 0.778730
O O6 0.496922 0.527206 0.728191
O O7 0.649923 0.549951 0.538286
O O8 0.246780 0.918785 0.775501
O O9 0.889589 0.689253 0.162069
O O10 0.094146 0.676239 0.973532
O O11 0.753709 0.104601 0.518977
O O12 0.964966 0.212517 0.507141
O O13 0.294073 0.376602 0.688119
O O14 0.862211 0.676181 0.867391
O O15 0.953869 0.777667 0.713093
O O16 0.000000 0.500000 0.500000
#
# Coordination Sequence:
#
# PCOD9108481 Si02
#       8
#     2   2   2   1   2   2   2   2
#     4  12  24  40  67  94 129 171 217 264 323 393
#     4  10  23  41  69  94 129 168 219 271 324 395
#     4  11  25  43  62  97 129 172 224 269 324 390
#     4  10  20  40  68  98 128 172 216 274 322 396
#     4  11  25  42  66  92 134 173 217 271 328 390
#     4  11  23  43  66  96 133 171 216 270 333 388
#     4  11  22  43  66  97 129 173 215 269 331 384
#     4   9  20  40  67  96 130 171 220 267 334 388
#
# _framework density 26.289456000000001
#
# number of rings (size 3 to 8) (size 9 to 14) (size 15 to 20)
#    0.000    1.333    2.667    2.400    5.600    1.600 
#    2.400    2.667    0.000    0.000    0.000    0.000 
#    0.000    0.000    0.000    0.000    0.000    0.000 
#
# Total GULP energy -83637.204290 kJ/mol
# GULP energy per Si atom -5575.813619 kJ/mol
# Density = 2.622962 g / cm^3
# Si number density = 26.289456 Si / 1000 Ang^3
#
#
#
# Elastic Constant Matrix: (Units=GPa)
#
#
# Indices 1 2 3 4 5 6 
#
# 1 111.0004 27.3725 21.7842 18.6960 -30.4954 -6.9756
# 2 27.3725 131.4021 27.0231 33.6156 -18.2482 -1.3280
# 3 21.7842 27.0231 71.6717 21.9721 -32.8792 7.9422
# 4 18.6960 33.6156 21.9721 40.6237 -4.4760 -6.3453
# 5 -30.4954 -18.2482 -32.8792 -4.4760 42.7939 5.0063
# 6 -6.9756 -1.3280 7.9422 -6.3453 5.0063 37.0808
#
#
#
# Elastic Compliance Matrix: (Units=1/GPa)
#
#
# Indices 1 2 3 4 5 6 
#
# 1 0.012337 -0.000165 0.003195 -0.006234 0.010625 -0.000871
# 2 -0.000165 0.010279 0.001186 -0.008896 0.004486 -0.002045
# 3 0.003195 0.001186 0.032245 -0.018962 0.027114 -0.013168
# 4 -0.006234 -0.008896 -0.018962 0.044958 -0.019613 0.012911
# 5 0.010625 0.004486 0.027114 -0.019613 0.053294 -0.014199
# 6 -0.000871 -0.002045 -0.013168 0.012911 -0.014199 0.033678
#
#
# Mechanical properties :
#
#
# Convention : Reuss Voigt Hill
#
# Bulk Modulus (GPa) = 15.79974 51.82598 33.81286
# Shear Modulus (GPa) = 25.06800 39.95931 32.51366
#
# Velocity S-wave (km/s) = 3.09129 3.90291 3.52057
# Velocity P-wave (km/s) = 4.33179 6.32983 5.42361
#
# Compressibility (1/GPa) = 0.06329216
#
# Stress axis : x y z
#
# Youngs Moduli (GPa) = 81.05520 97.28716 31.01278
#
# Poissons Ratio (x) = 0.01608 -0.09907
# Poissons Ratio (y) = 0.01340 -0.03679
# Poissons Ratio (z) = -0.25893 -0.11543
#
# Static dielectric constant tensor:
#      x y z
#    x 1.978690 -0.080960 0.052670 
#    y -0.080960 2.151770 -0.226660 
#    z 0.052670 -0.226660 3.015840 
# 
# From -- ./inp_files/171780.got.cif
#   From: 2010.05.17/outbox.cif.g08.bks.cpg/sg2_86_cif.got.tgz:171780.got - 2010.06.03 11:33:40.
