data_PCOD9108213
_publ_section_title
;
Structure prediction by ZEFSAII (Michael W. Deem and Ramdas Pophale) SiO2 
 PCOD9108213
Probable space group: P -1
;
_chemical_formula_sum "Si O2"
_cell_formula_units_Z 16
_cell_length_a 11.421531
_cell_length_b 22.985070
_cell_length_c 7.996216
_cell_angle_alpha 116.138540
_cell_angle_beta 85.142347
_cell_angle_gamma 150.968654
_cell_volume 662.137542
_symmetry_space_group_name_H-M "P -1"
_symmetry_group_IT_number 2
_symmetry_cell_setting 'triclinic'
loop_
_space_group_symop_operation_xyz
x,y,z
-x,-y,-z
loop_
_atom_site_type_symbol
_atom_site_label
_atom_site_fract_x
_atom_site_fract_y
_atom_site_fract_z
Si Si1 0.222219 0.708757 0.148149
Si Si2 0.065802 0.809941 0.659798
Si Si3 0.791959 0.701077 0.192768
Si Si4 0.288073 0.643871 0.785051
Si Si5 0.326542 0.065929 0.122028
Si Si6 0.935304 0.037297 0.624043
Si Si7 0.700613 0.120070 0.797816
Si Si8 0.048337 0.392147 0.588741
O O1 0.186554 0.747997 0.067588
O O2 0.019564 0.628817 0.232575
O O3 0.603834 0.897302 0.401284
O O4 0.152790 0.607215 0.926309
O O5 0.875430 0.643992 0.503222
O O6 0.960836 0.785027 0.461154
O O7 0.444948 0.981651 0.801038
O O8 0.094385 0.885882 0.871491
O O9 0.765039 0.760737 0.212878
O O10 0.005323 0.778502 0.116210
O O11 0.500000 0.500000 0.000000
O O12 0.593252 0.843060 0.925123
O O13 0.000000 0.500000 0.500000
O O14 0.322179 0.585042 0.738194
O O15 0.692569 0.227995 0.339001
O O16 0.158186 0.012983 0.233906
O O17 0.000000 0.000000 0.500000
O O18 0.500000 0.000000 0.500000
#
# Coordination Sequence:
#
# PCOD9108213 Si02
#       8
#     2   2   2   2   2   2   2   2
#     4  11  18  38  66  90 119 171 214 247 300 383
#     4  11  19  39  67  93 122 162 211 264 306 371
#     4  11  23  41  62  96 130 163 209 259 316 369
#     4  10  21  36  53  93 137 151 195 267 316 356
#     4  10  21  39  62  89 123 162 215 257 308 379
#     4  11  24  44  64  87 122 170 214 249 310 395
#     4  10  16  35  69  89 118 159 216 246 305 360
#     4  10  20  32  59 101 126 155 201 266 316 353
#
# _framework density 24.164164
#
# number of rings (size 3 to 8) (size 9 to 14) (size 15 to 20)
#    0.000    1.500    6.250    1.500    0.000    1.000 
#    6.750    3.125    0.000    0.000    0.000    0.000 
#    0.000    0.000    0.000    0.000    0.000    0.000 
#
# Total GULP energy -89418.321097 kJ/mol
# GULP energy per Si atom -5588.645069 kJ/mol
# Density = 2.410917 g / cm^3
# Si number density = 24.164164 Si / 1000 Ang^3
#
#
#
# Elastic Constant Matrix: (Units=GPa)
#
#
# Indices 1 2 3 4 5 6 
#
# 1 101.9034 43.6835 38.9467 9.7483 -41.7271 -26.4909
# 2 43.6835 86.1646 50.7702 -4.8943 -22.1413 -25.9241
# 3 38.9467 50.7702 105.2847 -11.2802 -37.1335 -1.7396
# 4 9.7483 -4.8943 -11.2802 33.2631 -7.8033 -12.0936
# 5 -41.7271 -22.1413 -37.1335 -7.8033 56.9356 9.9295
# 6 -26.4909 -25.9241 -1.7396 -12.0936 9.9295 39.4772
#
#
#
# Elastic Compliance Matrix: (Units=1/GPa)
#
#
# Indices 1 2 3 4 5 6 
#
# 1 0.017584 -0.003878 -0.001547 -0.001822 0.009012 0.006361
# 2 -0.003878 0.023659 -0.009622 0.006379 -0.001637 0.014876
# 3 -0.001547 -0.009622 0.018239 0.004637 0.008943 -0.007382
# 4 -0.001822 0.006379 0.004637 0.039724 0.007257 0.013515
# 5 0.009012 -0.001637 0.008943 0.007257 0.030367 -0.000049
# 6 0.006361 0.014876 -0.007382 0.013515 -0.000049 0.043195
#
#
# Mechanical properties :
#
#
# Convention : Reuss Voigt Hill
#
# Bulk Modulus (GPa) = 34.02649 62.23926 48.13287
# Shear Modulus (GPa) = 23.51178 36.59869 30.05524
#
# Velocity S-wave (km/s) = 3.12268 3.89599 3.53057
# Velocity P-wave (km/s) = 5.20706 6.78609 6.04833
#
# Compressibility (1/GPa) = 0.02938887
#
# Stress axis : x y z
#
# Youngs Moduli (GPa) = 56.86838 42.26775 54.82657
#
# Poissons Ratio (x) = 0.16390 0.08480
# Poissons Ratio (y) = 0.22052 0.52757
# Poissons Ratio (z) = 0.08795 0.40672
#
# Static dielectric constant tensor:
#      x y z
#    x 2.038720 -0.038080 0.026220 
#    y -0.038080 1.924980 0.044400 
#    z 0.026220 0.044400 2.008800 
# 
# From -- ./inp_files/284927.got.cif
#   From: 2010.05.17/outbox.cif.g08.bks.cpg/sg2_143_cif.got.tgz:284927.got - 2010.06.03 11:33:40.
