data_PCOD9108856
_publ_section_title
;
Structure prediction by ZEFSAII (Michael W. Deem and Ramdas Pophale) SiO2 
 PCOD9108856
Probable space group: P -1
;
_chemical_formula_sum "Si O2"
_cell_formula_units_Z 16
_cell_length_a 8.636913
_cell_length_b 17.263068
_cell_length_c 11.474121
_cell_angle_alpha 46.441499
_cell_angle_beta 40.199288
_cell_angle_gamma 40.653340
_cell_volume 694.504805
_symmetry_space_group_name_H-M "P -1"
_symmetry_group_IT_number 2
_symmetry_cell_setting 'triclinic'
loop_
_space_group_symop_operation_xyz
x,y,z
-x,-y,-z
loop_
_atom_site_type_symbol
_atom_site_label
_atom_site_fract_x
_atom_site_fract_y
_atom_site_fract_z
Si Si1 0.202771 0.528709 0.600622
Si Si2 0.806678 0.315496 0.936594
Si Si3 0.812868 0.738523 0.454317
Si Si4 0.974043 0.952062 0.883634
Si Si5 0.515931 0.352366 0.404012
Si Si6 0.771163 0.489506 0.981787
Si Si7 0.418791 0.980721 0.743950
Si Si8 0.034692 0.900756 0.485035
O O1 0.500000 0.500000 0.500000
O O2 0.269128 0.446696 0.530525
O O3 0.999266 0.667267 0.531135
O O4 0.051625 0.493481 0.823202
O O5 0.937143 0.186024 0.062907
O O6 0.803704 0.418249 0.915046
O O7 0.489457 0.373519 0.019729
O O8 0.986689 0.291210 0.742058
O O9 0.610360 0.686177 0.591109
O O10 0.649059 0.885668 0.405368
O O11 0.239166 0.937790 0.816928
O O12 0.911699 0.047806 0.718208
O O13 0.716413 0.997768 0.072138
O O14 0.686840 0.417017 0.195964
O O15 0.713701 0.230156 0.488395
O O16 0.747170 0.899792 0.642694
O O17 0.000000 0.000000 0.500000
#
# Coordination Sequence:
#
# PCOD9108856 Si02
#       8
#     2   2   2   2   2   2   2   2
#     4  12  28  44  68 102 135 177 217 285 341 394
#     4  10  20  40  73  99 126 177 230 277 320 404
#     4  11  21  46  72  94 138 173 234 270 337 406
#     4  10  24  44  69  99 136 181 228 280 342 394
#     4  12  25  45  67 102 135 178 225 277 331 407
#     4  11  23  41  69  98 131 176 225 269 336 396
#     4  10  24  45  68 101 133 187 224 282 338 401
#     4  12  25  42  67 101 140 178 229 277 334 402
#
# _framework density 23.037998000000002
#
# number of rings (size 3 to 8) (size 9 to 14) (size 15 to 20)
#    0.000    1.000    3.750    3.000    3.500    3.000 
#    4.500    0.000    0.000    0.000    0.000    0.000 
#    0.000    0.000    0.000    0.000    0.000    0.000 
#
# Total GULP energy -89608.564584 kJ/mol
# GULP energy per Si atom -5600.535286 kJ/mol
# Density = 2.298556 g / cm^3
# Si number density = 23.037998 Si / 1000 Ang^3
#
#
#
# Elastic Constant Matrix: (Units=GPa)
#
#
# Indices 1 2 3 4 5 6 
#
# 1 58.5483 4.3307 21.5868 -3.6804 -10.7780 -24.1826
# 2 4.3307 68.6107 23.8381 -3.4303 5.8101 -17.4729
# 3 21.5868 23.8381 154.7974 7.7051 -3.8503 -25.1577
# 4 -3.6804 -3.4303 7.7051 27.4372 -5.9169 8.3321
# 5 -10.7780 5.8101 -3.8503 -5.9169 33.3315 0.0658
# 6 -24.1826 -17.4729 -25.1577 8.3321 0.0658 34.4191
#
#
#
# Elastic Compliance Matrix: (Units=1/GPa)
#
#
# Indices 1 2 3 4 5 6 
#
# 1 0.026765 0.002922 -0.000772 -0.000094 0.008001 0.019731
# 2 0.002922 0.017655 -0.001529 -0.000541 -0.002425 0.010034
# 3 -0.000772 -0.001529 0.007900 -0.004130 0.000186 0.005455
# 4 -0.000094 -0.000541 -0.004130 0.043309 0.007302 -0.013858
# 5 0.008001 -0.002425 0.000186 0.007302 0.034324 0.002692
# 6 0.019731 0.010034 0.005455 -0.013858 0.002692 0.055347
#
#
# Mechanical properties :
#
#
# Convention : Reuss Voigt Hill
#
# Bulk Modulus (GPa) = 18.67009 42.38527 30.52768
# Shear Modulus (GPa) = 24.76310 34.51761 29.64036
#
# Velocity S-wave (km/s) = 3.28209 3.87498 3.59079
# Velocity P-wave (km/s) = 4.74178 6.20149 5.52010
#
# Compressibility (1/GPa) = 0.05356161
#
# Stress axis : x y z
#
# Youngs Moduli (GPa) = 37.36213 56.64003 126.58392
#
# Poissons Ratio (x) = -0.16547 0.09771
# Poissons Ratio (y) = -0.10915 0.19354
# Poissons Ratio (z) = 0.02884 0.08660
#
# Static dielectric constant tensor:
#      x y z
#    x 1.880580 0.035370 -0.003610 
#    y 0.035370 1.825670 0.010340 
#    z -0.003610 0.010340 1.860070 
# 
# From -- ./inp_files/278743.got.cif
#   From: 2010.05.17/outbox.cif.g08.bks.cpg/sg2_140_cif.got.tgz:278743.got - 2010.06.03 11:33:40.
