data_PCOD9108521
_publ_section_title
;
Structure prediction by ZEFSAII (Michael W. Deem and Ramdas Pophale) SiO2 
 PCOD9108521
Probable space group: P -1
;
_chemical_formula_sum "Si O2"
_cell_formula_units_Z 12
_cell_length_a 8.348586
_cell_length_b 9.441193
_cell_length_c 11.780526
_cell_angle_alpha 89.506214
_cell_angle_beta 139.343697
_cell_angle_gamma 68.382382
_cell_volume 494.717163
_symmetry_space_group_name_H-M "P -1"
_symmetry_group_IT_number 2
_symmetry_cell_setting 'triclinic'
loop_
_space_group_symop_operation_xyz
x,y,z
-x,-y,-z
loop_
_atom_site_type_symbol
_atom_site_label
_atom_site_fract_x
_atom_site_fract_y
_atom_site_fract_z
Si Si1 0.073413 0.478945 0.386806
Si Si2 0.676762 0.512817 0.988645
Si Si3 0.499521 0.682161 0.208342
Si Si4 0.750678 0.303191 0.594324
Si Si5 0.355394 0.858652 0.664735
Si Si6 0.198616 0.039751 0.025659
O O1 0.803758 0.516582 0.321033
O O2 0.386756 0.316106 0.604895
O O3 0.072678 0.648663 0.394155
O O4 0.980168 0.468008 0.210082
O O5 0.731717 0.369739 0.927583
O O6 0.494142 0.697629 0.828438
O O7 0.500000 0.500000 0.000000
O O8 0.403320 0.847837 0.082433
O O9 0.500000 0.500000 0.500000
O O10 0.635652 0.212807 0.456007
O O11 0.979078 0.181876 0.815802
O O12 0.570944 0.924820 0.794727
O O13 0.000000 0.000000 0.500000
O O14 0.000000 0.000000 0.000000
#
# Coordination Sequence:
#
# PCOD9108521 Si02
#       6
#     2   2   2   2   2   2
#     4  10  20  40  69 101 137 191 239 297 358 434
#     4  10  22  40  70 106 138 185 233 301 362 428
#     4  10  22  40  69 103 143 184 245 301 362 429
#     4  12  27  47  72 104 150 201 243 299 375 442
#     4  12  28  48  78 114 145 188 255 311 360 436
#     4  12  29  47  70 108 152 196 247 305 370 439
#
# _framework density 24.256284999999998
#
# number of rings (size 3 to 8) (size 9 to 14) (size 15 to 20)
#    0.000    1.000    3.333    2.000    9.333    4.000 
#    0.000    0.000    0.000    0.000    0.000    0.000 
#    0.000    0.000    0.000    0.000    0.000    0.000 
#
# Total GULP energy -66930.012833 kJ/mol
# GULP energy per Si atom -5577.501069 kJ/mol
# Density = 2.420108 g / cm^3
# Si number density = 24.256285 Si / 1000 Ang^3
#
#
#
# Elastic Constant Matrix: (Units=GPa)
#
#
# Indices 1 2 3 4 5 6 
#
# 1 82.2035 27.9398 38.5108 -5.0157 7.2913 15.0521
# 2 27.9398 152.0570 108.0633 13.0519 0.0122 21.8609
# 3 38.5108 108.0633 233.6536 11.4814 -9.9191 6.0293
# 4 -5.0157 13.0519 11.4814 56.5900 8.2669 1.4672
# 5 7.2913 0.0122 -9.9191 8.2669 38.9348 -5.3896
# 6 15.0521 21.8609 6.0293 1.4672 -5.3896 44.6657
#
#
#
# Elastic Compliance Matrix: (Units=1/GPa)
#
#
# Indices 1 2 3 4 5 6 
#
# 1 0.015014 -0.000527 -0.002435 0.002771 -0.004731 -0.005135
# 2 -0.000527 0.010877 -0.004828 -0.001235 -0.001514 -0.004636
# 3 -0.002435 -0.004828 0.007016 -0.001005 0.002820 0.002610
# 4 0.002771 -0.001235 -0.001005 0.019179 -0.005045 -0.001433
# 5 -0.004731 -0.001514 0.002820 -0.005045 0.029140 0.005637
# 6 -0.005135 -0.004636 0.002610 -0.001433 0.005637 0.026763
#
#
# Mechanical properties :
#
#
# Convention : Reuss Voigt Hill
#
# Bulk Modulus (GPa) = 57.71594 90.77134 74.24364
# Shear Modulus (GPa) = 38.65647 47.59812 43.12730
#
# Velocity S-wave (km/s) = 3.99641 4.43459 4.22119
# Velocity P-wave (km/s) = 6.71870 7.98272 7.37783
#
# Compressibility (1/GPa) = 0.01732624
#
# Stress axis : x y z
#
# Youngs Moduli (GPa) = 66.60511 91.93862 142.53825
#
# Poissons Ratio (x) = 0.04849 0.34710
# Poissons Ratio (y) = 0.03513 0.68811
# Poissons Ratio (z) = 0.16219 0.44384
#
# Static dielectric constant tensor:
#      x y z
#    x 2.168760 -0.167840 0.078660 
#    y -0.167840 2.112730 0.055300 
#    z 0.078660 0.055300 2.154620 
# 
# From -- ./inp_files/382464.got.cif
#   From: 2010.05.17/outbox.cif.g08.bks.cpg/sg2_192_cif.got.tgz:382464.got - 2010.06.03 11:33:40.
