data_PCOD9108647
_publ_section_title
;
Structure prediction by ZEFSAII (Michael W. Deem and Ramdas Pophale) SiO2 
 PCOD9108647
Probable space group: P -1
;
_chemical_formula_sum "Si O2"
_cell_formula_units_Z 16
_cell_length_a 11.555037
_cell_length_b 9.704498
_cell_length_c 9.263291
_cell_angle_alpha 97.813901
_cell_angle_beta 134.214840
_cell_angle_gamma 91.817422
_cell_volume 725.784850
_symmetry_space_group_name_H-M "P -1"
_symmetry_group_IT_number 2
_symmetry_cell_setting 'triclinic'
loop_
_space_group_symop_operation_xyz
x,y,z
-x,-y,-z
loop_
_atom_site_type_symbol
_atom_site_label
_atom_site_fract_x
_atom_site_fract_y
_atom_site_fract_z
Si Si1 0.412438 0.991686 0.769430
Si Si2 0.998927 0.585129 0.314463
Si Si3 0.884104 0.671186 0.917806
Si Si4 0.147331 0.722846 0.899824
Si Si5 0.591398 0.806498 0.702619
Si Si6 0.525137 0.747352 0.310261
Si Si7 0.075186 0.861035 0.570096
Si Si8 0.338285 0.524857 0.526839
O O1 0.528473 0.931201 0.748360
O O2 0.240478 0.887803 0.621986
O O3 0.387616 0.146076 0.719384
O O4 0.500000 0.000000 0.000000
O O5 0.965845 0.716618 0.397302
O O6 0.188274 0.567978 0.490037
O O7 0.895350 0.431723 0.233595
O O8 0.962436 0.615915 0.119342
O O9 0.778227 0.788716 0.889692
O O10 0.750562 0.549940 0.705685
O O11 0.020771 0.722197 0.922447
O O12 0.121158 0.835615 0.771962
O O13 0.331938 0.737202 0.117200
O O14 0.572972 0.816975 0.516850
O O15 0.471783 0.661485 0.625984
O O16 0.580586 0.595570 0.342233
O O17 0.000000 0.000000 0.500000
#
# Coordination Sequence:
#
# PCOD9108647 Si02
#       8
#     2   2   2   2   2   2   2   2
#     4  12  27  49  64  93 139 181 227 264 326 397
#     4  11  22  44  70 101 133 171 222 275 331 395
#     4  10  22  38  72 104 132 164 216 286 332 385
#     4  11  23  45  68 103 134 169 221 277 335 390
#     4  11  22  43  72 101 129 175 224 275 329 389
#     4  11  23  43  71 100 132 173 220 280 329 389
#     4  12  29  47  67  93 139 184 216 271 328 402
#     4  10  20  40  70 103 131 164 221 282 332 381
#
# _framework density 22.045100000000001
#
# number of rings (size 3 to 8) (size 9 to 14) (size 15 to 20)
#    0.000    1.000    2.500    6.000    7.000    0.000 
#    0.000    2.500    0.000    0.000    0.000    0.000 
#    0.000    0.000    0.000    0.000    0.000    0.000 
#
# Total GULP energy -89533.957924 kJ/mol
# GULP energy per Si atom -5595.872370 kJ/mol
# Density = 2.199492 g / cm^3
# Si number density = 22.045100 Si / 1000 Ang^3
#
#
#
# Elastic Constant Matrix: (Units=GPa)
#
#
# Indices 1 2 3 4 5 6 
#
# 1 62.2970 29.5901 27.8783 -14.2185 9.8577 -5.3859
# 2 29.5901 97.2524 49.2393 -34.6995 -2.2687 -5.2602
# 3 27.8783 49.2393 87.3098 -40.7592 5.0682 0.6844
# 4 -14.2185 -34.6995 -40.7592 38.5002 5.2707 0.0449
# 5 9.8577 -2.2687 5.0682 5.2707 29.0196 -4.3007
# 6 -5.3859 -5.2602 0.6844 0.0449 -4.3007 41.7314
#
#
#
# Elastic Compliance Matrix: (Units=1/GPa)
#
#
# Indices 1 2 3 4 5 6 
#
# 1 0.021132 -0.004377 -0.003239 0.001384 -0.006983 0.001508
# 2 -0.004377 0.017119 -0.004129 0.009143 0.002163 0.001874
# 3 -0.003239 -0.004129 0.026906 0.024770 -0.008763 -0.002309
# 4 0.001384 0.009143 0.024770 0.063093 -0.015653 -0.000756
# 5 -0.006983 0.002163 -0.008763 -0.015653 0.041945 0.003855
# 6 0.001508 0.001874 -0.002309 -0.000756 0.003855 0.024829
#
#
# Mechanical properties :
#
#
# Convention : Reuss Voigt Hill
#
# Bulk Modulus (GPa) = 23.99981 51.14163 37.57072
# Shear Modulus (GPa) = 21.51429 31.19368 26.35398
#
# Velocity S-wave (km/s) = 3.12736 3.76572 3.46129
# Velocity P-wave (km/s) = 4.89396 6.49281 5.74923
#
# Compressibility (1/GPa) = 0.04166700
#
# Stress axis : x y z
#
# Youngs Moduli (GPa) = 47.32167 58.41583 37.16577
#
# Poissons Ratio (x) = 0.25569 0.12039
# Poissons Ratio (y) = 0.20713 0.15344
# Poissons Ratio (z) = 0.15329 0.24118
#
# Static dielectric constant tensor:
#      x y z
#    x 1.822320 0.001710 -0.016000 
#    y 0.001710 1.892070 -0.103920 
#    z -0.016000 -0.103920 1.981570 
# 
# From -- ./inp_files/205979.got.cif
#   From: 2010.05.17/outbox.cif.g08.bks.cpg/sg2_103_cif.got.tgz:205979.got - 2010.06.03 11:33:40.
