data_PCOD9108643
_publ_section_title
;
Structure prediction by ZEFSAII (Michael W. Deem and Ramdas Pophale) SiO2 
 PCOD9108643
Probable space group: P -1
;
_chemical_formula_sum "Si O2"
_cell_formula_units_Z 13
_cell_length_a 12.124792
_cell_length_b 8.166531
_cell_length_c 7.869080
_cell_angle_alpha 56.042410
_cell_angle_beta 90.876194
_cell_angle_gamma 128.110184
_cell_volume 438.969797
_symmetry_space_group_name_H-M "P -1"
_symmetry_group_IT_number 2
_symmetry_cell_setting 'triclinic'
loop_
_space_group_symop_operation_xyz
x,y,z
-x,-y,-z
loop_
_atom_site_type_symbol
_atom_site_label
_atom_site_fract_x
_atom_site_fract_y
_atom_site_fract_z
Si Si1 0.900971 0.599463 0.757812
Si Si2 0.500000 0.500000 0.000000
Si Si3 0.715497 0.003953 0.212301
Si Si4 0.880151 0.160764 0.671494
Si Si5 0.620527 0.485035 0.655577
Si Si6 0.331321 0.864337 0.510771
Si Si7 0.186311 0.319751 0.948115
O O1 0.751948 0.506886 0.712981
O O2 0.909870 0.696635 0.891840
O O3 0.055307 0.844524 0.502060
O O4 0.849129 0.300387 0.938836
O O5 0.451637 0.483314 0.209226
O O6 0.357233 0.474660 0.947260
O O7 0.699834 0.748602 0.376360
O O8 0.534984 0.827224 0.248105
O O9 0.736813 0.119130 0.333517
O O10 0.697629 0.011079 0.712570
O O11 0.000000 0.500000 0.500000
O O12 0.886002 0.992238 0.902757
O O13 0.500000 0.000000 0.500000
O O14 0.224681 0.526634 0.682074
#
# Coordination Sequence:
#
# PCOD9108643 Si02
#       7
#     2   1   2   2   2   2   2
#     4  10  23  42  64  95 135 180 226 276 343 409
#     4  10  20  40  70 102 136 174 224 284 344 396
#     4  10  22  39  67 101 130 180 230 279 332 415
#     4  12  28  43  65 103 138 180 228 285 347 411
#     4  10  21  39  67 101 139 177 223 285 342 401
#     4  11  24  44  70  98 132 180 235 281 341 410
#     4  10  22  42  69  93 136 183 219 282 342 408
#
# _framework density 29.614792999999999
#
# number of rings (size 3 to 8) (size 9 to 14) (size 15 to 20)
#    0.000    1.538    0.000    4.615    4.308    4.308 
#    0.000    0.000    0.000    0.000    0.000    0.000 
#    0.000    0.000    0.000    0.000    0.000    0.000 
#
# Total GULP energy -72733.815546 kJ/mol
# GULP energy per Si atom -5594.908888 kJ/mol
# Density = 2.954739 g / cm^3
# Si number density = 29.614793 Si / 1000 Ang^3
#
#
#
# Elastic Constant Matrix: (Units=GPa)
#
#
# Indices 1 2 3 4 5 6 
#
# 1 125.6588 26.0757 50.0343 -0.9285 15.7406 9.2975
# 2 26.0757 90.0099 13.0581 -20.0383 7.3495 -3.7376
# 3 50.0343 13.0581 191.6363 -16.6505 28.6504 -21.0623
# 4 -0.9285 -20.0383 -16.6505 49.3852 -11.6470 -0.8597
# 5 15.7406 7.3495 28.6504 -11.6470 62.4704 -3.5338
# 6 9.2975 -3.7376 -21.0623 -0.8597 -3.5338 55.6210
#
#
#
# Elastic Compliance Matrix: (Units=1/GPa)
#
#
# Indices 1 2 3 4 5 6 
#
# 1 0.010086 -0.003058 -0.002738 -0.002392 -0.001545 -0.003063
# 2 -0.003058 0.013212 0.000553 0.005541 0.000092 0.001700
# 3 -0.002738 0.000553 0.006677 0.002029 -0.001893 0.002935
# 4 -0.002392 0.005541 0.002029 0.024028 0.003621 0.002142
# 5 -0.001545 0.000092 -0.001893 0.003621 0.017972 0.000745
# 6 -0.003063 0.001700 0.002935 0.002142 0.000745 0.019797
#
#
# Mechanical properties :
#
#
# Convention : Reuss Voigt Hill
#
# Bulk Modulus (GPa) = 51.31505 65.07122 58.19314
# Shear Modulus (GPa) = 45.97499 54.70446 50.33972
#
# Velocity S-wave (km/s) = 3.94437 4.30257 4.12736
# Velocity P-wave (km/s) = 6.17326 6.83396 6.51200
#
# Compressibility (1/GPa) = 0.01948746
#
# Stress axis : x y z
#
# Youngs Moduli (GPa) = 99.15191 75.68714 149.75958
#
# Poissons Ratio (x) = 0.23146 0.41011
# Poissons Ratio (y) = 0.30322 -0.08277
# Poissons Ratio (z) = 0.27152 -0.04183
#
# Static dielectric constant tensor:
#      x y z
#    x 2.271460 0.009760 -0.084710 
#    y 0.009760 2.134330 -0.076200 
#    z -0.084710 -0.076200 2.372940 
# 
# From -- ./inp_files/236744.got.cif
#   From: 2010.05.17/outbox.cif.g08.bks.cpg/sg2_119_cif.got.tgz:236744.got - 2010.06.03 11:33:40.
