data_PCOD9108677
_publ_section_title
;
Structure prediction by ZEFSAII (Michael W. Deem and Ramdas Pophale) SiO2 
 PCOD9108677
Probable space group: P -1
;
_chemical_formula_sum "Si O2"
_cell_formula_units_Z 14
_cell_length_a 10.000589
_cell_length_b 9.447299
_cell_length_c 13.726208
_cell_angle_alpha 127.400067
_cell_angle_beta 50.877078
_cell_angle_gamma 135.835549
_cell_volume 671.612725
_symmetry_space_group_name_H-M "P -1"
_symmetry_group_IT_number 2
_symmetry_cell_setting 'triclinic'
loop_
_space_group_symop_operation_xyz
x,y,z
-x,-y,-z
loop_
_atom_site_type_symbol
_atom_site_label
_atom_site_fract_x
_atom_site_fract_y
_atom_site_fract_z
Si Si1 0.145530 0.746024 0.079578
Si Si2 0.206786 0.500165 0.102918
Si Si3 0.923110 0.861442 0.378700
Si Si4 0.452622 0.297732 0.832874
Si Si5 0.463643 0.182499 0.564519
Si Si6 0.343157 0.575439 0.599431
Si Si7 0.266997 0.870091 0.863138
O O1 0.249078 0.697620 0.100288
O O2 0.049395 0.867260 0.227219
O O3 0.267873 0.878255 0.983219
O O4 0.000000 0.500000 0.000000
O O5 0.309481 0.579272 0.193873
O O6 0.970297 0.307518 0.130756
O O7 0.341415 0.418321 0.960238
O O8 0.737227 0.880823 0.432956
O O9 0.856632 0.629251 0.352085
O O10 0.000000 0.000000 0.500000
O O11 0.437293 0.267321 0.712879
O O12 0.340547 0.081952 0.857818
O O13 0.652817 0.353581 0.482573
O O14 0.500000 0.000000 0.500000
O O15 0.500000 0.500000 0.500000
O O16 0.395520 0.771474 0.725611
#
# Coordination Sequence:
#
# PCOD9108677 Si02
#       7
#     2   2   2   2   2   2   2
#     4  10  20  40  70  90 124 174 221 267 327 389
#     4  10  23  40  65  93 128 166 220 278 321 393
#     4  11  24  43  66  97 130 168 228 277 320 404
#     4  11  24  42  61  96 134 165 218 276 330 392
#     4  11  23  41  64  89 131 177 207 267 342 386
#     4  10  22  40  63  92 128 174 216 264 330 395
#     4  11  21  42  68  91 128 175 215 272 331 392
#
# _framework density 20.845347
#
# number of rings (size 3 to 8) (size 9 to 14) (size 15 to 20)
#    0.000    1.429    4.286    2.143    4.000    0.571 
#    7.714    1.429    0.000    0.000    0.000    0.000 
#    0.000    0.000    0.000    0.000    0.000    0.000 
#
# Total GULP energy -78009.408146 kJ/mol
# GULP energy per Si atom -5572.100582 kJ/mol
# Density = 2.079790 g / cm^3
# Si number density = 20.845347 Si / 1000 Ang^3
#
#
#
# Elastic Constant Matrix: (Units=GPa)
#
#
# Indices 1 2 3 4 5 6 
#
# 1 110.3988 14.4892 38.7228 6.8032 9.0268 -6.3355
# 2 14.4892 46.4016 15.9931 -14.7270 0.9188 -22.9262
# 3 38.7228 15.9931 128.2902 -10.4425 10.5509 -9.0226
# 4 6.8032 -14.7270 -10.4425 32.2705 -8.6271 6.1319
# 5 9.0268 0.9188 10.5509 -8.6271 40.8468 5.8241
# 6 -6.3355 -22.9262 -9.0226 6.1319 5.8241 32.9096
#
#
#
# Elastic Compliance Matrix: (Units=1/GPa)
#
#
# Indices 1 2 3 4 5 6 
#
# 1 0.011353 -0.004405 -0.003149 -0.006179 -0.002890 -0.000084
# 2 -0.004405 0.039434 -0.000752 0.014122 -0.000131 0.023809
# 3 -0.003149 -0.000752 0.009245 0.002768 -0.001249 0.001110
# 4 -0.006179 0.014122 0.002768 0.042115 0.009239 -0.000075
# 5 -0.002890 -0.000131 -0.001249 0.009239 0.028503 -0.007756
# 6 -0.000084 0.023809 0.001110 -0.000075 -0.007756 0.048648
#
#
# Mechanical properties :
#
#
# Convention : Reuss Voigt Hill
#
# Bulk Modulus (GPa) = 23.03026 47.05566 35.04296
# Shear Modulus (GPa) = 23.76628 35.59775 29.68202
#
# Velocity S-wave (km/s) = 3.38024 4.13692 3.77757
# Velocity P-wave (km/s) = 5.12901 6.74104 5.98951
#
# Compressibility (1/GPa) = 0.04342114
#
# Stress axis : x y z
#
# Youngs Moduli (GPa) = 88.08321 25.35887 108.16621
#
# Poissons Ratio (x) = 0.11171 0.34059
# Poissons Ratio (y) = 0.38801 0.08129
# Poissons Ratio (z) = 0.27736 0.01906
#
# Static dielectric constant tensor:
#      x y z
#    x 1.763160 0.051210 0.016650 
#    y 0.051210 1.765230 0.113460 
#    z 0.016650 0.113460 1.440120 
# 
# From -- ./inp_files/157671.got.cif
#   From: 2010.05.17/outbox.cif.g08.bks.cpg/sg2_79_cif.got.tgz:157671.got - 2010.06.03 11:33:40.
