data_PCOD9108792
_publ_section_title
;
Structure prediction by ZEFSAII (Michael W. Deem and Ramdas Pophale) SiO2 
 PCOD9108792
Probable space group: P -1
;
_chemical_formula_sum "Si O2"
_cell_formula_units_Z 10
_cell_length_a 6.438943
_cell_length_b 8.962288
_cell_length_c 9.199699
_cell_angle_alpha 104.463050
_cell_angle_beta 85.325971
_cell_angle_gamma 121.473712
_cell_volume 437.669016
_symmetry_space_group_name_H-M "P -1"
_symmetry_group_IT_number 2
_symmetry_cell_setting 'triclinic'
loop_
_space_group_symop_operation_xyz
x,y,z
-x,-y,-z
loop_
_atom_site_type_symbol
_atom_site_label
_atom_site_fract_x
_atom_site_fract_y
_atom_site_fract_z
Si Si1 0.259056 0.955764 0.090157
Si Si2 0.844376 0.727615 0.867565
Si Si3 0.397852 0.503827 0.667376
Si Si4 0.900520 0.124901 0.598889
Si Si5 0.828872 0.300850 0.392805
O O1 0.251938 0.944527 0.261684
O O2 0.215638 0.115942 0.088661
O O3 0.022169 0.766540 0.002274
O O4 0.500000 0.000000 0.000000
O O5 0.591721 0.546982 0.795178
O O6 0.013577 0.752500 0.726916
O O7 0.500000 0.500000 0.500000
O O8 0.149168 0.316767 0.660662
O O9 0.347319 0.666949 0.690958
O O10 0.750678 0.167042 0.499670
O O11 0.000000 0.000000 0.500000
O O12 0.000000 0.500000 0.500000
#
# Coordination Sequence:
#
# PCOD9108792 Si02
#       5
#     2   2   2   2   2
#     4  11  25  46  67 101 145 183 223 293 346 408
#     4  11  22  44  69  96 144 183 225 283 356 401
#     4  11  21  41  71 101 140 176 228 293 337 406
#     4  11  22  44  73 104 134 184 239 277 343 415
#     4  10  20  40  71  99 136 178 228 282 339 407
#
# _framework density 22.848313000000001
#
# number of rings (size 3 to 8) (size 9 to 14) (size 15 to 20)
#    0.000    1.200    6.000    1.200    0.000    0.800 
#    7.200   12.000    0.000    0.000    0.000    0.000 
#    0.000    0.000    0.000    0.000    0.000    0.000 
#
# Total GULP energy -55820.373338 kJ/mol
# GULP energy per Si atom -5582.037334 kJ/mol
# Density = 2.279631 g / cm^3
# Si number density = 22.848313 Si / 1000 Ang^3
#
#
#
# Elastic Constant Matrix: (Units=GPa)
#
#
# Indices 1 2 3 4 5 6 
#
# 1 117.9520 45.9581 53.2413 5.3086 -10.9070 2.0263
# 2 45.9581 97.3763 38.3949 -3.2203 -6.0329 12.0377
# 3 53.2413 38.3949 119.7115 -2.0488 -16.5299 -1.8688
# 4 5.3086 -3.2203 -2.0488 34.1906 7.8051 4.3661
# 5 -10.9070 -6.0329 -16.5299 7.8051 58.2450 12.5917
# 6 2.0263 12.0377 -1.8688 4.3661 12.5917 39.0915
#
#
#
# Elastic Compliance Matrix: (Units=1/GPa)
#
#
# Indices 1 2 3 4 5 6 
#
# 1 0.012121 -0.004265 -0.003928 -0.002807 0.000983 0.000494
# 2 -0.004265 0.013971 -0.002530 0.002277 0.000633 -0.004660
# 3 -0.003928 -0.002530 0.011200 0.000494 0.001933 0.000840
# 4 -0.002807 0.002277 0.000494 0.031135 -0.003713 -0.002813
# 5 0.000983 0.000633 0.001933 -0.003713 0.019786 -0.006112
# 6 0.000494 -0.004660 0.000840 -0.002813 -0.006112 0.029313
#
#
# Mechanical properties :
#
#
# Convention : Reuss Voigt Hill
#
# Bulk Modulus (GPa) = 63.10701 67.80315 65.45508
# Shear Modulus (GPa) = 34.66088 39.46845 37.06467
#
# Velocity S-wave (km/s) = 3.89909 4.16072 4.03203
# Velocity P-wave (km/s) = 6.92463 7.26787 7.09833
#
# Compressibility (1/GPa) = 0.01584610
#
# Stress axis : x y z
#
# Youngs Moduli (GPa) = 82.49822 71.57811 89.28373
#
# Poissons Ratio (x) = 0.30530 0.35067
# Poissons Ratio (y) = 0.35188 0.22591
# Poissons Ratio (z) = 0.32402 0.18111
#
# Static dielectric constant tensor:
#      x y z
#    x 1.930370 0.045660 0.098290 
#    y 0.045660 1.828610 0.031260 
#    z 0.098290 0.031260 1.874210 
# 
# From -- ./inp_files/75209.got.cif
#   From: 2010.05.17/outbox.cif.g08.bks.cpg/sg2_38_cif.got.tgz:75209.got - 2010.06.03 11:33:40.
