data_PCOD9108559
_publ_section_title
;
Structure prediction by ZEFSAII (Michael W. Deem and Ramdas Pophale) SiO2 
 PCOD9108559
Probable space group: P -1
;
_chemical_formula_sum "Si O2"
_cell_formula_units_Z 14
_cell_length_a 9.540676
_cell_length_b 9.338714
_cell_length_c 13.765385
_cell_angle_alpha 40.482441
_cell_angle_beta 72.811150
_cell_angle_gamma 50.711981
_cell_volume 572.437630
_symmetry_space_group_name_H-M "P -1"
_symmetry_group_IT_number 2
_symmetry_cell_setting 'triclinic'
loop_
_space_group_symop_operation_xyz
x,y,z
-x,-y,-z
loop_
_atom_site_type_symbol
_atom_site_label
_atom_site_fract_x
_atom_site_fract_y
_atom_site_fract_z
Si Si1 0.421375 0.654847 0.268372
Si Si2 0.469375 0.139627 0.587866
Si Si3 0.823851 0.650679 0.032830
Si Si4 0.866747 0.342586 0.372411
Si Si5 0.605903 0.625552 0.940501
Si Si6 0.192615 0.673875 0.139213
Si Si7 0.194372 0.218666 0.457339
O O1 0.383826 0.471872 0.436611
O O2 0.641354 0.503746 0.328664
O O3 0.368456 0.623457 0.185607
O O4 0.289702 0.004296 0.123449
O O5 0.338676 0.085826 0.586513
O O6 0.506155 0.965122 0.767716
O O7 0.663208 0.980971 0.561019
O O8 0.888505 0.510321 0.198818
O O9 0.698150 0.570411 0.055467
O O10 0.000000 0.500000 0.000000
O O11 0.986549 0.307955 0.459508
O O12 0.000000 0.000000 0.500000
O O13 0.760924 0.465060 0.904424
O O14 0.500000 0.500000 0.000000
O O15 0.144740 0.521167 0.297300
O O16 0.000000 0.000000 0.000000
#
# Coordination Sequence:
#
# PCOD9108559 Si02
#       7
#     2   2   2   2   2   2   2
#     4  11  23  43  74 100 136 177 241 280 332 415
#     4   9  19  39  63  96 125 185 218 279 329 405
#     4  12  27  45  67 103 142 180 220 290 357 398
#     4  12  24  40  68 104 136 179 231 282 332 409
#     4  11  24  40  65  95 141 171 221 281 352 394
#     4  10  20  40  69  92 126 180 232 269 327 409
#     4   9  18  34  63  91 129 164 230 268 325 385
#
# _framework density 24.456810999999998
#
# number of rings (size 3 to 8) (size 9 to 14) (size 15 to 20)
#    0.000    1.429    1.429    5.571    2.000    1.714 
#    0.000    0.000    0.000    3.429    0.000    0.000 
#    0.000    0.000    0.000    0.000    0.000    0.000 
#
# Total GULP energy -78053.561413 kJ/mol
# GULP energy per Si atom -5575.254387 kJ/mol
# Density = 2.440115 g / cm^3
# Si number density = 24.456811 Si / 1000 Ang^3
#
#
#
# Elastic Constant Matrix: (Units=GPa)
#
#
# Indices 1 2 3 4 5 6 
#
# 1 168.2648 31.5195 19.9839 -8.3195 8.4150 5.7777
# 2 31.5195 36.9970 33.4209 -20.4041 0.9210 13.7888
# 3 19.9839 33.4209 106.7461 -36.6040 -2.4866 -6.5446
# 4 -8.3195 -20.4041 -36.6040 42.8453 6.7550 2.8821
# 5 8.4150 0.9210 -2.4866 6.7550 41.6142 -0.7339
# 6 5.7777 13.7888 -6.5446 2.8821 -0.7339 32.9280
#
#
#
# Elastic Compliance Matrix: (Units=1/GPa)
#
#
# Indices 1 2 3 4 5 6 
#
# 1 0.007465 -0.009778 0.001004 -0.002440 -0.000781 0.003181
# 2 -0.009778 0.076876 -0.016334 0.023999 -0.005230 -0.035940
# 3 0.001004 -0.016334 0.017039 0.006282 0.000324 0.009508
# 4 -0.002440 0.023999 0.006282 0.041523 -0.006617 -0.012155
# 5 -0.000781 -0.005230 0.000324 -0.006617 0.025460 0.003538
# 6 0.003181 -0.035940 0.009508 -0.012155 0.003538 0.047894
#
#
# Mechanical properties :
#
#
# Convention : Reuss Voigt Hill
#
# Bulk Modulus (GPa) = 19.54562 53.53962 36.54262
# Shear Modulus (GPa) = 17.63503 38.61640 28.12572
#
# Velocity S-wave (km/s) = 2.68818 3.97793 3.39487
# Velocity P-wave (km/s) = 4.20052 6.56030 5.50826
#
# Compressibility (1/GPa) = 0.05116236
#
# Stress axis : x y z
#
# Youngs Moduli (GPa) = 133.96497 13.00799 58.68976
#
# Poissons Ratio (x) = 0.12720 -0.05893
# Poissons Ratio (y) = 1.30996 0.95865
# Poissons Ratio (z) = -0.13451 0.21247
#
# Static dielectric constant tensor:
#      x y z
#    x 2.305610 -0.042260 0.021210 
#    y -0.042260 2.074730 -0.028030 
#    z 0.021210 -0.028030 1.992390 
# 
# From -- ./inp_files/242785.got.cif
#   From: 2010.05.17/outbox.cif.g08.bks.cpg/sg2_122_cif.got.tgz:242785.got - 2010.06.03 11:33:40.
