data_PCOD9108112
_publ_section_title
;
Structure prediction by ZEFSAII (Michael W. Deem and Ramdas Pophale) SiO2 
 PCOD9108112
Probable space group: P -1
;
_chemical_formula_sum "Si O2"
_cell_formula_units_Z 12
_cell_length_a 5.600885
_cell_length_b 12.286155
_cell_length_c 11.199511
_cell_angle_alpha 36.382707
_cell_angle_beta 69.605993
_cell_angle_gamma 73.767562
_cell_volume 428.490963
_symmetry_space_group_name_H-M "P -1"
_symmetry_group_IT_number 2
_symmetry_cell_setting 'triclinic'
loop_
_space_group_symop_operation_xyz
x,y,z
-x,-y,-z
loop_
_atom_site_type_symbol
_atom_site_label
_atom_site_fract_x
_atom_site_fract_y
_atom_site_fract_z
Si Si1 0.179482 0.153747 0.176579
Si Si2 0.546822 0.182043 0.493092
Si Si3 0.737887 0.629888 0.812021
Si Si4 0.043739 0.540929 0.600753
Si Si5 0.497363 0.577778 0.254611
Si Si6 0.055864 0.055960 0.806109
O O1 0.107284 0.300402 0.161217
O O2 0.232268 0.962627 0.403108
O O3 0.004968 0.101418 0.141172
O O4 0.432269 0.247063 0.991762
O O5 0.400075 0.195077 0.381650
O O6 0.586977 0.393124 0.333905
O O7 0.344622 0.116019 0.685442
O O8 0.908626 0.543418 0.754530
O O9 0.500000 0.500000 0.000000
O O10 0.804382 0.452922 0.647295
O O11 0.910051 0.243059 0.625960
O O12 0.299573 0.421915 0.672922
O O13 0.000000 0.000000 0.000000
#
# Coordination Sequence:
#
# PCOD9108112 Si02
#       6
#     2   2   2   2   2   2
#     4  12  22  40  70  97 126 186 217 268 346 401
#     4  10  23  43  63  99 138 166 223 280 331 403
#     4  10  20  40  66  99 136 175 215 275 334 408
#     4  10  22  45  64  99 143 171 219 286 329 395
#     4  10  22  42  67  96 141 174 220 275 329 405
#     4  10  24  44  67  95 132 176 229 282 330 392
#
# _framework density 28.005257
#
# number of rings (size 3 to 8) (size 9 to 14) (size 15 to 20)
#    0.000    2.000    5.000    0.500    2.333    4.000 
#    6.000    4.167    0.000    0.000    0.000    0.000 
#    0.000    0.000    0.000    0.000    0.000    0.000 
#
# Total GULP energy -67204.739079 kJ/mol
# GULP energy per Si atom -5600.394923 kJ/mol
# Density = 2.794152 g / cm^3
# Si number density = 28.005257 Si / 1000 Ang^3
#
#
#
# Elastic Constant Matrix: (Units=GPa)
#
#
# Indices 1 2 3 4 5 6 
#
# 1 132.2515 23.7917 39.9270 1.4299 -4.7752 7.7181
# 2 23.7917 131.9260 28.6599 -11.4252 10.3881 36.7948
# 3 39.9270 28.6599 184.1859 7.9239 -2.7455 -5.0610
# 4 1.4299 -11.4252 7.9239 45.9326 2.8730 7.1170
# 5 -4.7752 10.3881 -2.7455 2.8730 48.0828 -1.9194
# 6 7.7181 36.7948 -5.0610 7.1170 -1.9194 47.8456
#
#
#
# Elastic Compliance Matrix: (Units=1/GPa)
#
#
# Indices 1 2 3 4 5 6 
#
# 1 0.008318 -0.001063 -0.001632 -0.000204 0.000950 -0.000629
# 2 -0.001063 0.011730 -0.002139 0.005081 -0.003463 -0.009970
# 3 -0.001632 -0.002139 0.006299 -0.002077 0.000900 0.002920
# 4 -0.000204 0.005081 -0.002077 0.024815 -0.003035 -0.007907
# 5 0.000950 -0.003463 0.000900 -0.003035 0.022030 0.003941
# 6 -0.000629 -0.009970 0.002920 -0.007907 0.003941 0.030313
#
#
# Mechanical properties :
#
#
# Convention : Reuss Voigt Hill
#
# Bulk Modulus (GPa) = 59.95362 70.34673 65.15018
# Shear Modulus (GPa) = 42.11160 52.10451 47.10806
#
# Velocity S-wave (km/s) = 3.88197 4.31806 4.10581
# Velocity P-wave (km/s) = 6.44572 7.07351 6.76690
#
# Compressibility (1/GPa) = 0.01667956
#
# Stress axis : x y z
#
# Youngs Moduli (GPa) = 120.21420 85.25266 158.75620
#
# Poissons Ratio (x) = 0.09058 0.25914
# Poissons Ratio (y) = 0.12773 0.33959
# Poissons Ratio (z) = 0.19622 0.18236
#
# Static dielectric constant tensor:
#      x y z
#    x 2.354810 0.086820 0.086800 
#    y 0.086820 2.225870 0.065480 
#    z 0.086800 0.065480 2.175690 
# 
# From -- ./inp_files/363576.got.cif
#   From: 2010.05.17/outbox.cif.g08.bks.cpg/sg2_182_cif.got.tgz:363576.got - 2010.06.03 11:33:40.
