data_PCOD9108791
_publ_section_title
;
Structure prediction by ZEFSAII (Michael W. Deem and Ramdas Pophale) SiO2 
 PCOD9108791
Probable space group: P -1
;
_chemical_formula_sum "Si O2"
_cell_formula_units_Z 14
_cell_length_a 8.848318
_cell_length_b 8.550587
_cell_length_c 22.584504
_cell_angle_alpha 136.520184
_cell_angle_beta 136.557625
_cell_angle_gamma 32.783194
_cell_volume 604.973952
_symmetry_space_group_name_H-M "P -1"
_symmetry_group_IT_number 2
_symmetry_cell_setting 'triclinic'
loop_
_space_group_symop_operation_xyz
x,y,z
-x,-y,-z
loop_
_atom_site_type_symbol
_atom_site_label
_atom_site_fract_x
_atom_site_fract_y
_atom_site_fract_z
Si Si1 0.745281 0.064801 0.488133
Si Si2 0.077308 0.420316 0.429981
Si Si3 0.888242 0.885974 0.314703
Si Si4 0.705067 0.821397 0.748600
Si Si5 0.805733 0.145449 0.237563
Si Si6 0.714005 0.226455 0.942061
Si Si7 0.259834 0.722547 0.168543
O O1 0.389799 0.306303 0.463279
O O2 0.862089 0.108504 0.593336
O O3 0.000000 0.000000 0.500000
O O4 0.827128 0.745771 0.419060
O O5 0.000000 0.500000 0.500000
O O6 0.017179 0.204812 0.335710
O O7 0.034014 0.536059 0.266762
O O8 0.594864 0.101834 0.330839
O O9 0.768696 0.034169 0.257036
O O10 0.641571 0.021023 0.842937
O O11 0.755595 0.990416 0.763651
O O12 0.527298 0.445083 0.207228
O O13 0.965612 0.871695 0.161133
O O14 0.733647 0.347650 0.918202
O O15 0.500000 0.500000 0.000000
O O16 0.000000 0.000000 0.000000
#
# Coordination Sequence:
#
# PCOD9108791 Si02
#       7
#     2   2   2   2   2   2   2
#     4  12  28  42  65  95 132 177 238 294 336 393
#     4  12  26  46  65  93 132 186 239 275 350 392
#     4  12  24  42  64  93 137 173 218 278 347 385
#     4  10  24  40  67  97 125 168 218 266 334 398
#     4  12  24  41  67  92 137 175 225 280 325 408
#     4  10  20  40  71  99 127 162 215 268 324 402
#     4  10  24  40  67 102 120 174 218 274 322 400
#
# _framework density 23.141492
#
# number of rings (size 3 to 8) (size 9 to 14) (size 15 to 20)
#    0.857    0.000    1.429    6.000    8.000    0.000 
#    0.000    0.000    0.000   17.143    0.000    0.000 
#    0.000    0.000    0.000    0.000    0.000    0.000 
#
# Total GULP energy -77974.187189 kJ/mol
# GULP energy per Si atom -5569.584799 kJ/mol
# Density = 2.308882 g / cm^3
# Si number density = 23.141492 Si / 1000 Ang^3
#
#
#
# Elastic Constant Matrix: (Units=GPa)
#
#
# Indices 1 2 3 4 5 6 
#
# 1 80.5523 59.5277 14.5279 4.4921 -29.3668 -6.8088
# 2 59.5277 136.3407 28.4946 -17.8888 -17.9155 2.7319
# 3 14.5279 28.4946 56.1046 -2.9072 -13.0695 -1.9989
# 4 4.4921 -17.8888 -2.9072 30.5445 -7.5477 -11.2212
# 5 -29.3668 -17.9155 -13.0695 -7.5477 33.1085 -6.6524
# 6 -6.8088 2.7319 -1.9989 -11.2212 -6.6524 30.9731
#
#
#
# Elastic Compliance Matrix: (Units=1/GPa)
#
#
# Indices 1 2 3 4 5 6 
#
# 1 0.029943 -0.010764 0.004140 0.000924 0.025306 0.013569
# 2 -0.010764 0.013745 -0.004343 0.008156 -0.002243 -0.001386
# 3 0.004140 -0.004343 0.022420 0.004764 0.012704 0.007194
# 4 0.000924 0.008156 0.004764 0.052544 0.023907 0.023962
# 5 0.025306 -0.002243 0.012704 0.023907 0.067893 0.029824
# 6 0.013569 -0.001386 0.007194 0.023962 0.029824 0.050942
#
#
# Mechanical properties :
#
#
# Convention : Reuss Voigt Hill
#
# Bulk Modulus (GPa) = 22.63789 53.12201 37.87995
# Shear Modulus (GPa) = 18.23841 30.28839 24.26340
#
# Velocity S-wave (km/s) = 2.81040 3.62171 3.24154
# Velocity P-wave (km/s) = 4.50941 6.36350 5.51493
#
# Compressibility (1/GPa) = 0.04417374
#
# Stress axis : x y z
#
# Youngs Moduli (GPa) = 33.39624 72.75329 44.60286
#
# Poissons Ratio (x) = 0.78313 -0.18464
# Poissons Ratio (y) = 0.35948 0.19371
# Poissons Ratio (z) = -0.13825 0.31596
#
# Static dielectric constant tensor:
#      x y z
#    x 1.916700 -0.037360 0.070720 
#    y -0.037360 1.765020 0.081540 
#    z 0.070720 0.081540 1.762040 
# 
# From -- ./inp_files/215258.got.cif
#   From: 2010.05.17/outbox.cif.g08.bks.cpg/sg2_108_cif.got.tgz:215258.got - 2010.06.03 11:33:40.
