data_PCOD9108604
_publ_section_title
;
Structure prediction by ZEFSAII (Michael W. Deem and Ramdas Pophale) SiO2 
 PCOD9108604
Probable space group: P -1
;
_chemical_formula_sum "Si O2"
_cell_formula_units_Z 10
_cell_length_a 11.834572
_cell_length_b 13.798225
_cell_length_c 4.981487
_cell_angle_alpha 100.457683
_cell_angle_beta 115.118344
_cell_angle_gamma 31.682450
_cell_volume 358.145290
_symmetry_space_group_name_H-M "P -1"
_symmetry_group_IT_number 2
_symmetry_cell_setting 'triclinic'
loop_
_space_group_symop_operation_xyz
x,y,z
-x,-y,-z
loop_
_atom_site_type_symbol
_atom_site_label
_atom_site_fract_x
_atom_site_fract_y
_atom_site_fract_z
Si Si1 0.815123 0.616169 0.619297
Si Si2 0.609363 0.009515 0.308038
Si Si3 0.809857 0.278746 0.858424
Si Si4 0.789592 0.095303 0.536608
Si Si5 0.179163 0.602255 0.600662
O O1 0.577518 0.847801 0.557915
O O2 0.713449 0.575843 0.460226
O O3 0.000000 0.500000 0.500000
O O4 0.000000 0.500000 0.000000
O O5 0.630362 0.110885 0.271446
O O6 0.897177 0.780250 0.528844
O O7 0.500000 0.000000 0.000000
O O8 0.688478 0.430906 0.040729
O O9 0.661855 0.282210 0.619450
O O10 0.866623 0.301719 0.662412
O O11 0.054550 0.064462 0.145877
O O12 0.000000 0.000000 0.500000
#
# Coordination Sequence:
#
# PCOD9108604 Si02
#       5
#     2   2   2   2   2
#     4  12  27  46  67 103 145 184 234 290 346 422
#     4  11  24  45  74 103 138 191 230 286 361 409
#     4  10  20  40  69  98 137 183 217 295 341 404
#     4  10  20  40  71 105 135 180 239 280 342 426
#     4  11  23  43  71  98 142 176 237 283 348 409
#
# _framework density 27.921631000000001
#
# number of rings (size 3 to 8) (size 9 to 14) (size 15 to 20)
#    0.000    1.200    6.000    1.200    0.000    4.000 
#    0.000    2.000    0.000    0.000    0.000    0.000 
#    0.000    0.000    0.000    0.000    0.000    0.000 
#
# Total GULP energy -55996.172534 kJ/mol
# GULP energy per Si atom -5599.617253 kJ/mol
# Density = 2.785808 g / cm^3
# Si number density = 27.921631 Si / 1000 Ang^3
#
#
#
# Elastic Constant Matrix: (Units=GPa)
#
#
# Indices 1 2 3 4 5 6 
#
# 1 202.5505 63.4202 95.0590 38.6285 15.1469 -1.6258
# 2 63.4202 152.6328 65.7266 35.1876 9.3893 10.1744
# 3 95.0590 65.7266 196.4239 42.8063 4.2585 11.8126
# 4 38.6285 35.1876 42.8063 66.6906 18.7837 18.7101
# 5 15.1469 9.3893 4.2585 18.7837 79.6594 18.0136
# 6 -1.6258 10.1744 11.8126 18.7101 18.0136 68.8740
#
#
#
# Elastic Compliance Matrix: (Units=1/GPa)
#
#
# Indices 1 2 3 4 5 6 
#
# 1 0.007038 -0.001429 -0.002605 -0.001822 -0.000956 0.001569
# 2 -0.001429 0.008419 -0.001554 -0.002534 0.000035 -0.000332
# 3 -0.002605 -0.001554 0.007446 -0.002550 0.001037 -0.000688
# 4 -0.001822 -0.002534 -0.002550 0.021095 -0.003264 -0.004108
# 5 -0.000956 0.000035 0.001037 -0.003264 0.014127 -0.003014
# 6 0.001569 -0.000332 -0.000688 -0.004108 -0.003014 0.016628
#
#
# Mechanical properties :
#
#
# Convention : Reuss Voigt Hill
#
# Bulk Modulus (GPa) = 85.26655 111.11320 98.18988
# Shear Modulus (GPa) = 55.65619 64.87157 60.26388
#
# Velocity S-wave (km/s) = 4.46948 4.82534 4.65081
# Velocity P-wave (km/s) = 7.56566 8.42177 8.00517
#
# Compressibility (1/GPa) = 0.01172793
#
# Stress axis : x y z
#
# Youngs Moduli (GPa) = 142.07967 118.78438 134.29604
#
# Poissons Ratio (x) = 0.16969 0.34980
# Poissons Ratio (y) = 0.20297 0.20874
# Poissons Ratio (z) = 0.37008 0.18463
#
# Static dielectric constant tensor:
#      x y z
#    x 2.307740 -0.033290 0.064750 
#    y -0.033290 2.232250 0.032870 
#    z 0.064750 0.032870 2.157150 
# 
# From -- ./inp_files/78440.got.cif
#   From: 2010.05.17/outbox.cif.g08.bks.cpg/sg2_40_cif.got.tgz:78440.got - 2010.06.03 11:33:40.
