data_PCOD9108442
_publ_section_title
;
Structure prediction by ZEFSAII (Michael W. Deem and Ramdas Pophale) SiO2 
 PCOD9108442
Probable space group: P -1
;
_chemical_formula_sum "Si O2"
_cell_formula_units_Z 16
_cell_length_a 16.751974
_cell_length_b 17.503514
_cell_length_c 10.143822
_cell_angle_alpha 128.401065
_cell_angle_beta 141.788495
_cell_angle_gamma 25.818319
_cell_volume 759.219058
_symmetry_space_group_name_H-M "P -1"
_symmetry_group_IT_number 2
_symmetry_cell_setting 'triclinic'
loop_
_space_group_symop_operation_xyz
x,y,z
-x,-y,-z
loop_
_atom_site_type_symbol
_atom_site_label
_atom_site_fract_x
_atom_site_fract_y
_atom_site_fract_z
Si Si1 0.884632 0.563899 0.723531
Si Si2 0.075458 0.809955 0.591286
Si Si3 0.946887 0.844616 0.180040
Si Si4 0.016419 0.674289 0.572075
Si Si5 0.395423 0.552900 0.068754
Si Si6 0.536923 0.972439 0.674292
Si Si7 0.792093 0.168050 0.682148
Si Si8 0.263251 0.448658 0.213176
O O1 0.686536 0.777503 0.691702
O O2 0.825867 0.535373 0.743875
O O3 0.883708 0.494887 0.522355
O O4 0.150783 0.442720 0.959174
O O5 0.926906 0.902022 0.361493
O O6 0.363133 0.638774 0.747053
O O7 0.048152 0.726698 0.545114
O O8 0.971989 0.961229 0.712698
O O9 0.063769 0.847845 0.237913
O O10 0.133755 0.634096 0.213207
O O11 0.699298 0.957393 0.922785
O O12 0.731000 0.854740 0.425794
O O13 0.173996 0.619312 0.836632
O O14 0.300140 0.713393 0.182733
O O15 0.500000 0.500000 0.000000
O O16 0.500000 0.000000 0.500000
O O17 0.550159 0.282864 0.419085
#
# Coordination Sequence:
#
# PCOD9108442 Si02
#       8
#     2   2   2   2   2   2   2   2
#     4  10  22  42  66  96 129 169 215 273 314 392
#     4  11  24  41  66 103 126 170 229 269 325 391
#     4  11  23  43  65  97 141 167 218 280 319 393
#     4  11  23  42  69  91 132 176 216 267 328 386
#     4  10  23  41  63  93 132 172 220 269 317 393
#     4  11  26  44  64  98 134 172 218 265 329 396
#     4  12  23  40  66  96 135 175 214 275 337 374
#     4  10  20  40  68  96 130 167 217 266 331 381
#
# _framework density 21.074285
#
# number of rings (size 3 to 8) (size 9 to 14) (size 15 to 20)
#    0.000    1.250    2.500    3.000    1.750    5.000 
#    0.000    0.000    0.000    0.000    0.000    0.000 
#    0.000    0.000    0.000    0.000    0.000    0.000 
#
# Total GULP energy -89427.798528 kJ/mol
# GULP energy per Si atom -5589.237408 kJ/mol
# Density = 2.102632 g / cm^3
# Si number density = 21.074285 Si / 1000 Ang^3
#
#
#
# Elastic Constant Matrix: (Units=GPa)
#
#
# Indices 1 2 3 4 5 6 
#
# 1 -7.6764 -42.8443 20.2816 -30.6432 30.1285 -34.0629
# 2 -42.8443 56.1240 43.4061 -9.0400 30.1769 -43.1414
# 3 20.2816 43.4061 150.1899 -11.0147 22.7967 -19.1926
# 4 -30.6432 -9.0400 -11.0147 18.5128 -0.2374 -14.0740
# 5 30.1285 30.1769 22.7967 -0.2374 34.8698 9.4156
# 6 -34.0629 -43.1414 -19.1926 -14.0740 9.4156 6.5864
#
#
#
# Elastic Compliance Matrix: (Units=1/GPa)
#
#
# Indices 1 2 3 4 5 6 
#
# 1 0.009386 -0.007285 -0.002245 -0.002580 0.004362 -0.017467
# 2 -0.007285 0.010466 -0.003300 -0.011312 0.000171 -0.003159
# 3 -0.002245 -0.003300 0.009149 0.003644 -0.002425 0.004682
# 4 -0.002580 -0.011312 0.003644 0.040169 0.012175 -0.008389
# 5 0.004362 0.000171 -0.002425 0.012175 0.024297 0.007896
# 6 -0.017467 -0.003159 0.004682 -0.008389 0.007896 0.025229
#
#
# Mechanical properties :
#
#
# Convention : Reuss Voigt Hill
#
# Bulk Modulus (GPa) = 299.48978 26.70271 163.09625
# Shear Modulus (GPa) = 34.37105 23.84672 29.10888
#
# Velocity S-wave (km/s) = 4.04288 3.36751 3.72055
# Velocity P-wave (km/s) = 12.81457 5.27432 9.79876
#
# Compressibility (1/GPa) = 0.00333901
#
# Stress axis : x y z
#
# Youngs Moduli (GPa) = 106.53625 95.54932 109.30425
#
# Poissons Ratio (x) = 0.69612 0.24543
# Poissons Ratio (y) = 0.77617 0.36072
# Poissons Ratio (z) = 0.23921 0.31533
#
# Static dielectric constant tensor:
#      x y z
#    x 1.746870 -0.016190 -0.009650 
#    y -0.016190 1.804180 -0.001260 
#    z -0.009650 -0.001260 1.795750 
# 
# From -- ./inp_files/472753.got.cif
#   From: 2010.05.17/outbox.cif.g08.bks.cpg/sg2_237_cif.got.tgz:472753.got - 2010.06.03 11:33:40.
