data_PCOD9108048
_publ_section_title
;
Structure prediction by ZEFSAII (Michael W. Deem and Ramdas Pophale) SiO2 
 PCOD9108048
Probable space group: P -1
;
_chemical_formula_sum "Si O2"
_cell_formula_units_Z 16
_cell_length_a 20.292335
_cell_length_b 8.243923
_cell_length_c 10.891280
_cell_angle_alpha 88.735552
_cell_angle_beta 121.374989
_cell_angle_gamma 140.835841
_cell_volume 694.064291
_symmetry_space_group_name_H-M "P -1"
_symmetry_group_IT_number 2
_symmetry_cell_setting 'triclinic'
loop_
_space_group_symop_operation_xyz
x,y,z
-x,-y,-z
loop_
_atom_site_type_symbol
_atom_site_label
_atom_site_fract_x
_atom_site_fract_y
_atom_site_fract_z
Si Si1 0.369365 0.680542 0.774925
Si Si2 0.890252 0.857616 0.274872
Si Si3 0.031961 0.526493 0.171091
Si Si4 0.463506 0.343401 0.097452
Si Si5 0.307755 0.619445 0.266990
Si Si6 0.846407 0.448600 0.097166
Si Si7 0.791994 0.437692 0.581974
Si Si8 0.313884 0.327344 0.097961
O O1 0.175946 0.295761 0.649701
O O2 0.417232 0.590681 0.778524
O O3 0.363064 0.788738 0.649381
O O4 0.500000 0.000000 0.000000
O O5 0.892849 0.688059 0.218857
O O6 0.724699 0.642958 0.062169
O O7 0.048128 0.251524 0.362313
O O8 0.015438 0.665352 0.221557
O O9 0.196612 0.724451 0.355739
O O10 0.000000 0.500000 0.000000
O O11 0.856751 0.099894 0.038866
O O12 0.461814 0.476299 0.201246
O O13 0.500000 0.500000 0.000000
O O14 0.277522 0.903464 0.938844
O O15 0.190800 0.420307 0.280467
O O16 0.312762 0.456450 0.204435
O O17 0.500000 0.000000 0.500000
O O18 0.249451 0.651216 0.113608
#
# Coordination Sequence:
#
# PCOD9108048 Si02
#       8
#     2   2   2   2   2   2   2   2
#     4  12  24  44  70  93 133 183 224 275 335 397
#     4  10  21  41  67  95 132 173 229 271 328 401
#     4  10  20  40  66  95 136 168 215 275 333 395
#     4  11  21  39  66  97 129 175 225 273 334 397
#     4  11  23  41  66  98 139 175 224 274 337 413
#     4  10  21  39  65  96 131 178 217 272 338 398
#     4  11  25  41  67 100 132 176 228 276 333 404
#     4   9  22  38  66  98 129 174 218 274 334 390
#
# _framework density 23.052619
#
# number of rings (size 3 to 8) (size 9 to 14) (size 15 to 20)
#    0.000    1.500    3.750    1.125    3.500    1.500 
#    0.000    8.750    2.750    0.000    0.000    0.000 
#    0.000    0.000    0.000    0.000    0.000    0.000 
#
# Total GULP energy -89184.882824 kJ/mol
# GULP energy per Si atom -5574.055177 kJ/mol
# Density = 2.300015 g / cm^3
# Si number density = 23.052619 Si / 1000 Ang^3
#
#
#
# Elastic Constant Matrix: (Units=GPa)
#
#
# Indices 1 2 3 4 5 6 
#
# 1 150.3527 8.1944 45.5671 -33.0432 36.0833 -10.5724
# 2 8.1944 70.9222 38.1240 -27.5309 3.9739 2.6877
# 3 45.5671 38.1240 83.6318 -40.3057 -0.0959 -5.1404
# 4 -33.0432 -27.5309 -40.3057 36.2259 -6.4901 1.8282
# 5 36.0833 3.9739 -0.0959 -6.4901 28.9271 -3.9589
# 6 -10.5724 2.6877 -5.1404 1.8282 -3.9589 38.2687
#
#
#
# Elastic Compliance Matrix: (Units=1/GPa)
#
#
# Indices 1 2 3 4 5 6 
#
# 1 0.013847 0.005422 -0.007307 0.005602 -0.016721 0.000466
# 2 0.005422 0.022983 -0.007251 0.013155 -0.007332 -0.002477
# 3 -0.007307 -0.007251 0.032237 0.026502 0.016611 0.003273
# 4 0.005602 0.013155 0.026502 0.073557 0.008001 0.001497
# 5 -0.016721 -0.007332 0.016611 0.008001 0.058808 0.003828
# 6 0.000466 -0.002477 0.003273 0.001497 0.003828 0.027198
#
#
# Mechanical properties :
#
#
# Convention : Reuss Voigt Hill
#
# Bulk Modulus (GPa) = 19.68772 54.29751 36.99261
# Shear Modulus (GPa) = 18.95141 34.88576 26.91859
#
# Velocity S-wave (km/s) = 2.87033 3.89435 3.42087
# Velocity P-wave (km/s) = 4.42085 6.62013 5.62895
#
# Compressibility (1/GPa) = 0.05079308
#
# Stress axis : x y z
#
# Youngs Moduli (GPa) = 72.21998 43.51065 31.02064
#
# Poissons Ratio (x) = -0.23590 0.22665
# Poissons Ratio (y) = -0.39154 0.22495
# Poissons Ratio (z) = 0.52768 0.31552
#
# Static dielectric constant tensor:
#      x y z
#    x 1.804020 0.121600 0.050770 
#    y 0.121600 1.960520 0.007030 
#    z 0.050770 0.007030 2.011350 
# 
# From -- ./inp_files/469987.got.cif
#   From: 2010.05.17/outbox.cif.g08.bks.cpg/sg2_235_cif.got.tgz:469987.got - 2010.06.03 11:33:40.
