data_PCOD9108086
_publ_section_title
;
Structure prediction by ZEFSAII (Michael W. Deem and Ramdas Pophale) SiO2 
 PCOD9108086
Probable space group: P -1
;
_chemical_formula_sum "Si O2"
_cell_formula_units_Z 14
_cell_length_a 7.104106
_cell_length_b 5.143267
_cell_length_c 18.770086
_cell_angle_alpha 124.303253
_cell_angle_beta 108.495128
_cell_angle_gamma 79.877451
_cell_volume 537.273439
_symmetry_space_group_name_H-M "P -1"
_symmetry_group_IT_number 2
_symmetry_cell_setting 'triclinic'
loop_
_space_group_symop_operation_xyz
x,y,z
-x,-y,-z
loop_
_atom_site_type_symbol
_atom_site_label
_atom_site_fract_x
_atom_site_fract_y
_atom_site_fract_z
Si Si1 0.109591 0.084863 0.131473
Si Si2 0.529290 0.998424 0.419661
Si Si3 0.735530 0.210583 0.761732
Si Si4 0.665392 0.803085 0.193586
Si Si5 0.808105 0.497515 0.299100
Si Si6 0.308446 0.816469 0.978462
Si Si7 0.096912 0.657164 0.468751
O O1 0.198578 0.437182 0.195069
O O2 0.250414 0.890835 0.064180
O O3 0.110849 0.941707 0.188356
O O4 0.111270 0.920680 0.927652
O O5 0.331232 0.979505 0.346039
O O6 0.655367 0.696212 0.360998
O O7 0.500000 0.000000 0.500000
O O8 0.676636 0.292651 0.473660
O O9 0.537347 0.212688 0.787636
O O10 0.819390 0.679844 0.253714
O O11 0.712519 0.153755 0.228954
O O12 0.663729 0.550617 0.091701
O O13 0.019922 0.489407 0.362416
O O14 0.500000 0.000000 0.000000
O O15 0.000000 0.500000 0.500000
O O16 0.000000 0.000000 0.500000
#
# Coordination Sequence:
#
# PCOD9108086 Si02
#       7
#     2   2   2   2   2   2   2
#     4  11  27  49  76 110 154 190 249 316 373 461
#     4  10  23  44  76 108 151 205 256 318 382 442
#     4  11  23  47  71 107 153 195 246 311 378 447
#     4  11  23  43  73 103 143 200 243 304 374 449
#     4  10  22  42  66 104 146 192 251 299 369 445
#     4  11  26  51  78 115 145 200 253 308 384 459
#     4  10  20  40  66  97 137 187 245 301 357 438
#
# _framework density 26.057493999999998
#
# number of rings (size 3 to 8) (size 9 to 14) (size 15 to 20)
#    0.000    1.429    1.429    4.286    0.000    7.429 
#    0.000   22.143    0.000    0.000    0.000    0.000 
#    0.000    0.000    0.000    0.000    0.000    0.000 
#
# Total GULP energy -78546.260372 kJ/mol
# GULP energy per Si atom -5610.447169 kJ/mol
# Density = 2.599819 g / cm^3
# Si number density = 26.057494 Si / 1000 Ang^3
#
#
#
# Elastic Constant Matrix: (Units=GPa)
#
#
# Indices 1 2 3 4 5 6 
#
# 1 106.6512 10.6761 41.9720 15.1256 3.0248 -3.4227
# 2 10.6761 108.9766 35.5646 0.0066 10.5911 -2.8729
# 3 41.9720 35.5646 176.8405 -7.4721 7.9106 -5.2001
# 4 15.1256 0.0066 -7.4721 46.4491 -3.0981 10.1475
# 5 3.0248 10.5911 7.9106 -3.0981 62.0863 -0.0786
# 6 -3.4227 -2.8729 -5.2001 10.1475 -0.0786 35.5915
#
#
#
# Elastic Compliance Matrix: (Units=1/GPa)
#
#
# Indices 1 2 3 4 5 6 
#
# 1 0.011187 -0.000108 -0.002750 -0.004540 -0.000400 0.001959
# 2 -0.000108 0.009973 -0.001917 -0.000517 -0.001477 0.000659
# 3 -0.002750 -0.001917 0.006790 0.001965 -0.000306 0.000012
# 4 -0.004540 -0.000517 0.001965 0.025009 0.001298 -0.007319
# 5 -0.000400 -0.001477 -0.000306 0.001298 0.016481 -0.000536
# 6 0.001959 0.000659 0.000012 -0.007319 -0.000536 0.030425
#
#
# Mechanical properties :
#
#
# Convention : Reuss Voigt Hill
#
# Bulk Modulus (GPa) = 54.34121 63.21041 58.77581
# Shear Modulus (GPa) = 43.27180 49.10909 46.19044
#
# Velocity S-wave (km/s) = 4.07950 4.34596 4.21484
# Velocity P-wave (km/s) = 6.56425 7.03519 6.80379
#
# Compressibility (1/GPa) = 0.01840224
#
# Stress axis : x y z
#
# Youngs Moduli (GPa) = 89.38569 100.26840 147.27514
#
# Poissons Ratio (x) = 0.01080 0.40500
# Poissons Ratio (y) = 0.00963 0.28226
# Poissons Ratio (z) = 0.24580 0.19217
#
# Static dielectric constant tensor:
#      x y z
#    x 2.096720 -0.085650 0.055020 
#    y -0.085650 1.956260 0.015530 
#    z 0.055020 0.015530 2.042650 
# 
# From -- ./inp_files/487914.got.cif
#   From: 2010.05.17/outbox.cif.g08.bks.cpg/sg2_244_cif.got.tgz:487914.got - 2010.06.03 11:33:40.
