data_PCOD9108097
_publ_section_title
;
Structure prediction by ZEFSAII (Michael W. Deem and Ramdas Pophale) SiO2 
 PCOD9108097
Probable space group: P -1
;
_chemical_formula_sum "Si O2"
_cell_formula_units_Z 16
_cell_length_a 21.467865
_cell_length_b 14.757915
_cell_length_c 8.857231
_cell_angle_alpha 82.565150
_cell_angle_beta 93.941805
_cell_angle_gamma 20.251956
_cell_volume 801.887141
_symmetry_space_group_name_H-M "P -1"
_symmetry_group_IT_number 2
_symmetry_cell_setting 'triclinic'
loop_
_space_group_symop_operation_xyz
x,y,z
-x,-y,-z
loop_
_atom_site_type_symbol
_atom_site_label
_atom_site_fract_x
_atom_site_fract_y
_atom_site_fract_z
Si Si1 0.272553 0.807576 0.976626
Si Si2 0.358481 0.106549 0.982513
Si Si3 0.855933 0.610948 0.434705
Si Si4 0.791406 0.410347 0.205784
Si Si5 0.071378 0.702770 0.450261
Si Si6 0.582391 0.760157 0.630242
Si Si7 0.911550 0.395791 0.981353
Si Si8 0.753034 0.349549 0.928477
O O1 0.319947 0.650288 0.113522
O O2 0.500000 0.500000 0.000000
O O3 0.099123 0.033707 0.764812
O O4 0.141340 0.063082 0.006265
O O5 0.265516 0.208311 0.784029
O O6 0.162687 0.406399 0.995957
O O7 0.500000 0.000000 0.000000
O O8 0.545417 0.776911 0.135367
O O9 0.955994 0.367758 0.502549
O O10 0.000000 0.500000 0.500000
O O11 0.670761 0.868340 0.476731
O O12 0.934420 0.224770 0.418895
O O13 0.759806 0.367358 0.102468
O O14 0.886423 0.353108 0.116002
O O15 0.306686 0.387947 0.481116
O O16 0.720902 0.637092 0.780728
O O17 0.630695 0.595810 0.755770
O O18 0.000000 0.000000 0.000000
#
# Coordination Sequence:
#
# PCOD9108097 Si02
#       8
#     2   2   2   2   2   2   2   2
#     4  11  25  40  60  90 129 166 198 256 318 368
#     4  10  16  35  63  90 116 165 211 239 307 383
#     4  12  23  35  60  99 131 156 202 265 321 365
#     4  10  18  34  69  90 112 158 217 259 286 362
#     4  11  22  38  62  95 117 160 219 256 302 366
#     4  10  20  38  61  88 120 165 208 254 297 369
#     4   9  16  36  64  83 111 168 210 233 302 375
#     4  11  19  40  65  86 114 168 214 242 300 374
#
# _framework density 19.952931
#
# number of rings (size 3 to 8) (size 9 to 14) (size 15 to 20)
#    0.000    1.500   10.000    0.375    1.750    1.500 
#    0.000    1.875    0.000    4.500    0.000    0.000 
#    0.000    0.000    0.000    0.000    0.000    0.000 
#
# Total GULP energy -89072.489365 kJ/mol
# GULP energy per Si atom -5567.030585 kJ/mol
# Density = 1.990752 g / cm^3
# Si number density = 19.952931 Si / 1000 Ang^3
#
#
#
# Elastic Constant Matrix: (Units=GPa)
#
#
# Indices 1 2 3 4 5 6 
#
# 1 52.2437 21.0435 4.4630 -8.7145 -1.3799 1.5735
# 2 21.0435 144.8317 2.7011 5.7030 9.0833 3.2582
# 3 4.4630 2.7011 68.4577 14.4068 8.3204 5.8858
# 4 -8.7145 5.7030 14.4068 29.6031 5.7532 -0.6688
# 5 -1.3799 9.0833 8.3204 5.7532 25.8073 -2.6564
# 6 1.5735 3.2582 5.8858 -0.6688 -2.6564 31.1554
#
#
#
# Elastic Compliance Matrix: (Units=1/GPa)
#
#
# Indices 1 2 3 4 5 6 
#
# 1 0.022361 -0.003634 -0.003342 0.008591 0.001658 0.000208
# 2 -0.003634 0.007710 0.000880 -0.002473 -0.002751 -0.001077
# 3 -0.003342 0.000880 0.017544 -0.008892 -0.004555 -0.003817
# 4 0.008591 -0.002473 -0.008892 0.042128 -0.004991 0.001983
# 5 0.001658 -0.002751 -0.004555 -0.004991 0.042862 0.004612
# 6 0.000208 -0.001077 -0.003817 0.001983 0.004612 0.033356
#
#
# Mechanical properties :
#
#
# Convention : Reuss Voigt Hill
#
# Bulk Modulus (GPa) = 28.22931 35.77204 32.00068
# Shear Modulus (GPa) = 26.32142 33.13486 29.72814
#
# Velocity S-wave (km/s) = 3.63599 4.07953 3.86413
# Velocity P-wave (km/s) = 5.63967 6.33697 5.99846
#
# Compressibility (1/GPa) = 0.03542418
#
# Stress axis : x y z
#
# Youngs Moduli (GPa) = 44.72127 129.69754 57.00007
#
# Poissons Ratio (x) = 0.47126 0.19048
# Poissons Ratio (y) = 0.16250 -0.05016
# Poissons Ratio (z) = 0.14945 -0.11414
#
# Static dielectric constant tensor:
#      x y z
#    x 1.737010 0.034860 -0.027680 
#    y 0.034860 1.732030 0.004950 
#    z -0.027680 0.004950 1.701000 
# 
# From -- ./inp_files/347527.got.cif
#   From: 2010.05.17/outbox.cif.g08.bks.cpg/sg2_174_cif.got.tgz:347527.got - 2010.06.03 11:33:40.
