data_PCOD9108886
_publ_section_title
;
Structure prediction by ZEFSAII (Michael W. Deem and Ramdas Pophale) SiO2 
 PCOD9108886
Probable space group: P -1
;
_chemical_formula_sum "Si O2"
_cell_formula_units_Z 12
_cell_length_a 9.069347
_cell_length_b 13.900661
_cell_length_c 5.868934
_cell_angle_alpha 86.889064
_cell_angle_beta 87.966183
_cell_angle_gamma 140.463127
_cell_volume 466.810456
_symmetry_space_group_name_H-M "P -1"
_symmetry_group_IT_number 2
_symmetry_cell_setting 'triclinic'
loop_
_space_group_symop_operation_xyz
x,y,z
-x,-y,-z
loop_
_atom_site_type_symbol
_atom_site_label
_atom_site_fract_x
_atom_site_fract_y
_atom_site_fract_z
Si Si1 0.716878 0.165576 0.747962
Si Si2 0.750697 0.891911 0.645783
Si Si3 0.227095 0.910758 0.655444
Si Si4 0.128800 0.552294 0.236343
Si Si5 0.516779 0.618753 0.399281
Si Si6 0.992328 0.859356 0.065539
O O1 0.815577 0.203205 0.479227
O O2 0.713327 0.272469 0.808982
O O3 0.897957 0.187149 0.856460
O O4 0.449084 0.997847 0.782884
O O5 0.570476 0.718791 0.597837
O O6 0.675108 0.954810 0.529055
O O7 0.000000 0.000000 0.500000
O O8 0.828297 0.965357 0.885940
O O9 0.006853 0.846658 0.798969
O O10 0.297745 0.546434 0.273034
O O11 0.000000 0.500000 0.500000
O O12 0.000000 0.500000 0.000000
O O13 0.500000 0.500000 0.500000
O O14 0.744755 0.743442 0.210513
#
# Coordination Sequence:
#
# PCOD9108886 Si02
#       6
#     2   2   2   2   2   2
#     4  10  22  43  68 111 146 191 251 315 386 459
#     4   9  20  40  66 107 148 182 248 319 389 455
#     4  10  20  40  75 104 143 184 253 318 390 455
#     4  12  29  53  78 111 160 214 265 322 393 480
#     4  11  24  50  75 111 155 209 261 323 391 477
#     4  10  22  41  76 111 145 195 250 326 395 464
#
# _framework density 25.706364000000001
#
# number of rings (size 3 to 8) (size 9 to 14) (size 15 to 20)
#    0.000    1.667    1.667    1.500    2.333    4.000 
#    9.000    1.667    0.000    0.000    0.000    0.000 
#    0.000    0.000    0.000    0.000    0.000    0.000 
#
# Total GULP energy -66920.663077 kJ/mol
# GULP energy per Si atom -5576.721923 kJ/mol
# Density = 2.564786 g / cm^3
# Si number density = 25.706364 Si / 1000 Ang^3
#
#
#
# Elastic Constant Matrix: (Units=GPa)
#
#
# Indices 1 2 3 4 5 6 
#
# 1 155.7263 45.1936 54.7606 -1.3520 20.6806 3.6211
# 2 45.1936 99.5280 39.3008 6.9663 1.5056 -14.1552
# 3 54.7606 39.3008 121.9697 7.2833 11.2486 12.9629
# 4 -1.3520 6.9663 7.2833 29.0569 7.9978 -10.2921
# 5 20.6806 1.5056 11.2486 7.9978 64.7219 -0.3787
# 6 3.6211 -14.1552 12.9629 -10.2921 -0.3787 50.8309
#
#
#
# Elastic Compliance Matrix: (Units=1/GPa)
#
#
# Indices 1 2 3 4 5 6 
#
# 1 0.008631 -0.002982 -0.002800 0.002414 -0.002502 -0.000261
# 2 -0.002982 0.013541 -0.003578 -0.001235 0.001440 0.004657
# 3 -0.002800 -0.003578 0.011341 -0.003514 -0.000585 -0.004405
# 4 0.002414 -0.001235 -0.003514 0.040087 -0.005036 0.008460
# 5 -0.002502 0.001440 -0.000585 -0.005036 0.016940 -0.000165
# 6 -0.000261 0.004657 -0.004405 0.008460 -0.000165 0.023823
#
#
# Mechanical properties :
#
#
# Convention : Reuss Voigt Hill
#
# Bulk Modulus (GPa) = 67.60072 72.85932 70.23002
# Shear Modulus (GPa) = 36.22824 44.78655 40.50740
#
# Velocity S-wave (km/s) = 3.75815 4.17854 3.97391
# Velocity P-wave (km/s) = 6.72205 7.18921 6.95955
#
# Compressibility (1/GPa) = 0.01479274
#
# Stress axis : x y z
#
# Youngs Moduli (GPa) = 115.86605 73.84802 88.17707
#
# Poissons Ratio (x) = 0.22019 0.24689
# Poissons Ratio (y) = 0.34547 0.31554
# Poissons Ratio (z) = 0.32441 0.26426
#
# Static dielectric constant tensor:
#      x y z
#    x 2.066840 -0.005890 0.082160 
#    y -0.005890 2.012220 0.005080 
#    z 0.082160 0.005080 2.393880 
# 
# From -- ./inp_files/38830.got.cif
#   From: 2010.05.17/outbox.cif.g08.bks.cpg/sg2_20_cif.got.tgz:38830.got - 2010.06.03 11:33:40.
