data_PCOD9108644
_publ_section_title
;
Structure prediction by ZEFSAII (Michael W. Deem and Ramdas Pophale) SiO2 
 PCOD9108644
Probable space group: P -1
;
_chemical_formula_sum "Si O2"
_cell_formula_units_Z 13
_cell_length_a 9.543068
_cell_length_b 11.405648
_cell_length_c 9.056065
_cell_angle_alpha 38.174082
_cell_angle_beta 118.983432
_cell_angle_gamma 98.815679
_cell_volume 483.363827
_symmetry_space_group_name_H-M "P -1"
_symmetry_group_IT_number 2
_symmetry_cell_setting 'triclinic'
loop_
_space_group_symop_operation_xyz
x,y,z
-x,-y,-z
loop_
_atom_site_type_symbol
_atom_site_label
_atom_site_fract_x
_atom_site_fract_y
_atom_site_fract_z
Si Si1 0.689730 0.302931 0.794621
Si Si2 0.804814 0.525207 0.841870
Si Si3 0.366931 0.323293 0.084353
Si Si4 0.000000 0.000000 0.500000
Si Si5 0.749988 0.039199 0.591403
Si Si6 0.185142 0.159067 0.684557
Si Si7 0.886685 0.286438 0.618053
O O1 0.500000 0.500000 0.500000
O O2 0.788185 0.312810 0.989579
O O3 0.826443 0.306253 0.736639
O O4 0.677819 0.082553 0.988904
O O5 0.686486 0.610477 0.839486
O O6 0.747293 0.687364 0.514940
O O7 0.000000 0.500000 0.000000
O O8 0.575143 0.243082 0.256511
O O9 0.316582 0.130694 0.219302
O O10 0.254914 0.507785 0.736839
O O11 0.957778 0.869712 0.468101
O O12 0.141330 0.040972 0.422018
O O13 0.849592 0.097755 0.715386
O O14 0.076020 0.258376 0.679512
#
# Coordination Sequence:
#
# PCOD9108644 Si02
#       7
#     2   2   2   1   2   2   2
#     4  12  30  46  70 105 150 193 240 299 370 437
#     4  12  25  46  76 108 137 189 251 301 358 438
#     4  11  23  41  71 108 141 186 244 306 356 427
#     4  10  20  40  70 102 136 186 242 294 352 428
#     4  10  23  39  70 102 146 186 241 298 363 426
#     4  11  24  43  71 100 146 189 242 295 363 430
#     4  11  25  44  67 103 143 191 234 299 365 433
#
# _framework density 26.894856999999998
#
# number of rings (size 3 to 8) (size 9 to 14) (size 15 to 20)
#    0.000    0.923    3.077    2.769    6.462    2.462 
#    0.000    0.000    0.000    0.000    0.000    0.000 
#    0.000    0.000    0.000    0.000    0.000    0.000 
#
# Total GULP energy -72787.909883 kJ/mol
# GULP energy per Si atom -5599.069991 kJ/mol
# Density = 2.683364 g / cm^3
# Si number density = 26.894857 Si / 1000 Ang^3
#
#
#
# Elastic Constant Matrix: (Units=GPa)
#
#
# Indices 1 2 3 4 5 6 
#
# 1 82.0470 29.3706 34.4604 12.0180 15.3107 -7.3557
# 2 29.3706 119.9588 14.5128 6.1113 4.7876 -12.9628
# 3 34.4604 14.5128 114.5752 -13.2458 3.9827 -14.6800
# 4 12.0180 6.1113 -13.2458 44.6692 -2.2370 -9.4781
# 5 15.3107 4.7876 3.9827 -2.2370 59.5038 -13.4422
# 6 -7.3557 -12.9628 -14.6800 -9.4781 -13.4422 46.6496
#
#
#
# Elastic Compliance Matrix: (Units=1/GPa)
#
#
# Indices 1 2 3 4 5 6 
#
# 1 0.017437 -0.003331 -0.005791 -0.006767 -0.004702 -0.002728
# 2 -0.003331 0.009355 0.000113 0.000175 0.000629 0.002327
# 3 -0.005791 0.000113 0.011678 0.006079 0.001966 0.004595
# 4 -0.006767 0.000175 0.006079 0.027833 0.004114 0.007735
# 5 -0.004702 0.000629 0.001966 0.004114 0.019455 0.006494
# 6 -0.002728 0.002327 0.004595 0.007735 0.006494 0.026542
#
#
# Mechanical properties :
#
#
# Convention : Reuss Voigt Hill
#
# Bulk Modulus (GPa) = 48.89140 52.58540 50.73840
# Shear Modulus (GPa) = 36.46026 46.04700 41.25363
#
# Velocity S-wave (km/s) = 3.68592 4.14226 3.92073
# Velocity P-wave (km/s) = 6.02768 6.51708 6.27715
#
# Compressibility (1/GPa) = 0.02045350
#
# Stress axis : x y z
#
# Youngs Moduli (GPa) = 57.34998 106.88928 85.62794
#
# Poissons Ratio (x) = 0.35605 0.49587
# Poissons Ratio (y) = 0.19103 -0.00971
# Poissons Ratio (z) = 0.33211 -0.01212
#
# Static dielectric constant tensor:
#      x y z
#    x 1.941190 0.062000 -0.068600 
#    y 0.062000 1.983520 -0.346360 
#    z -0.068600 -0.346360 1.075130 
# 
# From -- ./inp_files/183888.got.cif
#   From: 2010.05.17/outbox.cif.g08.bks.cpg/sg2_92_cif.got.tgz:183888.got - 2010.06.03 11:33:40.
