data_PCOD9108885
_publ_section_title
;
Structure prediction by ZEFSAII (Michael W. Deem and Ramdas Pophale) SiO2 
 PCOD9108885
Probable space group: P -1
;
_chemical_formula_sum "Si O2"
_cell_formula_units_Z 14
_cell_length_a 19.950920
_cell_length_b 9.045521
_cell_length_c 11.966349
_cell_angle_alpha 52.060065
_cell_angle_beta 157.214686
_cell_angle_gamma 136.524059
_cell_volume 563.413963
_symmetry_space_group_name_H-M "P -1"
_symmetry_group_IT_number 2
_symmetry_cell_setting 'triclinic'
loop_
_space_group_symop_operation_xyz
x,y,z
-x,-y,-z
loop_
_atom_site_type_symbol
_atom_site_label
_atom_site_fract_x
_atom_site_fract_y
_atom_site_fract_z
Si Si1 0.857598 0.038070 0.625783
Si Si2 0.294300 0.377297 0.669458
Si Si3 0.455358 0.421617 0.648095
Si Si4 0.262667 0.079890 0.136024
Si Si5 0.728165 0.998850 0.077725
Si Si6 0.748358 0.235833 0.554684
Si Si7 0.797703 0.298360 0.232048
O O1 0.727173 0.792824 0.592361
O O2 0.880797 0.197758 0.687385
O O3 0.745178 0.095501 0.329059
O O4 0.060343 0.075007 0.864411
O O5 0.361143 0.386962 0.641988
O O6 0.184619 0.513175 0.445519
O O7 0.187193 0.137378 0.666236
O O8 0.500000 0.500000 0.000000
O O9 0.550450 0.679408 0.650779
O O10 0.635663 0.372944 0.947708
O O11 0.259418 0.882774 0.287589
O O12 0.266825 0.038142 0.029634
O O13 0.825046 0.229428 0.182523
O O14 0.487492 0.889478 0.788397
O O15 0.000000 0.500000 0.500000
#
# Coordination Sequence:
#
# PCOD9108885 Si02
#       7
#     2   2   2   2   2   2   2
#     4  12  26  45  73 104 152 190 244 298 362 425
#     4  10  20  40  75 103 134 192 235 295 362 419
#     4  12  23  44  71 106 146 188 237 299 363 424
#     4  12  27  47  72 112 146 191 247 295 356 442
#     4  11  23  46  76 107 145 187 244 303 362 425
#     4  11  24  46  75 102 150 197 236 295 366 430
#     4  12  24  45  75 109 140 187 243 304 358 427
#
# _framework density 24.848513000000001
#
# number of rings (size 3 to 8) (size 9 to 14) (size 15 to 20)
#    0.000    0.571    7.143    3.000    0.000    1.143 
#    5.143    0.714    0.000    0.000    0.000    0.000 
#    0.000    0.000    0.000    0.000    0.000    0.000 
#
# Total GULP energy -78378.616815 kJ/mol
# GULP energy per Si atom -5598.472630 kJ/mol
# Density = 2.479196 g / cm^3
# Si number density = 24.848513 Si / 1000 Ang^3
#
#
#
# Elastic Constant Matrix: (Units=GPa)
#
#
# Indices 1 2 3 4 5 6 
#
# 1 144.5853 39.1552 31.6258 -9.4180 22.0474 -25.9508
# 2 39.1552 -199.1917 108.2245 79.2891 -25.6168 -40.1592
# 3 31.6258 108.2245 29.3681 -35.1874 34.0983 -0.1835
# 4 -9.4180 79.2891 -35.1874 10.0011 23.5139 8.0024
# 5 22.0474 -25.6168 34.0983 23.5139 21.2835 -8.3549
# 6 -25.9508 -40.1592 -0.1835 8.0024 -8.3549 46.8700
#
#
#
# Elastic Compliance Matrix: (Units=1/GPa)
#
#
# Indices 1 2 3 4 5 6 
#
# 1 0.009114 -0.000185 -0.003801 0.001214 -0.003317 0.004074
# 2 -0.000185 0.008782 0.010105 0.014709 -0.021220 0.001168
# 3 -0.003801 0.010105 0.017238 0.001944 -0.012038 0.004143
# 4 0.001214 0.014709 0.001944 0.030281 -0.018212 0.004867
# 5 -0.003317 -0.021220 -0.012038 -0.018212 0.061967 -0.005909
# 6 0.004074 0.001168 0.004143 0.004867 -0.005909 0.022724
#
#
# Mechanical properties :
#
#
# Convention : Reuss Voigt Hill
#
# Bulk Modulus (GPa) = 21.10984 36.97476 29.04230
# Shear Modulus (GPa) = 32.53958 2.01465 17.27712
#
# Velocity S-wave (km/s) = 3.62265 0.90141 2.63971
# Velocity P-wave (km/s) = 5.10020 3.99947 4.58300
#
# Compressibility (1/GPa) = 0.04737128
#
# Stress axis : x y z
#
# Youngs Moduli (GPa) = 109.72137 113.86799 58.01215
#
# Poissons Ratio (x) = 0.02108 0.22051
# Poissons Ratio (y) = 0.02031 -0.58621
# Poissons Ratio (z) = 0.41706 -1.15063
#
# Static dielectric constant tensor:
#      x y z
#    x 1.918780 0.023230 -0.003140 
#    y 0.023230 1.997110 0.023980 
#    z -0.003140 0.023980 1.973360 
# 
# From -- ./inp_files/158776.got.cif
#   From: 2010.05.17/outbox.cif.g08.bks.cpg/sg2_80_cif.got.tgz:158776.got - 2010.06.03 11:33:40.
