data_PCOD9108364
_publ_section_title
;
Structure prediction by ZEFSAII (Michael W. Deem and Ramdas Pophale) SiO2 
 PCOD9108364
Probable space group: P -1
;
_chemical_formula_sum "Si O2"
_cell_formula_units_Z 16
_cell_length_a 8.922938
_cell_length_b 20.296410
_cell_length_c 8.435188
_cell_angle_alpha 118.264031
_cell_angle_beta 130.978031
_cell_angle_gamma 40.512092
_cell_volume 748.224580
_symmetry_space_group_name_H-M "P -1"
_symmetry_group_IT_number 2
_symmetry_cell_setting 'triclinic'
loop_
_space_group_symop_operation_xyz
x,y,z
-x,-y,-z
loop_
_atom_site_type_symbol
_atom_site_label
_atom_site_fract_x
_atom_site_fract_y
_atom_site_fract_z
Si Si1 0.725094 0.238326 0.070696
Si Si2 0.402172 0.047050 0.792435
Si Si3 0.371097 0.896885 0.495300
Si Si4 0.168737 0.798994 0.268331
Si Si5 0.822053 0.799854 0.460674
Si Si6 0.302094 0.454411 0.154962
Si Si7 0.156980 0.940131 0.879523
Si Si8 0.709995 0.371346 0.632965
O O1 0.468894 0.356998 0.046112
O O2 0.704763 0.173302 0.104355
O O3 0.976023 0.220596 0.292346
O O4 0.790481 0.204742 0.895643
O O5 0.301201 0.100408 0.610655
O O6 0.142698 0.118137 0.804713
O O7 0.488024 0.939232 0.713207
O O8 0.627520 0.050325 0.993835
O O9 0.320043 0.833705 0.482631
O O10 0.573145 0.827070 0.410629
O O11 0.077550 0.998119 0.343693
O O12 0.278841 0.694939 0.301461
O O13 0.010449 0.705287 0.362904
O O14 0.465607 0.414581 0.391272
O O15 0.310148 0.540005 0.212461
O O16 0.000000 0.500000 0.000000
O O17 0.000000 0.000000 0.000000
#
# Coordination Sequence:
#
# PCOD9108364 Si02
#       8
#     2   2   2   2   2   2   2   2
#     4  11  23  42  65 101 126 169 219 262 320 377
#     4  11  23  40  59  87 131 179 215 260 305 364
#     4  12  23  40  63  94 131 180 219 249 314 377
#     4  11  25  41  61  96 139 164 206 273 321 375
#     4  10  20  40  68  87 127 176 217 259 300 388
#     4  10  23  44  78  91 118 166 219 262 321 394
#     4  12  22  39  66  92 129 176 225 254 295 390
#     4   9  23  47  65  99 126 157 214 271 322 378
#
# _framework density 21.383953999999999
#
# number of rings (size 3 to 8) (size 9 to 14) (size 15 to 20)
#    0.000    1.250    3.750    1.500    5.250    1.000 
#    4.500    0.625    0.000    0.000    0.000    0.000 
#    0.000    0.000    0.000    0.000    0.000    0.000 
#
# Total GULP energy -89448.972843 kJ/mol
# GULP energy per Si atom -5590.560803 kJ/mol
# Density = 2.133528 g / cm^3
# Si number density = 21.383954 Si / 1000 Ang^3
#
#
#
# Elastic Constant Matrix: (Units=GPa)
#
#
# Indices 1 2 3 4 5 6 
#
# 1 148.6700 65.4878 42.3443 -1.7188 26.6308 4.0988
# 2 65.4878 111.2133 23.9527 6.3928 14.6503 14.4942
# 3 42.3443 23.9527 24.9626 -4.0907 15.0725 -13.2383
# 4 -1.7188 6.3928 -4.0907 28.4218 2.3431 3.9298
# 5 26.6308 14.6503 15.0725 2.3431 38.0332 -4.7970
# 6 4.0988 14.4942 -13.2383 3.9298 -4.7970 41.8080
#
#
#
# Elastic Compliance Matrix: (Units=1/GPa)
#
#
# Indices 1 2 3 4 5 6 
#
# 1 0.017929 -0.000724 -0.037804 -0.002481 0.001207 -0.013106
# 2 -0.000724 0.015764 -0.022249 -0.005348 0.002106 -0.011695
# 3 -0.037804 -0.022249 0.180842 0.022496 -0.030052 0.063120
# 4 -0.002481 -0.005348 0.022496 0.039395 -0.006949 0.004721
# 5 0.001207 0.002106 -0.030052 -0.006949 0.036274 -0.005549
# 6 -0.013106 -0.011695 0.063120 0.004721 -0.005549 0.048164
#
#
# Mechanical properties :
#
#
# Convention : Reuss Voigt Hill
#
# Bulk Modulus (GPa) = 10.75481 60.93505 35.84493
# Shear Modulus (GPa) = 10.18504 31.85667 21.02086
#
# Velocity S-wave (km/s) = 2.18478 3.86391 3.13872
# Velocity P-wave (km/s) = 3.37708 6.96161 5.47123
#
# Compressibility (1/GPa) = 0.09298165
#
# Stress axis : x y z
#
# Youngs Moduli (GPa) = 55.77565 63.43635 5.52968
#
# Poissons Ratio (x) = 0.04590 0.20905
# Poissons Ratio (y) = 0.04036 0.12303
# Poissons Ratio (z) = 2.10856 1.41139
#
# Static dielectric constant tensor:
#      x y z
#    x 1.778400 0.006600 -0.017100 
#    y 0.006600 1.790360 0.014130 
#    z -0.017100 0.014130 1.827270 
# 
# From -- ./inp_files/223896.got.cif
#   From: 2010.05.17/outbox.cif.g08.bks.cpg/sg2_112_cif.got.tgz:223896.got - 2010.06.03 11:33:40.
