data_PCOD9108601
_publ_section_title
;
Structure prediction by ZEFSAII (Michael W. Deem and Ramdas Pophale) SiO2 
 PCOD9108601
Probable space group: P -1
;
_chemical_formula_sum "Si O2"
_cell_formula_units_Z 14
_cell_length_a 14.202365
_cell_length_b 9.335692
_cell_length_c 14.807360
_cell_angle_alpha 133.617977
_cell_angle_beta 31.685451
_cell_angle_gamma 111.799058
_cell_volume 614.876887
_symmetry_space_group_name_H-M "P -1"
_symmetry_group_IT_number 2
_symmetry_cell_setting 'triclinic'
loop_
_space_group_symop_operation_xyz
x,y,z
-x,-y,-z
loop_
_atom_site_type_symbol
_atom_site_label
_atom_site_fract_x
_atom_site_fract_y
_atom_site_fract_z
Si Si1 0.244114 0.946418 0.507326
Si Si2 0.042047 0.131921 0.943195
Si Si3 0.667390 0.893761 0.163543
Si Si4 0.035388 0.087618 0.416942
Si Si5 0.685057 0.680604 0.455852
Si Si6 0.947844 0.475621 0.429454
Si Si7 0.511288 0.782574 0.845196
O O1 0.504013 0.811679 0.247148
O O2 0.157502 0.836245 0.462471
O O3 0.183137 0.200230 0.623657
O O4 0.133644 0.993961 0.715007
O O5 0.832171 0.396370 0.209388
O O6 0.224635 0.160479 0.850989
O O7 0.000000 0.000000 0.000000
O O8 0.512968 0.178591 0.392462
O O9 0.859059 0.767235 0.878539
O O10 0.046588 0.311874 0.528655
O O11 0.000000 0.000000 0.500000
O O12 0.262603 0.869226 0.093165
O O13 0.582841 0.760298 0.673701
O O14 0.706237 0.546969 0.635767
O O15 0.000000 0.500000 0.500000
O O16 0.500000 0.000000 0.000000
#
# Coordination Sequence:
#
# PCOD9108601 Si02
#       7
#     2   2   2   2   2   2   2
#     4  10  25  45  70 100 142 181 228 284 349 405
#     4  12  26  46  71 104 135 180 240 287 342 410
#     4  10  24  45  71  97 140 179 231 277 355 401
#     4  11  25  43  67 107 140 177 233 277 345 416
#     4  10  23  46  70  93 140 182 225 280 349 398
#     4  11  23  41  72  96 142 183 226 282 346 412
#     4  10  20  40  69  97 135 181 223 276 340 400
#
# _framework density 22.768785999999999
#
# number of rings (size 3 to 8) (size 9 to 14) (size 15 to 20)
#    0.857    0.571    1.429    4.286    6.000    1.143 
#    2.571    0.000    0.000    0.000    0.000    0.000 
#    0.000    0.000    0.000    0.000    0.000    0.000 
#
# Total GULP energy -78199.954305 kJ/mol
# GULP energy per Si atom -5585.711022 kJ/mol
# Density = 2.271696 g / cm^3
# Si number density = 22.768786 Si / 1000 Ang^3
#
#
#
# Elastic Constant Matrix: (Units=GPa)
#
#
# Indices 1 2 3 4 5 6 
#
# 1 88.3018 -4.4718 22.9874 -13.7666 -5.9927 -5.2361
# 2 -4.4718 66.7190 24.8355 -7.8693 -6.5507 -9.4603
# 3 22.9874 24.8355 108.0956 1.8177 -17.1491 -7.0040
# 4 -13.7666 -7.8693 1.8177 39.4334 -10.0435 -0.9908
# 5 -5.9927 -6.5507 -17.1491 -10.0435 41.2654 -8.9614
# 6 -5.2361 -9.4603 -7.0040 -0.9908 -8.9614 37.1839
#
#
#
# Elastic Compliance Matrix: (Units=1/GPa)
#
#
# Indices 1 2 3 4 5 6 
#
# 1 0.013820 0.003714 -0.003104 0.006730 0.003677 0.003372
# 2 0.003714 0.018832 -0.004103 0.006587 0.004697 0.005849
# 3 -0.003104 -0.004103 0.011563 -0.001458 0.003684 0.001546
# 4 0.006730 0.006587 -0.001458 0.031887 0.010418 0.005709
# 5 0.003677 0.004697 0.003684 0.010418 0.031828 0.010355
# 6 0.003372 0.005849 0.001546 0.005709 0.010355 0.031795
#
#
# Mechanical properties :
#
#
# Convention : Reuss Voigt Hill
#
# Bulk Modulus (GPa) = 26.86015 38.86876 32.86446
# Shear Modulus (GPa) = 31.42274 38.22758 34.82516
#
# Velocity S-wave (km/s) = 3.71897 4.10194 3.91514
# Velocity P-wave (km/s) = 5.50123 6.28830 5.90789
#
# Compressibility (1/GPa) = 0.03722987
#
# Stress axis : x y z
#
# Youngs Moduli (GPa) = 72.36086 53.10094 86.48275
#
# Poissons Ratio (x) = -0.19724 0.26841
# Poissons Ratio (y) = -0.26878 0.35486
# Poissons Ratio (z) = 0.22458 0.21789
#
# Static dielectric constant tensor:
#      x y z
#    x 1.840190 0.041890 -0.063440 
#    y 0.041890 1.916710 0.000940 
#    z -0.063440 0.000940 1.854310 
# 
# From -- ./inp_files/530097.got.cif
#   From: 2010.05.17/outbox.cif.g08.bks.cpg/sg2_266_cif.got.tgz:530097.got - 2010.06.03 11:33:40.
