data_PCOD9108370
_publ_section_title
;
Structure prediction by ZEFSAII (Michael W. Deem and Ramdas Pophale) SiO2 
 PCOD9108370
Probable space group: P -1
;
_chemical_formula_sum "Si O2"
_cell_formula_units_Z 14
_cell_length_a 8.798487
_cell_length_b 18.176060
_cell_length_c 9.393551
_cell_angle_alpha 51.959646
_cell_angle_beta 149.825018
_cell_angle_gamma 125.702547
_cell_volume 589.759988
_symmetry_space_group_name_H-M "P -1"
_symmetry_group_IT_number 2
_symmetry_cell_setting 'triclinic'
loop_
_space_group_symop_operation_xyz
x,y,z
-x,-y,-z
loop_
_atom_site_type_symbol
_atom_site_label
_atom_site_fract_x
_atom_site_fract_y
_atom_site_fract_z
Si Si1 0.959141 0.853626 0.109014
Si Si2 0.640299 0.122692 0.313376
Si Si3 0.809097 0.507105 0.481625
Si Si4 0.183574 0.574763 0.950995
Si Si5 0.284264 0.685039 0.181831
Si Si6 0.576607 0.913849 0.464955
Si Si7 0.123957 0.186723 0.392086
O O1 0.130489 0.884427 0.360252
O O2 0.281810 0.833048 0.325254
O O3 0.622563 0.811046 0.946002
O O4 0.812335 0.904609 0.795732
O O5 0.851967 0.151938 0.317837
O O6 0.472984 0.016968 0.273374
O O7 0.471337 0.534611 0.161586
O O8 0.768613 0.407436 0.651867
O O9 0.000000 0.500000 0.500000
O O10 0.971439 0.584929 0.631562
O O11 0.268295 0.656118 0.036702
O O12 0.000000 0.500000 0.000000
O O13 0.605877 0.745620 0.397044
O O14 0.015127 0.748168 0.914588
O O15 0.745781 0.899638 0.473302
#
# Coordination Sequence:
#
# PCOD9108370 Si02
#       7
#     2   2   2   2   2   2   2
#     4  10  21  38  63  84 112 152 209 264 303 351
#     4  11  21  39  61  87 116 163 216 250 294 366
#     4  11  22  41  70  97 118 151 201 251 293 358
#     4  10  20  40  68  90 118 159 194 233 294 371
#     4  11  23  42  60  90 126 162 197 241 308 363
#     4  11  21  39  61  88 119 164 208 254 306 350
#     4  12  25  39  60  88 127 163 200 257 299 349
#
# _framework density 23.738471000000001
#
# number of rings (size 3 to 8) (size 9 to 14) (size 15 to 20)
#    0.000    1.143    0.000   10.286    0.000    0.000 
#    0.000   18.571    0.000    0.000    0.000    0.000 
#    0.000    0.000    0.000    0.000    0.000    0.000 
#
# Total GULP energy -77966.254451 kJ/mol
# GULP energy per Si atom -5569.018175 kJ/mol
# Density = 2.368444 g / cm^3
# Si number density = 23.738471 Si / 1000 Ang^3
#
#
#
# Elastic Constant Matrix: (Units=GPa)
#
#
# Indices 1 2 3 4 5 6 
#
# 1 144.7203 24.4056 13.5901 16.1092 12.2536 5.1758
# 2 24.4056 43.5686 15.0227 11.6161 -11.9012 -0.1172
# 3 13.5901 15.0227 114.0291 28.9528 23.6113 2.2276
# 4 16.1092 11.6161 28.9528 28.3734 -2.1998 3.9989
# 5 12.2536 -11.9012 23.6113 -2.1998 38.7501 6.1356
# 6 5.1758 -0.1172 2.2276 3.9989 6.1356 18.6220
#
#
#
# Elastic Compliance Matrix: (Units=1/GPa)
#
#
# Indices 1 2 3 4 5 6 
#
# 1 0.008898 -0.006173 0.002604 -0.005793 -0.006726 0.000637
# 2 -0.006173 0.033735 -0.006603 -0.001953 0.016595 -0.002330
# 3 0.002604 -0.006603 0.016949 -0.018105 -0.015171 0.006094
# 4 -0.005793 -0.001953 -0.018105 0.061390 0.018189 -0.015412
# 5 -0.006726 0.016595 -0.015171 0.018189 0.045710 -0.015178
# 6 0.000637 -0.002330 0.006094 -0.015412 -0.015178 0.061090
#
#
# Mechanical properties :
#
#
# Convention : Reuss Voigt Hill
#
# Bulk Modulus (GPa) = 25.48698 45.37276 35.42987
# Shear Modulus (GPa) = 19.14282 33.76907 26.45595
#
# Velocity S-wave (km/s) = 2.84281 3.77576 3.34200
# Velocity P-wave (km/s) = 4.64061 6.17767 5.46346
#
# Compressibility (1/GPa) = 0.03923571
#
# Stress axis : x y z
#
# Youngs Moduli (GPa) = 112.38537 29.64320 59.00184
#
# Poissons Ratio (x) = 0.18300 -0.15364
# Poissons Ratio (y) = 0.69378 0.38961
# Poissons Ratio (z) = -0.29264 0.19575
#
# Static dielectric constant tensor:
#      x y z
#    x 1.924990 0.005560 -0.055950 
#    y 0.005560 1.994340 -0.060110 
#    z -0.055950 -0.060110 1.751310 
# 
# From -- ./inp_files/217220.got.cif
#   From: 2010.05.17/outbox.cif.g08.bks.cpg/sg2_109_cif.got.tgz:217220.got - 2010.06.03 11:33:40.
