data_PCOD9108359
_publ_section_title
;
Structure prediction by ZEFSAII (Michael W. Deem and Ramdas Pophale) SiO2 
 PCOD9108359
Probable space group: P -1
;
_chemical_formula_sum "Si O2"
_cell_formula_units_Z 16
_cell_length_a 9.345061
_cell_length_b 12.063000
_cell_length_c 26.454734
_cell_angle_alpha 31.943959
_cell_angle_beta 25.392221
_cell_angle_gamma 36.942909
_cell_volume 669.567537
_symmetry_space_group_name_H-M "P -1"
_symmetry_group_IT_number 2
_symmetry_cell_setting 'triclinic'
loop_
_space_group_symop_operation_xyz
x,y,z
-x,-y,-z
loop_
_atom_site_type_symbol
_atom_site_label
_atom_site_fract_x
_atom_site_fract_y
_atom_site_fract_z
Si Si1 0.009953 0.855285 0.803443
Si Si2 0.217262 0.071615 0.856765
Si Si3 0.749076 0.589402 0.652437
Si Si4 0.988065 0.857223 0.216214
Si Si5 0.708864 0.458206 0.333036
Si Si6 0.787603 0.221139 0.495994
Si Si7 0.718085 0.682358 0.872090
Si Si8 0.742378 0.808120 0.468796
O O1 0.389423 0.724357 0.730692
O O2 0.772129 0.719643 0.900082
O O3 0.950438 0.946108 0.843645
O O4 0.993649 0.064621 0.691882
O O5 0.996639 0.094812 0.866909
O O6 0.345585 0.291307 0.744456
O O7 0.536384 0.890448 0.821352
O O8 0.000000 0.000000 0.000000
O O9 0.799835 0.624847 0.563056
O O10 0.781187 0.352274 0.755249
O O11 0.058167 0.694294 0.535916
O O12 0.600441 0.809001 0.363444
O O13 0.870991 0.384738 0.363202
O O14 0.426425 0.306234 0.478015
O O15 0.928991 0.387656 0.240800
O O16 0.000000 0.000000 0.500000
O O17 0.500000 0.500000 0.000000
O O18 0.500000 0.000000 0.500000
#
# Coordination Sequence:
#
# PCOD9108359 Si02
#       8
#     2   2   2   2   2   2   2   2
#     4  11  25  45  71 111 145 188 241 302 369 437
#     4  12  29  49  74 103 141 198 261 302 352 442
#     4  11  23  39  65 107 158 181 229 291 365 437
#     4  12  26  44  72 111 145 191 236 299 381 428
#     4  12  23  46  73 107 150 187 247 299 366 433
#     4  12  22  40  70 111 154 190 229 301 368 445
#     4  12  27  49  80  98 137 202 255 299 363 434
#     4  10  20  40  68 108 150 189 224 301 369 431
#
# _framework density 23.896021999999999
#
# number of rings (size 3 to 8) (size 9 to 14) (size 15 to 20)
#    0.000    0.500    7.500    1.875    3.500    0.500 
#    0.000    1.250    2.750    0.000    0.000    0.000 
#    0.000    0.000    0.000    0.000    0.000    0.000 
#
# Total GULP energy -89508.969713 kJ/mol
# GULP energy per Si atom -5594.310607 kJ/mol
# Density = 2.384163 g / cm^3
# Si number density = 23.896022 Si / 1000 Ang^3
#
#
#
# Elastic Constant Matrix: (Units=GPa)
#
#
# Indices 1 2 3 4 5 6 
#
# 1 156.9211 33.7314 38.4979 -7.5388 8.2368 15.2159
# 2 33.7314 128.8744 31.7205 -30.2828 8.6863 -7.4504
# 3 38.4979 31.7205 71.5751 -22.7122 -9.1592 11.3299
# 4 -7.5388 -30.2828 -22.7122 30.6623 6.4966 4.7217
# 5 8.2368 8.6863 -9.1592 6.4966 44.5198 -4.0928
# 6 15.2159 -7.4504 11.3299 4.7217 -4.0928 38.0778
#
#
#
# Elastic Compliance Matrix: (Units=1/GPa)
#
#
# Indices 1 2 3 4 5 6 
#
# 1 0.007923 -0.001488 -0.004059 -0.001768 -0.001959 -0.002241
# 2 -0.001488 0.011259 -0.001761 0.009945 -0.003579 0.001704
# 3 -0.004059 -0.001761 0.023178 0.014887 0.003035 -0.007139
# 4 -0.001768 0.009945 0.014887 0.056113 -0.007617 -0.009554
# 5 -0.001959 -0.003579 0.003035 -0.007617 0.025522 0.002867
# 6 -0.002241 0.001704 -0.007139 -0.009554 0.002867 0.031108
#
#
# Mechanical properties :
#
#
# Convention : Reuss Voigt Hill
#
# Bulk Modulus (GPa) = 36.04521 62.80780 49.42651
# Shear Modulus (GPa) = 27.93807 39.54669 33.74238
#
# Velocity S-wave (km/s) = 3.42300 4.07252 3.76180
# Velocity P-wave (km/s) = 5.54432 6.96094 6.29262
#
# Compressibility (1/GPa) = 0.02774294
#
# Stress axis : x y z
#
# Youngs Moduli (GPa) = 126.20688 88.81796 43.14502
#
# Poissons Ratio (x) = 0.13213 0.17515
# Poissons Ratio (y) = 0.18775 0.07600
# Poissons Ratio (z) = 0.51233 0.15645
#
# Static dielectric constant tensor:
#      x y z
#    x 2.061390 0.050820 -0.073370 
#    y 0.050820 1.995950 0.039100 
#    z -0.073370 0.039100 1.967250 
# 
# From -- ./inp_files/617025.got.cif
#   From: 2010.05.17/outbox.cif.g08.bks.cpg/sg2_309_cif.got.tgz:617025.got - 2010.06.03 11:33:40.
