data_PCOD9108466
_publ_section_title
;
Structure prediction by ZEFSAII (Michael W. Deem and Ramdas Pophale) SiO2 
 PCOD9108466
Probable space group: P -1
;
_chemical_formula_sum "Si O2"
_cell_formula_units_Z 16
_cell_length_a 9.272673
_cell_length_b 11.578275
_cell_length_c 10.618512
_cell_angle_alpha 124.118429
_cell_angle_beta 89.067783
_cell_angle_gamma 52.296881
_cell_volume 624.352806
_symmetry_space_group_name_H-M "P -1"
_symmetry_group_IT_number 2
_symmetry_cell_setting 'triclinic'
loop_
_space_group_symop_operation_xyz
x,y,z
-x,-y,-z
loop_
_atom_site_type_symbol
_atom_site_label
_atom_site_fract_x
_atom_site_fract_y
_atom_site_fract_z
Si Si1 0.532708 0.030249 0.278730
Si Si2 0.263985 0.693408 0.059810
Si Si3 0.966563 0.148520 0.458649
Si Si4 0.691599 0.158312 0.079559
Si Si5 0.031376 0.289725 0.781173
Si Si6 0.396155 0.714243 0.578176
Si Si7 0.752279 0.689083 0.861599
Si Si8 0.892908 0.766456 0.684382
O O1 0.722370 0.862586 0.272715
O O2 0.476251 0.235100 0.414087
O O3 0.309280 0.108664 0.333082
O O4 0.634287 0.904866 0.066433
O O5 0.111871 0.670888 0.078746
O O6 0.151658 0.910417 0.259108
O O7 0.500000 0.500000 0.000000
O O8 0.291996 0.714359 0.926276
O O9 0.019411 0.178891 0.607615
O O10 0.927125 0.303529 0.453877
O O11 0.743974 0.223203 0.502315
O O12 0.755867 0.132360 0.207191
O O13 0.443540 0.278403 0.143780
O O14 0.841447 0.933235 0.877727
O O15 0.914007 0.504913 0.848727
O O16 0.500000 0.500000 0.500000
O O17 0.878784 0.647656 0.708770
#
# Coordination Sequence:
#
# PCOD9108466 Si02
#       8
#     2   2   2   2   2   2   2   2
#     4  11  23  42  69  99 138 177 233 281 338 407
#     4  11  23  40  69  98 132 183 229 277 343 409
#     4  11  27  44  68  99 145 178 227 285 348 400
#     4  10  20  40  68  97 130 174 231 284 331 394
#     4  12  25  43  68 100 145 182 224 282 349 405
#     4  12  24  41  69 104 135 181 225 284 347 401
#     4  11  20  42  70  96 131 181 229 281 336 403
#     4  10  22  43  72  94 129 185 230 278 333 402
#
# _framework density 25.626535000000001
#
# number of rings (size 3 to 8) (size 9 to 14) (size 15 to 20)
#    0.000    1.000    5.000    2.250    0.000    4.000 
#    0.000    0.000    0.000    0.000    0.000    0.000 
#    0.000    0.000    0.000    0.000    0.000    0.000 
#
# Total GULP energy -89565.916532 kJ/mol
# GULP energy per Si atom -5597.869783 kJ/mol
# Density = 2.556821 g / cm^3
# Si number density = 25.626535 Si / 1000 Ang^3
#
#
#
# Elastic Constant Matrix: (Units=GPa)
#
#
# Indices 1 2 3 4 5 6 
#
# 1 110.7569 29.8660 15.5250 -1.6821 8.5560 1.3161
# 2 29.8660 106.8081 -5.5375 7.2712 0.3944 15.3130
# 3 15.5250 -5.5375 53.2900 4.7654 16.9338 -3.9603
# 4 -1.6821 7.2712 4.7654 50.0146 6.4869 0.7528
# 5 8.5560 0.3944 16.9338 6.4869 31.0768 -12.9311
# 6 1.3161 15.3130 -3.9603 0.7528 -12.9311 58.0451
#
#
#
# Elastic Compliance Matrix: (Units=1/GPa)
#
#
# Indices 1 2 3 4 5 6 
#
# 1 0.010436 -0.003165 -0.003026 0.001284 -0.001428 0.000057
# 2 -0.003165 0.010919 0.002460 -0.001692 -0.001481 -0.002949
# 3 -0.003026 0.002460 0.023916 -0.001058 -0.012747 -0.001775
# 4 0.001284 -0.001692 -0.001058 0.020985 -0.004525 -0.000935
# 5 -0.001428 -0.001481 -0.012747 -0.004525 0.044439 0.009512
# 6 0.000057 -0.002949 -0.001775 -0.000935 0.009512 0.020015
#
#
# Mechanical properties :
#
#
# Convention : Reuss Voigt Hill
#
# Bulk Modulus (GPa) = 26.45014 38.95136 32.70075
# Shear Modulus (GPa) = 33.16220 43.22741 38.19481
#
# Velocity S-wave (km/s) = 3.60120 4.11155 3.86481
# Velocity P-wave (km/s) = 5.25693 6.14593 5.71873
#
# Compressibility (1/GPa) = 0.03780698
#
# Stress axis : x y z
#
# Youngs Moduli (GPa) = 95.82593 91.58697 41.81341
#
# Poissons Ratio (x) = 0.28989 0.12652
# Poissons Ratio (y) = 0.30331 -0.10284
# Poissons Ratio (z) = 0.28995 -0.22526
#
# Static dielectric constant tensor:
#      x y z
#    x 1.985840 0.054500 0.002150 
#    y 0.054500 2.049740 0.028470 
#    z 0.002150 0.028470 2.048880 
# 
# From -- ./inp_files/244361.got.cif
#   From: 2010.05.17/outbox.cif.g08.bks.cpg/sg2_123_cif.got.tgz:244361.got - 2010.06.03 11:33:40.
