data_PCOD9108705
_publ_section_title
;
Structure prediction by ZEFSAII (Michael W. Deem and Ramdas Pophale) SiO2 
 PCOD9108705
Probable space group: P -1
;
_chemical_formula_sum "Si O2"
_cell_formula_units_Z 13
_cell_length_a 13.643070
_cell_length_b 7.696287
_cell_length_c 8.797097
_cell_angle_alpha 121.393298
_cell_angle_beta 61.626042
_cell_angle_gamma 132.616864
_cell_volume 569.100245
_symmetry_space_group_name_H-M "P -1"
_symmetry_group_IT_number 2
_symmetry_cell_setting 'triclinic'
loop_
_space_group_symop_operation_xyz
x,y,z
-x,-y,-z
loop_
_atom_site_type_symbol
_atom_site_label
_atom_site_fract_x
_atom_site_fract_y
_atom_site_fract_z
Si Si1 0.912119 0.824389 0.620527
Si Si2 0.500000 0.500000 0.000000
Si Si3 0.473112 0.202314 0.293408
Si Si4 0.780463 0.039344 0.022415
Si Si5 0.625889 0.474783 0.587243
Si Si6 0.988820 0.757746 0.837946
Si Si7 0.298029 0.693807 0.029366
O O1 0.781212 0.575316 0.535629
O O2 0.990384 0.768234 0.659628
O O3 0.000000 0.000000 0.500000
O O4 0.858868 0.966465 0.817643
O O5 0.568751 0.445358 0.783293
O O6 0.354069 0.223651 0.953736
O O7 0.537769 0.252823 0.434116
O O8 0.382506 0.308626 0.387290
O O9 0.386362 0.915648 0.183768
O O10 0.593688 0.350983 0.144106
O O11 0.883264 0.209182 0.158234
O O12 0.737353 0.190611 0.027917
O O13 0.840852 0.529195 0.898400
O O14 0.000000 0.000000 0.000000
#
# Coordination Sequence:
#
# PCOD9108705 Si02
#       7
#     2   1   2   2   2   2   2
#     4  10  22  41  65  95 132 174 230 273 326 407
#     4  10  20  40  70  96 132 168 230 262 340 396
#     4  10  23  38  70  99 131 181 216 283 338 397
#     4  10  22  42  67  99 133 178 214 287 331 399
#     4  10  22  40  68  98 131 178 224 275 330 409
#     4  10  24  39  67  93 126 187 224 264 340 406
#     4  11  22  43  66 101 141 169 231 282 341 392
#
# _framework density 22.843076
#
# number of rings (size 3 to 8) (size 9 to 14) (size 15 to 20)
#    0.000    1.846    3.077    0.462   10.769    1.231 
#    0.000    3.846    0.000    0.000    0.000    0.000 
#    0.000    0.000    0.000    0.000    0.000    0.000 
#
# Total GULP energy -72448.852231 kJ/mol
# GULP energy per Si atom -5572.988633 kJ/mol
# Density = 2.279108 g / cm^3
# Si number density = 22.843076 Si / 1000 Ang^3
#
#
#
# Elastic Constant Matrix: (Units=GPa)
#
#
# Indices 1 2 3 4 5 6 
#
# 1 107.6433 45.5701 33.7523 15.3746 34.3309 22.8812
# 2 45.5701 155.1902 68.1830 -28.1652 28.2443 40.7251
# 3 33.7523 68.1830 77.0037 0.0025 29.6787 27.8138
# 4 15.3746 -28.1652 0.0025 33.0390 7.8551 -6.7242
# 5 34.3309 28.2443 29.6787 7.8551 37.4519 15.6983
# 6 22.8812 40.7251 27.8138 -6.7242 15.6983 31.0031
#
#
#
# Elastic Compliance Matrix: (Units=1/GPa)
#
#
# Indices 1 2 3 4 5 6 
#
# 1 0.015891 -0.004563 0.002460 -0.010516 -0.008359 -0.005990
# 2 -0.004563 0.016912 -0.010566 0.015768 -0.001285 -0.005298
# 3 0.002460 -0.010566 0.029439 -0.009755 -0.011005 -0.010890
# 4 -0.010516 0.015768 -0.009755 0.054030 -0.011431 0.013306
# 5 -0.008359 -0.001285 -0.011005 -0.011431 0.050851 -0.010497
# 6 -0.005990 -0.005298 -0.010890 0.013306 -0.010497 0.061606
#
#
# Mechanical properties :
#
#
# Convention : Reuss Voigt Hill
#
# Bulk Modulus (GPa) = 27.09626 70.53866 48.81746
# Shear Modulus (GPa) = 18.77101 33.12093 25.94597
#
# Velocity S-wave (km/s) = 2.86971 3.81193 3.37387
# Velocity P-wave (km/s) = 4.78204 7.09374 6.04934
#
# Compressibility (1/GPa) = 0.03690546
#
# Stress axis : x y z
#
# Youngs Moduli (GPa) = 62.92674 59.13128 33.96798
#
# Poissons Ratio (x) = 0.26979 -0.08357
# Poissons Ratio (y) = 0.28710 0.35892
# Poissons Ratio (z) = -0.15482 0.62480
#
# Static dielectric constant tensor:
#      x y z
#    x 2.016900 -0.073960 0.022050 
#    y -0.073960 1.852240 0.020330 
#    z 0.022050 0.020330 1.856710 
# 
# From -- ./inp_files/158101.got.cif
#   From: 2010.05.17/outbox.cif.g08.bks.cpg/sg2_80_cif.got.tgz:158101.got - 2010.06.03 11:33:40.
