data_PCOD9108226
_publ_section_title
;
Structure prediction by ZEFSAII (Michael W. Deem and Ramdas Pophale) SiO2 
 PCOD9108226
Probable space group: P -1
;
_chemical_formula_sum "Si O2"
_cell_formula_units_Z 15
_cell_length_a 10.811921
_cell_length_b 13.766682
_cell_length_c 13.056259
_cell_angle_alpha 148.525786
_cell_angle_beta 138.128607
_cell_angle_gamma 37.743463
_cell_volume 605.916527
_symmetry_space_group_name_H-M "P -1"
_symmetry_group_IT_number 2
_symmetry_cell_setting 'triclinic'
loop_
_space_group_symop_operation_xyz
x,y,z
-x,-y,-z
loop_
_atom_site_type_symbol
_atom_site_label
_atom_site_fract_x
_atom_site_fract_y
_atom_site_fract_z
Si Si1 0.249624 0.110897 0.712095
Si Si2 0.843262 0.789362 0.967872
Si Si3 0.564158 0.337593 0.590607
Si Si4 0.096272 0.453122 0.403836
Si Si5 0.000000 0.500000 0.000000
Si Si6 0.486694 0.776807 0.855930
Si Si7 0.444806 0.697818 0.214044
Si Si8 0.777393 0.857367 0.512920
O O1 0.033853 0.311660 0.773875
O O2 0.297954 0.098485 0.610977
O O3 0.275889 0.885007 0.554020
O O4 0.399998 0.171055 0.929859
O O5 0.950495 0.685141 0.833757
O O6 0.626893 0.772651 0.841643
O O7 0.974368 0.660540 0.029651
O O8 0.745007 0.040345 0.132411
O O9 0.341449 0.339046 0.459184
O O10 0.531290 0.542662 0.694957
O O11 0.607239 0.354648 0.752595
O O12 0.000000 0.500000 0.500000
O O13 0.009198 0.681661 0.506705
O O14 0.637789 0.756311 0.384946
O O15 0.263372 0.920383 0.266877
O O16 0.500000 0.500000 0.000000
#
# Coordination Sequence:
#
# PCOD9108226 Si02
#       8
#     2   2   2   2   1   2   2   2
#     4  10  20  40  67  93 130 169 215 272 333 382
#     4  10  22  43  67  94 131 172 216 272 336 383
#     4  11  23  40  66  97 130 172 220 268 328 397
#     4  12  23  42  62  96 136 173 215 265 330 387
#     4  10  20  40  68  94 124 170 218 266 332 388
#     4  10  22  43  68  97 123 170 221 276 326 393
#     4  10  21  39  63  91 125 175 221 259 321 386
#     4  10  21  39  63  90 132 171 210 273 318 386
#
# _framework density 24.755886
#
# number of rings (size 3 to 8) (size 9 to 14) (size 15 to 20)
#    0.000    1.600    4.000    0.800    0.000    1.600 
#    2.400    6.667    0.000    0.000    0.000    0.000 
#    0.000    0.000    0.000    0.000    0.000    0.000 
#
# Total GULP energy -83515.199204 kJ/mol
# GULP energy per Si atom -5567.679947 kJ/mol
# Density = 2.469954 g / cm^3
# Si number density = 24.755886 Si / 1000 Ang^3
#
#
#
# Elastic Constant Matrix: (Units=GPa)
#
#
# Indices 1 2 3 4 5 6 
#
# 1 80.2797 20.4366 48.1634 5.3197 -14.4254 14.7996
# 2 20.4366 87.4705 31.1903 22.6609 2.7289 19.6442
# 3 48.1634 31.1903 135.2010 43.8081 -19.6439 9.4425
# 4 5.3197 22.6609 43.8081 50.0467 5.5451 -3.7402
# 5 -14.4254 2.7289 -19.6439 5.5451 44.2637 3.4942
# 6 14.7996 19.6442 9.4425 -3.7402 3.4942 32.6379
#
#
#
# Elastic Compliance Matrix: (Units=1/GPa)
#
#
# Indices 1 2 3 4 5 6 
#
# 1 0.018023 -0.001869 -0.006440 0.003851 0.003049 -0.005070
# 2 -0.001869 0.016072 0.000345 -0.008160 0.000357 -0.009899
# 3 -0.006440 0.000345 0.015438 -0.014046 0.006814 -0.004093
# 4 0.003851 -0.008160 -0.014046 0.037635 -0.010187 0.012633
# 5 0.003049 0.000357 0.006814 -0.010187 0.028478 -0.007785
# 6 -0.005070 -0.009899 -0.004093 0.012633 -0.007785 0.042362
#
#
# Mechanical properties :
#
#
# Convention : Reuss Voigt Hill
#
# Bulk Modulus (GPa) = 29.75639 55.83687 42.79663
# Shear Modulus (GPa) = 27.00691 38.93371 32.97031
#
# Velocity S-wave (km/s) = 3.30650 3.97004 3.65337
# Velocity P-wave (km/s) = 5.15978 6.60446 5.92631
#
# Compressibility (1/GPa) = 0.03360623
#
# Stress axis : x y z
#
# Youngs Moduli (GPa) = 55.48419 62.21965 64.77438
#
# Poissons Ratio (x) = 0.11627 0.41716
# Poissons Ratio (y) = 0.10369 -0.02237
# Poissons Ratio (z) = 0.35733 -0.02149
#
# Static dielectric constant tensor:
#      x y z
#    x 2.026250 -0.131740 0.023050 
#    y -0.131740 2.158380 -0.000310 
#    z 0.023050 -0.000310 1.960610 
# 
# From -- ./inp_files/521933.got.cif
#   From: 2010.05.17/outbox.cif.g08.bks.cpg/sg2_261_cif.got.tgz:521933.got - 2010.06.03 11:33:40.
