data_PCOD9108038
_publ_section_title
;
Structure prediction by ZEFSAII (Michael W. Deem and Ramdas Pophale) SiO2 
 PCOD9108038
Probable space group: P -1
;
_chemical_formula_sum "Si O2"
_cell_formula_units_Z 16
_cell_length_a 15.610329
_cell_length_b 9.835837
_cell_length_c 10.162783
_cell_angle_alpha 73.264563
_cell_angle_beta 56.561474
_cell_angle_gamma 118.398909
_cell_volume 758.521891
_symmetry_space_group_name_H-M "P -1"
_symmetry_group_IT_number 2
_symmetry_cell_setting 'triclinic'
loop_
_space_group_symop_operation_xyz
x,y,z
-x,-y,-z
loop_
_atom_site_type_symbol
_atom_site_label
_atom_site_fract_x
_atom_site_fract_y
_atom_site_fract_z
Si Si1 0.163037 0.065637 0.687560
Si Si2 0.860569 0.773935 0.587238
Si Si3 0.604183 0.294982 0.075201
Si Si4 0.277686 0.887874 0.978684
Si Si5 0.646264 0.047466 0.829932
Si Si6 0.189899 0.355777 0.783594
Si Si7 0.097784 0.436065 0.602251
Si Si8 0.476716 0.227041 0.475823
O O1 0.188919 0.160550 0.495387
O O2 0.164699 0.192942 0.757686
O O3 0.318709 0.139044 0.575859
O O4 0.972975 0.796036 0.943074
O O5 0.905297 0.687561 0.476232
O O6 0.715952 0.551575 0.865786
O O7 0.000000 0.000000 0.500000
O O8 0.552284 0.227097 0.288814
O O9 0.433557 0.115176 0.182687
O O10 0.711434 0.269411 0.964662
O O11 0.330201 0.014420 0.039186
O O12 0.092408 0.740021 0.145631
O O13 0.403638 0.062565 0.707139
O O14 0.814086 0.321295 0.583945
O O15 0.500000 0.000000 0.000000
O O16 0.198833 0.490711 0.629505
O O17 0.359104 0.513922 0.677780
#
# Coordination Sequence:
#
# PCOD9108038 Si02
#       8
#     2   2   2   2   2   2   2   2
#     4  10  23  42  65  96 131 184 231 264 333 406
#     4  11  24  43  69  97 140 178 221 285 338 393
#     4  11  25  44  65 101 140 173 223 283 340 399
#     4  11  23  41  70 103 128 179 228 273 341 403
#     4  10  20  40  66  95 130 175 223 275 329 396
#     4  10  21  42  65  95 135 175 229 279 323 402
#     4  11  21  42  72  99 130 178 234 275 330 410
#     4  12  24  43  67 100 140 173 222 283 345 397
#
# _framework density 21.093654999999998
#
# number of rings (size 3 to 8) (size 9 to 14) (size 15 to 20)
#    0.000    1.250    3.750    3.375    1.750    1.500 
#    4.500    1.250    0.000    0.000    0.000    0.000 
#    0.000    0.000    0.000    0.000    0.000    0.000 
#
# Total GULP energy -89241.016455 kJ/mol
# GULP energy per Si atom -5577.563528 kJ/mol
# Density = 2.104564 g / cm^3
# Si number density = 21.093655 Si / 1000 Ang^3
#
#
#
# Elastic Constant Matrix: (Units=GPa)
#
#
# Indices 1 2 3 4 5 6 
#
# 1 -27.0370 -33.5634 -25.7491 -47.1213 -18.0877 -75.1568
# 2 -33.5634 57.3410 4.2382 -34.6438 4.5740 -21.1389
# 3 -25.7491 4.2382 67.4362 -32.2837 -6.9322 -30.2474
# 4 -47.1213 -34.6438 -32.2837 10.7402 -5.8928 -39.6099
# 5 -18.0877 4.5740 -6.9322 -5.8928 24.3247 -22.5691
# 6 -75.1568 -21.1389 -30.2474 -39.6099 -22.5691 -65.9794
#
#
#
# Elastic Compliance Matrix: (Units=1/GPa)
#
#
# Indices 1 2 3 4 5 6 
#
# 1 0.019964 0.007456 -0.001791 0.007166 -0.009016 -0.025527
# 2 0.007456 0.027195 -0.001113 0.020973 -0.016684 -0.023580
# 3 -0.001791 -0.001113 0.013662 0.005191 -0.001860 -0.006346
# 4 0.007166 0.020973 0.005191 0.049695 -0.021857 -0.039620
# 5 -0.009016 -0.016684 -0.001860 -0.021857 0.044917 0.014225
# 6 -0.025527 -0.023580 -0.006346 -0.039620 0.014225 0.043305
#
#
# Mechanical properties :
#
#
# Convention : Reuss Voigt Hill
#
# Bulk Modulus (GPa) = 14.30105 -1.37872 6.46117
# Shear Modulus (GPa) = 23.48054 4.00474 13.74264
#
# Velocity S-wave (km/s) = 3.34002 1.37937 2.55523
# Velocity P-wave (km/s) = 4.65498 1.37181 3.43152
#
# Compressibility (1/GPa) = 0.06992491
#
# Stress axis : x y z
#
# Youngs Moduli (GPa) = 50.09018 36.77096 73.19452
#
# Poissons Ratio (x) = -0.27418 0.13112
# Poissons Ratio (y) = -0.37349 0.08148
# Poissons Ratio (z) = 0.08973 0.04094
#
# Static dielectric constant tensor:
#      x y z
#    x 1.780870 0.012240 0.021750 
#    y 0.012240 1.804860 -0.006830 
#    z 0.021750 -0.006830 1.779360 
# 
# From -- ./inp_files/306985.got.cif
#   From: 2010.05.17/outbox.cif.g08.bks.cpg/sg2_154_cif.got.tgz:306985.got - 2010.06.03 11:33:40.
