data_PCOD9108435
_publ_section_title
;
Structure prediction by ZEFSAII (Michael W. Deem and Ramdas Pophale) SiO2 
 PCOD9108435
Probable space group: P -1
;
_chemical_formula_sum "Si O2"
_cell_formula_units_Z 16
_cell_length_a 20.417881
_cell_length_b 12.237821
_cell_length_c 11.378656
_cell_angle_alpha 35.938561
_cell_angle_beta 31.474551
_cell_angle_gamma 24.795924
_cell_volume 614.383468
_symmetry_space_group_name_H-M "P -1"
_symmetry_group_IT_number 2
_symmetry_cell_setting 'triclinic'
loop_
_space_group_symop_operation_xyz
x,y,z
-x,-y,-z
loop_
_atom_site_type_symbol
_atom_site_label
_atom_site_fract_x
_atom_site_fract_y
_atom_site_fract_z
Si Si1 0.369971 0.114629 0.975025
Si Si2 0.359371 0.570466 0.378559
Si Si3 0.388746 0.404124 0.027117
Si Si4 0.802918 0.649994 0.215490
Si Si5 0.916478 0.995551 0.379885
Si Si6 0.404972 0.775773 0.468092
Si Si7 0.174070 0.373849 0.540782
Si Si8 0.085432 0.654651 0.083457
O O1 0.306379 0.180307 0.880115
O O2 0.530810 0.085577 0.775582
O O3 0.460713 0.818902 0.102095
O O4 0.212197 0.377858 0.058316
O O5 0.258151 0.501319 0.539356
O O6 0.201883 0.819449 0.487318
O O7 0.521949 0.327387 0.423349
O O8 0.486307 0.580992 0.105115
O O9 0.331874 0.299623 0.291534
O O10 0.208549 0.612026 0.038181
O O11 0.778501 0.757748 0.289262
O O12 0.000000 0.500000 0.000000
O O13 0.793638 0.035784 0.432364
O O14 0.975270 0.122546 0.111217
O O15 0.048555 0.689807 0.476668
O O16 0.500000 0.500000 0.500000
O O17 0.077359 0.312156 0.669255
#
# Coordination Sequence:
#
# PCOD9108435 Si02
#       8
#     2   2   2   2   2   2   2   2
#     4  11  21  41  72  94 125 178 228 282 322 381
#     4  10  20  40  68  96 125 168 231 278 318 388
#     4  12  26  42  64 105 138 175 217 278 350 405
#     4  11  23  47  70  95 128 175 239 277 323 403
#     4  11  20  41  70 100 130 175 222 284 333 388
#     4   9  15  34  63  97 125 154 220 280 318 373
#     4  12  28  43  62 102 146 179 218 268 349 412
#     4  12  21  45  70 101 134 172 231 277 333 397
#
# _framework density 26.042369000000001
#
# number of rings (size 3 to 8) (size 9 to 14) (size 15 to 20)
#    0.000    1.000    6.250    3.000    0.000    2.000 
#    6.750    0.000    0.000    0.000    0.000    0.000 
#    0.000    0.000    0.000    0.000    0.000    0.000 
#
# Total GULP energy -89181.663969 kJ/mol
# GULP energy per Si atom -5573.853998 kJ/mol
# Density = 2.598309 g / cm^3
# Si number density = 26.042369 Si / 1000 Ang^3
#
#
#
# Elastic Constant Matrix: (Units=GPa)
#
#
# Indices 1 2 3 4 5 6 
#
# 1 127.4367 20.9640 28.9504 11.6162 -18.0456 -2.8308
# 2 20.9640 52.9170 2.3791 3.1995 -10.2749 -4.3856
# 3 28.9504 2.3791 170.0989 -7.6113 -42.5674 0.7594
# 4 11.6162 3.1995 -7.6113 23.7772 -0.4261 1.6157
# 5 -18.0456 -10.2749 -42.5674 -0.4261 52.5224 0.9547
# 6 -2.8308 -4.3856 0.7594 1.6157 0.9547 21.5559
#
#
#
# Elastic Compliance Matrix: (Units=1/GPa)
#
#
# Indices 1 2 3 4 5 6 
#
# 1 0.009300 -0.002987 -0.001396 -0.004627 0.001425 0.000947
# 2 -0.002987 0.021186 0.001131 -0.001217 0.003956 0.003794
# 3 -0.001396 0.001131 0.007766 0.003175 0.006075 -0.000734
# 4 -0.004627 -0.001217 0.003175 0.045822 0.001198 -0.004455
# 5 0.001425 0.003956 0.006075 0.001198 0.025244 -0.000430
# 6 0.000947 0.003794 -0.000734 -0.004455 -0.000430 0.047666
#
#
# Mechanical properties :
#
#
# Convention : Reuss Voigt Hill
#
# Bulk Modulus (GPa) = 31.49732 50.55997 41.02865
# Shear Modulus (GPa) = 28.72396 39.44838 34.08617
#
# Velocity S-wave (km/s) = 3.32470 3.89624 3.62176
# Velocity P-wave (km/s) = 5.18258 6.30060 5.76874
#
# Compressibility (1/GPa) = 0.03174873
#
# Stress axis : x y z
#
# Youngs Moduli (GPa) = 107.52656 47.20081 128.76217
#
# Poissons Ratio (x) = 0.14097 0.17971
# Poissons Ratio (y) = 0.32115 -0.14558
# Poissons Ratio (z) = 0.15008 -0.05336
#
# Static dielectric constant tensor:
#      x y z
#    x 2.115440 0.028070 0.080710 
#    y 0.028070 2.165530 -0.048710 
#    z 0.080710 -0.048710 2.278420 
# 
# From -- ./inp_files/471137.got.cif
#   From: 2010.05.17/outbox.cif.g08.bks.cpg/sg2_236_cif.got.tgz:471137.got - 2010.06.03 11:33:40.
