data_PCOD9108872
_publ_section_title
;
Structure prediction by ZEFSAII (Michael W. Deem and Ramdas Pophale) SiO2 
 PCOD9108872
Probable space group: P -1
;
_chemical_formula_sum "Si O2"
_cell_formula_units_Z 16
_cell_length_a 9.494483
_cell_length_b 13.016280
_cell_length_c 15.579734
_cell_angle_alpha 148.231243
_cell_angle_beta 140.109992
_cell_angle_gamma 61.733912
_cell_volume 551.522560
_symmetry_space_group_name_H-M "P -1"
_symmetry_group_IT_number 2
_symmetry_cell_setting 'triclinic'
loop_
_space_group_symop_operation_xyz
x,y,z
-x,-y,-z
loop_
_atom_site_type_symbol
_atom_site_label
_atom_site_fract_x
_atom_site_fract_y
_atom_site_fract_z
Si Si1 0.638274 0.695885 0.300107
Si Si2 0.112108 0.158738 0.312139
Si Si3 0.686802 0.401389 0.675935
Si Si4 0.795326 0.350634 0.385848
Si Si5 0.863080 0.685612 0.798904
Si Si6 0.627526 0.941306 0.149536
Si Si7 0.905542 0.701049 0.153809
Si Si8 0.372653 0.746269 0.063099
O O1 0.816414 0.876627 0.582728
O O2 0.731165 0.520629 0.197139
O O3 0.350053 0.512662 0.071501
O O4 0.599332 0.807786 0.278719
O O5 0.393040 0.260986 0.472464
O O6 0.890109 0.929013 0.998090
O O7 0.995150 0.316708 0.396592
O O8 0.676418 0.494465 0.643595
O O9 0.844810 0.271726 0.663132
O O10 0.867412 0.608883 0.973037
O O11 0.856685 0.580348 0.628073
O O12 0.714662 0.168098 0.297345
O O13 0.543943 0.257707 0.141888
O O14 0.149171 0.754367 0.012195
O O15 0.848081 0.904293 0.264627
O O16 0.447367 0.884955 0.108232
#
# Coordination Sequence:
#
# PCOD9108872 Si02
#       8
#     2   2   2   2   2   2   2   2
#     4   9  18  40  70 108 155 187 239 311 369 458
#     4  11  25  47  76 112 154 201 241 310 387 445
#     4  10  22  43  71 113 159 183 242 315 374 463
#     4  11  26  52  75 106 150 199 266 314 357 448
#     4  12  25  45  75 114 149 201 251 306 379 455
#     4  10  24  47  80 103 144 208 256 312 375 431
#     4   9  18  42  73 107 146 198 240 301 385 445
#     4  10  20  40  74 109 142 192 249 300 377 444
#
# _framework density 29.010598000000002
#
# number of rings (size 3 to 8) (size 9 to 14) (size 15 to 20)
#    0.000    1.750    2.500    0.750    1.750    1.000 
#    2.250    7.500    0.000    0.000    0.000    0.000 
#    0.000    0.000    0.000    0.000    0.000    0.000 
#
# Total GULP energy -89710.711051 kJ/mol
# GULP energy per Si atom -5606.919441 kJ/mol
# Density = 2.894457 g / cm^3
# Si number density = 29.010598 Si / 1000 Ang^3
#
#
#
# Elastic Constant Matrix: (Units=GPa)
#
#
# Indices 1 2 3 4 5 6 
#
# 1 148.9508 54.4065 39.5922 2.3553 -5.8955 8.0419
# 2 54.4065 138.9166 49.1105 -15.8632 7.1069 -5.9036
# 3 39.5922 49.1105 129.7814 -6.3572 -12.5644 -8.1912
# 4 2.3553 -15.8632 -6.3572 47.9167 -0.7029 -6.1213
# 5 -5.8955 7.1069 -12.5644 -0.7029 60.9263 -0.9627
# 6 8.0419 -5.9036 -8.1912 -6.1213 -0.9627 58.1093
#
#
#
# Elastic Compliance Matrix: (Units=1/GPa)
#
#
# Indices 1 2 3 4 5 6 
#
# 1 0.008411 -0.003088 -0.001529 -0.001866 0.000807 -0.001876
# 2 -0.003088 0.009906 -0.002754 0.003210 -0.001964 0.001351
# 3 -0.001529 -0.002754 0.009542 0.000638 0.002170 0.001380
# 4 -0.001866 0.003210 0.000638 0.022495 -0.000116 0.003042
# 5 0.000807 -0.001964 0.002170 -0.000116 0.017171 0.000267
# 6 -0.001876 0.001351 0.001380 0.003042 0.000267 0.018125
#
#
# Mechanical properties :
#
#
# Convention : Reuss Voigt Hill
#
# Bulk Modulus (GPa) = 76.23633 78.20749 77.22191
# Shear Modulus (GPa) = 47.72598 51.69310 49.70954
#
# Velocity S-wave (km/s) = 4.06041 4.22580 4.14393
# Velocity P-wave (km/s) = 6.95115 7.12928 7.04078
#
# Compressibility (1/GPa) = 0.01311710
#
# Stress axis : x y z
#
# Youngs Moduli (GPa) = 118.89679 100.94997 104.79542
#
# Poissons Ratio (x) = 0.31169 0.16024
# Poissons Ratio (y) = 0.36711 0.28863
# Poissons Ratio (z) = 0.18181 0.27804
#
# Static dielectric constant tensor:
#      x y z
#    x 2.240090 -0.027370 -0.011240 
#    y -0.027370 2.300750 0.070530 
#    z -0.011240 0.070530 2.248280 
# 
# From -- ./inp_files/405973.got.cif
#   From: 2010.05.17/outbox.cif.g08.bks.cpg/sg2_203_cif.got.tgz:405973.got - 2010.06.03 11:33:40.
