data_PCOD9108061
_publ_section_title
;
Structure prediction by ZEFSAII (Michael W. Deem and Ramdas Pophale) SiO2 
 PCOD9108061
Probable space group: P -1
;
_chemical_formula_sum "Si O2"
_cell_formula_units_Z 15
_cell_length_a 11.402200
_cell_length_b 17.490322
_cell_length_c 14.369686
_cell_angle_alpha 31.007150
_cell_angle_beta 151.351643
_cell_angle_gamma 130.870796
_cell_volume 649.887526
_symmetry_space_group_name_H-M "P -1"
_symmetry_group_IT_number 2
_symmetry_cell_setting 'triclinic'
loop_
_space_group_symop_operation_xyz
x,y,z
-x,-y,-z
loop_
_atom_site_type_symbol
_atom_site_label
_atom_site_fract_x
_atom_site_fract_y
_atom_site_fract_z
Si Si1 0.357979 0.521052 0.223214
Si Si2 0.761218 0.896172 0.670800
Si Si3 0.002728 0.542112 0.117237
Si Si4 0.000000 0.500000 0.500000
Si Si5 0.226799 0.851842 0.364215
Si Si6 0.724944 0.110762 0.246531
Si Si7 0.870324 0.723956 0.357014
Si Si8 0.874591 0.279462 0.751399
O O1 0.660245 0.402882 0.540997
O O2 0.266422 0.503643 0.280592
O O3 0.199524 0.464785 0.095489
O O4 0.294793 0.707074 0.963555
O O5 0.479175 0.896386 0.506546
O O6 0.739470 0.034453 0.438496
O O7 0.893953 0.723224 0.891407
O O8 0.960655 0.881696 0.909983
O O9 0.043574 0.404989 0.365350
O O10 0.858273 0.632584 0.347778
O O11 0.082249 0.354256 0.785730
O O12 0.277805 0.720754 0.451349
O O13 0.101831 0.787350 0.428201
O O14 0.000000 0.000000 0.000000
O O15 0.425103 0.136455 0.975404
O O16 0.000000 0.000000 0.500000
#
# Coordination Sequence:
#
# PCOD9108061 Si02
#       8
#     2   2   2   1   2   2   2   2
#     4  11  24  45  69 103 143 177 241 296 340 432
#     4  12  24  44  70 103 138 189 228 284 366 410
#     4  11  24  44  72 104 132 189 238 288 355 415
#     4  10  20  40  66  96 130 168 238 276 328 414
#     4  11  25  46  66 101 150 177 234 298 342 429
#     4  12  25  43  68 103 144 181 235 293 353 424
#     4  11  24  44  71  99 135 187 230 289 354 409
#     4  11  24  41  72 100 134 187 235 290 349 417
#
# _framework density 23.080916999999999
#
# number of rings (size 3 to 8) (size 9 to 14) (size 15 to 20)
#    0.000    0.800    6.667    0.000    1.867    4.267 
#    0.000    0.667    0.000    0.000    0.000    0.000 
#    0.000    0.000    0.000    0.000    0.000    0.000 
#
# Total GULP energy -83506.911481 kJ/mol
# GULP energy per Si atom -5567.127432 kJ/mol
# Density = 2.302838 g / cm^3
# Si number density = 23.080917 Si / 1000 Ang^3
#
#
#
# Elastic Constant Matrix: (Units=GPa)
#
#
# Indices 1 2 3 4 5 6 
#
# 1 170.7872 43.7481 52.7297 -12.5021 -4.5516 21.5114
# 2 43.7481 56.1745 11.6053 2.0387 -1.7400 5.8148
# 3 52.7297 11.6053 72.0818 -10.1070 -9.0458 0.5438
# 4 -12.5021 2.0387 -10.1070 39.3853 7.2698 -5.4996
# 5 -4.5516 -1.7400 -9.0458 7.2698 50.5438 -14.0381
# 6 21.5114 5.8148 0.5438 -5.4996 -14.0381 33.1545
#
#
#
# Elastic Compliance Matrix: (Units=1/GPa)
#
#
# Indices 1 2 3 4 5 6 
#
# 1 0.010296 -0.006134 -0.006595 0.001463 -0.002418 -0.006278
# 2 -0.006134 0.022637 0.000491 -0.003154 0.000707 -0.000222
# 3 -0.006595 0.000491 0.019515 0.002973 0.004194 0.006142
# 4 0.001463 -0.003154 0.002973 0.027683 -0.002578 0.003056
# 5 -0.002418 0.000707 0.004194 -0.002578 0.023772 0.011014
# 6 -0.006278 -0.000222 0.006142 0.003056 0.011014 0.039343
#
#
# Mechanical properties :
#
#
# Convention : Reuss Voigt Hill
#
# Bulk Modulus (GPa) = 35.75103 57.24553 46.49828
# Shear Modulus (GPa) = 28.24094 37.34742 32.79418
#
# Velocity S-wave (km/s) = 3.50174 4.02694 3.77349
# Velocity P-wave (km/s) = 5.64559 6.81745 6.25900
#
# Compressibility (1/GPa) = 0.02797122
#
# Stress axis : x y z
#
# Youngs Moduli (GPa) = 97.12378 44.17570 51.24141
#
# Poissons Ratio (x) = 0.27098 0.33795
# Poissons Ratio (y) = 0.59577 -0.02515
# Poissons Ratio (z) = 0.64055 -0.02168
#
# Static dielectric constant tensor:
#      x y z
#    x 1.905090 -0.051950 0.040780 
#    y -0.051950 2.108950 0.059070 
#    z 0.040780 0.059070 1.846440 
# 
# From -- ./inp_files/523904.got.cif
#   From: 2010.05.17/outbox.cif.g08.bks.cpg/sg2_262_cif.got.tgz:523904.got - 2010.06.03 11:33:40.
