data_PCOD9108961
_publ_section_title
;
Structure prediction by ZEFSAII (Michael W. Deem and Ramdas Pophale) SiO2 
 PCOD9108961
Probable space group: P -1
;
_chemical_formula_sum "Si O2"
_cell_formula_units_Z 14
_cell_length_a 10.007078
_cell_length_b 21.542066
_cell_length_c 7.350102
_cell_angle_alpha 46.632527
_cell_angle_beta 135.082261
_cell_angle_gamma 143.752177
_cell_volume 635.653818
_symmetry_space_group_name_H-M "P -1"
_symmetry_group_IT_number 2
_symmetry_cell_setting 'triclinic'
loop_
_space_group_symop_operation_xyz
x,y,z
-x,-y,-z
loop_
_atom_site_type_symbol
_atom_site_label
_atom_site_fract_x
_atom_site_fract_y
_atom_site_fract_z
Si Si1 0.854709 0.445970 0.659392
Si Si2 0.631193 0.664388 0.180396
Si Si3 0.061966 0.117769 0.145378
Si Si4 0.520923 0.957844 0.797873
Si Si5 0.169588 0.434342 0.258803
Si Si6 0.929955 0.064915 0.523894
Si Si7 0.436623 0.231557 0.805194
O O1 0.859089 0.526332 0.649066
O O2 0.580864 0.332744 0.597703
O O3 0.000000 0.500000 0.500000
O O4 0.973996 0.405380 0.980156
O O5 0.417864 0.537455 0.195542
O O6 0.806369 0.658283 0.490760
O O7 0.496538 0.704452 0.070037
O O8 0.789142 0.755120 0.001375
O O9 0.076366 0.102116 0.402797
O O10 0.152593 0.054585 0.266983
O O11 0.784435 0.049966 0.950650
O O12 0.292907 0.935555 0.722916
O O13 0.500000 0.000000 0.500000
O O14 0.499629 0.849606 0.986134
O O15 0.142814 0.154139 0.682230
#
# Coordination Sequence:
#
# PCOD9108961 Si02
#       7
#     2   2   2   2   2   2   2
#     4  10  22  41  63  92 124 158 204 255 302 364
#     4  10  20  41  61  84 121 161 197 252 306 355
#     4  10  22  38  61  86 122 160 195 250 309 350
#     4  11  22  37  61  89 117 159 199 244 302 364
#     4   9  22  41  61  91 124 158 206 252 302 366
#     4  10  22  40  56  91 123 151 207 249 291 375
#     4  10  23  38  61  89 119 156 204 249 298 363
#
# _framework density 22.024567000000001
#
# number of rings (size 3 to 8) (size 9 to 14) (size 15 to 20)
#    0.000    2.000    0.000    2.143    6.000    3.429 
#    2.571    2.143    0.000    0.000    0.000    0.000 
#    0.000    0.000    0.000    0.000    0.000    0.000 
#
# Total GULP energy -78001.241348 kJ/mol
# GULP energy per Si atom -5571.517239 kJ/mol
# Density = 2.197444 g / cm^3
# Si number density = 22.024567 Si / 1000 Ang^3
#
#
#
# Elastic Constant Matrix: (Units=GPa)
#
#
# Indices 1 2 3 4 5 6 
#
# 1 58.1125 16.1923 23.5532 -11.0857 7.2402 6.0212
# 2 16.1923 38.1574 30.6017 -14.9345 0.1140 1.3684
# 3 23.5532 30.6017 91.6504 -17.7709 2.3648 0.6270
# 4 -11.0857 -14.9345 -17.7709 42.8172 12.3226 0.4515
# 5 7.2402 0.1140 2.3648 12.3226 42.4762 3.0707
# 6 6.0212 1.3684 0.6270 0.4515 3.0707 22.8390
#
#
#
# Elastic Compliance Matrix: (Units=1/GPa)
#
#
# Indices 1 2 3 4 5 6 
#
# 1 0.021594 -0.005094 -0.002955 0.003869 -0.004278 -0.004808
# 2 -0.005094 0.040121 -0.010364 0.008707 -0.001131 -0.000796
# 3 -0.002955 -0.010364 0.015620 0.002413 -0.001116 0.001074
# 4 0.003869 0.008707 0.002413 0.031229 -0.009811 -0.000906
# 5 -0.004278 -0.001131 -0.001116 -0.009811 0.027346 -0.002257
# 6 -0.004808 -0.000796 0.001074 -0.000906 -0.002257 0.045392
#
#
# Mechanical properties :
#
#
# Convention : Reuss Voigt Hill
#
# Bulk Modulus (GPa) = 24.68588 36.51274 30.59931
# Shear Modulus (GPa) = 21.58600 29.46469 25.52535
#
# Velocity S-wave (km/s) = 3.13403 3.66158 3.40803
# Velocity P-wave (km/s) = 4.93243 5.87285 5.42306
#
# Compressibility (1/GPa) = 0.04050899
#
# Stress axis : x y z
#
# Youngs Moduli (GPa) = 46.30835 24.92479 64.01951
#
# Poissons Ratio (x) = 0.12697 0.18919
# Poissons Ratio (y) = 0.23590 0.66350
# Poissons Ratio (z) = 0.13685 0.25832
#
# Static dielectric constant tensor:
#      x y z
#    x 1.956550 0.029960 0.007690 
#    y 0.029960 1.947290 0.027410 
#    z 0.007690 0.027410 1.782080 
# 
# From -- ./inp_files/285663.got.cif
#   From: 2010.05.17/outbox.cif.g08.bks.cpg/sg2_143_cif.got.tgz:285663.got - 2010.06.03 11:33:40.
