data_PCOD9108760
_publ_section_title
;
Structure prediction by ZEFSAII (Michael W. Deem and Ramdas Pophale) SiO2 
 PCOD9108760
Probable space group: P -1
;
_chemical_formula_sum "Si O2"
_cell_formula_units_Z 14
_cell_length_a 11.592556
_cell_length_b 9.406101
_cell_length_c 10.516509
_cell_angle_alpha 58.534986
_cell_angle_beta 78.230714
_cell_angle_gamma 37.392668
_cell_volume 542.601842
_symmetry_space_group_name_H-M "P -1"
_symmetry_group_IT_number 2
_symmetry_cell_setting 'triclinic'
loop_
_space_group_symop_operation_xyz
x,y,z
-x,-y,-z
loop_
_atom_site_type_symbol
_atom_site_label
_atom_site_fract_x
_atom_site_fract_y
_atom_site_fract_z
Si Si1 0.826617 0.395901 0.295878
Si Si2 0.048718 0.883044 0.322159
Si Si3 0.470300 0.074303 0.326204
Si Si4 0.517207 0.655741 0.495510
Si Si5 0.866369 0.722131 0.767646
Si Si6 0.379214 0.962639 0.065992
Si Si7 0.322576 0.847689 0.874179
O O1 0.590203 0.616780 0.222786
O O2 0.904302 0.242448 0.487138
O O3 0.901207 0.500927 0.214961
O O4 0.949740 0.173158 0.251358
O O5 0.281128 0.610800 0.337404
O O6 0.884466 0.977141 0.229828
O O7 0.226920 0.347736 0.217526
O O8 0.584491 0.105119 0.246758
O O9 0.500000 0.000000 0.500000
O O10 0.560289 0.799836 0.369244
O O11 0.500000 0.500000 0.500000
O O12 0.275594 0.982771 0.424297
O O13 0.787862 0.838209 0.875306
O O14 0.295674 0.955685 0.969600
O O15 0.500000 0.000000 0.000000
O O16 0.500000 0.500000 0.000000
#
# Coordination Sequence:
#
# PCOD9108760 Si02
#       7
#     2   2   2   2   2   2   2
#     4  11  22  41  75 102 132 190 243 288 358 431
#     4  11  22  41  69 107 135 188 245 291 358 427
#     4  10  22  43  67 106 139 181 235 303 355 410
#     4  10  20  40  71 104 138 177 243 299 343 420
#     4  10  22  41  69 102 135 180 243 286 349 423
#     4  12  24  48  68  98 146 192 228 299 362 430
#     4  12  26  45  68 102 153 188 233 299 368 422
#
# _framework density 25.801608000000002
#
# number of rings (size 3 to 8) (size 9 to 14) (size 15 to 20)
#    0.857    0.286    5.714    0.857    0.000    2.286 
#    2.571    0.714    0.000    0.000    0.000    0.000 
#    0.000    0.000    0.000    0.000    0.000    0.000 
#
# Total GULP energy -78020.800793 kJ/mol
# GULP energy per Si atom -5572.914342 kJ/mol
# Density = 2.574288 g / cm^3
# Si number density = 25.801608 Si / 1000 Ang^3
#
#
#
# Elastic Constant Matrix: (Units=GPa)
#
#
# Indices 1 2 3 4 5 6 
#
# 1 194.7075 37.8706 66.6613 0.0795 40.3631 3.8609
# 2 37.8706 72.3770 29.4830 -1.2730 16.3568 5.1151
# 3 66.6613 29.4830 94.1092 17.3975 23.7875 5.9674
# 4 0.0795 -1.2730 17.3975 47.6912 7.5437 2.3690
# 5 40.3631 16.3568 23.7875 7.5437 60.2489 0.4113
# 6 3.8609 5.1151 5.9674 2.3690 0.4113 51.1081
#
#
#
# Elastic Compliance Matrix: (Units=1/GPa)
#
#
# Indices 1 2 3 4 5 6 
#
# 1 0.007625 -0.001375 -0.004553 0.002117 -0.003202 0.000021
# 2 -0.001375 0.016850 -0.004077 0.002368 -0.002332 -0.001197
# 3 -0.004553 -0.004077 0.016702 -0.005881 -0.001694 -0.000912
# 4 0.002117 0.002368 -0.005881 0.023638 -0.002694 -0.000784
# 5 -0.003202 -0.002332 -0.001694 -0.002694 0.020378 0.000634
# 6 0.000021 -0.001197 -0.000912 -0.000784 0.000634 0.019822
#
#
# Mechanical properties :
#
#
# Convention : Reuss Voigt Hill
#
# Bulk Modulus (GPa) = 47.24732 69.91373 58.58053
# Shear Modulus (GPa) = 37.85513 46.95490 42.40501
#
# Velocity S-wave (km/s) = 3.83451 4.27059 4.05841
# Velocity P-wave (km/s) = 6.16086 7.17445 6.68689
#
# Compressibility (1/GPa) = 0.02116522
#
# Stress axis : x y z
#
# Youngs Moduli (GPa) = 131.14895 59.34630 59.87363
#
# Poissons Ratio (x) = 0.08162 0.27263
# Poissons Ratio (y) = 0.18038 0.24411
# Poissons Ratio (z) = 0.59718 0.24196
#
# Static dielectric constant tensor:
#      x y z
#    x 2.051080 -0.084930 -0.014120 
#    y -0.084930 2.285730 -0.036280 
#    z -0.014120 -0.036280 2.350350 
# 
# From -- ./inp_files/419150.got.cif
#   From: 2010.05.17/outbox.cif.g08.bks.cpg/sg2_210_cif.got.tgz:419150.got - 2010.06.03 11:33:40.
