data_PCOD9108631
_publ_section_title
;
Structure prediction by ZEFSAII (Michael W. Deem and Ramdas Pophale) SiO2 
 PCOD9108631
Probable space group: P -1
;
_chemical_formula_sum "Si O2"
_cell_formula_units_Z 13
_cell_length_a 15.049240
_cell_length_b 14.235910
_cell_length_c 22.795626
_cell_angle_alpha 17.641937
_cell_angle_beta 20.868672
_cell_angle_gamma 28.312344
_cell_volume 524.948825
_symmetry_space_group_name_H-M "P -1"
_symmetry_group_IT_number 2
_symmetry_cell_setting 'triclinic'
loop_
_space_group_symop_operation_xyz
x,y,z
-x,-y,-z
loop_
_atom_site_type_symbol
_atom_site_label
_atom_site_fract_x
_atom_site_fract_y
_atom_site_fract_z
Si Si1 0.500000 0.500000 0.500000
Si Si2 0.659732 0.822280 0.403740
Si Si3 0.741135 0.321520 0.574768
Si Si4 0.360631 0.360530 0.005365
Si Si5 0.255131 0.560387 0.080317
Si Si6 0.127686 0.756045 0.814150
Si Si7 0.849902 0.094824 0.870521
O O1 0.659396 0.494971 0.463897
O O2 0.307979 0.194798 0.826623
O O3 0.603549 0.471720 0.623348
O O4 0.389166 0.921872 0.530243
O O5 0.886814 0.821119 0.309630
O O6 0.748852 0.077901 0.147923
O O7 0.031785 0.427649 0.338263
O O8 0.708203 0.962519 0.793761
O O9 0.251612 0.380198 0.126788
O O10 0.230341 0.600846 0.902480
O O11 0.660908 0.363805 0.823917
O O12 0.500000 0.500000 0.000000
O O13 0.923050 0.976343 0.831566
O O14 0.000000 0.500000 0.000000
#
# Coordination Sequence:
#
# PCOD9108631 Si02
#       7
#     1   2   2   2   2   2   2
#     4  10  20  40  70 100 138 180 230 282 364 408
#     4  12  26  46  73 105 145 193 237 296 360 422
#     4  11  24  42  71 102 143 185 238 294 360 422
#     4  11  26  47  72 107 139 194 236 293 360 429
#     4  12  26  43  71 110 144 181 242 301 358 421
#     4  12  27  49  72 103 149 193 241 287 358 433
#     4  11  24  46  73 104 143 188 234 304 350 422
#
# _framework density 24.764320000000001
#
# number of rings (size 3 to 8) (size 9 to 14) (size 15 to 20)
#    0.000    0.615    3.077    4.154    6.462    4.308 
#    0.000    0.000    0.000    0.000    0.000    0.000 
#    0.000    0.000    0.000    0.000    0.000    0.000 
#
# Total GULP energy -72488.163405 kJ/mol
# GULP energy per Si atom -5576.012570 kJ/mol
# Density = 2.470795 g / cm^3
# Si number density = 24.764320 Si / 1000 Ang^3
#
#
#
# Elastic Constant Matrix: (Units=GPa)
#
#
# Indices 1 2 3 4 5 6 
#
# 1 29.8729 51.7160 6.2907 20.7173 -13.4099 -39.5460
# 2 51.7160 72.0843 13.2366 -20.9033 -8.6949 58.3931
# 3 6.2907 13.2366 85.1785 6.2682 -10.3390 -0.5935
# 4 20.7173 -20.9033 6.2682 30.1575 -4.9030 4.0632
# 5 -13.4099 -8.6949 -10.3390 -4.9030 33.0580 10.6702
# 6 -39.5460 58.3931 -0.5935 4.0632 10.6702 4.6540
#
#
#
# Elastic Compliance Matrix: (Units=1/GPa)
#
#
# Indices 1 2 3 4 5 6 
#
# 1 0.009521 0.005688 -0.000573 0.000922 0.009689 -0.013551
# 2 0.005688 0.003377 -0.000686 -0.002357 0.000284 0.007273
# 3 -0.000573 -0.000686 0.012466 -0.001855 0.003721 -0.001581
# 4 0.000922 -0.002357 -0.001855 0.029428 -0.000643 0.012953
# 5 0.009689 0.000284 0.003721 -0.000643 0.036785 -0.004528
# 6 -0.013551 0.007273 -0.001581 0.012953 -0.004528 0.007344
#
#
# Mechanical properties :
#
#
# Convention : Reuss Voigt Hill
#
# Bulk Modulus (GPa) = 29.22186 36.62471 32.92329
# Shear Modulus (GPa) = 49.27429 21.30007 35.28718
#
# Velocity S-wave (km/s) = 4.46548 2.93595 3.77891
# Velocity P-wave (km/s) = 6.19782 5.12976 5.68891
#
# Compressibility (1/GPa) = 0.03422095
#
# Stress axis : x y z
#
# Youngs Moduli (GPa) = 105.02964 296.08674 80.21705
#
# Poissons Ratio (x) = -1.68401 0.04598
# Poissons Ratio (y) = -0.59736 0.05505
# Poissons Ratio (z) = 0.06020 0.20320
#
# Static dielectric constant tensor:
#      x y z
#    x 1.919350 0.049450 0.002410 
#    y 0.049450 2.019620 0.003540 
#    z 0.002410 0.003540 1.998210 
# 
# From -- ./inp_files/389795.got.cif
#   From: 2010.05.17/outbox.cif.g08.bks.cpg/sg2_195_cif.got.tgz:389795.got - 2010.06.03 11:33:40.
