data_PCOD9108469
_publ_section_title
;
Structure prediction by ZEFSAII (Michael W. Deem and Ramdas Pophale) SiO2 
 PCOD9108469
Probable space group: P -1
;
_chemical_formula_sum "Si O2"
_cell_formula_units_Z 12
_cell_length_a 19.462165
_cell_length_b 7.410865
_cell_length_c 12.815027
_cell_angle_alpha 95.772251
_cell_angle_beta 162.104460
_cell_angle_gamma 93.846904
_cell_volume 478.299439
_symmetry_space_group_name_H-M "P -1"
_symmetry_group_IT_number 2
_symmetry_cell_setting 'triclinic'
loop_
_space_group_symop_operation_xyz
x,y,z
-x,-y,-z
loop_
_atom_site_type_symbol
_atom_site_label
_atom_site_fract_x
_atom_site_fract_y
_atom_site_fract_z
Si Si1 0.544692 0.176031 0.347039
Si Si2 0.919035 0.625666 0.586676
Si Si3 0.332682 0.833982 0.839500
Si Si4 0.083375 0.906012 0.023939
Si Si5 0.491139 0.713744 0.478488
Si Si6 0.139249 0.253229 0.720309
O O1 0.836028 0.245678 0.808092
O O2 0.413441 0.141821 0.269960
O O3 0.449573 0.329517 0.173642
O O4 0.459996 0.973994 0.137349
O O5 0.685299 0.379407 0.237460
O O6 0.924357 0.676523 0.475118
O O7 0.897435 0.776168 0.649944
O O8 0.199155 0.658262 0.026890
O O9 0.019556 0.732670 0.410226
O O10 0.500000 0.000000 0.000000
O O11 0.324435 0.124152 0.334307
O O12 0.000000 0.000000 0.000000
O O13 0.500000 0.500000 0.500000
O O14 0.000000 0.000000 0.500000
#
# Coordination Sequence:
#
# PCOD9108469 Si02
#       6
#     2   2   2   2   2   2
#     4  10  23  43  68  96 132 176 222 267 330 405
#     4  11  24  45  70  98 136 182 224 268 336 412
#     4  11  24  41  67 104 138 171 221 284 334 384
#     4  11  25  46  69  99 134 172 225 286 335 389
#     4  11  23  43  70  98 132 182 226 266 329 411
#     4  10  20  40  68  97 131 177 220 265 327 407
#
# _framework density 25.088885999999999
#
# number of rings (size 3 to 8) (size 9 to 14) (size 15 to 20)
#    0.000    1.333    0.000    7.500    0.000    9.333 
#    0.000    9.167    0.000    2.000    0.000    0.000 
#    0.000    0.000    0.000    0.000    0.000    0.000 
#
# Total GULP energy -66828.718158 kJ/mol
# GULP energy per Si atom -5569.059846 kJ/mol
# Density = 2.503178 g / cm^3
# Si number density = 25.088886 Si / 1000 Ang^3
#
#
#
# Elastic Constant Matrix: (Units=GPa)
#
#
# Indices 1 2 3 4 5 6 
#
# 1 194.4055 63.8411 58.1167 16.7080 -16.5077 -18.8602
# 2 63.8411 117.3047 46.0111 10.6256 -5.6606 10.3639
# 3 58.1167 46.0111 110.9363 -16.3166 -13.4006 5.6666
# 4 16.7080 10.6256 -16.3166 53.6021 -2.7147 -8.0528
# 5 -16.5077 -5.6606 -13.4006 -2.7147 12.1013 -2.5393
# 6 -18.8602 10.3639 5.6666 -8.0528 -2.5393 44.8359
#
#
#
# Elastic Compliance Matrix: (Units=1/GPa)
#
#
# Indices 1 2 3 4 5 6 
#
# 1 0.008235 -0.003437 -0.002442 -0.001537 0.007568 0.004720
# 2 -0.003437 0.012626 -0.004414 -0.003775 -0.005523 -0.004797
# 3 -0.002442 -0.004414 0.014591 0.006707 0.012277 0.000049
# 4 -0.001537 -0.003775 0.006707 0.023019 0.009579 0.004056
# 5 0.007568 -0.005523 0.012277 0.009579 0.108379 0.010767
# 6 0.004720 -0.004797 0.000049 0.004056 0.010767 0.026730
#
#
# Mechanical properties :
#
#
# Convention : Reuss Voigt Hill
#
# Bulk Modulus (GPa) = 67.26055 84.28715 75.77385
# Shear Modulus (GPa) = 22.81867 39.08635 30.95251
#
# Velocity S-wave (km/s) = 3.01909 3.95133 3.51624
# Velocity P-wave (km/s) = 6.24662 7.38144 6.83761
#
# Compressibility (1/GPa) = 0.01486756
#
# Stress axis : x y z
#
# Youngs Moduli (GPa) = 121.43445 79.20433 68.53686
#
# Poissons Ratio (x) = 0.27220 0.16734
# Poissons Ratio (y) = 0.41732 0.30249
# Poissons Ratio (z) = 0.29650 0.34957
#
# Static dielectric constant tensor:
#      x y z
#    x 2.126950 -0.091500 0.000340 
#    y -0.091500 2.099170 -0.135320 
#    z 0.000340 -0.135320 2.175220 
# 
# From -- ./inp_files/461446.got.cif
#   From: 2010.05.17/outbox.cif.g08.bks.cpg/sg2_231_cif.got.tgz:461446.got - 2010.06.03 11:33:40.
