data_PCOD9108832
_publ_section_title
;
Structure prediction by ZEFSAII (Michael W. Deem and Ramdas Pophale) SiO2 
 PCOD9108832
Probable space group: P -1
;
_chemical_formula_sum "Si O2"
_cell_formula_units_Z 14
_cell_length_a 10.192681
_cell_length_b 10.637941
_cell_length_c 11.117883
_cell_angle_alpha 65.007543
_cell_angle_beta 140.764312
_cell_angle_gamma 87.628045
_cell_volume 529.277088
_symmetry_space_group_name_H-M "P -1"
_symmetry_group_IT_number 2
_symmetry_cell_setting 'triclinic'
loop_
_space_group_symop_operation_xyz
x,y,z
-x,-y,-z
loop_
_atom_site_type_symbol
_atom_site_label
_atom_site_fract_x
_atom_site_fract_y
_atom_site_fract_z
Si Si1 0.024722 0.306766 0.250717
Si Si2 0.490658 0.606500 0.062171
Si Si3 0.589712 0.800019 0.636918
Si Si4 0.159934 0.948911 0.938457
Si Si5 0.255933 0.423347 0.529407
Si Si6 0.826830 0.244938 0.756471
Si Si7 0.315465 0.899865 0.638663
O O1 0.139631 0.314445 0.203723
O O2 0.040301 0.414883 0.321415
O O3 0.050175 0.952838 0.359956
O O4 0.231373 0.094496 0.518317
O O5 0.754786 0.516471 0.366402
O O6 0.270547 0.633087 0.985110
O O7 0.500000 0.500000 0.000000
O O8 0.383574 0.793448 0.851792
O O9 0.395929 0.771346 0.442844
O O10 0.555589 0.776058 0.762158
O O11 0.500000 0.000000 0.500000
O O12 0.469169 0.787441 0.192411
O O13 0.093507 0.844266 0.019504
O O14 0.085581 0.109262 0.907599
O O15 0.267237 0.557357 0.402080
#
# Coordination Sequence:
#
# PCOD9108832 Si02
#       7
#     2   2   2   2   2   2   2
#     4  11  24  44  73 106 136 181 250 284 348 434
#     4  12  27  50  69  99 148 194 229 294 358 422
#     4   9  19  39  70 102 138 173 232 298 335 416
#     4  10  20  40  72  97 138 195 219 289 364 410
#     4  12  25  45  72 105 143 187 239 293 355 421
#     4  10  21  41  67 106 150 178 231 297 363 416
#     4  10  22  47  71 101 146 185 232 287 361 428
#
# _framework density 26.451174999999999
#
# number of rings (size 3 to 8) (size 9 to 14) (size 15 to 20)
#    0.000    1.429    2.857    2.571    0.000    1.143 
#    2.571    9.286    0.000    0.000    0.000    0.000 
#    0.000    0.000    0.000    0.000    0.000    0.000 
#
# Total GULP energy -78375.607519 kJ/mol
# GULP energy per Si atom -5598.257680 kJ/mol
# Density = 2.639097 g / cm^3
# Si number density = 26.451175 Si / 1000 Ang^3
#
#
#
# Elastic Constant Matrix: (Units=GPa)
#
#
# Indices 1 2 3 4 5 6 
#
# 1 100.1526 14.7726 21.7823 3.6126 10.0855 -5.5340
# 2 14.7726 117.4365 28.5628 15.1215 4.2223 6.2065
# 3 21.7823 28.5628 88.0391 -10.3024 -7.5200 15.8850
# 4 3.6126 15.1215 -10.3024 46.5339 8.4100 -2.8186
# 5 10.0855 4.2223 -7.5200 8.4100 27.0581 3.8503
# 6 -5.5340 6.2065 15.8850 -2.8186 3.8503 39.0098
#
#
#
# Elastic Compliance Matrix: (Units=1/GPa)
#
#
# Indices 1 2 3 4 5 6 
#
# 1 0.011744 -0.000453 -0.004010 -0.000354 -0.005870 0.003925
# 2 -0.000453 0.010005 -0.003619 -0.003829 -0.001159 -0.000345
# 3 -0.004010 -0.003619 0.015682 0.003408 0.006320 -0.006757
# 4 -0.000354 -0.003829 0.003408 0.024738 -0.006237 0.001574
# 5 -0.005870 -0.001159 0.006320 -0.006237 0.044164 -0.008031
# 6 0.003925 -0.000345 -0.006757 0.001574 -0.008031 0.029904
#
#
# Mechanical properties :
#
#
# Convention : Reuss Voigt Hill
#
# Bulk Modulus (GPa) = 47.01649 48.42929 47.72289
# Shear Modulus (GPa) = 31.34975 38.55439 34.95207
#
# Velocity S-wave (km/s) = 3.44640 3.82195 3.63902
# Velocity P-wave (km/s) = 5.80089 6.15021 5.97810
#
# Compressibility (1/GPa) = 0.02126913
#
# Stress axis : x y z
#
# Youngs Moduli (GPa) = 85.14726 99.94726 63.76564
#
# Poissons Ratio (x) = 0.04527 0.25568
# Poissons Ratio (y) = 0.03857 0.23076
# Poissons Ratio (z) = 0.34141 0.36169
#
# Static dielectric constant tensor:
#      x y z
#    x 2.115640 -0.037560 0.033410 
#    y -0.037560 2.108490 -0.016620 
#    z 0.033410 -0.016620 2.036130 
# 
# From -- ./inp_files/416971.got.cif
#   From: 2010.05.17/outbox.cif.g08.bks.cpg/sg2_209_cif.got.tgz:416971.got - 2010.06.03 11:33:40.
