data_PCOD9108861
_publ_section_title
;
Structure prediction by ZEFSAII (Michael W. Deem and Ramdas Pophale) SiO2 
 PCOD9108861
Probable space group: P -1
;
_chemical_formula_sum "Si O2"
_cell_formula_units_Z 15
_cell_length_a 12.707683
_cell_length_b 13.501279
_cell_length_c 15.468292
_cell_angle_alpha 39.264973
_cell_angle_beta 153.175079
_cell_angle_gamma 149.220228
_cell_volume 612.538585
_symmetry_space_group_name_H-M "P -1"
_symmetry_group_IT_number 2
_symmetry_cell_setting 'triclinic'
loop_
_space_group_symop_operation_xyz
x,y,z
-x,-y,-z
loop_
_atom_site_type_symbol
_atom_site_label
_atom_site_fract_x
_atom_site_fract_y
_atom_site_fract_z
Si Si1 0.380235 0.741180 0.392310
Si Si2 0.894129 0.615299 0.439772
Si Si3 0.500000 0.500000 0.500000
Si Si4 0.439059 0.261456 0.788940
Si Si5 0.036875 0.422729 0.945855
Si Si6 0.451532 0.066100 0.327692
Si Si7 0.020589 0.171453 0.258109
Si Si8 0.572255 0.601453 0.892291
O O1 0.218900 0.562504 0.459222
O O2 0.719531 0.840808 0.576622
O O3 0.324886 0.893950 0.282161
O O4 0.259493 0.642879 0.275115
O O5 0.761666 0.726661 0.298190
O O6 0.738718 0.515803 0.303479
O O7 0.232774 0.762655 0.589779
O O8 0.482236 0.399064 0.649708
O O9 0.177671 0.303947 0.367017
O O10 0.747552 0.370469 0.989808
O O11 0.266944 0.038423 0.789641
O O12 0.968010 0.268485 0.073480
O O13 0.220087 0.416775 0.005951
O O14 0.302080 0.173684 0.159508
O O15 0.500000 0.000000 0.500000
O O16 0.500000 0.500000 0.000000
#
# Coordination Sequence:
#
# PCOD9108861 Si02
#       8
#     2   2   1   2   2   2   2   2
#     4  12  23  42  67  92 132 174 220 272 330 385
#     4  11  22  41  61  89 132 174 212 273 331 379
#     4  10  20  40  74 102 122 168 204 266 334 394
#     4  10  21  42  69  91 134 164 209 264 328 396
#     4  10  24  41  62  93 130 175 212 271 324 380
#     4  12  24  38  63  92 123 182 231 268 319 391
#     4  11  21  44  66 100 128 165 216 263 329 400
#     4  11  23  40  58  91 134 173 221 282 319 373
#
# _framework density 24.488253
#
# number of rings (size 3 to 8) (size 9 to 14) (size 15 to 20)
#    0.000    1.067    6.667    1.600    1.867    3.733 
#    0.000    2.667    0.000    4.800    0.000    0.000 
#    0.000    0.000    0.000    0.000    0.000    0.000 
#
# Total GULP energy -83806.029968 kJ/mol
# GULP energy per Si atom -5587.068665 kJ/mol
# Density = 2.443252 g / cm^3
# Si number density = 24.488253 Si / 1000 Ang^3
#
#
#
# Elastic Constant Matrix: (Units=GPa)
#
#
# Indices 1 2 3 4 5 6 
#
# 1 89.0879 16.3495 16.5033 3.3014 -4.7577 -9.6082
# 2 16.3495 172.1281 50.7065 28.4913 -9.6748 -11.3754
# 3 16.5033 50.7065 139.3163 21.9723 -24.1894 6.3571
# 4 3.3014 28.4913 21.9723 36.2630 -2.0273 -2.2860
# 5 -4.7577 -9.6748 -24.1894 -2.0273 45.0279 12.7236
# 6 -9.6082 -11.3754 6.3571 -2.2860 12.7236 38.6418
#
#
#
# Elastic Compliance Matrix: (Units=1/GPa)
#
#
# Indices 1 2 3 4 5 6 
#
# 1 0.011917 -0.000577 -0.001526 0.000466 -0.000586 0.003265
# 2 -0.000577 0.007319 -0.002095 -0.004312 -0.000443 0.002246
# 3 -0.001526 -0.002095 0.010056 -0.004281 0.005974 -0.004871
# 4 0.000466 -0.004312 -0.004281 0.033531 -0.002317 0.002297
# 5 -0.000586 -0.000443 0.005974 -0.002317 0.028172 -0.010672
# 6 0.003265 0.002246 -0.004871 0.002297 -0.010672 0.031803
#
#
# Mechanical properties :
#
#
# Convention : Reuss Voigt Hill
#
# Bulk Modulus (GPa) = 47.85456 63.07232 55.46344
# Shear Modulus (GPa) = 36.19029 45.11809 40.65419
#
# Velocity S-wave (km/s) = 3.84847 4.29702 4.07891
# Velocity P-wave (km/s) = 6.27151 7.10150 6.69937
#
# Compressibility (1/GPa) = 0.02089665
#
# Stress axis : x y z
#
# Youngs Moduli (GPa) = 83.91401 136.63528 99.44353
#
# Poissons Ratio (x) = 0.07879 0.15175
# Poissons Ratio (y) = 0.04839 0.20832
# Poissons Ratio (z) = 0.12805 0.28623
#
# Static dielectric constant tensor:
#      x y z
#    x 1.978060 -0.086620 0.087390 
#    y -0.086620 1.925320 -0.019020 
#    z 0.087390 -0.019020 1.953520 
# 
# From -- ./inp_files/533250.got.cif
#   From: 2010.05.17/outbox.cif.g08.bks.cpg/sg2_267_cif.got.tgz:533250.got - 2010.06.03 11:33:40.
