data_PCOD9108099
_publ_section_title
;
Structure prediction by ZEFSAII (Michael W. Deem and Ramdas Pophale) SiO2 
 PCOD9108099
Probable space group: P -1
;
_chemical_formula_sum "Si O2"
_cell_formula_units_Z 16
_cell_length_a 11.518505
_cell_length_b 8.008057
_cell_length_c 9.936999
_cell_angle_alpha 133.497020
_cell_angle_beta 75.330631
_cell_angle_gamma 101.958079
_cell_volume 642.528391
_symmetry_space_group_name_H-M "P -1"
_symmetry_group_IT_number 2
_symmetry_cell_setting 'triclinic'
loop_
_space_group_symop_operation_xyz
x,y,z
-x,-y,-z
loop_
_atom_site_type_symbol
_atom_site_label
_atom_site_fract_x
_atom_site_fract_y
_atom_site_fract_z
Si Si1 0.276634 0.556312 0.286103
Si Si2 0.485063 0.200676 0.722658
Si Si3 0.211918 0.271411 0.908524
Si Si4 0.988499 0.999697 0.739496
Si Si5 0.522469 0.896640 0.786906
Si Si6 0.861719 0.373937 0.099543
Si Si7 0.040074 0.693885 0.344600
Si Si8 0.685391 0.483123 0.447512
O O1 0.417956 0.602268 0.242423
O O2 0.182774 0.728661 0.344049
O O3 0.256204 0.570939 0.457379
O O4 0.237220 0.328887 0.089076
O O5 0.344832 0.242527 0.793669
O O6 0.500000 0.000000 0.500000
O O7 0.527895 0.112243 0.804966
O O8 0.115906 0.058321 0.805045
O O9 0.164316 0.484311 0.950477
O O10 0.998915 0.153212 0.684396
O O11 0.978800 0.751816 0.537165
O O12 0.878277 0.107568 0.909854
O O13 0.633427 0.733888 0.633512
O O14 0.415565 0.718507 0.668579
O O15 0.500000 0.000000 0.000000
O O16 0.768523 0.462936 0.283035
O O17 0.988494 0.445597 0.173893
#
# Coordination Sequence:
#
# PCOD9108099 Si02
#       8
#     2   2   2   2   2   2   2   2
#     4  12  23  43  67  99 137 171 220 279 330 391
#     4  12  24  41  68 101 131 172 221 277 334 391
#     4  11  22  40  69  98 130 173 228 272 325 398
#     4  10  20  40  66  98 132 173 223 275 322 391
#     4  11  26  48  67  96 139 177 222 271 336 402
#     4  11  22  43  66  95 135 180 218 268 331 393
#     4  10  21  39  66  98 133 171 223 274 325 390
#     4  11  27  44  67  98 139 177 215 276 337 394
#
# _framework density 24.901624000000002
#
# number of rings (size 3 to 8) (size 9 to 14) (size 15 to 20)
#    0.000    1.000    3.750    3.375    3.500    3.500 
#    0.000    0.625    0.000    0.000    0.000    0.000 
#    0.000    0.000    0.000    0.000    0.000    0.000 
#
# Total GULP energy -89340.640974 kJ/mol
# GULP energy per Si atom -5583.790061 kJ/mol
# Density = 2.484495 g / cm^3
# Si number density = 24.901624 Si / 1000 Ang^3
#
#
#
# Elastic Constant Matrix: (Units=GPa)
#
#
# Indices 1 2 3 4 5 6 
#
# 1 57.0529 10.6752 30.6052 0.9485 7.9363 -16.8185
# 2 10.6752 34.4675 29.6038 -15.5336 1.4644 0.3870
# 3 30.6052 29.6038 206.4871 -21.6712 1.8846 -12.3953
# 4 0.9485 -15.5336 -21.6712 34.8511 -4.3001 -1.6346
# 5 7.9363 1.4644 1.8846 -4.3001 42.3024 -4.6529
# 6 -16.8185 0.3870 -12.3953 -1.6346 -4.6529 19.2901
#
#
#
# Elastic Compliance Matrix: (Units=1/GPa)
#
#
# Indices 1 2 3 4 5 6 
#
# 1 0.027117 -0.009299 -0.001945 -0.005442 -0.002875 0.021425
# 2 -0.009299 0.042523 -0.003552 0.016681 0.001074 -0.009571
# 3 -0.001945 -0.003552 0.006050 0.002450 0.000759 0.002654
# 4 -0.005442 0.016681 0.002450 0.038370 0.004321 0.000789
# 5 -0.002875 0.001074 0.000759 0.004321 0.025027 0.004362
# 6 0.021425 -0.009571 0.002654 0.000789 0.004362 0.073536
#
#
# Mechanical properties :
#
#
# Convention : Reuss Voigt Hill
#
# Bulk Modulus (GPa) = 21.69268 48.86401 35.27835
# Shear Modulus (GPa) = 19.41139 34.43027 26.92083
#
# Velocity S-wave (km/s) = 2.79502 3.72244 3.29156
# Velocity P-wave (km/s) = 4.37567 6.17582 5.35197
#
# Compressibility (1/GPa) = 0.04609849
#
# Stress axis : x y z
#
# Youngs Moduli (GPa) = 36.87725 23.51659 165.29194
#
# Poissons Ratio (x) = 0.21869 0.32147
# Poissons Ratio (y) = 0.34293 0.58708
# Poissons Ratio (z) = 0.07172 0.08353
#
# Static dielectric constant tensor:
#      x y z
#    x 2.056960 0.012150 -0.101390 
#    y 0.012150 1.986380 0.046990 
#    z -0.101390 0.046990 2.072130 
# 
# From -- ./inp_files/245846.got.cif
#   From: 2010.05.17/outbox.cif.g08.bks.cpg/sg2_123_cif.got.tgz:245846.got - 2010.06.03 11:33:40.
