data_PCOD9108997
_publ_section_title
;
Structure prediction by ZEFSAII (Michael W. Deem and Ramdas Pophale) SiO2 
 PCOD9108997
Probable space group: P -1
;
_chemical_formula_sum "Si O2"
_cell_formula_units_Z 14
_cell_length_a 9.974349
_cell_length_b 9.069098
_cell_length_c 11.209868
_cell_angle_alpha 38.452266
_cell_angle_beta 76.940175
_cell_angle_gamma 59.224898
_cell_volume 511.995210
_symmetry_space_group_name_H-M "P -1"
_symmetry_group_IT_number 2
_symmetry_cell_setting 'triclinic'
loop_
_space_group_symop_operation_xyz
x,y,z
-x,-y,-z
loop_
_atom_site_type_symbol
_atom_site_label
_atom_site_fract_x
_atom_site_fract_y
_atom_site_fract_z
Si Si1 0.082317 0.820569 0.328471
Si Si2 0.358906 0.190171 0.753145
Si Si3 0.500000 0.500000 0.500000
Si Si4 0.205728 0.348528 0.188816
Si Si5 0.000000 0.000000 0.500000
Si Si6 0.292262 0.804801 0.872994
Si Si7 0.630912 0.252399 0.368084
Si Si8 0.837674 0.733313 0.027445
O O1 0.228543 0.487421 0.518286
O O2 0.898409 0.907689 0.281077
O O3 0.070476 0.934986 0.390478
O O4 0.137389 0.004537 0.129994
O O5 0.519266 0.197927 0.704754
O O6 0.374964 0.914882 0.873558
O O7 0.289365 0.235171 0.870320
O O8 0.468588 0.557128 0.619174
O O9 0.331778 0.057737 0.412745
O O10 0.190063 0.323000 0.066563
O O11 0.020208 0.451565 0.206242
O O12 0.246783 0.580670 0.060188
O O13 0.189773 0.796948 0.637866
O O14 0.401571 0.702404 0.795233
#
# Coordination Sequence:
#
# PCOD9108997 Si02
#       8
#     2   2   1   2   1   2   2   2
#     4  10  20  36  65  98 125 164 206 269 311 367
#     4  12  24  41  58  93 132 169 209 262 314 389
#     4  12  26  42  68  88 128 170 220 256 314 374
#     4  10  20  36  63  96 122 161 210 264 314 374
#     4  10  16  36  68  90 122 154 214 252 304 354
#     4  10  24  38  64  94 127 164 208 260 332 366
#     4  11  22  42  64  94 123 168 209 266 305 377
#     4  10  20  34  64  94 125 163 214 260 311 368
#
# _framework density 27.344006
#
# number of rings (size 3 to 8) (size 9 to 14) (size 15 to 20)
#    0.000    1.429    2.857    3.000    6.000    4.000 
#    0.000    7.143    0.000    0.000    0.000    0.000 
#    0.000    0.000    0.000    0.000    0.000    0.000 
#
# Total GULP energy -77967.011473 kJ/mol
# GULP energy per Si atom -5569.072248 kJ/mol
# Density = 2.728177 g / cm^3
# Si number density = 27.344006 Si / 1000 Ang^3
#
#
#
# Elastic Constant Matrix: (Units=GPa)
#
#
# Indices 1 2 3 4 5 6 
#
# 1 50.9643 12.6992 6.3992 3.8620 -5.9063 -7.5639
# 2 12.6992 122.4236 36.5253 0.3903 -14.5684 1.3856
# 3 6.3992 36.5253 116.7993 -6.4148 -16.5495 9.8606
# 4 3.8620 0.3903 -6.4148 54.2449 -10.1392 -2.5042
# 5 -5.9063 -14.5684 -16.5495 -10.1392 32.8269 -8.9369
# 6 -7.5639 1.3856 9.8606 -2.5042 -8.9369 40.3497
#
#
#
# Elastic Compliance Matrix: (Units=1/GPa)
#
#
# Indices 1 2 3 4 5 6 
#
# 1 0.021358 -0.001627 -0.000548 -0.000585 0.004039 0.005052
# 2 -0.001627 0.009415 -0.002479 0.000329 0.002913 0.000643
# 3 -0.000548 -0.002479 0.010186 0.001969 0.004146 -0.001466
# 4 -0.000585 0.000329 0.001969 0.020308 0.007965 0.002422
# 5 0.004039 0.002913 0.004146 0.007965 0.039449 0.008876
# 6 0.005052 0.000643 -0.001466 0.002422 0.008876 0.028183
#
#
# Mechanical properties :
#
#
# Convention : Reuss Voigt Hill
#
# Bulk Modulus (GPa) = 31.59283 44.60385 38.09834
# Shear Modulus (GPa) = 33.61229 41.12187 37.36708
#
# Velocity S-wave (km/s) = 3.50985 3.88219 3.70070
# Velocity P-wave (km/s) = 5.29191 6.03678 5.67658
#
# Compressibility (1/GPa) = 0.03165275
#
# Stress axis : x y z
#
# Youngs Moduli (GPa) = 46.82108 106.21485 98.17290
#
# Poissons Ratio (x) = 0.17278 0.05378
# Poissons Ratio (y) = 0.07616 0.24333
# Poissons Ratio (z) = 0.02565 0.26326
#
# Static dielectric constant tensor:
#      x y z
#    x 1.837590 -0.390520 0.154090 
#    y -0.390520 1.446580 -0.002450 
#    z 0.154090 -0.002450 2.132930 
# 
# From -- ./inp_files/260954.got.cif
#   From: 2010.05.17/outbox.cif.g08.bks.cpg/sg2_131_cif.got.tgz:260954.got - 2010.06.03 11:33:40.
