data_PCOD9108202
_publ_section_title
;
Structure prediction by ZEFSAII (Michael W. Deem and Ramdas Pophale) SiO2 
 PCOD9108202
Probable space group: P -1
;
_chemical_formula_sum "Si O2"
_cell_formula_units_Z 16
_cell_length_a 14.312942
_cell_length_b 8.349486
_cell_length_c 20.944247
_cell_angle_alpha 57.107755
_cell_angle_beta 19.329339
_cell_angle_gamma 64.456531
_cell_volume 665.271515
_symmetry_space_group_name_H-M "P -1"
_symmetry_group_IT_number 2
_symmetry_cell_setting 'triclinic'
loop_
_space_group_symop_operation_xyz
x,y,z
-x,-y,-z
loop_
_atom_site_type_symbol
_atom_site_label
_atom_site_fract_x
_atom_site_fract_y
_atom_site_fract_z
Si Si1 0.833095 0.384216 0.916481
Si Si2 0.778637 0.791615 0.819600
Si Si3 0.542540 0.621065 0.714999
Si Si4 0.239398 0.213819 0.776332
Si Si5 0.199958 0.796472 0.258103
Si Si6 0.617387 0.057639 0.342055
Si Si7 0.314990 0.251236 0.855139
Si Si8 0.568664 0.971198 0.815886
O O1 0.095561 0.336559 0.795484
O O2 0.114052 0.395406 0.192778
O O3 0.581874 0.351330 0.141034
O O4 0.715971 0.217695 0.973635
O O5 0.891550 0.998481 0.741621
O O6 0.802012 0.857834 0.715195
O O7 0.428730 0.738658 0.076308
O O8 0.478120 0.775946 0.672062
O O9 0.377435 0.412001 0.835192
O O10 0.885650 0.637334 0.497695
O O11 0.350857 0.334852 0.742244
O O12 0.468623 0.136359 0.605614
O O13 0.000000 0.000000 0.000000
O O14 0.378815 0.873553 0.191748
O O15 0.500000 0.000000 0.500000
O O16 0.971923 0.129553 0.108014
O O17 0.530160 0.111182 0.752784
#
# Coordination Sequence:
#
# PCOD9108202 Si02
#       8
#     2   2   2   2   2   2   2   2
#     4  12  21  38  72  91 132 173 223 272 330 410
#     4   9  22  42  65  95 128 175 219 272 345 381
#     4  12  25  39  67  99 129 182 227 264 329 404
#     4  10  20  44  66  99 130 174 220 273 338 385
#     4   9  23  43  60  95 135 164 225 278 324 394
#     4  11  24  42  71  99 133 173 223 278 339 388
#     4  11  22  43  71  94 137 179 218 270 330 400
#     4  10  20  40  67  92 129 172 209 276 335 380
#
# _framework density 24.050332000000001
#
# number of rings (size 3 to 8) (size 9 to 14) (size 15 to 20)
#    0.750    0.750    5.000    1.500    1.750    2.500 
#    0.000    1.875    5.500    0.000    0.000    0.000 
#    0.000    0.000    0.000    0.000    0.000    0.000 
#
# Total GULP energy -89126.224972 kJ/mol
# GULP energy per Si atom -5570.389061 kJ/mol
# Density = 2.399559 g / cm^3
# Si number density = 24.050332 Si / 1000 Ang^3
#
#
#
# Elastic Constant Matrix: (Units=GPa)
#
#
# Indices 1 2 3 4 5 6 
#
# 1 152.7288 48.1621 27.1766 -1.3296 -6.4404 -22.7707
# 2 48.1621 65.3741 13.0917 -0.6343 -18.8535 -15.8409
# 3 27.1766 13.0917 61.8394 2.6561 -12.8346 9.8692
# 4 -1.3296 -0.6343 2.6561 16.0262 5.8559 -4.9580
# 5 -6.4404 -18.8535 -12.8346 5.8559 22.6433 2.6954
# 6 -22.7707 -15.8409 9.8692 -4.9580 2.6954 62.5842
#
#
#
# Elastic Compliance Matrix: (Units=1/GPa)
#
#
# Indices 1 2 3 4 5 6 
#
# 1 0.010249 -0.008138 -0.005378 0.005658 -0.008770 0.003343
# 2 -0.008138 0.028283 0.002760 -0.008424 0.024736 0.002030
# 3 -0.005378 0.002760 0.023348 -0.012925 0.018148 -0.006746
# 4 0.005658 -0.008424 -0.012925 0.080392 -0.034691 0.009828
# 5 -0.008770 0.024736 0.018148 -0.034691 0.082247 -0.006082
# 6 0.003343 0.002030 -0.006746 0.009828 -0.006082 0.019813
#
#
# Mechanical properties :
#
#
# Convention : Reuss Voigt Hill
#
# Bulk Modulus (GPa) = 24.77138 50.75589 37.76363
# Shear Modulus (GPa) = 17.90200 33.01820 25.46010
#
# Velocity S-wave (km/s) = 2.73125 3.70926 3.25717
# Velocity P-wave (km/s) = 4.50205 6.28448 5.46640
#
# Compressibility (1/GPa) = 0.04036916
#
# Stress axis : x y z
#
# Youngs Moduli (GPa) = 97.57524 35.35737 42.82953
#
# Poissons Ratio (x) = 0.28772 0.23034
# Poissons Ratio (y) = 0.79402 -0.11822
# Poissons Ratio (z) = 0.52476 -0.09760
#
# Static dielectric constant tensor:
#      x y z
#    x 1.831830 -0.060260 -0.000640 
#    y -0.060260 1.922680 -0.012230 
#    z -0.000640 -0.012230 1.957350 
# 
# From -- ./inp_files/597373.got.cif
#   From: 2010.05.17/outbox.cif.g08.bks.cpg/sg2_299_cif.got.tgz:597373.got - 2010.06.03 11:33:40.
