data_PCOD9108372
_publ_section_title
;
Structure prediction by ZEFSAII (Michael W. Deem and Ramdas Pophale) SiO2 
 PCOD9108372
Probable space group: P -1
;
_chemical_formula_sum "Si O2"
_cell_formula_units_Z 14
_cell_length_a 7.162861
_cell_length_b 4.856871
_cell_length_c 20.213549
_cell_angle_alpha 65.559190
_cell_angle_beta 75.348910
_cell_angle_gamma 84.715961
_cell_volume 619.316152
_symmetry_space_group_name_H-M "P -1"
_symmetry_group_IT_number 2
_symmetry_cell_setting 'triclinic'
loop_
_space_group_symop_operation_xyz
x,y,z
-x,-y,-z
loop_
_atom_site_type_symbol
_atom_site_label
_atom_site_fract_x
_atom_site_fract_y
_atom_site_fract_z
Si Si1 0.205338 0.636699 0.353386
Si Si2 0.123672 0.320219 0.141029
Si Si3 0.280528 0.518524 0.892841
Si Si4 0.679956 0.323900 0.806786
Si Si5 0.313063 0.878445 0.987906
Si Si6 0.634984 0.729248 0.502231
Si Si7 0.995043 0.078470 0.414054
O O1 0.322267 0.683807 0.271452
O O2 0.301202 0.421325 0.420187
O O3 0.161803 0.934863 0.369246
O O4 0.014142 0.437225 0.370374
O O5 0.173749 0.424760 0.200635
O O6 0.218686 0.596972 0.063147
O O7 0.895633 0.321601 0.145081
O O8 0.228334 0.002345 0.149066
O O9 0.469571 0.418620 0.844260
O O10 0.345312 0.733839 0.926547
O O11 0.199175 0.192605 0.958987
O O12 0.500000 0.000000 0.000000
O O13 0.500000 0.500000 0.500000
O O14 0.809750 0.879264 0.430844
O O15 0.500000 0.000000 0.500000
O O16 0.000000 0.000000 0.500000
#
# Coordination Sequence:
#
# PCOD9108372 Si02
#       7
#     2   2   2   2   2   2   2
#     4  11  23  44  65  96 135 183 222 270 352 416
#     4  12  26  47  72 104 139 187 246 290 358 419
#     4  12  26  46  73 102 142 183 241 300 351 416
#     4  12  27  46  71  98 150 189 231 287 356 441
#     4  12  24  44  76 106 137 186 239 306 356 404
#     4  11  21  38  67 103 131 161 224 288 325 389
#     4  10  20  40  68  90 127 173 220 271 329 398
#
# _framework density 22.605577
#
# number of rings (size 3 to 8) (size 9 to 14) (size 15 to 20)
#    0.000    0.571    1.429    9.000    0.000    0.000 
#    7.714    0.000    0.000    0.000    0.000    0.000 
#    0.000    0.000    0.000    0.000    0.000    0.000 
#
# Total GULP energy -78158.971745 kJ/mol
# GULP energy per Si atom -5582.783696 kJ/mol
# Density = 2.255413 g / cm^3
# Si number density = 22.605577 Si / 1000 Ang^3
#
#
#
# Elastic Constant Matrix: (Units=GPa)
#
#
# Indices 1 2 3 4 5 6 
#
# 1 128.4891 53.4634 32.7103 7.2305 4.6368 -2.0712
# 2 53.4634 191.0111 28.4093 15.2585 1.6600 0.2077
# 3 32.7103 28.4093 74.4785 17.4543 3.7890 -2.3984
# 4 7.2305 15.2585 17.4543 41.9142 -1.7569 3.5852
# 5 4.6368 1.6600 3.7890 -1.7569 15.5661 -6.5339
# 6 -2.0712 0.2077 -2.3984 3.5852 -6.5339 38.0753
#
#
#
# Elastic Compliance Matrix: (Units=1/GPa)
#
#
# Indices 1 2 3 4 5 6 
#
# 1 0.009602 -0.002205 -0.003403 0.000492 -0.001752 -0.000027
# 2 -0.002205 0.006119 -0.001042 -0.001404 0.000068 -0.000075
# 3 -0.003403 -0.001042 0.017002 -0.006332 -0.003345 0.000914
# 4 0.000492 -0.001404 -0.006332 0.027272 0.003655 -0.002305
# 5 -0.001752 0.000068 -0.003345 0.003655 0.070811 0.011501
# 6 -0.000027 -0.000075 0.000914 -0.002305 0.011501 0.028511
#
#
# Mechanical properties :
#
#
# Convention : Reuss Voigt Hill
#
# Bulk Modulus (GPa) = 51.48824 69.23829 60.36326
# Shear Modulus (GPa) = 27.91850 37.73750 32.82800
#
# Velocity S-wave (km/s) = 3.51811 4.09025 3.81492
# Velocity P-wave (km/s) = 6.27128 7.28026 6.79453
#
# Compressibility (1/GPa) = 0.01942191
#
# Stress axis : x y z
#
# Youngs Moduli (GPa) = 104.14674 163.41804 58.81529
#
# Poissons Ratio (x) = 0.36042 0.20014
# Poissons Ratio (y) = 0.22969 0.06131
# Poissons Ratio (z) = 0.35440 0.17035
#
# Static dielectric constant tensor:
#      x y z
#    x 1.788230 -0.000520 0.058400 
#    y -0.000520 1.865980 0.041130 
#    z 0.058400 0.041130 1.845470 
# 
# From -- ./inp_files/603094.got.cif
#   From: 2010.05.17/outbox.cif.g08.bks.cpg/sg2_302_cif.got.tgz:603094.got - 2010.06.03 11:33:40.
