data_PCOD9108581
_publ_section_title
;
Structure prediction by ZEFSAII (Michael W. Deem and Ramdas Pophale) SiO2 
 PCOD9108581
Probable space group: P -1
;
_chemical_formula_sum "Si O2"
_cell_formula_units_Z 14
_cell_length_a 12.340902
_cell_length_b 6.010138
_cell_length_c 11.798213
_cell_angle_alpha 120.826966
_cell_angle_beta 49.857707
_cell_angle_gamma 97.578123
_cell_volume 547.551051
_symmetry_space_group_name_H-M "P -1"
_symmetry_group_IT_number 2
_symmetry_cell_setting 'triclinic'
loop_
_space_group_symop_operation_xyz
x,y,z
-x,-y,-z
loop_
_atom_site_type_symbol
_atom_site_label
_atom_site_fract_x
_atom_site_fract_y
_atom_site_fract_z
Si Si1 0.026233 0.393845 0.798610
Si Si2 0.537709 0.706762 0.229196
Si Si3 0.799340 0.895283 0.193528
Si Si4 0.495145 0.981056 0.863463
Si Si5 0.622621 0.434280 0.499938
Si Si6 0.066383 0.246926 0.479367
Si Si7 0.768425 0.115386 0.910620
O O1 0.918790 0.199782 0.847856
O O2 0.166556 0.258263 0.747967
O O3 0.067486 0.380345 0.635537
O O4 0.932008 0.696524 0.978511
O O5 0.644244 0.871898 0.245952
O O6 0.418102 0.735137 0.413863
O O7 0.470989 0.787385 0.172332
O O8 0.643317 0.402915 0.065682
O O9 0.774528 0.219095 0.296836
O O10 0.595918 0.715004 0.659967
O O11 0.314675 0.024083 0.979898
O O12 0.500000 0.000000 0.000000
O O13 0.500000 0.500000 0.500000
O O14 0.000000 0.500000 0.500000
O O15 0.205337 0.067610 0.266982
O O16 0.000000 0.000000 0.500000
#
# Coordination Sequence:
#
# PCOD9108581 Si02
#       7
#     2   2   2   2   2   2   2
#     4   9  21  41  66 102 130 183 228 284 352 418
#     4  10  22  41  68  93 138 169 225 289 350 415
#     4  10  20  40  69  94 139 171 230 283 345 429
#     4  11  25  42  66  99 130 180 229 284 355 418
#     4  11  23  41  69 100 132 180 223 284 361 415
#     4  10  22  40  67  97 137 184 235 285 357 423
#     4   9  22  41  66  93 132 176 219 286 354 409
#
# _framework density 25.568390000000001
#
# number of rings (size 3 to 8) (size 9 to 14) (size 15 to 20)
#    0.000    2.000    1.429    0.429    6.000    4.571 
#    2.571    0.714    0.000    0.000    0.000    0.000 
#    0.000    0.000    0.000    0.000    0.000    0.000 
#
# Total GULP energy -78045.443664 kJ/mol
# GULP energy per Si atom -5574.674547 kJ/mol
# Density = 2.551020 g / cm^3
# Si number density = 25.568390 Si / 1000 Ang^3
#
#
#
# Elastic Constant Matrix: (Units=GPa)
#
#
# Indices 1 2 3 4 5 6 
#
# 1 55.9849 16.7044 14.8029 -6.4495 23.1897 -10.0768
# 2 16.7044 53.7389 23.3905 -15.8568 14.8900 -9.6739
# 3 14.8029 23.3905 157.1557 13.6900 22.6308 -10.6720
# 4 -6.4495 -15.8568 13.6900 46.4523 0.8987 9.0667
# 5 23.1897 14.8900 22.6308 0.8987 50.7165 -6.0663
# 6 -10.0768 -9.6739 -10.6720 9.0667 -6.0663 40.7190
#
#
#
# Elastic Compliance Matrix: (Units=1/GPa)
#
#
# Indices 1 2 3 4 5 6 
#
# 1 0.023609 -0.003571 -0.000292 0.001708 -0.009269 0.003156
# 2 -0.003571 0.025339 -0.003500 0.008955 -0.004212 0.001597
# 3 -0.000292 -0.003500 0.007637 -0.003768 -0.001984 0.001641
# 4 0.001708 0.008955 -0.003768 0.026932 -0.002786 -0.004849
# 5 -0.009269 -0.004212 -0.001984 -0.002786 0.026212 0.000711
# 6 0.003156 0.001597 0.001641 -0.004849 0.000711 0.027335
#
#
# Mechanical properties :
#
#
# Convention : Reuss Voigt Hill
#
# Bulk Modulus (GPa) = 23.88998 41.85280 32.87139
# Shear Modulus (GPa) = 30.16717 41.70968 35.93843
#
# Velocity S-wave (km/s) = 3.43864 4.04332 3.75317
# Velocity P-wave (km/s) = 5.01293 6.18081 5.62725
#
# Compressibility (1/GPa) = 0.04185855
#
# Stress axis : x y z
#
# Youngs Moduli (GPa) = 42.35693 39.46477 130.94367
#
# Poissons Ratio (x) = 0.14093 0.03823
# Poissons Ratio (y) = 0.15126 0.45831
# Poissons Ratio (z) = 0.01237 0.13813
#
# Static dielectric constant tensor:
#      x y z
#    x 2.170120 0.169130 -0.028370 
#    y 0.169130 2.234930 0.011590 
#    z -0.028370 0.011590 1.955000 
# 
# From -- ./inp_files/409656.got.cif
#   From: 2010.05.17/outbox.cif.g08.bks.cpg/sg2_205_cif.got.tgz:409656.got - 2010.06.03 11:33:40.
