data_PCOD9108425
_publ_section_title
;
Structure prediction by ZEFSAII (Michael W. Deem and Ramdas Pophale) SiO2 
 PCOD9108425
Probable space group: P -1
;
_chemical_formula_sum "Si O2"
_cell_formula_units_Z 12
_cell_length_a 7.188548
_cell_length_b 8.918746
_cell_length_c 10.887861
_cell_angle_alpha 126.107878
_cell_angle_beta 76.673052
_cell_angle_gamma 123.802422
_cell_volume 463.678032
_symmetry_space_group_name_H-M "P -1"
_symmetry_group_IT_number 2
_symmetry_cell_setting 'triclinic'
loop_
_space_group_symop_operation_xyz
x,y,z
-x,-y,-z
loop_
_atom_site_type_symbol
_atom_site_label
_atom_site_fract_x
_atom_site_fract_y
_atom_site_fract_z
Si Si1 0.235127 0.702585 0.913074
Si Si2 0.288089 0.467254 0.365398
Si Si3 0.688346 0.929450 0.569358
Si Si4 0.943563 0.013123 0.825297
Si Si5 0.998377 0.648703 0.397441
Si Si6 0.594731 0.958382 0.171056
O O1 0.117711 0.457159 0.765396
O O2 0.348941 0.847417 0.841806
O O3 0.401577 0.751236 0.024661
O O4 0.078394 0.794591 0.021121
O O5 0.542843 0.672690 0.435105
O O6 0.235868 0.233587 0.213022
O O7 0.151635 0.547003 0.347022
O O8 0.169465 0.421520 0.495869
O O9 0.847704 0.983878 0.688847
O O10 0.840195 0.092669 0.518863
O O11 0.510175 0.993235 0.672408
O O12 0.185882 0.045817 0.829186
#
# Coordination Sequence:
#
# PCOD9108425 Si02
#       6
#     2   2   2   2   2   2
#     4  10  21  41  70  96 128 176 216 267 329 384
#     4  11  22  43  68  95 131 176 219 266 323 390
#     4  11  24  43  68  99 132 172 219 267 328 388
#     4  11  23  40  70 101 130 169 222 268 326 390
#     4  11  23  43  71  94 133 176 216 270 327 386
#     4  10  20  40  68  95 130 168 218 267 319 389
#
# _framework density 25.880026999999998
#
# number of rings (size 3 to 8) (size 9 to 14) (size 15 to 20)
#    0.000    1.333    3.333    2.500    0.000    3.333 
#    0.000    5.000    3.667    0.000    0.000    0.000 
#    0.000    0.000    0.000    0.000    0.000    0.000 
#
# Total GULP energy -67247.350236 kJ/mol
# GULP energy per Si atom -5603.945853 kJ/mol
# Density = 2.582112 g / cm^3
# Si number density = 25.880027 Si / 1000 Ang^3
#
#
#
# Elastic Constant Matrix: (Units=GPa)
#
#
# Indices 1 2 3 4 5 6 
#
# 1 144.6452 33.7758 93.4561 39.7251 6.0542 1.9636
# 2 33.7758 104.2945 19.6931 20.2613 3.2896 12.5702
# 3 93.4561 19.6931 80.3485 -16.9338 9.2513 18.7406
# 4 39.7251 20.2613 -16.9338 -12.3903 6.6704 3.5942
# 5 6.0542 3.2896 9.2513 6.6704 49.0309 -5.2425
# 6 1.9636 12.5702 18.7406 3.5942 -5.2425 21.9812
#
#
#
# Elastic Compliance Matrix: (Units=1/GPa)
#
#
# Indices 1 2 3 4 5 6 
#
# 1 0.005720 -0.004281 -0.002686 0.014497 -0.001730 0.001444
# 2 -0.004281 0.012046 0.003848 -0.002978 -0.001637 -0.009690
# 3 -0.002686 0.003848 0.012159 -0.021623 -0.000225 -0.008844
# 4 0.014497 -0.002978 -0.021623 -0.001112 0.004798 0.020170
# 5 -0.001730 -0.001637 -0.000225 0.004798 0.020689 0.005432
# 6 0.001444 -0.009690 -0.008844 0.020170 0.005432 0.056444
#
#
# Mechanical properties :
#
#
# Convention : Reuss Voigt Hill
#
# Bulk Modulus (GPa) = 42.21866 69.23759 55.72813
# Shear Modulus (GPa) = 41.63887 23.88191 32.76039
#
# Velocity S-wave (km/s) = 4.01548 3.04105 3.56175
# Velocity P-wave (km/s) = 6.15203 6.25636 6.20441
#
# Compressibility (1/GPa) = 0.02368621
#
# Stress axis : x y z
#
# Youngs Moduli (GPa) = 174.82493 83.01349 82.24652
#
# Poissons Ratio (x) = 0.35539 0.22093
# Poissons Ratio (y) = 0.74844 -0.31648
# Poissons Ratio (z) = 0.46961 -0.31943
#
# Static dielectric constant tensor:
#      x y z
#    x 2.065810 0.058660 0.027560 
#    y 0.058660 2.064800 0.038470 
#    z 0.027560 0.038470 2.047460 
# 
# From -- ./inp_files/383224.got.cif
#   From: 2010.05.17/outbox.cif.g08.bks.cpg/sg2_192_cif.got.tgz:383224.got - 2010.06.03 11:33:40.
