data_PCOD9108649
_publ_section_title
;
Structure prediction by ZEFSAII (Michael W. Deem and Ramdas Pophale) SiO2 
 PCOD9108649
Probable space group: P -1
;
_chemical_formula_sum "Si O2"
_cell_formula_units_Z 12
_cell_length_a 12.440318
_cell_length_b 9.285018
_cell_length_c 5.101481
_cell_angle_alpha 63.184415
_cell_angle_beta 95.041983
_cell_angle_gamma 110.704939
_cell_volume 490.118123
_symmetry_space_group_name_H-M "P -1"
_symmetry_group_IT_number 2
_symmetry_cell_setting 'triclinic'
loop_
_space_group_symop_operation_xyz
x,y,z
-x,-y,-z
loop_
_atom_site_type_symbol
_atom_site_label
_atom_site_fract_x
_atom_site_fract_y
_atom_site_fract_z
Si Si1 0.533638 0.124797 0.652030
Si Si2 0.768546 0.139000 0.814179
Si Si3 0.127298 0.545126 0.095862
Si Si4 0.884003 0.951404 0.680557
Si Si5 0.673006 0.780329 0.375689
Si Si6 0.187788 0.380960 0.750748
O O1 0.671815 0.207215 0.621843
O O2 0.455043 0.243333 0.536864
O O3 0.500000 0.000000 0.500000
O O4 0.500000 0.000000 0.000000
O O5 0.820542 0.255613 0.978178
O O6 0.862947 0.118697 0.654049
O O7 0.705358 0.943084 0.052831
O O8 0.871316 0.551495 0.550892
O O9 0.195773 0.486845 0.932071
O O10 0.000000 0.500000 0.000000
O O11 0.770439 0.846734 0.568298
O O12 0.885824 0.816488 0.019092
O O13 0.000000 0.000000 0.500000
O O14 0.695645 0.629237 0.344524
#
# Coordination Sequence:
#
# PCOD9108649 Si02
#       6
#     2   2   2   2   2   2
#     4  10  20  40  70 103 132 170 226 292 339 388
#     4  10  25  42  70 106 134 180 235 281 336 407
#     4  12  28  46  67  95 147 190 223 276 344 414
#     4  11  24  42  73 103 136 179 234 283 340 405
#     4  10  22  43  73 100 134 175 231 288 339 397
#     4  11  26  47  66  98 140 184 227 279 346 406
#
# _framework density 24.483891
#
# number of rings (size 3 to 8) (size 9 to 14) (size 15 to 20)
#    0.000    1.333    3.333    0.500    7.000    1.333 
#    0.000    4.167    0.000    0.000    0.000    0.000 
#    0.000    0.000    0.000    0.000    0.000    0.000 
#
# Total GULP energy -67179.447514 kJ/mol
# GULP energy per Si atom -5598.287293 kJ/mol
# Density = 2.442816 g / cm^3
# Si number density = 24.483891 Si / 1000 Ang^3
#
#
#
# Elastic Constant Matrix: (Units=GPa)
#
#
# Indices 1 2 3 4 5 6 
#
# 1 151.7890 65.2012 25.6502 19.5010 10.5651 -35.7166
# 2 65.2012 127.7676 9.2661 43.9561 -10.0050 -40.1177
# 3 25.6502 9.2661 129.5131 13.9918 -0.5213 -9.2134
# 4 19.5010 43.9561 13.9918 48.2911 -1.3400 -7.8992
# 5 10.5651 -10.0050 -0.5213 -1.3400 26.8617 8.6071
# 6 -35.7166 -40.1177 -9.2134 -7.8992 8.6071 48.3017
#
#
#
# Elastic Compliance Matrix: (Units=1/GPa)
#
#
# Indices 1 2 3 4 5 6 
#
# 1 0.010360 -0.004474 -0.001500 0.000958 -0.007365 0.005127
# 2 -0.004474 0.017602 0.001680 -0.013158 0.004936 0.008600
# 3 -0.001500 0.001680 0.008324 -0.003113 0.000832 0.001217
# 4 0.000958 -0.013158 -0.003113 0.032298 -0.002073 -0.005163
# 5 -0.007365 0.004936 0.000832 -0.002073 0.044931 -0.009533
# 6 0.005127 0.008600 0.001217 -0.005163 -0.009533 0.032724
#
#
# Mechanical properties :
#
#
# Convention : Reuss Voigt Hill
#
# Bulk Modulus (GPa) = 36.10527 67.70053 51.90290
# Shear Modulus (GPa) = 30.47698 45.28770 37.88234
#
# Velocity S-wave (km/s) = 3.53197 4.30547 3.93776
# Velocity P-wave (km/s) = 5.60461 7.24066 6.47452
#
# Compressibility (1/GPa) = 0.02769679
#
# Stress axis : x y z
#
# Youngs Moduli (GPa) = 96.52968 56.81278 120.12964
#
# Poissons Ratio (x) = 0.25420 0.18020
# Poissons Ratio (y) = 0.43190 -0.20181
# Poissons Ratio (z) = 0.14480 -0.09544
#
# Static dielectric constant tensor:
#      x y z
#    x 2.015950 -0.042120 -0.021070 
#    y -0.042120 1.957280 -0.006200 
#    z -0.021070 -0.006200 1.998530 
# 
# From -- ./inp_files/19477.got.cif
#   From: 2010.05.17/outbox.cif.g08.bks.cpg/sg2_10_cif.got.tgz:19477.got - 2010.06.03 11:33:40.
