data_PCOD9108701
_publ_section_title
;
Structure prediction by ZEFSAII (Michael W. Deem and Ramdas Pophale) SiO2 
 PCOD9108701
Probable space group: P -1
;
_chemical_formula_sum "Si O2"
_cell_formula_units_Z 16
_cell_length_a 11.982124
_cell_length_b 8.780474
_cell_length_c 10.882123
_cell_angle_alpha 48.245375
_cell_angle_beta 59.277204
_cell_angle_gamma 82.248963
_cell_volume 695.563035
_symmetry_space_group_name_H-M "P -1"
_symmetry_group_IT_number 2
_symmetry_cell_setting 'triclinic'
loop_
_space_group_symop_operation_xyz
x,y,z
-x,-y,-z
loop_
_atom_site_type_symbol
_atom_site_label
_atom_site_fract_x
_atom_site_fract_y
_atom_site_fract_z
Si Si1 0.912243 0.034145 0.384520
Si Si2 0.107944 0.528950 0.814167
Si Si3 0.200032 0.249592 0.172047
Si Si4 0.435427 0.032647 0.150035
Si Si5 0.807144 0.668981 0.487143
Si Si6 0.641992 0.454877 0.456048
Si Si7 0.046294 0.799582 0.126367
Si Si8 0.297095 0.662507 0.052303
O O1 0.859594 0.219581 0.366200
O O2 0.073479 0.149221 0.202536
O O3 0.883408 0.849840 0.602467
O O4 0.816613 0.909267 0.394987
O O5 0.253976 0.486932 0.750619
O O6 0.020009 0.389873 0.830229
O O7 0.000000 0.500000 0.000000
O O8 0.263383 0.502833 0.037577
O O9 0.316401 0.141175 0.141593
O O10 0.387788 0.795015 0.361523
O O11 0.500000 0.000000 0.000000
O O12 0.547156 0.194259 0.089879
O O13 0.723722 0.591430 0.451919
O O14 0.745861 0.493730 0.720299
O O15 0.967986 0.711957 0.344612
O O16 0.500000 0.500000 0.500000
O O17 0.204556 0.820181 0.025670
O O18 0.000000 0.000000 0.000000
#
# Coordination Sequence:
#
# PCOD9108701 Si02
#       8
#     2   2   2   2   2   2   2   2
#     4  10  20  40  70  96 128 166 224 283 341 393
#     4  11  23  44  69  98 134 181 231 279 341 417
#     4  10  22  41  65 100 130 173 220 284 342 401
#     4  12  25  42  69  97 138 181 234 277 345 422
#     4  10  23  41  69  98 135 174 231 283 349 402
#     4  11  26  48  66 101 145 184 226 286 351 419
#     4  11  24  41  66 102 138 174 230 283 343 409
#     4  11  23  42  68  98 138 179 225 282 348 405
#
# _framework density 23.002946999999999
#
# number of rings (size 3 to 8) (size 9 to 14) (size 15 to 20)
#    0.000    1.250    3.750    1.500    5.250    1.000 
#    0.000    0.625    0.000    0.000    0.000    0.000 
#    0.000    0.000    0.000    0.000    0.000    0.000 
#
# Total GULP energy -89283.235373 kJ/mol
# GULP energy per Si atom -5580.202211 kJ/mol
# Density = 2.295059 g / cm^3
# Si number density = 23.002947 Si / 1000 Ang^3
#
#
#
# Elastic Constant Matrix: (Units=GPa)
#
#
# Indices 1 2 3 4 5 6 
#
# 1 118.7404 46.4030 26.0039 -10.4307 -32.3602 -32.2496
# 2 46.4030 122.2359 41.2586 -28.6598 -16.0098 -1.0559
# 3 26.0039 41.2586 83.9106 -4.1667 -17.2242 -0.9923
# 4 -10.4307 -28.6598 -4.1667 47.7490 -1.3644 -8.6925
# 5 -32.3602 -16.0098 -17.2242 -1.3644 32.8775 3.9859
# 6 -32.2496 -1.0559 -0.9923 -8.6925 3.9859 45.9377
#
#
#
# Elastic Compliance Matrix: (Units=1/GPa)
#
#
# Indices 1 2 3 4 5 6 
#
# 1 0.017085 -0.003494 -0.000433 0.004079 0.013664 0.011491
# 2 -0.003494 0.012624 -0.004697 0.006214 0.000644 -0.001144
# 3 -0.000433 -0.004697 0.015378 -0.001572 0.005379 -0.000844
# 4 0.004079 0.006214 -0.001572 0.026979 0.006426 0.007520
# 5 0.013664 0.000644 0.005379 0.006426 0.046426 0.006911
# 6 0.011491 -0.001144 -0.000844 0.007520 0.006911 0.030615
#
#
# Mechanical properties :
#
#
# Convention : Reuss Voigt Hill
#
# Bulk Modulus (GPa) = 35.92266 61.35753 48.64009
# Shear Modulus (GPa) = 28.46801 39.39426 33.93114
#
# Velocity S-wave (km/s) = 3.52174 4.14282 3.84484
# Velocity P-wave (km/s) = 5.67339 7.04383 6.39543
#
# Compressibility (1/GPa) = 0.02783758
#
# Stress axis : x y z
#
# Youngs Moduli (GPa) = 58.52961 79.21223 65.02995
#
# Poissons Ratio (x) = 0.27679 0.02818
# Poissons Ratio (y) = 0.20452 0.30546
# Poissons Ratio (z) = 0.02536 0.37208
#
# Static dielectric constant tensor:
#      x y z
#    x 1.903500 0.023060 0.034620 
#    y 0.023060 1.836710 0.048700 
#    z 0.034620 0.048700 1.917830 
# 
# From -- ./inp_files/418874.got.cif
#   From: 2010.05.17/outbox.cif.g08.bks.cpg/sg2_210_cif.got.tgz:418874.got - 2010.06.03 11:33:40.
