data_PCOD9108403
_publ_section_title
;
Structure prediction by ZEFSAII (Michael W. Deem and Ramdas Pophale) SiO2 
 PCOD9108403
Probable space group: P -1
;
_chemical_formula_sum "Si O2"
_cell_formula_units_Z 16
_cell_length_a 15.039279
_cell_length_b 9.002381
_cell_length_c 9.778818
_cell_angle_alpha 132.462543
_cell_angle_beta 57.103966
_cell_angle_gamma 90.445877
_cell_volume 668.429458
_symmetry_space_group_name_H-M "P -1"
_symmetry_group_IT_number 2
_symmetry_cell_setting 'triclinic'
loop_
_space_group_symop_operation_xyz
x,y,z
-x,-y,-z
loop_
_atom_site_type_symbol
_atom_site_label
_atom_site_fract_x
_atom_site_fract_y
_atom_site_fract_z
Si Si1 0.793680 0.329425 0.898637
Si Si2 0.235518 0.071098 0.652210
Si Si3 0.697615 0.467196 0.762639
Si Si4 0.709905 0.028855 0.168921
Si Si5 0.374850 0.497920 0.579141
Si Si6 0.476884 0.015465 0.282746
Si Si7 0.874965 0.598582 0.571477
Si Si8 0.934730 0.753441 0.352713
O O1 0.719602 0.473493 0.911428
O O2 0.917054 0.338378 0.821397
O O3 0.705780 0.425134 0.165705
O O4 0.851657 0.041889 0.648563
O O5 0.292159 0.781639 0.418046
O O6 0.205360 0.132791 0.874293
O O7 0.353376 0.079734 0.510371
O O8 0.117088 0.226048 0.743722
O O9 0.812119 0.456066 0.578841
O O10 0.564068 0.725803 0.994193
O O11 0.701756 0.278948 0.324449
O O12 0.572319 0.063302 0.314835
O O13 0.770615 0.878477 0.885501
O O14 0.500000 0.500000 0.500000
O O15 0.421121 0.220915 0.336620
O O16 0.000000 0.500000 0.500000
O O17 0.903162 0.611415 0.397903
#
# Coordination Sequence:
#
# PCOD9108403 Si02
#       8
#     2   2   2   2   2   2   2   2
#     4  10  20  40  68  93 128 177 220 266 330 402
#     4  11  24  42  64 101 137 172 219 285 333 389
#     4  10  23  39  67  97 130 174 226 275 331 394
#     4  10  23  42  65  97 131 177 223 276 335 399
#     4  10  22  39  67  97 129 173 226 273 320 399
#     4  10  23  41  65  94 131 181 221 271 337 406
#     4  11  21  42  71  97 127 180 228 266 329 410
#     4  10  22  41  67  97 131 174 223 268 333 394
#
# _framework density 23.936706999999998
#
# number of rings (size 3 to 8) (size 9 to 14) (size 15 to 20)
#    0.000    1.750    2.500    0.750    7.000    1.000 
#    0.000    8.125    0.000    0.000    0.000    0.000 
#    0.000    0.000    0.000    0.000    0.000    0.000 
#
# Total GULP energy -89512.925296 kJ/mol
# GULP energy per Si atom -5594.557831 kJ/mol
# Density = 2.388223 g / cm^3
# Si number density = 23.936707 Si / 1000 Ang^3
#
#
#
# Elastic Constant Matrix: (Units=GPa)
#
#
# Indices 1 2 3 4 5 6 
#
# 1 54.3654 43.5829 23.3033 -16.4765 1.8933 -13.8224
# 2 43.5829 182.3122 37.3088 0.6121 -3.1132 -5.1419
# 3 23.3033 37.3088 67.6400 4.0071 -11.4487 4.2248
# 4 -16.4765 0.6121 4.0071 56.4260 4.1124 3.5543
# 5 1.8933 -3.1132 -11.4487 4.1124 29.9491 -2.7000
# 6 -13.8224 -5.1419 4.2248 3.5543 -2.7000 32.1950
#
#
#
# Elastic Compliance Matrix: (Units=1/GPa)
#
#
# Indices 1 2 3 4 5 6 
#
# 1 0.035091 -0.005772 -0.011685 0.010815 -0.007521 0.013853
# 2 -0.005772 0.007212 -0.001738 -0.001629 0.000596 -0.000868
# 3 -0.011685 -0.001738 0.022040 -0.005188 0.009078 -0.006853
# 4 0.010815 -0.001629 -0.005188 0.021534 -0.005593 0.002217
# 5 -0.007521 0.000596 0.009078 -0.005593 0.038120 -0.000511
# 6 0.013853 -0.000868 -0.006853 0.002217 -0.000511 0.037481
#
#
# Mechanical properties :
#
#
# Convention : Reuss Voigt Hill
#
# Bulk Modulus (GPa) = 38.52938 56.96751 47.74845
# Shear Modulus (GPa) = 23.97864 37.05553 30.51708
#
# Velocity S-wave (km/s) = 3.16848 3.93881 3.57446
# Velocity P-wave (km/s) = 5.43295 6.67357 6.08496
#
# Compressibility (1/GPa) = 0.02595422
#
# Stress axis : x y z
#
# Youngs Moduli (GPa) = 28.49708 138.66538 45.37120
#
# Poissons Ratio (x) = 0.80032 0.53017
# Poissons Ratio (y) = 0.16447 0.07885
# Poissons Ratio (z) = 0.33299 0.24097
#
# Static dielectric constant tensor:
#      x y z
#    x 1.889580 -0.019560 0.008600 
#    y -0.019560 1.900570 0.054940 
#    z 0.008600 0.054940 1.967850 
# 
# From -- ./inp_files/189365.got.cif
#   From: 2010.05.17/outbox.cif.g08.bks.cpg/sg2_95_cif.got.tgz:189365.got - 2010.06.03 11:33:40.
