data_PCOD9108288
_publ_section_title
;
Structure prediction by ZEFSAII (Michael W. Deem and Ramdas Pophale) SiO2 
 PCOD9108288
Probable space group: P -1
;
_chemical_formula_sum "Si O2"
_cell_formula_units_Z 15
_cell_length_a 15.621883
_cell_length_b 8.543992
_cell_length_c 7.840770
_cell_angle_alpha 58.655850
_cell_angle_beta 63.805526
_cell_angle_gamma 42.870697
_cell_volume 604.822581
_symmetry_space_group_name_H-M "P -1"
_symmetry_group_IT_number 2
_symmetry_cell_setting 'triclinic'
loop_
_space_group_symop_operation_xyz
x,y,z
-x,-y,-z
loop_
_atom_site_type_symbol
_atom_site_label
_atom_site_fract_x
_atom_site_fract_y
_atom_site_fract_z
Si Si1 0.511008 0.217351 0.655965
Si Si2 0.342280 0.854919 0.942924
Si Si3 0.317394 0.681272 0.717193
Si Si4 0.607505 0.578575 0.705418
Si Si5 0.000000 0.500000 0.500000
Si Si6 0.751798 0.674097 0.732580
Si Si7 0.079279 0.046518 0.510590
Si Si8 0.138924 0.303707 0.064748
O O1 0.415244 0.388185 0.794975
O O2 0.601785 0.270172 0.486516
O O3 0.419889 0.306696 0.521541
O O4 0.615529 0.931915 0.752888
O O5 0.294522 0.795722 0.857451
O O6 0.475575 0.766439 0.815844
O O7 0.367330 0.671028 0.171178
O O8 0.245388 0.131457 0.930047
O O9 0.189526 0.810161 0.654145
O O10 0.718311 0.540301 0.728394
O O11 0.842673 0.693482 0.531823
O O12 0.998767 0.720749 0.427430
O O13 0.829963 0.573989 0.898105
O O14 0.133837 0.124854 0.282799
O O15 0.000000 0.000000 0.500000
O O16 0.000000 0.500000 0.000000
#
# Coordination Sequence:
#
# PCOD9108288 Si02
#       8
#     2   2   2   2   1   2   2   2
#     4  10  20  40  67  97 131 166 227 281 338 403
#     4  10  24  43  66  97 138 175 221 274 355 415
#     4  10  21  40  68  94 132 177 222 282 339 405
#     4  10  23  40  69 101 130 174 217 281 345 419
#     4  10  24  42  68  96 136 172 234 286 344 390
#     4  11  24  42  68  97 134 172 227 286 343 410
#     4  11  25  45  72 102 132 192 242 287 341 420
#     4  11  26  46  66  96 142 181 229 291 346 413
#
# _framework density 24.800660000000001
#
# number of rings (size 3 to 8) (size 9 to 14) (size 15 to 20)
#    0.000    1.600    2.667    1.200   13.067    1.600 
#    2.400    1.333    0.000    0.000    0.000    0.000 
#    0.000    0.000    0.000    0.000    0.000    0.000 
#
# Total GULP energy -83643.330586 kJ/mol
# GULP energy per Si atom -5576.222039 kJ/mol
# Density = 2.474421 g / cm^3
# Si number density = 24.800660 Si / 1000 Ang^3
#
#
#
# Elastic Constant Matrix: (Units=GPa)
#
#
# Indices 1 2 3 4 5 6 
#
# 1 197.0647 30.2129 29.2178 1.8642 27.5393 -15.8406
# 2 30.2129 108.7042 5.6536 4.3073 9.9127 -19.2119
# 3 29.2178 5.6536 56.5405 -6.5723 19.3712 -5.5638
# 4 1.8642 4.3073 -6.5723 21.8438 -0.9957 2.5951
# 5 27.5393 9.9127 19.3712 -0.9957 36.8246 -9.2483
# 6 -15.8406 -19.2119 -5.5638 2.5951 -9.2483 30.5978
#
#
#
# Elastic Compliance Matrix: (Units=1/GPa)
#
#
# Indices 1 2 3 4 5 6 
#
# 1 0.006058 -0.001027 -0.002055 -0.001224 -0.002865 0.001355
# 2 -0.001027 0.010763 -0.000049 -0.002822 -0.000604 0.006274
# 3 -0.002055 -0.000049 0.023097 0.006731 -0.010585 -0.000665
# 4 -0.001224 -0.002822 0.006731 0.049081 -0.002035 -0.005960
# 5 -0.002865 -0.000604 -0.010585 -0.002035 0.036865 0.007528
# 6 0.001355 0.006274 -0.000665 -0.005960 0.007528 0.039983
#
#
# Mechanical properties :
#
#
# Convention : Reuss Voigt Hill
#
# Bulk Modulus (GPa) = 29.71370 54.71977 42.21674
# Shear Modulus (GPa) = 27.27364 37.66824 32.47094
#
# Velocity S-wave (km/s) = 3.31979 3.90146 3.62232
# Velocity P-wave (km/s) = 5.16737 6.51206 5.87829
#
# Compressibility (1/GPa) = 0.03365451
#
# Stress axis : x y z
#
# Youngs Moduli (GPa) = 165.08187 92.90977 43.29640
#
# Poissons Ratio (x) = 0.09546 0.08897
# Poissons Ratio (y) = 0.16962 0.00213
# Poissons Ratio (z) = 0.33921 0.00456
#
# Static dielectric constant tensor:
#      x y z
#    x 1.959720 0.076400 0.016430 
#    y 0.076400 1.985360 -0.008270 
#    z 0.016430 -0.008270 2.053920 
# 
# From -- ./inp_files/294793.got.cif
#   From: 2010.05.17/outbox.cif.g08.bks.cpg/sg2_148_cif.got.tgz:294793.got - 2010.06.03 11:33:40.
