data_PCOD9108258
_publ_section_title
;
Structure prediction by ZEFSAII (Michael W. Deem and Ramdas Pophale) SiO2 
 PCOD9108258
Probable space group: P -1
;
_chemical_formula_sum "Si O2"
_cell_formula_units_Z 16
_cell_length_a 15.032799
_cell_length_b 9.154820
_cell_length_c 8.999720
_cell_angle_alpha 105.069928
_cell_angle_beta 102.996196
_cell_angle_gamma 132.087671
_cell_volume 737.116164
_symmetry_space_group_name_H-M "P -1"
_symmetry_group_IT_number 2
_symmetry_cell_setting 'triclinic'
loop_
_space_group_symop_operation_xyz
x,y,z
-x,-y,-z
loop_
_atom_site_type_symbol
_atom_site_label
_atom_site_fract_x
_atom_site_fract_y
_atom_site_fract_z
Si Si1 0.839431 0.791101 0.073247
Si Si2 0.394831 0.450002 0.560754
Si Si3 0.133548 0.032817 0.183753
Si Si4 0.849998 0.274985 0.803650
Si Si5 0.838689 0.286538 0.449104
Si Si6 0.366071 0.727227 0.247451
Si Si7 0.654882 0.752843 0.197718
Si Si8 0.607165 0.225958 0.378427
O O1 0.781024 0.806180 0.195140
O O2 0.876643 0.949135 0.990547
O O3 0.708420 0.518844 0.899793
O O4 0.979310 0.864028 0.157119
O O5 0.500000 0.500000 0.500000
O O6 0.245708 0.286611 0.373157
O O7 0.368932 0.310436 0.654507
O O8 0.438675 0.675556 0.686992
O O9 0.195102 0.946110 0.212527
O O10 0.858322 0.280804 0.630702
O O11 0.742934 0.272394 0.800567
O O12 0.000000 0.500000 0.000000
O O13 0.759630 0.348729 0.423455
O O14 0.000000 0.500000 0.500000
O O15 0.729351 0.014748 0.275882
O O16 0.403990 0.756686 0.443086
O O17 0.496543 0.944953 0.250021
O O18 0.500000 0.500000 0.000000
#
# Coordination Sequence:
#
# PCOD9108258 Si02
#       8
#     2   2   2   2   2   2   2   2
#     4  11  24  40  68  98 138 176 224 282 344 403
#     4  12  25  45  70 100 132 180 235 282 338 410
#     4  11  23  41  67 100 133 179 232 276 334 413
#     4  11  22  41  68 101 132 174 230 280 335 406
#     4  11  27  46  69 100 142 183 222 281 352 406
#     4  10  20  40  67  95 129 172 220 282 332 394
#     4  12  28  47  68 100 143 182 230 285 347 409
#     4  10  23  41  69  94 129 172 229 275 336 400
#
# _framework density 21.706212000000001
#
# number of rings (size 3 to 8) (size 9 to 14) (size 15 to 20)
#    0.000    1.000    3.750    2.250    7.000    1.500 
#    0.000    1.250    0.000    0.000    0.000    0.000 
#    0.000    0.000    0.000    0.000    0.000    0.000 
#
# Total GULP energy -89338.696538 kJ/mol
# GULP energy per Si atom -5583.668534 kJ/mol
# Density = 2.165681 g / cm^3
# Si number density = 21.706212 Si / 1000 Ang^3
#
#
#
# Elastic Constant Matrix: (Units=GPa)
#
#
# Indices 1 2 3 4 5 6 
#
# 1 91.2436 45.2856 3.9120 -5.0473 -15.7468 11.1039
# 2 45.2856 85.4358 0.8599 12.5816 -11.2875 3.9751
# 3 3.9120 0.8599 52.7701 12.3854 -1.5638 11.8454
# 4 -5.0473 12.5816 12.3854 32.0614 -0.4051 0.2359
# 5 -15.7468 -11.2875 -1.5638 -0.4051 31.1901 2.9566
# 6 11.1039 3.9751 11.8454 0.2359 2.9566 42.8162
#
#
#
# Elastic Compliance Matrix: (Units=1/GPa)
#
#
# Indices 1 2 3 4 5 6 
#
# 1 0.017562 -0.009431 -0.001880 0.007292 0.005795 -0.003599
# 2 -0.009431 0.018366 0.002764 -0.009735 0.001907 -0.000102
# 3 -0.001880 0.002764 0.022854 -0.010143 0.001648 -0.006150
# 4 0.007292 -0.009735 -0.010143 0.040065 0.000019 0.001597
# 5 0.005795 0.001907 0.001648 0.000019 0.036200 -0.004636
# 6 -0.003599 -0.000102 -0.006150 0.001597 -0.004636 0.026311
#
#
# Mechanical properties :
#
#
# Convention : Reuss Voigt Hill
#
# Bulk Modulus (GPa) = 23.98680 36.61829 30.30254
# Shear Modulus (GPa) = 25.99440 33.17299 29.58370
#
# Velocity S-wave (km/s) = 3.46433 3.91355 3.69577
# Velocity P-wave (km/s) = 5.20353 6.10965 5.67470
#
# Compressibility (1/GPa) = 0.04168959
#
# Stress axis : x y z
#
# Youngs Moduli (GPa) = 56.93960 54.44842 43.75511
#
# Poissons Ratio (x) = 0.51349 0.08226
# Poissons Ratio (y) = 0.53699 -0.12094
# Poissons Ratio (z) = 0.10705 -0.15050
#
# Static dielectric constant tensor:
#      x y z
#    x 1.810710 -0.077920 -0.003000 
#    y -0.077920 1.963010 0.111140 
#    z -0.003000 0.111140 1.851070 
# 
# From -- ./inp_files/299264.got.cif
#   From: 2010.05.17/outbox.cif.g08.bks.cpg/sg2_150_cif.got.tgz:299264.got - 2010.06.03 11:33:40.
