data_PCOD9108376
_publ_section_title
;
Structure prediction by ZEFSAII (Michael W. Deem and Ramdas Pophale) SiO2 
 PCOD9108376
Probable space group: P -1
;
_chemical_formula_sum "Si O2"
_cell_formula_units_Z 15
_cell_length_a 11.637834
_cell_length_b 14.490470
_cell_length_c 6.483364
_cell_angle_alpha 79.482684
_cell_angle_beta 98.064008
_cell_angle_gamma 46.725295
_cell_volume 726.879493
_symmetry_space_group_name_H-M "P -1"
_symmetry_group_IT_number 2
_symmetry_cell_setting 'triclinic'
loop_
_space_group_symop_operation_xyz
x,y,z
-x,-y,-z
loop_
_atom_site_type_symbol
_atom_site_label
_atom_site_fract_x
_atom_site_fract_y
_atom_site_fract_z
Si Si1 0.404188 0.640357 0.803474
Si Si2 0.473878 0.780330 0.042894
Si Si3 0.255356 0.068731 0.708094
Si Si4 0.874152 0.328984 0.368792
Si Si5 0.500000 0.000000 0.500000
Si Si6 0.376782 0.418792 0.476629
Si Si7 0.722753 0.793703 0.020447
Si Si8 0.078120 0.555149 0.047761
O O1 0.212888 0.715987 0.709694
O O2 0.492820 0.599771 0.621192
O O3 0.500000 0.500000 0.000000
O O4 0.432603 0.718385 0.907324
O O5 0.514146 0.717155 0.304144
O O6 0.646423 0.734517 0.045049
O O7 0.320956 0.945183 0.916672
O O8 0.362940 0.002584 0.553350
O O9 0.057855 0.196262 0.560759
O O10 0.319591 0.126733 0.811495
O O11 0.743059 0.451021 0.451878
O O12 0.892138 0.394661 0.161369
O O13 0.364009 0.112467 0.240763
O O14 0.246226 0.448269 0.271297
O O15 0.923671 0.687185 0.090330
O O16 0.000000 0.500000 0.000000
#
# Coordination Sequence:
#
# PCOD9108376 Si02
#       8
#     2   2   2   2   1   2   2   2
#     4  12  25  45  70  99 133 183 236 277 337 400
#     4  11  26  43  69 103 136 181 230 277 339 415
#     4  11  25  44  69 103 136 182 223 277 351 405
#     4  12  25  45  70 100 138 181 227 282 339 402
#     4  10  20  40  68  90 142 174 212 268 336 406
#     4  12  24  45  70  95 139 179 226 286 340 396
#     4  11  23  42  67 102 136 176 223 273 344 409
#     4  12  25  39  68 106 136 177 227 281 341 403
#
# _framework density 20.636158999999999
#
# number of rings (size 3 to 8) (size 9 to 14) (size 15 to 20)
#    0.000    0.533    5.333    3.600    1.867    6.933 
#    0.000    0.667    0.000    0.000    0.000    0.000 
#    0.000    0.000    0.000    0.000    0.000    0.000 
#
# Total GULP energy -83545.808730 kJ/mol
# GULP energy per Si atom -5569.720582 kJ/mol
# Density = 2.058919 g / cm^3
# Si number density = 20.636159 Si / 1000 Ang^3
#
#
#
# Elastic Constant Matrix: (Units=GPa)
#
#
# Indices 1 2 3 4 5 6 
#
# 1 159.3931 43.5214 73.1295 -8.6736 9.0194 7.6299
# 2 43.5214 59.1731 33.9875 -13.5411 1.8749 5.9860
# 3 73.1295 33.9875 142.2640 -32.3969 -12.4104 -4.6884
# 4 -8.6736 -13.5411 -32.3969 27.8504 -1.6908 9.8359
# 5 9.0194 1.8749 -12.4104 -1.6908 44.4890 1.9413
# 6 7.6299 5.9860 -4.6884 9.8359 1.9413 32.3545
#
#
#
# Elastic Compliance Matrix: (Units=1/GPa)
#
#
# Indices 1 2 3 4 5 6 
#
# 1 0.010305 -0.005628 -0.005734 -0.006404 -0.003693 -0.000051
# 2 -0.005628 0.024795 -0.000362 0.012452 0.000780 -0.007145
# 3 -0.005734 -0.000362 0.013965 0.015163 0.005716 -0.001510
# 4 -0.006404 0.012452 0.015163 0.064738 0.008283 -0.018774
# 5 -0.003693 0.000780 0.005716 0.008283 0.025210 -0.002476
# 6 -0.000051 -0.007145 -0.001510 -0.018774 -0.002476 0.037879
#
#
# Mechanical properties :
#
#
# Convention : Reuss Voigt Hill
#
# Bulk Modulus (GPa) = 39.04032 73.56742 56.30387
# Shear Modulus (GPa) = 23.93722 34.95157 29.44440
#
# Velocity S-wave (km/s) = 3.40952 4.11993 3.78144
# Velocity P-wave (km/s) = 5.87020 7.63930 6.81242
#
# Compressibility (1/GPa) = 0.02561454
#
# Stress axis : x y z
#
# Youngs Moduli (GPa) = 97.04493 40.33101 71.60578
#
# Poissons Ratio (x) = 0.22700 0.41062
# Poissons Ratio (y) = 0.54622 0.02593
# Poissons Ratio (z) = 0.55650 0.01461
#
# Static dielectric constant tensor:
#      x y z
#    x 1.710490 -0.000720 0.027720 
#    y -0.000720 1.836170 0.045020 
#    z 0.027720 0.045020 1.750860 
# 
# From -- ./inp_files/65421.got.cif
#   From: 2010.05.17/outbox.cif.g08.bks.cpg/sg2_33_cif.got.tgz:65421.got - 2010.06.03 11:33:40.
