data_PCOD9108838
_publ_section_title
;
Structure prediction by ZEFSAII (Michael W. Deem and Ramdas Pophale) SiO2 
 PCOD9108838
Probable space group: P -1
;
_chemical_formula_sum "Si O2"
_cell_formula_units_Z 12
_cell_length_a 15.685151
_cell_length_b 11.207310
_cell_length_c 8.953954
_cell_angle_alpha 139.319477
_cell_angle_beta 147.595659
_cell_angle_gamma 35.308766
_cell_volume 475.137204
_symmetry_space_group_name_H-M "P -1"
_symmetry_group_IT_number 2
_symmetry_cell_setting 'triclinic'
loop_
_space_group_symop_operation_xyz
x,y,z
-x,-y,-z
loop_
_atom_site_type_symbol
_atom_site_label
_atom_site_fract_x
_atom_site_fract_y
_atom_site_fract_z
Si Si1 0.976097 0.455047 0.097709
Si Si2 0.476663 0.012208 0.652530
Si Si3 0.885764 0.260307 0.411638
Si Si4 0.278177 0.844540 0.671798
Si Si5 0.438330 0.237566 0.198102
Si Si6 0.876344 0.962486 0.899835
O O1 0.103316 0.539891 0.438498
O O2 0.036382 0.220102 0.017480
O O3 0.789876 0.283474 0.450960
O O4 0.770121 0.598282 0.991467
O O5 0.262702 0.093266 0.442513
O O6 0.500000 0.000000 0.500000
O O7 0.563491 0.787083 0.650434
O O8 0.583660 0.120813 0.983965
O O9 0.098503 0.067380 0.570914
O O10 0.000000 0.500000 0.000000
O O11 0.400704 0.731173 0.601075
O O12 0.206457 0.823006 0.921955
O O13 0.500000 0.000000 0.000000
O O14 0.000000 0.000000 0.000000
#
# Coordination Sequence:
#
# PCOD9108838 Si02
#       6
#     2   2   2   2   2   2
#     4  12  25  47  78 107 141 201 250 294 366 455
#     4  11  20  41  67 104 147 184 229 310 370 409
#     4  11  22  46  73 102 143 195 245 292 368 443
#     4  10  20  40  73 100 140 195 235 298 358 436
#     4  10  21  42  74 103 141 196 245 296 360 438
#     4  12  28  45  71 112 152 190 239 313 378 430
#
# _framework density 25.255863000000002
#
# number of rings (size 3 to 8) (size 9 to 14) (size 15 to 20)
#    0.000    1.000    5.000    4.000    2.333    0.667 
#    0.000   10.000    0.000    0.000    0.000    0.000 
#    0.000    0.000    0.000    0.000    0.000    0.000 
#
# Total GULP energy -67032.296580 kJ/mol
# GULP energy per Si atom -5586.024715 kJ/mol
# Density = 2.519838 g / cm^3
# Si number density = 25.255863 Si / 1000 Ang^3
#
#
#
# Elastic Constant Matrix: (Units=GPa)
#
#
# Indices 1 2 3 4 5 6 
#
# 1 175.2300 27.4190 21.6047 7.9543 33.2412 25.2608
# 2 27.4190 73.1131 14.0756 20.0792 12.8618 7.6439
# 3 21.6047 14.0756 109.9437 6.3398 17.3803 12.8348
# 4 7.9543 20.0792 6.3398 20.8246 1.1418 10.0878
# 5 33.2412 12.8618 17.3803 1.1418 52.0007 -1.3686
# 6 25.2608 7.6439 12.8348 10.0878 -1.3686 31.2386
#
#
#
# Elastic Compliance Matrix: (Units=1/GPa)
#
#
# Indices 1 2 3 4 5 6 
#
# 1 0.007796 -0.002114 0.000144 0.002620 -0.004748 -0.006900
# 2 -0.002114 0.020275 -0.000992 -0.019974 -0.002801 0.003484
# 3 0.000144 -0.000992 0.010220 0.000024 -0.003374 -0.004228
# 4 0.002620 -0.019974 0.000024 0.076887 0.000990 -0.022026
# 5 -0.004748 -0.002801 -0.003374 0.000990 0.024240 0.006654
# 6 -0.006900 0.003484 -0.004228 -0.022026 0.006654 0.045880
#
#
# Mechanical properties :
#
#
# Convention : Reuss Voigt Hill
#
# Bulk Modulus (GPa) = 30.89675 53.83172 42.36424
# Shear Modulus (GPa) = 24.75086 40.49197 32.62141
#
# Velocity S-wave (km/s) = 3.13390 4.00843 3.59783
# Velocity P-wave (km/s) = 5.03539 6.54096 5.83692
#
# Compressibility (1/GPa) = 0.03236586
#
# Stress axis : x y z
#
# Youngs Moduli (GPa) = 128.26444 49.32075 97.84793
#
# Poissons Ratio (x) = 0.10428 -0.01406
# Poissons Ratio (y) = 0.27119 0.09710
# Poissons Ratio (z) = -0.01843 0.04894
#
# Static dielectric constant tensor:
#      x y z
#    x 2.068260 -0.017440 -0.013670 
#    y -0.017440 2.017160 0.021390 
#    z -0.013670 0.021390 2.147160 
# 
# From -- ./inp_files/304010.got.cif
#   From: 2010.05.17/outbox.cif.g08.bks.cpg/sg2_153_cif.got.tgz:304010.got - 2010.06.03 11:33:40.
