data_PCOD9108718
_publ_section_title
;
Structure prediction by ZEFSAII (Michael W. Deem and Ramdas Pophale) SiO2 
 PCOD9108718
Probable space group: P -1
;
_chemical_formula_sum "Si O2"
_cell_formula_units_Z 13
_cell_length_a 10.798767
_cell_length_b 8.513226
_cell_length_c 11.943757
_cell_angle_alpha 67.751108
_cell_angle_beta 37.614353
_cell_angle_gamma 88.717068
_cell_volume 540.250621
_symmetry_space_group_name_H-M "P -1"
_symmetry_group_IT_number 2
_symmetry_cell_setting 'triclinic'
loop_
_space_group_symop_operation_xyz
x,y,z
-x,-y,-z
loop_
_atom_site_type_symbol
_atom_site_label
_atom_site_fract_x
_atom_site_fract_y
_atom_site_fract_z
Si Si1 0.515555 0.380760 0.788046
Si Si2 0.191983 0.057089 0.445221
Si Si3 0.277128 0.445414 0.754302
Si Si4 0.143226 0.930650 0.152140
Si Si5 0.326134 0.640107 0.089590
Si Si6 0.000000 0.000000 0.000000
Si Si7 0.125737 0.639278 0.638150
O O1 0.382484 0.478993 0.794177
O O2 0.714351 0.395426 0.557006
O O3 0.617435 0.449908 0.818784
O O4 0.332171 0.149311 0.993325
O O5 0.202507 0.864715 0.524141
O O6 0.559842 0.786555 0.819643
O O7 0.000000 0.000000 0.500000
O O8 0.097339 0.121424 0.601483
O O9 0.500000 0.500000 0.500000
O O10 0.108236 0.215465 0.924170
O O11 0.162966 0.566016 0.751506
O O12 0.222683 0.776642 0.171119
O O13 0.104589 0.925950 0.048521
O O14 0.866319 0.520999 0.808262
#
# Coordination Sequence:
#
# PCOD9108718 Si02
#       7
#     2   2   2   2   2   1   2
#     4  10  20  40  70  97 136 187 219 282 346 403
#     4  12  26  45  67 106 145 178 223 290 351 405
#     4   9  20  38  66  99 131 177 227 278 336 404
#     4  11  22  44  74  96 138 184 226 280 348 402
#     4  12  23  45  72 102 136 184 230 282 343 413
#     4  10  20  42  70  98 132 182 230 278 336 406
#     4  11  23  42  70 104 138 177 240 279 338 417
#
# _framework density 24.062908
#
# number of rings (size 3 to 8) (size 9 to 14) (size 15 to 20)
#    0.000    1.231    4.615    1.846    0.000    0.615 
#    2.769    3.846    0.000    0.000    0.000    0.000 
#    0.000    0.000    0.000    0.000    0.000    0.000 
#
# Total GULP energy -72639.232459 kJ/mol
# GULP energy per Si atom -5587.633266 kJ/mol
# Density = 2.400814 g / cm^3
# Si number density = 24.062908 Si / 1000 Ang^3
#
#
#
# Elastic Constant Matrix: (Units=GPa)
#
#
# Indices 1 2 3 4 5 6 
#
# 1 170.6927 65.7651 43.4605 -7.0854 -1.3417 -46.4882
# 2 65.7651 127.2580 37.8042 -12.1683 7.5390 -33.8815
# 3 43.4605 37.8042 119.6926 -1.4538 -11.1076 -0.8834
# 4 -7.0854 -12.1683 -1.4538 28.6441 -5.1139 9.7692
# 5 -1.3417 7.5390 -11.1076 -5.1139 21.8820 -5.2116
# 6 -46.4882 -33.8815 -0.8834 9.7692 -5.2116 36.9774
#
#
#
# Elastic Compliance Matrix: (Units=1/GPa)
#
#
# Indices 1 2 3 4 5 6 
#
# 1 0.010647 -0.001494 -0.003128 -0.002148 0.002128 0.012809
# 2 -0.001494 0.012296 -0.003627 0.001087 -0.003899 0.008465
# 3 -0.003128 -0.003627 0.011113 0.001481 0.005471 -0.006611
# 4 -0.002148 0.001087 0.001481 0.039991 0.006909 -0.011262
# 5 0.002128 -0.003899 0.005471 0.006909 0.052718 0.004838
# 6 0.012809 0.008465 -0.006611 -0.011262 0.004838 0.054403
#
#
# Mechanical properties :
#
#
# Convention : Reuss Voigt Hill
#
# Bulk Modulus (GPa) = 56.95661 79.07812 68.01737
# Shear Modulus (GPa) = 24.56777 35.54160 30.05468
#
# Velocity S-wave (km/s) = 3.19875 3.84738 3.53796
# Velocity P-wave (km/s) = 6.11260 7.25747 6.70950
#
# Compressibility (1/GPa) = 0.01755722
#
# Stress axis : x y z
#
# Youngs Moduli (GPa) = 93.92692 81.32399 89.98401
#
# Poissons Ratio (x) = 0.12150 0.28146
# Poissons Ratio (y) = 0.14033 0.32641
# Poissons Ratio (z) = 0.29380 0.29500
#
# Static dielectric constant tensor:
#      x y z
#    x 1.935610 0.020110 0.025840 
#    y 0.020110 1.958720 0.039650 
#    z 0.025840 0.039650 1.950830 
# 
# From -- ./inp_files/516665.got.cif
#   From: 2010.05.17/outbox.cif.g08.bks.cpg/sg2_259_cif.got.tgz:516665.got - 2010.06.03 11:33:40.
