data_PCOD9108321
_publ_section_title
;
Structure prediction by ZEFSAII (Michael W. Deem and Ramdas Pophale) SiO2 
 PCOD9108321
Probable space group: P -1
;
_chemical_formula_sum "Si O2"
_cell_formula_units_Z 16
_cell_length_a 9.512999
_cell_length_b 14.637441
_cell_length_c 9.600096
_cell_angle_alpha 141.134235
_cell_angle_beta 81.231978
_cell_angle_gamma 114.097984
_cell_volume 733.072153
_symmetry_space_group_name_H-M "P -1"
_symmetry_group_IT_number 2
_symmetry_cell_setting 'triclinic'
loop_
_space_group_symop_operation_xyz
x,y,z
-x,-y,-z
loop_
_atom_site_type_symbol
_atom_site_label
_atom_site_fract_x
_atom_site_fract_y
_atom_site_fract_z
Si Si1 0.496439 0.368706 0.458231
Si Si2 0.909693 0.380587 0.074412
Si Si3 0.313148 0.945058 0.434147
Si Si4 0.103713 0.008894 0.769822
Si Si5 0.028261 0.699551 0.574998
Si Si6 0.822960 0.634387 0.807332
Si Si7 0.259268 0.084295 0.326310
Si Si8 0.696733 0.207453 0.161007
O O1 0.500000 0.500000 0.500000
O O2 0.648212 0.482773 0.666362
O O3 0.342138 0.262033 0.450086
O O4 0.540912 0.233599 0.223112
O O5 0.795757 0.321425 0.155173
O O6 0.969850 0.576736 0.305326
O O7 0.062844 0.355984 0.069328
O O8 0.798383 0.248747 0.820748
O O9 0.217848 0.973204 0.608178
O O10 0.500000 0.000000 0.500000
O O11 0.315796 0.059645 0.440409
O O12 0.055801 0.880360 0.750069
O O13 0.929986 0.977049 0.702181
O O14 0.193381 0.201154 0.015316
O O15 0.201033 0.727324 0.635978
O O16 0.913138 0.630501 0.645555
O O17 0.300471 0.961150 0.080132
#
# Coordination Sequence:
#
# PCOD9108321 Si02
#       8
#     2   2   2   2   2   2   2   2
#     4  12  25  38  66 109 152 175 224 285 358 415
#     4  10  20  42  71  93 135 180 232 284 344 407
#     4  11  27  48  72  95 134 189 250 285 339 406
#     4  12  25  43  72  97 140 188 233 283 342 421
#     4  11  20  38  71 104 136 175 232 274 357 417
#     4  11  21  41  67 105 139 180 218 289 350 418
#     4  11  25  45  69 101 142 186 234 286 347 413
#     4  10  20  40  67  99 144 181 219 281 354 419
#
# _framework density 21.825955
#
# number of rings (size 3 to 8) (size 9 to 14) (size 15 to 20)
#    0.000    1.000    6.250    2.625    3.500    2.500 
#    0.000    0.625    0.000    0.000    0.000    0.000 
#    0.000    0.000    0.000    0.000    0.000    0.000 
#
# Total GULP energy -89222.349550 kJ/mol
# GULP energy per Si atom -5576.396847 kJ/mol
# Density = 2.177628 g / cm^3
# Si number density = 21.825955 Si / 1000 Ang^3
#
#
#
# Elastic Constant Matrix: (Units=GPa)
#
#
# Indices 1 2 3 4 5 6 
#
# 1 83.9694 24.9006 7.5136 -6.6783 -13.3313 -0.6968
# 2 24.9006 62.2406 14.9867 12.9827 5.3291 17.3239
# 3 7.5136 14.9867 64.7772 8.0242 -17.7964 1.9552
# 4 -6.6783 12.9827 8.0242 16.4906 -7.3299 1.0415
# 5 -13.3313 5.3291 -17.7964 -7.3299 21.4446 -0.3699
# 6 -0.6968 17.3239 1.9552 1.0415 -0.3699 26.5770
#
#
#
# Elastic Compliance Matrix: (Units=1/GPa)
#
#
# Indices 1 2 3 4 5 6 
#
# 1 0.098510 -0.135969 0.048866 0.210903 0.209089 0.082262
# 2 -0.135969 0.221435 -0.078608 -0.323964 -0.317832 -0.133849
# 3 0.048866 -0.078608 0.048069 0.112762 0.129147 0.046363
# 4 0.210903 -0.323964 0.112762 0.555552 0.498427 0.193571
# 5 0.209089 -0.317832 0.129147 0.498427 0.536437 0.191088
# 6 0.082262 -0.133849 0.046363 0.193571 0.191088 0.118694
#
#
# Mechanical properties :
#
#
# Convention : Reuss Voigt Hill
#
# Bulk Modulus (GPa) = 27.32633 33.97655 30.65144
# Shear Modulus (GPa) = 2.60103 23.80819 13.20461
#
# Velocity S-wave (km/s) = 1.09284 3.30634 2.46233
# Velocity P-wave (km/s) = 3.76028 5.49333 4.70725
#
# Compressibility (1/GPa) = 0.03659475
#
# Stress axis : x y z
#
# Youngs Moduli (GPa) = 10.15130 4.51599 20.80330
#
# Poissons Ratio (x) = 0.61403 -1.01658
# Poissons Ratio (y) = 1.38026 1.63530
# Poissons Ratio (z) = -0.49606 0.35499
#
# Static dielectric constant tensor:
#      x y z
#    x 1.847520 -0.016440 0.013200 
#    y -0.016440 1.801650 0.045070 
#    z 0.013200 0.045070 1.871820 
# 
# From -- ./inp_files/209298.got.cif
#   From: 2010.05.17/outbox.cif.g08.bks.cpg/sg2_105_cif.got.tgz:209298.got - 2010.06.03 11:33:40.
