data_PCOD9108374
_publ_section_title
;
Structure prediction by ZEFSAII (Michael W. Deem and Ramdas Pophale) SiO2 
 PCOD9108374
Probable space group: P -1
;
_chemical_formula_sum "Si O2"
_cell_formula_units_Z 15
_cell_length_a 9.041423
_cell_length_b 5.661751
_cell_length_c 14.608758
_cell_angle_alpha 102.439759
_cell_angle_beta 61.761681
_cell_angle_gamma 70.657624
_cell_volume 555.871776
_symmetry_space_group_name_H-M "P -1"
_symmetry_group_IT_number 2
_symmetry_cell_setting 'triclinic'
loop_
_space_group_symop_operation_xyz
x,y,z
-x,-y,-z
loop_
_atom_site_type_symbol
_atom_site_label
_atom_site_fract_x
_atom_site_fract_y
_atom_site_fract_z
Si Si1 0.904840 0.550158 0.655780
Si Si2 0.608382 0.416880 0.817488
Si Si3 0.665532 0.081964 0.958762
Si Si4 0.064079 0.945465 0.843206
Si Si5 0.881358 0.236690 0.478857
Si Si6 0.763077 0.941653 0.371873
Si Si7 0.000000 0.500000 0.000000
Si Si8 0.630970 0.664507 0.250353
O O1 0.753111 0.533338 0.765867
O O2 0.825706 0.508843 0.577683
O O3 0.955744 0.789936 0.642854
O O4 0.110329 0.308309 0.615537
O O5 0.652561 0.238341 0.881352
O O6 0.569831 0.268856 0.731419
O O7 0.403709 0.694323 0.921350
O O8 0.892657 0.863065 0.888014
O O9 0.500000 0.000000 0.000000
O O10 0.090582 0.066558 0.749811
O O11 0.999183 0.207449 0.951482
O O12 0.262115 0.652375 0.769775
O O13 0.718327 0.209542 0.469360
O O14 0.000000 0.000000 0.500000
O O15 0.618923 0.876398 0.351161
O O16 0.220676 0.353475 0.874321
#
# Coordination Sequence:
#
# PCOD9108374 Si02
#       8
#     2   2   2   2   2   2   1   2
#     4  10  20  40  68  90 129 159 212 265 319 374
#     4  11  25  43  57  98 130 166 210 270 316 367
#     4  11  26  38  62  88 133 171 214 257 310 373
#     4  11  22  40  61  88 122 176 212 254 306 383
#     4   9  20  38  66  99 116 163 212 262 317 388
#     4  10  21  38  64  89 123 161 217 255 308 388
#     4  10  22  38  58  80 124 168 220 252 294 374
#     4  11  24  37  62  88 130 168 214 259 319 371
#
# _framework density 26.984639000000001
#
# number of rings (size 3 to 8) (size 9 to 14) (size 15 to 20)
#    0.000    1.600    2.667    1.200    5.600    1.067 
#    0.000    0.667    0.000   11.200    0.000    0.000 
#    0.000    0.000    0.000    0.000    0.000    0.000 
#
# Total GULP energy -83580.655566 kJ/mol
# GULP energy per Si atom -5572.043704 kJ/mol
# Density = 2.692322 g / cm^3
# Si number density = 26.984639 Si / 1000 Ang^3
#
#
#
# Elastic Constant Matrix: (Units=GPa)
#
#
# Indices 1 2 3 4 5 6 
#
# 1 118.7895 38.6830 18.3306 -3.4975 15.8291 35.4175
# 2 38.6830 74.8893 28.5017 -15.9431 -1.4440 38.5691
# 3 18.3306 28.5017 72.7312 -11.6884 19.6785 18.8225
# 4 -3.4975 -15.9431 -11.6884 54.6820 25.2619 1.6203
# 5 15.8291 -1.4440 19.6785 25.2619 48.8975 8.7809
# 6 35.4175 38.5691 18.8225 1.6203 8.7809 50.2921
#
#
#
# Elastic Compliance Matrix: (Units=1/GPa)
#
#
# Indices 1 2 3 4 5 6 
#
# 1 0.011589 -0.003329 0.001444 0.002415 -0.004708 -0.005405
# 2 -0.003329 0.027471 -0.005990 0.004723 0.005003 -0.017506
# 3 0.001444 -0.005990 0.021580 0.009379 -0.013743 -0.002403
# 4 0.002415 0.004723 0.009379 0.030892 -0.019214 -0.006474
# 5 -0.004708 0.005003 -0.013743 -0.019214 0.037825 -0.001363
# 6 -0.005405 -0.017506 -0.002403 -0.006474 -0.001363 0.038462
#
#
# Mechanical properties :
#
#
# Convention : Reuss Voigt Hill
#
# Bulk Modulus (GPa) = 22.27645 48.60449 35.44047
# Shear Modulus (GPa) = 25.18486 42.83397 34.00942
#
# Velocity S-wave (km/s) = 3.05832 3.98847 3.55396
# Velocity P-wave (km/s) = 4.55458 6.26591 5.47749
#
# Compressibility (1/GPa) = 0.04489045
#
# Stress axis : x y z
#
# Youngs Moduli (GPa) = 86.28520 36.40266 46.33898
#
# Poissons Ratio (x) = 0.12119 -0.06693
# Poissons Ratio (y) = 0.28727 0.27757
# Poissons Ratio (z) = -0.12463 0.21805
#
# Static dielectric constant tensor:
#      x y z
#    x 2.065020 0.065970 0.035890 
#    y 0.065970 2.154970 -0.059800 
#    z 0.035890 -0.059800 2.042550 
# 
# From -- ./inp_files/51326.got.cif
#   From: 2010.05.17/outbox.cif.g08.bks.cpg/sg2_26_cif.got.tgz:51326.got - 2010.06.03 11:33:40.
