data_PCOD9108034
_publ_section_title
;
Structure prediction by ZEFSAII (Michael W. Deem and Ramdas Pophale) SiO2 
 PCOD9108034
Probable space group: P -1
;
_chemical_formula_sum "Si O2"
_cell_formula_units_Z 16
_cell_length_a 12.013355
_cell_length_b 18.965275
_cell_length_c 7.091072
_cell_angle_alpha 41.881457
_cell_angle_beta 52.500803
_cell_angle_gamma 40.243253
_cell_volume 693.718853
_symmetry_space_group_name_H-M "P -1"
_symmetry_group_IT_number 2
_symmetry_cell_setting 'triclinic'
loop_
_space_group_symop_operation_xyz
x,y,z
-x,-y,-z
loop_
_atom_site_type_symbol
_atom_site_label
_atom_site_fract_x
_atom_site_fract_y
_atom_site_fract_z
Si Si1 0.336283 0.989189 0.697149
Si Si2 0.657556 0.453617 0.680207
Si Si3 0.076413 0.580915 0.287720
Si Si4 0.773120 0.193704 0.293741
Si Si5 0.706296 0.475682 0.151440
Si Si6 0.532444 0.770726 0.632774
Si Si7 0.068004 0.079478 0.490082
Si Si8 0.228207 0.138924 0.875085
O O1 0.418694 0.854535 0.767062
O O2 0.500000 0.000000 0.500000
O O3 0.149017 0.081544 0.599384
O O4 0.278524 0.027732 0.894514
O O5 0.743070 0.506087 0.613708
O O6 0.714521 0.446189 0.421557
O O7 0.451470 0.528107 0.753207
O O8 0.737235 0.313705 0.970338
O O9 0.000000 0.500000 0.500000
O O10 0.944776 0.714310 0.269958
O O11 0.120886 0.609074 0.980622
O O12 0.589034 0.217403 0.433306
O O13 0.871193 0.172798 0.430235
O O14 0.891321 0.061637 0.312792
O O15 0.648829 0.622628 0.881036
O O16 0.628068 0.832942 0.336314
O O17 0.187864 0.095416 0.193698
#
# Coordination Sequence:
#
# PCOD9108034 Si02
#       8
#     2   2   2   2   2   2   2   2
#     4   9  21  39  63  94 129 167 212 264 317 389
#     4  10  22  44  67  95 129 175 226 271 321 391
#     4  12  24  42  64 100 134 173 217 277 334 388
#     4   9  19  39  66  94 129 162 220 272 317 389
#     4  10  22  43  70  92 131 177 220 271 329 387
#     4   9  19  41  64  95 130 170 221 267 323 393
#     4  10  20  40  66  95 129 169 214 268 337 376
#     4  11  22  41  65  96 135 169 213 271 330 398
#
# _framework density 23.064098999999999
#
# number of rings (size 3 to 8) (size 9 to 14) (size 15 to 20)
#    0.000    2.000    2.500    0.375    0.000    6.000 
#    4.500   14.375    0.000    0.000    0.000    0.000 
#    0.000    0.000    0.000    0.000    0.000    0.000 
#
# Total GULP energy -89213.465402 kJ/mol
# GULP energy per Si atom -5575.841588 kJ/mol
# Density = 2.301160 g / cm^3
# Si number density = 23.064099 Si / 1000 Ang^3
#
#
#
# Elastic Constant Matrix: (Units=GPa)
#
#
# Indices 1 2 3 4 5 6 
#
# 1 151.5508 16.2021 51.7317 -0.1047 -11.8607 4.7215
# 2 16.2021 88.3613 15.5813 -0.2020 -5.9325 -3.2714
# 3 51.7317 15.5813 51.1606 9.5773 -4.7611 -5.5890
# 4 -0.1047 -0.2020 9.5773 34.5704 -6.7195 -1.6366
# 5 -11.8607 -5.9325 -4.7611 -6.7195 32.5880 -1.8458
# 6 4.7215 -3.2714 -5.5890 -1.6366 -1.8458 24.4282
#
#
#
# Elastic Compliance Matrix: (Units=1/GPa)
#
#
# Indices 1 2 3 4 5 6 
#
# 1 0.011111 0.000147 -0.012208 0.003751 0.002808 -0.004457
# 2 0.000147 0.012148 -0.003845 0.001589 0.002087 0.000983
# 3 -0.012208 -0.003845 0.035778 -0.009807 -0.001413 0.009267
# 4 0.003751 0.001589 -0.009807 0.033030 0.007032 -0.000012
# 5 0.002808 0.002087 -0.001413 0.007032 0.033468 0.002413
# 6 -0.004457 0.000983 0.009267 -0.000012 0.002413 0.044231
#
#
# Mechanical properties :
#
#
# Convention : Reuss Voigt Hill
#
# Bulk Modulus (GPa) = 36.72815 50.90032 43.81423
# Shear Modulus (GPa) = 23.73567 32.15448 27.94507
#
# Velocity S-wave (km/s) = 3.21147 3.73786 3.48462
# Velocity P-wave (km/s) = 5.45072 6.38324 5.93532
#
# Compressibility (1/GPa) = 0.02722707
#
# Stress axis : x y z
#
# Youngs Moduli (GPa) = 90.00026 82.31653 27.94998
#
# Poissons Ratio (x) = -0.01214 0.34121
# Poissons Ratio (y) = -0.01327 0.10746
# Poissons Ratio (z) = 1.09871 0.31649
#
# Static dielectric constant tensor:
#      x y z
#    x 1.926500 -0.033010 -0.012660 
#    y -0.033010 1.938450 -0.020150 
#    z -0.012660 -0.020150 1.867180 
# 
# From -- ./inp_files/81096.got.cif
#   From: 2010.05.17/outbox.cif.g08.bks.cpg/sg2_41_cif.got.tgz:81096.got - 2010.06.03 11:33:40.
