data_PCOD9108114
_publ_section_title
;
Structure prediction by ZEFSAII (Michael W. Deem and Ramdas Pophale) SiO2 
 PCOD9108114
Probable space group: P -1
;
_chemical_formula_sum "Si O2"
_cell_formula_units_Z 16
_cell_length_a 13.054827
_cell_length_b 11.493828
_cell_length_c 9.540939
_cell_angle_alpha 71.219540
_cell_angle_beta 121.047946
_cell_angle_gamma 144.608924
_cell_volume 696.202717
_symmetry_space_group_name_H-M "P -1"
_symmetry_group_IT_number 2
_symmetry_cell_setting 'triclinic'
loop_
_space_group_symop_operation_xyz
x,y,z
-x,-y,-z
loop_
_atom_site_type_symbol
_atom_site_label
_atom_site_fract_x
_atom_site_fract_y
_atom_site_fract_z
Si Si1 0.107132 0.511351 0.444380
Si Si2 0.600502 0.577540 0.693940
Si Si3 0.553626 0.095776 0.151712
Si Si4 0.791018 0.063898 0.327801
Si Si5 0.890188 0.032178 0.691829
Si Si6 0.330154 0.482383 0.767760
Si Si7 0.311854 0.902396 0.320567
Si Si8 0.539457 0.320528 0.942071
O O1 0.274379 0.567401 0.620835
O O2 0.167401 0.666761 0.319875
O O3 0.000000 0.500000 0.500000
O O4 0.988695 0.307745 0.354348
O O5 0.500000 0.500000 0.500000
O O6 0.361464 0.526600 0.176164
O O7 0.831697 0.998004 0.500137
O O8 0.794550 0.824047 0.748507
O O9 0.432858 0.489827 0.715876
O O10 0.380642 0.987531 0.178542
O O11 0.666803 0.310865 0.097374
O O12 0.500000 0.000000 0.000000
O O13 0.659823 0.065370 0.304332
O O14 0.670242 0.903920 0.178090
O O15 0.782341 0.054269 0.691583
O O16 0.125871 0.253728 0.771124
O O17 0.476232 0.616129 0.951224
O O18 0.500000 0.000000 0.500000
#
# Coordination Sequence:
#
# PCOD9108114 Si02
#       8
#     2   2   2   2   2   2   2   2
#     4  11  20  38  68 106 137 174 229 285 341 416
#     4  12  26  46  74  96 134 188 241 280 350 413
#     4  10  22  37  64  95 136 177 215 276 346 401
#     4  10  20  40  66  99 140 169 221 286 340 413
#     4  11  23  42  70 108 128 175 245 278 334 428
#     4  11  25  42  72 100 141 178 229 294 347 399
#     4  12  20  36  71  97 137 182 227 272 345 420
#     4  11  23  44  67  95 138 184 219 286 352 398
#
# _framework density 22.981812000000001
#
# number of rings (size 3 to 8) (size 9 to 14) (size 15 to 20)
#    0.000    1.000    5.000    3.375    0.000    1.000 
#    0.000    2.500   11.000    0.000    0.000    0.000 
#    0.000    0.000    0.000    0.000    0.000    0.000 
#
# Total GULP energy -89200.872822 kJ/mol
# GULP energy per Si atom -5575.054551 kJ/mol
# Density = 2.292950 g / cm^3
# Si number density = 22.981812 Si / 1000 Ang^3
#
#
#
# Elastic Constant Matrix: (Units=GPa)
#
#
# Indices 1 2 3 4 5 6 
#
# 1 49.5051 21.8272 26.8613 0.2540 -11.8934 3.9210
# 2 21.8272 161.0251 63.6416 -16.5433 -5.0985 -21.4935
# 3 26.8613 63.6416 132.6897 8.9542 -28.0066 -1.1076
# 4 0.2540 -16.5433 8.9542 41.4170 -6.4887 0.0642
# 5 -11.8934 -5.0985 -28.0066 -6.4887 25.4173 -5.2557
# 6 3.9210 -21.4935 -1.1076 0.0642 -5.2557 31.2951
#
#
#
# Elastic Compliance Matrix: (Units=1/GPa)
#
#
# Indices 1 2 3 4 5 6 
#
# 1 0.024761 -0.002732 -0.002046 0.000481 0.008144 -0.003684
# 2 -0.002732 0.009770 -0.004839 0.004623 -0.002123 0.006515
# 3 -0.002046 -0.004839 0.012858 -0.002921 0.011350 -0.000700
# 4 0.000481 0.004623 -0.002921 0.027518 0.005770 0.003924
# 5 0.008144 -0.002123 0.011350 0.005770 0.058300 0.007702
# 6 -0.003684 0.006515 -0.000700 0.003924 0.007702 0.038151
#
#
# Mechanical properties :
#
#
# Convention : Reuss Voigt Hill
#
# Bulk Modulus (GPa) = 35.51746 63.09779 49.30763
# Shear Modulus (GPa) = 25.00285 35.01852 30.01069
#
# Velocity S-wave (km/s) = 3.30197 3.90776 3.61757
# Velocity P-wave (km/s) = 5.47955 6.91924 6.24105
#
# Compressibility (1/GPa) = 0.02815517
#
# Stress axis : x y z
#
# Youngs Moduli (GPa) = 40.38635 102.35089 77.77136
#
# Poissons Ratio (x) = 0.27964 0.15914
# Poissons Ratio (y) = 0.11034 0.37631
# Poissons Ratio (z) = 0.08264 0.49524
#
# Static dielectric constant tensor:
#      x y z
#    x 2.008520 -0.053270 0.064610 
#    y -0.053270 1.984490 0.038300 
#    z 0.064610 0.038300 1.897100 
# 
# From -- ./inp_files/334275.got.cif
#   From: 2010.05.17/outbox.cif.g08.bks.cpg/sg2_168_cif.got.tgz:334275.got - 2010.06.03 11:33:40.
