data_PCOD9108999
_publ_section_title
;
Structure prediction by ZEFSAII (Michael W. Deem and Ramdas Pophale) SiO2 
 PCOD9108999
Probable space group: P -1
;
_chemical_formula_sum "Si O2"
_cell_formula_units_Z 16
_cell_length_a 18.858886
_cell_length_b 19.819012
_cell_length_c 6.169793
_cell_angle_alpha 75.336826
_cell_angle_beta 65.763552
_cell_angle_gamma 20.737118
_cell_volume 680.752541
_symmetry_space_group_name_H-M "P -1"
_symmetry_group_IT_number 2
_symmetry_cell_setting 'triclinic'
loop_
_space_group_symop_operation_xyz
x,y,z
-x,-y,-z
loop_
_atom_site_type_symbol
_atom_site_label
_atom_site_fract_x
_atom_site_fract_y
_atom_site_fract_z
Si Si1 0.773206 0.551952 0.402475
Si Si2 0.755646 0.204320 0.518800
Si Si3 0.142346 0.415964 0.083825
Si Si4 0.861138 0.967171 0.460013
Si Si5 0.060414 0.716523 0.793646
Si Si6 0.670166 0.006891 0.352668
Si Si7 0.281490 0.640119 0.898282
Si Si8 0.794539 0.764927 0.603008
O O1 0.778253 0.466356 0.414675
O O2 0.018994 0.358992 0.364625
O O3 0.568688 0.759519 0.630891
O O4 0.741439 0.617796 0.157240
O O5 0.554373 0.397420 0.781140
O O6 0.753275 0.260077 0.276524
O O7 0.717151 0.159280 0.512182
O O8 0.000000 0.000000 0.500000
O O9 0.950964 0.604187 0.340303
O O10 0.297768 0.226074 0.165145
O O11 0.000000 0.500000 0.000000
O O12 0.756635 0.995038 0.416407
O O13 0.905118 0.897841 0.694882
O O14 0.109545 0.780018 0.200955
O O15 0.202254 0.643917 0.838163
O O16 0.878001 0.823264 0.069132
O O17 0.636670 0.960404 0.548760
#
# Coordination Sequence:
#
# PCOD9108999 Si02
#       8
#     2   2   2   2   2   2   2   2
#     4  11  22  39  63  90 121 165 202 253 309 354
#     4  11  22  43  65  92 123 160 205 251 301 362
#     4   9  20  39  65  87 126 160 198 260 301 354
#     4  11  23  42  63  90 125 164 199 253 305 357
#     4  11  22  42  60  91 127 158 206 255 297 363
#     4  11  24  39  64  91 122 162 207 249 304 367
#     4  10  24  42  63  90 125 160 202 253 303 358
#     4  10  20  41  61  90 124 158 206 254 301 363
#
# _framework density 23.503402000000001
#
# number of rings (size 3 to 8) (size 9 to 14) (size 15 to 20)
#    0.000    1.500    3.750    1.125    0.000    3.000 
#    2.250    5.625    0.000    0.000    0.000    0.000 
#    0.000    0.000    0.000    0.000    0.000    0.000 
#
# Total GULP energy -89457.285135 kJ/mol
# GULP energy per Si atom -5591.080321 kJ/mol
# Density = 2.344991 g / cm^3
# Si number density = 23.503402 Si / 1000 Ang^3
#
#
#
# Elastic Constant Matrix: (Units=GPa)
#
#
# Indices 1 2 3 4 5 6 
#
# 1 55.7360 8.0807 6.4623 -0.6390 8.5085 22.6266
# 2 8.0807 80.4403 16.2262 17.1796 -6.5379 22.3732
# 3 6.4623 16.2262 61.4559 -5.5002 -4.5895 12.6563
# 4 -0.6390 17.1796 -5.5002 20.4231 5.8356 0.8298
# 5 8.5085 -6.5379 -4.5895 5.8356 33.0076 -0.8569
# 6 22.6266 22.3732 12.6563 0.8298 -0.8569 43.2803
#
#
#
# Elastic Compliance Matrix: (Units=1/GPa)
#
#
# Indices 1 2 3 4 5 6 
#
# 1 0.024328 -0.000206 -0.000098 0.003507 -0.007278 -0.012795
# 2 -0.000206 0.020796 -0.005006 -0.020459 0.006869 -0.008650
# 3 -0.000098 -0.005006 0.019093 0.009497 -0.000072 -0.003128
# 4 0.003507 -0.020459 0.009497 0.073384 -0.016500 0.004231
# 5 -0.007278 0.006869 -0.000072 -0.016500 0.036474 0.001314
# 6 -0.012795 -0.008650 -0.003128 0.004231 0.001314 0.035125
#
#
# Mechanical properties :
#
#
# Convention : Reuss Voigt Hill
#
# Bulk Modulus (GPa) = 18.65801 28.79674 23.72737
# Shear Modulus (GPa) = 21.03623 30.46638 25.75131
#
# Velocity S-wave (km/s) = 2.99495 3.60426 3.31364
# Velocity P-wave (km/s) = 4.46266 5.44056 4.97569
#
# Compressibility (1/GPa) = 0.05359627
#
# Stress axis : x y z
#
# Youngs Moduli (GPa) = 41.10421 48.08726 52.37652
#
# Poissons Ratio (x) = 0.00990 0.00516
# Poissons Ratio (y) = 0.00847 0.26218
# Poissons Ratio (z) = 0.00405 0.24071
#
# Static dielectric constant tensor:
#      x y z
#    x 1.900610 -0.004780 -0.039360 
#    y -0.004780 1.892410 0.028120 
#    z -0.039360 0.028120 1.895750 
# 
# From -- ./inp_files/11441.got.cif
#   From: 2010.05.17/outbox.cif.g08.bks.cpg/sg2_6_cif.got.tgz:11441.got - 2010.06.03 11:33:40.
