data_PCOD9108712
_publ_section_title
;
Structure prediction by ZEFSAII (Michael W. Deem and Ramdas Pophale) SiO2 
 PCOD9108712
Probable space group: P -1
;
_chemical_formula_sum "Si O2"
_cell_formula_units_Z 16
_cell_length_a 11.194700
_cell_length_b 9.587349
_cell_length_c 7.394063
_cell_angle_alpha 82.049535
_cell_angle_beta 90.580109
_cell_angle_gamma 57.611076
_cell_volume 660.314406
_symmetry_space_group_name_H-M "P -1"
_symmetry_group_IT_number 2
_symmetry_cell_setting 'triclinic'
loop_
_space_group_symop_operation_xyz
x,y,z
-x,-y,-z
loop_
_atom_site_type_symbol
_atom_site_label
_atom_site_fract_x
_atom_site_fract_y
_atom_site_fract_z
Si Si1 0.249001 0.361337 0.289296
Si Si2 0.375001 0.685922 0.514893
Si Si3 0.905138 0.736695 0.963649
Si Si4 0.829089 0.748579 0.368308
Si Si5 0.671416 0.128902 0.891152
Si Si6 0.555026 0.119792 0.240054
Si Si7 0.831421 0.294712 0.916699
Si Si8 0.059064 0.820719 0.446024
O O1 0.199431 0.370858 0.491871
O O2 0.397970 0.186092 0.294329
O O3 0.257213 0.518050 0.200751
O O4 0.138286 0.356455 0.156580
O O5 0.500000 0.500000 0.500000
O O6 0.367367 0.794615 0.321695
O O7 0.406141 0.762853 0.672849
O O8 0.223097 0.705623 0.530182
O O9 0.888538 0.692067 0.177819
O O10 0.058880 0.708482 0.941384
O O11 0.791603 0.934709 0.911090
O O12 0.943898 0.770953 0.474144
O O13 0.681025 0.929200 0.315358
O O14 0.735203 0.225357 0.977181
O O15 0.550932 0.147370 0.018925
O O16 0.927257 0.175008 0.773080
O O17 0.000000 0.000000 0.500000
#
# Coordination Sequence:
#
# PCOD9108712 Si02
#       8
#     2   2   2   2   2   2   2   2
#     4  12  25  41  64  97 143 179 214 279 342 399
#     4  11  23  40  66 101 138 167 214 282 345 383
#     4  10  23  42  68  93 128 176 226 270 334 399
#     4  10  23  42  67  96 130 178 231 272 323 407
#     4  10  23  43  69  94 128 172 228 280 319 400
#     4  11  23  41  65  96 132 180 229 268 331 401
#     4  10  23  42  65 100 134 166 226 283 339 386
#     4  10  20  40  70  97 130 170 227 271 322 399
#
# _framework density 24.230879000000002
#
# number of rings (size 3 to 8) (size 9 to 14) (size 15 to 20)
#    0.000    1.500    1.250    3.375    1.750    9.000 
#    0.000    3.750    0.000    0.000    0.000    0.000 
#    0.000    0.000    0.000    0.000    0.000    0.000 
#
# Total GULP energy -89584.135356 kJ/mol
# GULP energy per Si atom -5599.008460 kJ/mol
# Density = 2.417573 g / cm^3
# Si number density = 24.230879 Si / 1000 Ang^3
#
#
#
# Elastic Constant Matrix: (Units=GPa)
#
#
# Indices 1 2 3 4 5 6 
#
# 1 73.1773 28.1979 12.7851 -1.8952 -0.0276 -15.1259
# 2 28.1979 121.8702 32.3433 -13.7178 5.7206 -9.3719
# 3 12.7851 32.3433 79.3154 -0.3504 -13.7939 -5.3332
# 4 -1.8952 -13.7178 -0.3504 15.4114 5.7239 3.0548
# 5 -0.0276 5.7206 -13.7939 5.7239 33.9664 -0.7081
# 6 -15.1259 -9.3719 -5.3332 3.0548 -0.7081 33.6528
#
#
#
# Elastic Compliance Matrix: (Units=1/GPa)
#
#
# Indices 1 2 3 4 5 6 
#
# 1 0.016403 -0.003474 -0.000634 -0.002742 0.000940 0.006573
# 2 -0.003474 0.012178 -0.005492 0.012745 -0.006439 -0.000333
# 3 -0.000634 -0.005492 0.016616 -0.008323 0.009112 0.001766
# 4 -0.002742 0.012745 -0.008323 0.084509 -0.019918 -0.007092
# 5 0.000940 -0.006439 0.009112 -0.019918 0.037639 0.002673
# 6 0.006573 -0.000333 0.001766 -0.007092 0.002673 0.033557
#
#
# Mechanical properties :
#
#
# Convention : Reuss Voigt Hill
#
# Bulk Modulus (GPa) = 38.46573 46.77952 42.62262
# Shear Modulus (GPa) = 21.85628 30.00854 25.93241
#
# Velocity S-wave (km/s) = 3.00659 3.52297 3.27497
# Velocity P-wave (km/s) = 5.28790 5.99133 5.65057
#
# Compressibility (1/GPa) = 0.02599717
#
# Stress axis : x y z
#
# Youngs Moduli (GPa) = 60.96427 82.11514 60.18245
#
# Poissons Ratio (x) = 0.28529 0.03815
# Poissons Ratio (y) = 0.21181 0.33051
# Poissons Ratio (z) = 0.03865 0.45096
#
# Static dielectric constant tensor:
#      x y z
#    x 1.956060 -0.004600 0.018310 
#    y -0.004600 1.909130 -0.021480 
#    z 0.018310 -0.021480 1.919690 
# 
# From -- ./inp_files/238451.got.cif
#   From: 2010.05.17/outbox.cif.g08.bks.cpg/sg2_120_cif.got.tgz:238451.got - 2010.06.03 11:33:40.
