data_PCOD9108948
_publ_section_title
;
Structure prediction by ZEFSAII (Michael W. Deem and Ramdas Pophale) SiO2 
 PCOD9108948
Probable space group: P -1
;
_chemical_formula_sum "Si O2"
_cell_formula_units_Z 12
_cell_length_a 11.624959
_cell_length_b 13.836301
_cell_length_c 9.928601
_cell_angle_alpha 89.841811
_cell_angle_beta 114.867443
_cell_angle_gamma 34.628964
_cell_volume 606.355282
_symmetry_space_group_name_H-M "P -1"
_symmetry_group_IT_number 2
_symmetry_cell_setting 'triclinic'
loop_
_space_group_symop_operation_xyz
x,y,z
-x,-y,-z
loop_
_atom_site_type_symbol
_atom_site_label
_atom_site_fract_x
_atom_site_fract_y
_atom_site_fract_z
Si Si1 0.505390 0.212735 0.582985
Si Si2 0.257776 0.559632 0.633447
Si Si3 0.349775 0.267973 0.199679
Si Si4 0.885717 0.998938 0.339274
Si Si5 0.330256 0.132220 0.558905
Si Si6 0.124335 0.864215 0.927558
O O1 0.386995 0.394154 0.588147
O O2 0.406059 0.266748 0.379667
O O3 0.368226 0.219243 0.601419
O O4 0.872506 0.958287 0.767324
O O5 0.095423 0.760507 0.475492
O O6 0.009080 0.673714 0.599209
O O7 0.534462 0.402628 0.865668
O O8 0.542691 0.204479 0.200745
O O9 0.489648 0.063978 0.253817
O O10 0.000000 0.500000 0.000000
O O11 0.893196 0.043259 0.197799
O O12 0.000000 0.000000 0.500000
O O13 0.500000 0.000000 0.500000
O O14 0.000000 0.000000 0.000000
#
# Coordination Sequence:
#
# PCOD9108948 Si02
#       6
#     2   2   2   2   2   2
#     4  10  20  41  60  90 124 161 209 251 310 375
#     4  10  23  41  65  89 127 166 204 259 317 362
#     4  10  22  40  60  91 123 163 205 260 309 361
#     4  11  23  43  63  93 128 161 214 257 303 379
#     4   9  20  38  60  86 120 157 209 253 299 369
#     4  10  23  41  64  95 126 162 208 254 317 369
#
# _framework density 19.790379999999999
#
# number of rings (size 3 to 8) (size 9 to 14) (size 15 to 20)
#    0.000    2.000    1.667    0.500    4.667    4.667 
#    6.000    1.667    0.000    0.000    0.000    0.000 
#    0.000    0.000    0.000    0.000    0.000    0.000 
#
# Total GULP energy -66922.828948 kJ/mol
# GULP energy per Si atom -5576.902412 kJ/mol
# Density = 1.974534 g / cm^3
# Si number density = 19.790380 Si / 1000 Ang^3
#
#
#
# Elastic Constant Matrix: (Units=GPa)
#
#
# Indices 1 2 3 4 5 6 
#
# 1 86.1300 21.3048 31.9850 3.1522 0.6759 -18.3861
# 2 21.3048 60.3444 30.5018 -3.0574 1.8633 -2.7155
# 3 31.9850 30.5018 132.1441 -10.9239 21.5012 -20.3335
# 4 3.1522 -3.0574 -10.9239 35.4802 -14.6619 4.9165
# 5 0.6759 1.8633 21.5012 -14.6619 34.5838 -0.4412
# 6 -18.3861 -2.7155 -20.3335 4.9165 -0.4412 43.0833
#
#
#
# Elastic Compliance Matrix: (Units=1/GPa)
#
#
# Indices 1 2 3 4 5 6 
#
# 1 0.014622 -0.004050 -0.002024 -0.003026 -0.000024 0.005375
# 2 -0.004050 0.020091 -0.004313 0.002206 0.002579 -0.002723
# 3 -0.002024 -0.004313 0.010671 -0.000058 -0.006338 0.003842
# 4 -0.003026 0.002206 -0.000058 0.035515 0.014968 -0.005079
# 5 -0.000024 0.002579 -0.006338 0.014968 0.039010 -0.004147
# 6 0.005375 -0.002723 0.003842 -0.005079 -0.004147 0.027683
#
#
# Mechanical properties :
#
#
# Convention : Reuss Voigt Hill
#
# Bulk Modulus (GPa) = 40.63487 49.57796 45.10642
# Shear Modulus (GPa) = 28.31741 35.61793 31.96767
#
# Velocity S-wave (km/s) = 3.78678 4.24696 4.02346
# Velocity P-wave (km/s) = 6.30054 7.01105 6.66527
#
# Compressibility (1/GPa) = 0.02460941
#
# Stress axis : x y z
#
# Youngs Moduli (GPa) = 68.39053 49.77263 93.71553
#
# Poissons Ratio (x) = 0.20159 0.18964
# Poissons Ratio (y) = 0.27699 0.40424
# Poissons Ratio (z) = 0.13839 0.21469
#
# Static dielectric constant tensor:
#      x y z
#    x 1.721180 -0.002380 0.017340 
#    y -0.002380 1.724580 -0.020460 
#    z 0.017340 -0.020460 1.701330 
# 
# From -- ./inp_files/183389.got.cif
#   From: 2010.05.17/outbox.cif.g08.bks.cpg/sg2_92_cif.got.tgz:183389.got - 2010.06.03 11:33:40.
