data_PCOD9108251
_publ_section_title
;
Structure prediction by ZEFSAII (Michael W. Deem and Ramdas Pophale) SiO2 
 PCOD9108251
Probable space group: P -1
;
_chemical_formula_sum "Si O2"
_cell_formula_units_Z 14
_cell_length_a 23.261926
_cell_length_b 20.212332
_cell_length_c 11.655450
_cell_angle_alpha 17.585890
_cell_angle_beta 154.016273
_cell_angle_gamma 160.399956
_cell_volume 555.400757
_symmetry_space_group_name_H-M "P -1"
_symmetry_group_IT_number 2
_symmetry_cell_setting 'triclinic'
loop_
_space_group_symop_operation_xyz
x,y,z
-x,-y,-z
loop_
_atom_site_type_symbol
_atom_site_label
_atom_site_fract_x
_atom_site_fract_y
_atom_site_fract_z
Si Si1 0.429886 0.137710 0.716269
Si Si2 0.728221 0.308366 0.240346
Si Si3 0.652107 0.047345 0.866505
Si Si4 0.883194 0.643321 0.386453
Si Si5 0.240321 0.325710 0.668793
Si Si6 0.231963 0.934233 0.482348
Si Si7 0.909075 0.123684 0.028214
O O1 0.589366 0.467946 0.439573
O O2 0.284094 0.054466 0.503922
O O3 0.500000 0.000000 0.000000
O O4 0.364286 0.049256 0.872244
O O5 0.682473 0.173184 0.253861
O O6 0.821519 0.214682 0.635213
O O7 0.889722 0.641464 0.972053
O O8 0.539280 0.169892 0.173249
O O9 0.725936 0.379814 0.462493
O O10 0.785292 0.034708 0.060282
O O11 0.826396 0.556478 0.560583
O O12 0.034989 0.653201 0.598090
O O13 0.000000 0.000000 0.000000
O O14 0.275571 0.183806 0.065621
O O15 0.104281 0.103147 0.700693
#
# Coordination Sequence:
#
# PCOD9108251 Si02
#       7
#     2   2   2   2   2   2   2
#     4  12  23  39  65  94 132 168 213 267 330 377
#     4  10  20  40  68  92 127 171 214 263 319 383
#     4  12  23  41  65  97 131 168 216 263 326 388
#     4  10  21  38  66  96 129 162 218 270 315 375
#     4  10  22  43  63  95 130 166 219 270 312 387
#     4  10  20  40  67  95 125 169 219 267 315 378
#     4  10  23  41  64  92 131 170 215 261 321 386
#
# _framework density 25.207024000000001
#
# number of rings (size 3 to 8) (size 9 to 14) (size 15 to 20)
#    0.000    1.429    4.286    0.857    2.000    4.571 
#    5.143    0.714    0.000    0.000    0.000    0.000 
#    0.000    0.000    0.000    0.000    0.000    0.000 
#
# Total GULP energy -77971.085722 kJ/mol
# GULP energy per Si atom -5569.363266 kJ/mol
# Density = 2.514965 g / cm^3
# Si number density = 25.207024 Si / 1000 Ang^3
#
#
#
# Elastic Constant Matrix: (Units=GPa)
#
#
# Indices 1 2 3 4 5 6 
#
# 1 125.1441 6.4173 30.9183 -6.0164 -22.6721 1.5135
# 2 6.4173 193.9944 -5.0923 -7.4223 7.1706 -6.3641
# 3 30.9183 -5.0923 52.3780 -2.1305 -23.9971 2.5955
# 4 -6.0164 -7.4223 -2.1305 20.7012 2.1494 -9.5985
# 5 -22.6721 7.1706 -23.9971 2.1494 36.1511 1.9904
# 6 1.5135 -6.3641 2.5955 -9.5985 1.9904 38.8203
#
#
#
# Elastic Compliance Matrix: (Units=1/GPa)
#
#
# Indices 1 2 3 4 5 6 
#
# 1 0.009745 -0.000475 -0.004224 0.001951 0.003278 0.000139
# 2 -0.000475 0.005389 0.000132 0.002730 -0.001532 0.001647
# 3 -0.004224 0.000132 0.029573 -0.001312 0.017198 -0.002997
# 4 0.001951 0.002730 -0.001312 0.057029 -0.004394 0.014785
# 5 0.003278 -0.001532 0.017198 -0.004394 0.041961 -0.004767
# 6 0.000139 0.001647 -0.002997 0.014785 -0.004767 0.030125
#
#
# Mechanical properties :
#
#
# Convention : Reuss Voigt Hill
#
# Bulk Modulus (GPa) = 28.11232 48.44479 38.27856
# Shear Modulus (GPa) = 25.66551 41.75274 33.70912
#
# Velocity S-wave (km/s) = 3.19437 4.07430 3.66087
# Velocity P-wave (km/s) = 4.97816 6.43379 5.75221
#
# Compressibility (1/GPa) = 0.03557160
#
# Stress axis : x y z
#
# Youngs Moduli (GPa) = 102.61916 185.55954 33.81482
#
# Poissons Ratio (x) = 0.08818 0.14284
# Poissons Ratio (y) = 0.04876 -0.00446
# Poissons Ratio (z) = 0.43348 -0.02446
#
# Static dielectric constant tensor:
#      x y z
#    x 2.003450 0.051740 0.096200 
#    y 0.051740 2.126260 0.047810 
#    z 0.096200 0.047810 2.323000 
# 
# From -- ./inp_files/182435.got.cif
#   From: 2010.05.17/outbox.cif.g08.bks.cpg/sg2_92_cif.got.tgz:182435.got - 2010.06.03 11:33:40.
