data_PCOD9108671
_publ_section_title
;
Structure prediction by ZEFSAII (Michael W. Deem and Ramdas Pophale) SiO2 
 PCOD9108671
Probable space group: P -1
;
_chemical_formula_sum "Si O2"
_cell_formula_units_Z 13
_cell_length_a 8.834537
_cell_length_b 14.237030
_cell_length_c 7.574664
_cell_angle_alpha 42.589989
_cell_angle_beta 126.442289
_cell_angle_gamma 106.031130
_cell_volume 495.427411
_symmetry_space_group_name_H-M "P -1"
_symmetry_group_IT_number 2
_symmetry_cell_setting 'triclinic'
loop_
_space_group_symop_operation_xyz
x,y,z
-x,-y,-z
loop_
_atom_site_type_symbol
_atom_site_label
_atom_site_fract_x
_atom_site_fract_y
_atom_site_fract_z
Si Si1 0.836020 0.822159 0.188732
Si Si2 0.791097 0.211922 0.980289
Si Si3 0.564848 0.104450 0.532227
Si Si4 0.763179 0.578829 0.256489
Si Si5 0.500000 0.500000 0.500000
Si Si6 0.734897 0.333525 0.373110
Si Si7 0.229330 0.118082 0.554721
O O1 0.767703 0.739160 0.095666
O O2 0.742758 0.820803 0.318089
O O3 0.062124 0.733690 0.493542
O O4 0.782449 0.993813 0.877426
O O5 0.625679 0.326646 0.819786
O O6 0.763351 0.263254 0.686051
O O7 0.013780 0.201049 0.211687
O O8 0.768871 0.050212 0.204082
O O9 0.586165 0.259536 0.280380
O O10 0.411194 0.129467 0.549867
O O11 0.500000 0.000000 0.500000
O O12 0.663186 0.528376 0.428185
O O13 0.692668 0.505078 0.135773
O O14 0.000000 0.500000 0.500000
#
# Coordination Sequence:
#
# PCOD9108671 Si02
#       7
#     2   2   2   2   1   2   2
#     4  11  22  41  68  92 133 172 217 273 331 387
#     4  10  22  41  67  94 131 174 218 269 329 400
#     4  12  25  38  63  97 130 172 219 271 332 393
#     4   9  21  39  66  92 126 172 219 263 328 393
#     4  10  20  40  70  84 132 178 216 258 336 384
#     4  10  22  42  64  91 131 177 212 271 329 394
#     4  11  24  38  66 102 132 161 227 275 326 386
#
# _framework density 26.239971000000001
#
# number of rings (size 3 to 8) (size 9 to 14) (size 15 to 20)
#    0.000    1.538    1.538    2.769    8.615    0.000 
#    0.000    3.846   16.923    0.000    0.000    0.000 
#    0.000    0.000    0.000    0.000    0.000    0.000 
#
# Total GULP energy -72407.991546 kJ/mol
# GULP energy per Si atom -5569.845504 kJ/mol
# Density = 2.618025 g / cm^3
# Si number density = 26.239971 Si / 1000 Ang^3
#
#
#
# Elastic Constant Matrix: (Units=GPa)
#
#
# Indices 1 2 3 4 5 6 
#
# 1 162.0637 38.4334 29.4924 -23.1768 31.8623 -22.1443
# 2 38.4334 160.9829 55.8508 -34.1468 35.0043 -8.1907
# 3 29.4924 55.8508 93.6041 -33.6309 16.4261 -22.3041
# 4 -23.1768 -34.1468 -33.6309 56.5015 -10.4325 13.9735
# 5 31.8623 35.0043 16.4261 -10.4325 47.0112 -5.4425
# 6 -22.1443 -8.1907 -22.3041 13.9735 -5.4425 44.4505
#
#
#
# Elastic Compliance Matrix: (Units=1/GPa)
#
#
# Indices 1 2 3 4 5 6 
#
# 1 0.007704 -0.000393 -0.000362 0.001270 -0.004212 0.002669
# 2 -0.000393 0.009212 -0.004062 0.002577 -0.004826 -0.001937
# 3 -0.000362 -0.004062 0.016773 0.005888 -0.000641 0.005558
# 4 0.001270 0.002577 0.005888 0.024175 0.000121 -0.003523
# 5 -0.004212 -0.004826 -0.000641 0.000121 0.027980 0.000079
# 6 0.002669 -0.001937 0.005558 -0.003523 0.000079 0.027376
#
#
# Mechanical properties :
#
#
# Convention : Reuss Voigt Hill
#
# Bulk Modulus (GPa) = 41.56878 73.80043 57.68460
# Shear Modulus (GPa) = 38.20570 49.11760 43.66165
#
# Velocity S-wave (km/s) = 3.81991 4.33120 4.08356
# Velocity P-wave (km/s) = 5.94406 7.29374 6.65321
#
# Compressibility (1/GPa) = 0.02405652
#
# Stress axis : x y z
#
# Youngs Moduli (GPa) = 129.80799 108.55128 59.61929
#
# Poissons Ratio (x) = 0.04264 0.02156
# Poissons Ratio (y) = 0.05100 0.24216
# Poissons Ratio (z) = 0.04694 0.44092
#
# Static dielectric constant tensor:
#      x y z
#    x 2.002340 0.074570 0.040040 
#    y 0.074570 2.181550 0.149920 
#    z 0.040040 0.149920 1.984620 
# 
# From -- ./inp_files/199136.got.cif
#   From: 2010.05.17/outbox.cif.g08.bks.cpg/sg2_100_cif.got.tgz:199136.got - 2010.06.03 11:33:40.
