data_PCOD9108541
_publ_section_title
;
Structure prediction by ZEFSAII (Michael W. Deem and Ramdas Pophale) SiO2 
 PCOD9108541
Probable space group: P -1
;
_chemical_formula_sum "Si O2"
_cell_formula_units_Z 16
_cell_length_a 8.956752
_cell_length_b 10.157023
_cell_length_c 7.821245
_cell_angle_alpha 66.808274
_cell_angle_beta 85.121007
_cell_angle_gamma 72.801345
_cell_volume 624.388074
_symmetry_space_group_name_H-M "P -1"
_symmetry_group_IT_number 2
_symmetry_cell_setting 'triclinic'
loop_
_space_group_symop_operation_xyz
x,y,z
-x,-y,-z
loop_
_atom_site_type_symbol
_atom_site_label
_atom_site_fract_x
_atom_site_fract_y
_atom_site_fract_z
Si Si1 0.263057 0.986477 0.543924
Si Si2 0.050290 0.614573 0.139328
Si Si3 0.656868 0.006742 0.079167
Si Si4 0.815168 0.190450 0.744486
Si Si5 0.612396 0.597064 0.878281
Si Si6 0.988906 0.864631 0.732739
Si Si7 0.723552 0.689954 0.165364
Si Si8 0.526272 0.258740 0.536424
O O1 0.334422 0.995608 0.716443
O O2 0.153263 0.876065 0.637578
O O3 0.392148 0.917170 0.423731
O O4 0.140442 0.132752 0.401924
O O5 0.212505 0.492149 0.148190
O O6 0.019548 0.723892 0.922263
O O7 0.082788 0.709222 0.247796
O O8 0.892072 0.567656 0.209670
O O9 0.766970 0.845741 0.094576
O O10 0.719918 0.139240 0.934303
O O11 0.500000 0.000000 0.000000
O O12 0.678042 0.292565 0.586231
O O13 0.918710 0.028807 0.746437
O O14 0.531717 0.679880 0.674315
O O15 0.633447 0.688441 0.997829
O O16 0.500000 0.500000 0.000000
O O17 0.610856 0.694532 0.335313
#
# Coordination Sequence:
#
# PCOD9108541 Si02
#       8
#     2   2   2   2   2   2   2   2
#     4  10  22  39  68 107 144 185 231 292 354 422
#     4  12  24  44  77 102 144 193 238 294 352 431
#     4  12  22  40  72 108 152 185 230 291 363 428
#     4  11  22  43  74 110 143 189 231 290 364 423
#     4  12  29  52  77  98 138 197 248 295 353 424
#     4  10  20  40  69 106 142 180 237 288 354 423
#     4  12  27  46  71 109 144 188 236 299 359 420
#     4  11  26  48  72 107 144 186 246 291 354 431
#
# _framework density 25.62509
#
# number of rings (size 3 to 8) (size 9 to 14) (size 15 to 20)
#    0.000    0.750    3.750    3.750    0.000    4.000 
#    0.000    2.500    0.000    0.000    0.000    0.000 
#    0.000    0.000    0.000    0.000    0.000    0.000 
#
# Total GULP energy -89532.856019 kJ/mol
# GULP energy per Si atom -5595.803501 kJ/mol
# Density = 2.556677 g / cm^3
# Si number density = 25.625090 Si / 1000 Ang^3
#
#
#
# Elastic Constant Matrix: (Units=GPa)
#
#
# Indices 1 2 3 4 5 6 
#
# 1 149.1165 37.8852 77.7554 6.3207 17.7263 -31.5965
# 2 37.8852 65.5847 36.7972 14.9672 4.0988 -23.5200
# 3 77.7554 36.7972 142.8345 13.9883 41.2336 -7.3972
# 4 6.3207 14.9672 13.9883 31.3434 -5.2871 5.6963
# 5 17.7263 4.0988 41.2336 -5.2871 48.4749 5.4137
# 6 -31.5965 -23.5200 -7.3972 5.6963 5.4137 37.9106
#
#
#
# Elastic Compliance Matrix: (Units=1/GPa)
#
#
# Indices 1 2 3 4 5 6 
#
# 1 0.011629 0.000012 -0.005479 -0.001671 -0.000779 0.008993
# 2 0.000012 0.028219 -0.003831 -0.015841 -0.003047 0.019585
# 3 -0.005479 -0.003831 0.014243 -0.004758 -0.010083 -0.002010
# 4 -0.001671 -0.015841 -0.004758 0.048103 0.013626 -0.021323
# 5 -0.000779 -0.003047 -0.010083 0.013626 0.032484 -0.011193
# 6 0.008993 0.019585 -0.002010 -0.021323 -0.011193 0.050434
#
#
# Mechanical properties :
#
#
# Convention : Reuss Voigt Hill
#
# Bulk Modulus (GPa) = 28.17322 73.60126 50.88724
# Shear Modulus (GPa) = 23.19722 37.21895 30.20808
#
# Velocity S-wave (km/s) = 3.01201 3.81523 3.43716
# Velocity P-wave (km/s) = 4.80776 6.94209 5.97106
#
# Compressibility (1/GPa) = 0.03549470
#
# Stress axis : x y z
#
# Youngs Moduli (GPa) = 85.98903 35.43662 70.20799
#
# Poissons Ratio (x) = -0.00041 0.38469
# Poissons Ratio (y) = -0.00101 0.26897
# Poissons Ratio (z) = 0.47116 0.13576
#
# Static dielectric constant tensor:
#      x y z
#    x 2.063590 -0.006110 0.012110 
#    y -0.006110 2.099930 0.022370 
#    z 0.012110 0.022370 2.047420 
# 
# From -- ./inp_files/179056.got.cif
#   From: 2010.05.17/outbox.cif.g08.bks.cpg/sg2_90_cif.got.tgz:179056.got - 2010.06.03 11:33:40.
