data_PCOD9108416
_publ_section_title
;
Structure prediction by ZEFSAII (Michael W. Deem and Ramdas Pophale) SiO2 
 PCOD9108416
Probable space group: P -1
;
_chemical_formula_sum "Si O2"
_cell_formula_units_Z 15
_cell_length_a 6.688253
_cell_length_b 10.535126
_cell_length_c 16.671512
_cell_angle_alpha 45.813183
_cell_angle_beta 109.041474
_cell_angle_gamma 81.648474
_cell_volume 665.130310
_symmetry_space_group_name_H-M "P -1"
_symmetry_group_IT_number 2
_symmetry_cell_setting 'triclinic'
loop_
_space_group_symop_operation_xyz
x,y,z
-x,-y,-z
loop_
_atom_site_type_symbol
_atom_site_label
_atom_site_fract_x
_atom_site_fract_y
_atom_site_fract_z
Si Si1 0.915661 0.974890 0.331523
Si Si2 0.066078 0.343901 0.961237
Si Si3 0.500000 0.500000 0.500000
Si Si4 0.108037 0.416284 0.443428
Si Si5 0.385149 0.285077 0.179510
Si Si6 0.076535 0.937180 0.192152
Si Si7 0.435775 0.917249 0.449469
Si Si8 0.228101 0.218434 0.864425
O O1 0.888141 0.780988 0.434019
O O2 0.910151 0.012742 0.218844
O O3 0.186855 0.913239 0.427186
O O4 0.681315 0.183917 0.250348
O O5 0.239884 0.361984 0.041951
O O6 0.093333 0.123365 0.076758
O O7 0.159733 0.337867 0.887325
O O8 0.776037 0.528320 0.860660
O O9 0.225672 0.518729 0.466601
O O10 0.348788 0.741239 0.340596
O O11 0.324164 0.308998 0.447861
O O12 0.840123 0.604301 0.290272
O O13 0.370168 0.091134 0.295876
O O14 0.962830 0.853244 0.150342
O O15 0.500000 0.000000 0.500000
O O16 0.500000 0.000000 0.000000
#
# Coordination Sequence:
#
# PCOD9108416 Si02
#       8
#     2   2   1   2   2   2   2   2
#     4  11  22  43  71 104 128 177 233 279 341 413
#     4  11  22  45  63  97 140 179 222 272 341 399
#     4  10  20  40  68  94 128 172 224 278 330 382
#     4  10  23  42  67 102 132 175 224 282 343 392
#     4  10  23  41  71  96 135 179 220 282 335 408
#     4  11  22  41  68  97 131 180 221 275 337 393
#     4  11  22  44  66  98 136 171 226 294 343 389
#     4  11  25  43  62  98 135 179 224 273 326 414
#
# _framework density 22.551970000000001
#
# number of rings (size 3 to 8) (size 9 to 14) (size 15 to 20)
#    0.000    1.333    2.667    2.800    0.000    5.867 
#    9.600    0.000    0.000    0.000    0.000    0.000 
#    0.000    0.000    0.000    0.000    0.000    0.000 
#
# Total GULP energy -83621.074551 kJ/mol
# GULP energy per Si atom -5574.738303 kJ/mol
# Density = 2.250064 g / cm^3
# Si number density = 22.551970 Si / 1000 Ang^3
#
#
#
# Elastic Constant Matrix: (Units=GPa)
#
#
# Indices 1 2 3 4 5 6 
#
# 1 74.5646 13.7452 15.2589 8.6311 17.6150 -7.6571
# 2 13.7452 64.0101 0.4354 6.7803 20.3999 -18.0314
# 3 15.2589 0.4354 94.2084 -15.1372 17.3431 -16.7363
# 4 8.6311 6.7803 -15.1372 38.2354 -5.7175 4.5105
# 5 17.6150 20.3999 17.3431 -5.7175 35.1401 -16.2104
# 6 -7.6571 -18.0314 -16.7363 4.5105 -16.2104 41.0486
#
#
#
# Elastic Compliance Matrix: (Units=1/GPa)
#
#
# Indices 1 2 3 4 5 6 
#
# 1 0.016447 -0.000529 -0.002191 -0.005618 -0.008057 -0.000623
# 2 -0.000529 0.021740 0.002393 -0.005259 -0.011391 0.006506
# 3 -0.002191 0.002393 0.013101 0.004161 -0.004316 0.003822
# 4 -0.005618 -0.005259 0.004161 0.031432 0.008034 -0.001943
# 5 -0.008057 -0.011391 -0.004316 0.008034 0.046863 0.009357
# 6 -0.000623 0.006506 0.003822 -0.001943 0.009357 0.032570
#
#
# Mechanical properties :
#
#
# Convention : Reuss Voigt Hill
#
# Bulk Modulus (GPa) = 19.75040 32.40689 26.07864
# Shear Modulus (GPa) = 27.82629 36.44105 32.13367
#
# Velocity S-wave (km/s) = 3.51646 4.02415 3.77884
# Velocity P-wave (km/s) = 5.02634 5.99940 5.53430
#
# Compressibility (1/GPa) = 0.05063190
#
# Stress axis : x y z
#
# Youngs Moduli (GPa) = 60.80167 45.99821 76.33125
#
# Poissons Ratio (x) = 0.02435 0.16728
# Poissons Ratio (y) = 0.03219 -0.18267
# Poissons Ratio (z) = 0.13325 -0.11008
#
# Static dielectric constant tensor:
#      x y z
#    x 1.840320 -0.037970 0.010040 
#    y -0.037970 1.948120 0.044710 
#    z 0.010040 0.044710 1.819090 
# 
# From -- ./inp_files/549068.got.cif
#   From: 2010.05.17/outbox.cif.g08.bks.cpg/sg2_275_cif.got.tgz:549068.got - 2010.06.03 11:33:40.
