data_PCOD9108500
_publ_section_title
;
Structure prediction by ZEFSAII (Michael W. Deem and Ramdas Pophale) SiO2 
 PCOD9108500
Probable space group: P -1
;
_chemical_formula_sum "Si O2"
_cell_formula_units_Z 12
_cell_length_a 9.207820
_cell_length_b 8.733821
_cell_length_c 7.537060
_cell_angle_alpha 104.931896
_cell_angle_beta 84.480953
_cell_angle_gamma 126.694135
_cell_volume 468.294650
_symmetry_space_group_name_H-M "P -1"
_symmetry_group_IT_number 2
_symmetry_cell_setting 'triclinic'
loop_
_space_group_symop_operation_xyz
x,y,z
-x,-y,-z
loop_
_atom_site_type_symbol
_atom_site_label
_atom_site_fract_x
_atom_site_fract_y
_atom_site_fract_z
Si Si1 0.516992 0.175525 0.931768
Si Si2 0.765125 0.788691 0.634055
Si Si3 0.227578 0.851493 0.333607
Si Si4 0.621192 0.497495 0.277675
Si Si5 0.150302 0.912405 0.753791
Si Si6 0.897376 0.450984 0.312225
O O1 0.627175 0.183227 0.752600
O O2 0.315564 0.106702 0.886315
O O3 0.621291 0.395477 0.066409
O O4 0.500000 0.000000 0.000000
O O5 0.742720 0.719867 0.408158
O O6 0.588034 0.598873 0.689522
O O7 0.957862 0.864229 0.714229
O O8 0.743280 0.961456 0.705712
O O9 0.229339 0.895996 0.554263
O O10 0.028083 0.653837 0.252472
O O11 0.705453 0.408477 0.360140
O O12 0.116692 0.731763 0.819468
O O13 0.000000 0.500000 0.500000
#
# Coordination Sequence:
#
# PCOD9108500 Si02
#       6
#     2   2   2   2   2   2
#     4  12  24  44  67 100 134 174 224 274 327 391
#     4  11  23  43  71  95 135 176 219 270 337 391
#     4  11  23  43  72  97 129 180 223 268 325 404
#     4  11  23  42  66  94 137 172 214 271 336 378
#     4  11  23  43  69 101 130 176 223 270 330 397
#     4  10  20  40  68  99 126 175 226 262 320 399
#
# _framework density 25.624891999999999
#
# number of rings (size 3 to 8) (size 9 to 14) (size 15 to 20)
#    0.000    1.000    6.667    1.000    0.000    2.667 
#    0.000    0.833    0.000    0.000    0.000    0.000 
#    0.000    0.000    0.000    0.000    0.000    0.000 
#
# Total GULP energy -66973.003275 kJ/mol
# GULP energy per Si atom -5581.083606 kJ/mol
# Density = 2.556657 g / cm^3
# Si number density = 25.624892 Si / 1000 Ang^3
#
#
#
# Elastic Constant Matrix: (Units=GPa)
#
#
# Indices 1 2 3 4 5 6 
#
# 1 153.6521 37.9046 51.3973 29.3460 4.1924 37.1187
# 2 37.9046 47.0620 15.4381 24.3352 -2.0347 2.8040
# 3 51.3973 15.4381 78.4318 23.7793 -2.8678 0.9209
# 4 29.3460 24.3352 23.7793 42.8307 3.2871 -2.2018
# 5 4.1924 -2.0347 -2.8678 3.2871 32.8216 12.3558
# 6 37.1187 2.8040 0.9209 -2.2018 12.3558 32.8275
#
#
#
# Elastic Compliance Matrix: (Units=1/GPa)
#
#
# Indices 1 2 3 4 5 6 
#
# 1 0.016123 -0.006951 -0.007501 -0.004286 0.004604 -0.019447
# 2 -0.006951 0.034586 0.002948 -0.016735 0.004162 0.002134
# 3 -0.007501 0.002948 0.019119 -0.006865 0.000904 0.006893
# 4 -0.004286 -0.016735 -0.006865 0.041049 -0.010104 0.013024
# 5 0.004604 0.004162 0.000904 -0.010104 0.039132 -0.020993
# 6 -0.019447 0.002134 0.006893 0.013024 -0.020993 0.060851
#
#
# Mechanical properties :
#
#
# Convention : Reuss Voigt Hill
#
# Bulk Modulus (GPa) = 21.35843 54.29173 37.82508
# Shear Modulus (GPa) = 20.04209 33.32301 26.68255
#
# Velocity S-wave (km/s) = 2.79970 3.61004 3.23038
# Velocity P-wave (km/s) = 4.33638 6.21366 5.35788
#
# Compressibility (1/GPa) = 0.04681993
#
# Stress axis : x y z
#
# Youngs Moduli (GPa) = 62.02287 28.91316 52.30436
#
# Poissons Ratio (x) = 0.20098 0.39235
# Poissons Ratio (y) = 0.43113 -0.15421
# Poissons Ratio (z) = 0.46525 -0.08525
#
# Static dielectric constant tensor:
#      x y z
#    x 1.996210 0.008950 0.022020 
#    y 0.008950 2.198370 -0.008280 
#    z 0.022020 -0.008280 2.103620 
# 
# From -- ./inp_files/159697.got.cif
#   From: 2010.05.17/outbox.cif.g08.bks.cpg/sg2_80_cif.got.tgz:159697.got - 2010.06.03 11:33:40.
