data_PCOD9108211
_publ_section_title
;
Structure prediction by ZEFSAII (Michael W. Deem and Ramdas Pophale) SiO2 
 PCOD9108211
Probable space group: P -1
;
_chemical_formula_sum "Si O2"
_cell_formula_units_Z 14
_cell_length_a 17.344100
_cell_length_b 18.582306
_cell_length_c 5.245921
_cell_angle_alpha 101.110481
_cell_angle_beta 65.975507
_cell_angle_gamma 156.523618
_cell_volume 533.939970
_symmetry_space_group_name_H-M "P -1"
_symmetry_group_IT_number 2
_symmetry_cell_setting 'triclinic'
loop_
_space_group_symop_operation_xyz
x,y,z
-x,-y,-z
loop_
_atom_site_type_symbol
_atom_site_label
_atom_site_fract_x
_atom_site_fract_y
_atom_site_fract_z
Si Si1 0.201904 0.100491 0.797481
Si Si2 0.713024 0.078671 0.626390
Si Si3 0.809071 0.308459 0.442197
Si Si4 0.016638 0.291546 0.860080
Si Si5 0.878538 0.761904 0.623574
Si Si6 0.612415 0.694459 0.808300
Si Si7 0.724107 0.360413 0.236188
O O1 0.391405 0.284985 0.463866
O O2 0.296596 0.173700 0.008876
O O3 0.082209 0.938323 0.683805
O O4 0.000000 0.000000 0.000000
O O5 0.665006 0.124499 0.635879
O O6 0.858848 0.194470 0.770253
O O7 0.478258 0.837104 0.809661
O O8 0.883722 0.190259 0.240773
O O9 0.668384 0.262286 0.482841
O O10 0.000000 0.500000 0.500000
O O11 0.997294 0.428407 0.065832
O O12 0.056537 0.240323 0.690541
O O13 0.258423 0.538422 0.696098
O O14 0.788121 0.767119 0.647818
O O15 0.649483 0.541911 0.919876
#
# Coordination Sequence:
#
# PCOD9108211 Si02
#       7
#     2   2   2   2   2   2   2
#     4  10  21  38  61  90 120 149 202 258 305 367
#     4  11  25  42  64  91 126 170 204 246 313 361
#     4  10  20  40  67  93 123 158 211 257 294 356
#     4  11  26  41  59  93 128 165 206 253 305 376
#     4  10  23  41  64  89 126 161 207 260 310 364
#     4  10  23  40  65  93 116 162 211 258 313 362
#     4  10  23  41  62  93 128 161 206 255 301 365
#
# _framework density 26.220177
#
# number of rings (size 3 to 8) (size 9 to 14) (size 15 to 20)
#    0.000    1.714    1.429    2.143    2.000   13.714 
#    0.000    0.000    0.000    0.000    0.000    0.000 
#    0.000    0.000    0.000    0.000    0.000    0.000 
#
# Total GULP energy -78334.801289 kJ/mol
# GULP energy per Si atom -5595.342949 kJ/mol
# Density = 2.616050 g / cm^3
# Si number density = 26.220177 Si / 1000 Ang^3
#
#
#
# Elastic Constant Matrix: (Units=GPa)
#
#
# Indices 1 2 3 4 5 6 
#
# 1 78.1861 20.4611 30.4056 3.5260 1.8896 -10.0445
# 2 20.4611 148.6206 25.0979 1.5725 6.7486 -38.7383
# 3 30.4056 25.0979 134.9673 11.9039 15.8083 -13.1680
# 4 3.5260 1.5725 11.9039 49.0709 -3.7716 7.2051
# 5 1.8896 6.7486 15.8083 -3.7716 20.8771 10.4686
# 6 -10.0445 -38.7383 -13.1680 7.2051 10.4686 37.6508
#
#
#
# Elastic Compliance Matrix: (Units=1/GPa)
#
#
# Indices 1 2 3 4 5 6 
#
# 1 0.014426 -0.001012 -0.002839 -0.000585 0.000116 0.001894
# 2 -0.001012 0.011829 0.001850 -0.004454 -0.014708 0.017489
# 3 -0.002839 0.001850 0.010797 -0.005031 -0.014382 0.009884
# 4 -0.000585 -0.004454 -0.005031 0.025596 0.018175 -0.016450
# 5 0.000116 -0.014708 -0.014382 0.018175 0.091399 -0.049023
# 6 0.001894 0.017489 0.009884 -0.016450 -0.049023 0.065295
#
#
# Mechanical properties :
#
#
# Convention : Reuss Voigt Hill
#
# Bulk Modulus (GPa) = 30.25642 57.07811 43.66727
# Shear Modulus (GPa) = 21.33462 40.57373 30.95417
#
# Velocity S-wave (km/s) = 2.85559 3.93800 3.43964
# Velocity P-wave (km/s) = 4.73676 6.51868 5.69781
#
# Compressibility (1/GPa) = 0.03305083
#
# Stress axis : x y z
#
# Youngs Moduli (GPa) = 69.32062 84.53745 92.61532
#
# Poissons Ratio (x) = 0.08555 0.26292
# Poissons Ratio (y) = 0.07015 -0.17135
# Poissons Ratio (z) = 0.19679 -0.15640
#
# Static dielectric constant tensor:
#      x y z
#    x 2.159800 -0.013410 -0.071130 
#    y -0.013410 2.153420 0.003240 
#    z -0.071130 0.003240 2.081460 
# 
# From -- ./inp_files/120298.got.cif
#   From: 2010.05.17/outbox.cif.g08.bks.cpg/sg2_61_cif.got.tgz:120298.got - 2010.06.03 11:33:40.
