data_PCOD9108540
_publ_section_title
;
Structure prediction by ZEFSAII (Michael W. Deem and Ramdas Pophale) SiO2 
 PCOD9108540
Probable space group: P -1
;
_chemical_formula_sum "Si O2"
_cell_formula_units_Z 16
_cell_length_a 10.705415
_cell_length_b 8.972865
_cell_length_c 13.810363
_cell_angle_alpha 82.567941
_cell_angle_beta 32.170951
_cell_angle_gamma 94.070337
_cell_volume 658.221412
_symmetry_space_group_name_H-M "P -1"
_symmetry_group_IT_number 2
_symmetry_cell_setting 'triclinic'
loop_
_space_group_symop_operation_xyz
x,y,z
-x,-y,-z
loop_
_atom_site_type_symbol
_atom_site_label
_atom_site_fract_x
_atom_site_fract_y
_atom_site_fract_z
Si Si1 0.815676 0.874178 0.561044
Si Si2 0.511368 0.684324 0.474494
Si Si3 0.704051 0.108244 0.093587
Si Si4 0.228513 0.627178 0.480926
Si Si5 0.970603 0.739538 0.290379
Si Si6 0.947820 0.322840 0.092329
Si Si7 0.361084 0.224428 0.935992
Si Si8 0.703605 0.670621 0.829294
O O1 0.974357 0.846139 0.371190
O O2 0.693656 0.718320 0.720576
O O3 0.578692 0.922686 0.684220
O O4 0.000000 0.000000 0.500000
O O5 0.500000 0.500000 0.500000
O O6 0.450987 0.716093 0.402352
O O7 0.775190 0.775196 0.341458
O O8 0.293337 0.707212 0.679809
O O9 0.787579 0.230149 0.936597
O O10 0.878488 0.194080 0.061587
O O11 0.714565 0.946945 0.051886
O O12 0.141689 0.440574 0.581010
O O13 0.354589 0.674395 0.290031
O O14 0.986812 0.673693 0.652920
O O15 0.000000 0.500000 0.000000
O O16 0.178279 0.312368 0.004867
O O17 0.335629 0.216327 0.069156
O O18 0.500000 0.500000 0.000000
#
# Coordination Sequence:
#
# PCOD9108540 Si02
#       8
#     2   2   2   2   2   2   2   2
#     4  12  27  46  68  98 141 195 240 282 348 419
#     4  10  20  40  69 106 131 170 224 288 353 413
#     4  12  27  46  72 106 145 186 232 293 362 420
#     4  11  23  44  71 102 140 179 235 298 355 418
#     4  11  23  44  73 101 136 184 239 288 354 421
#     4  12  23  44  78 106 144 180 233 293 357 437
#     4  12  27  46  70 107 147 182 230 298 361 418
#     4  12  27  44  70 104 139 189 250 293 342 412
#
# _framework density 24.307929000000001
#
# number of rings (size 3 to 8) (size 9 to 14) (size 15 to 20)
#    0.000    0.500    2.500    7.125    1.750    6.000 
#    0.000    1.250    0.000    0.000    0.000    0.000 
#    0.000    0.000    0.000    0.000    0.000    0.000 
#
# Total GULP energy -89601.158785 kJ/mol
# GULP energy per Si atom -5600.072424 kJ/mol
# Density = 2.425260 g / cm^3
# Si number density = 24.307929 Si / 1000 Ang^3
#
#
#
# Elastic Constant Matrix: (Units=GPa)
#
#
# Indices 1 2 3 4 5 6 
#
# 1 55.2040 3.9933 -0.3577 10.8449 3.5887 11.0042
# 2 3.9933 69.1301 6.3212 0.9563 12.0713 17.7323
# 3 -0.3577 6.3212 127.0717 13.0964 14.0618 9.1801
# 4 10.8449 0.9563 13.0964 41.6128 10.4496 9.5007
# 5 3.5887 12.0713 14.0618 10.4496 33.1522 5.9862
# 6 11.0042 17.7323 9.1801 9.5007 5.9862 33.1488
#
#
#
# Elastic Compliance Matrix: (Units=1/GPa)
#
#
# Indices 1 2 3 4 5 6 
#
# 1 0.020097 0.000384 0.000925 -0.004104 -0.000350 -0.005894
# 2 0.000384 0.017860 0.000131 0.003098 -0.005852 -0.009548
# 3 0.000925 0.000131 0.008492 -0.001809 -0.002874 -0.001691
# 4 -0.004104 0.003098 -0.001809 0.029110 -0.007880 -0.006714
# 5 -0.000350 -0.005852 -0.002874 -0.007880 0.036074 -0.000213
# 6 -0.005894 -0.009548 -0.001691 -0.006714 -0.000213 0.039663
#
#
# Mechanical properties :
#
#
# Convention : Reuss Voigt Hill
#
# Bulk Modulus (GPa) = 20.27230 30.14661 25.20945
# Shear Modulus (GPa) = 30.32903 37.67938 34.00420
#
# Velocity S-wave (km/s) = 3.53611 3.94138 3.74424
# Velocity P-wave (km/s) = 5.00300 5.75687 5.39312
#
# Compressibility (1/GPa) = 0.04932839
#
# Stress axis : x y z
#
# Youngs Moduli (GPa) = 49.75962 55.99215 117.75300
#
# Poissons Ratio (x) = -0.02151 -0.10891
# Poissons Ratio (y) = -0.01912 -0.01540
# Poissons Ratio (z) = -0.04602 -0.00733
#
# Static dielectric constant tensor:
#      x y z
#    x 1.968820 0.013680 0.091520 
#    y 0.013680 2.162840 0.283820 
#    z 0.091520 0.283820 2.457570 
# 
# From -- ./inp_files/515626.got.cif
#   From: 2010.05.17/outbox.cif.g08.bks.cpg/sg2_258_cif.got.tgz:515626.got - 2010.06.03 11:33:40.
