data_PCOD9108194
_publ_section_title
;
Structure prediction by ZEFSAII (Michael W. Deem and Ramdas Pophale) SiO2 
 PCOD9108194
Probable space group: P -1
;
_chemical_formula_sum "Si O2"
_cell_formula_units_Z 14
_cell_length_a 10.033880
_cell_length_b 5.799897
_cell_length_c 10.342227
_cell_angle_alpha 92.987997
_cell_angle_beta 55.495003
_cell_angle_gamma 85.231649
_cell_volume 490.650538
_symmetry_space_group_name_H-M "P -1"
_symmetry_group_IT_number 2
_symmetry_cell_setting 'triclinic'
loop_
_space_group_symop_operation_xyz
x,y,z
-x,-y,-z
loop_
_atom_site_type_symbol
_atom_site_label
_atom_site_fract_x
_atom_site_fract_y
_atom_site_fract_z
Si Si1 0.027900 0.962543 0.758443
Si Si2 0.187640 0.847067 0.349290
Si Si3 0.112596 0.263597 0.955468
Si Si4 0.409521 0.695142 0.867659
Si Si5 0.781735 0.644487 0.556120
Si Si6 0.574955 0.796403 0.105038
Si Si7 0.689883 0.405814 0.365379
O O1 0.909902 0.112106 0.729312
O O2 0.209010 0.823277 0.626883
O O3 0.050537 0.108276 0.875995
O O4 0.920345 0.776799 0.875331
O O5 0.145629 0.603870 0.426721
O O6 0.384075 0.813272 0.234842
O O7 0.155378 0.112304 0.434700
O O8 0.308832 0.221640 0.832314
O O9 0.000000 0.500000 0.000000
O O10 0.595462 0.672311 0.713639
O O11 0.378630 0.477283 0.969081
O O12 0.307155 0.675470 0.789853
O O13 0.391211 0.947620 0.954063
O O14 0.776074 0.601314 0.402404
O O15 0.500000 0.500000 0.500000
#
# Coordination Sequence:
#
# PCOD9108194 Si02
#       7
#     2   2   2   2   2   2   2
#     4  11  25  43  66  98 135 170 226 275 333 395
#     4  10  23  43  65 100 136 175 215 273 335 398
#     4  11  25  43  68  96 130 178 224 280 326 392
#     4   9  18  36  63  97 126 170 218 269 313 387
#     4   9  21  39  64  95 136 173 217 264 330 399
#     4  10  20  40  67  91 134 172 218 268 325 391
#     4  10  20  40  69 100 131 177 221 273 333 393
#
# _framework density 28.533546999999999
#
# number of rings (size 3 to 8) (size 9 to 14) (size 15 to 20)
#    0.000    2.000    1.429    0.857    4.000    2.857 
#    2.571    6.429    0.000    0.000    0.000    0.000 
#    0.000    0.000    0.000    0.000    0.000    0.000 
#
# Total GULP energy -78018.075745 kJ/mol
# GULP energy per Si atom -5572.719696 kJ/mol
# Density = 2.846860 g / cm^3
# Si number density = 28.533547 Si / 1000 Ang^3
#
#
#
# Elastic Constant Matrix: (Units=GPa)
#
#
# Indices 1 2 3 4 5 6 
#
# 1 206.3945 69.1325 66.2232 10.5402 -0.7192 -6.2854
# 2 69.1325 241.8013 47.2745 10.4909 1.0688 -5.0293
# 3 66.2232 47.2745 91.9270 2.9549 -25.7056 -18.7495
# 4 10.5402 10.4909 2.9549 51.4385 -4.4135 -7.4082
# 5 -0.7192 1.0688 -25.7056 -4.4135 55.9679 17.5168
# 6 -6.2854 -5.0293 -18.7495 -7.4082 17.5168 55.7343
#
#
#
# Elastic Compliance Matrix: (Units=1/GPa)
#
#
# Indices 1 2 3 4 5 6 
#
# 1 0.006832 -0.000898 -0.005137 -0.001182 -0.002189 -0.000508
# 2 -0.000898 0.004852 -0.002164 -0.000798 -0.001115 -0.000147
# 3 -0.005137 -0.002164 0.018413 0.001552 0.007535 0.003258
# 4 -0.001182 -0.000798 0.001552 0.020251 0.001517 0.002532
# 5 -0.002189 -0.001115 0.007535 0.001517 0.022951 -0.004824
# 6 -0.000508 -0.000147 0.003258 0.002532 -0.004824 0.020820
#
#
# Mechanical properties :
#
#
# Convention : Reuss Voigt Hill
#
# Bulk Modulus (GPa) = 73.00400 100.59813 86.80107
# Shear Modulus (GPa) = 43.44618 56.46098 49.95358
#
# Velocity S-wave (km/s) = 3.90633 4.45315 4.18867
# Velocity P-wave (km/s) = 6.78135 7.85960 7.34030
#
# Compressibility (1/GPa) = 0.01369788
#
# Stress axis : x y z
#
# Youngs Moduli (GPa) = 146.37971 206.09580 54.30818
#
# Poissons Ratio (x) = 0.18517 0.27898
# Poissons Ratio (y) = 0.13151 0.11753
# Poissons Ratio (z) = 0.75195 0.44603
#
# Static dielectric constant tensor:
#      x y z
#    x 2.234720 0.063890 -0.045750 
#    y 0.063890 2.566990 -0.236810 
#    z -0.045750 -0.236810 2.383870 
# 
# From -- ./inp_files/110332.got.cif
#   From: 2010.05.17/outbox.cif.g08.bks.cpg/sg2_56_cif.got.tgz:110332.got - 2010.06.03 11:33:40.
