data_PCOD9108967
_publ_section_title
;
Structure prediction by ZEFSAII (Michael W. Deem and Ramdas Pophale) SiO2 
 PCOD9108967
Probable space group: P -1
;
_chemical_formula_sum "Si O2"
_cell_formula_units_Z 16
_cell_length_a 9.125311
_cell_length_b 15.132700
_cell_length_c 11.863238
_cell_angle_alpha 151.828298
_cell_angle_beta 77.479963
_cell_angle_gamma 91.260895
_cell_volume 702.376099
_symmetry_space_group_name_H-M "P -1"
_symmetry_group_IT_number 2
_symmetry_cell_setting 'triclinic'
loop_
_space_group_symop_operation_xyz
x,y,z
-x,-y,-z
loop_
_atom_site_type_symbol
_atom_site_label
_atom_site_fract_x
_atom_site_fract_y
_atom_site_fract_z
Si Si1 0.799578 0.169031 0.498959
Si Si2 0.164941 0.543326 0.516390
Si Si3 0.346548 0.131458 0.098701
Si Si4 0.790508 0.999147 0.642930
Si Si5 0.893023 0.010595 0.891069
Si Si6 0.001860 0.775803 0.169907
Si Si7 0.196949 0.437688 0.132398
Si Si8 0.564040 0.974222 0.295638
O O1 0.786669 0.396924 0.768784
O O2 0.897930 0.987320 0.362169
O O3 0.624140 0.156160 0.513186
O O4 0.916507 0.093271 0.283913
O O5 0.297200 0.372115 0.376563
O O6 0.208504 0.510479 0.339775
O O7 0.000000 0.500000 0.500000
O O8 0.143336 0.760810 0.811273
O O9 0.189626 0.088710 0.117878
O O10 0.383579 0.075361 0.899080
O O11 0.500000 0.000000 0.000000
O O12 0.811431 0.988245 0.761185
O O13 0.619585 0.999044 0.635752
O O14 0.825277 0.201930 0.832816
O O15 0.920608 0.809146 0.343261
O O16 0.967777 0.601817 0.912407
O O17 0.333980 0.216197 0.858621
#
# Coordination Sequence:
#
# PCOD9108967 Si02
#       8
#     2   2   2   2   2   2   2   2
#     4  10  21  39  63  89 116 160 209 248 294 363
#     4  11  22  37  61  89 122 162 205 246 297 364
#     4  11  22  38  58  90 126 160 200 247 305 360
#     4  10  20  41  61  86 121 161 195 252 313 351
#     4  11  22  39  63  86 122 163 201 242 300 365
#     4   9  21  41  65  83 117 159 207 252 298 358
#     4  10  21  39  60  89 118 156 206 250 296 360
#     4  10  21  39  59  87 126 155 197 251 308 356
#
# _framework density 22.779817999999999
#
# number of rings (size 3 to 8) (size 9 to 14) (size 15 to 20)
#    0.000    1.750    1.250    4.500    0.000    4.000 
#    2.250   11.875    0.000    0.000    0.000    0.000 
#    0.000    0.000    0.000    0.000    0.000    0.000 
#
# Total GULP energy -89298.185710 kJ/mol
# GULP energy per Si atom -5581.136607 kJ/mol
# Density = 2.272797 g / cm^3
# Si number density = 22.779818 Si / 1000 Ang^3
#
#
#
# Elastic Constant Matrix: (Units=GPa)
#
#
# Indices 1 2 3 4 5 6 
#
# 1 139.2939 33.0546 27.7241 15.2110 9.8699 23.8698
# 2 33.0546 89.6862 51.5114 14.5287 9.4694 5.3522
# 3 27.7241 51.5114 71.6039 16.4163 20.3964 0.2562
# 4 15.2110 14.5287 16.4163 41.1116 8.3215 0.4086
# 5 9.8699 9.4694 20.3964 8.3215 24.2248 0.5613
# 6 23.8698 5.3522 0.2562 0.4086 0.5613 32.0916
#
#
#
# Elastic Compliance Matrix: (Units=1/GPa)
#
#
# Indices 1 2 3 4 5 6 
#
# 1 0.009315 -0.001662 -0.001684 -0.001937 -0.000909 -0.006597
# 2 -0.001662 0.020334 -0.015390 -0.001683 0.006314 -0.002121
# 3 -0.001684 -0.015390 0.031779 -0.002783 -0.019191 0.003937
# 4 -0.001937 -0.001683 -0.002783 0.027912 -0.005833 0.001490
# 5 -0.000909 0.006314 -0.019191 -0.005833 0.057371 -0.001153
# 6 -0.006597 -0.002121 0.003937 0.001490 -0.001153 0.036391
#
#
# Mechanical properties :
#
#
# Convention : Reuss Voigt Hill
#
# Bulk Modulus (GPa) = 41.74255 58.35155 50.04705
# Shear Modulus (GPa) = 21.87592 32.03852 26.95722
#
# Velocity S-wave (km/s) = 3.10227 3.75433 3.44376
# Velocity P-wave (km/s) = 5.58536 6.66816 6.15063
#
# Compressibility (1/GPa) = 0.02395637
#
# Stress axis : x y z
#
# Youngs Moduli (GPa) = 107.35073 49.17774 31.46689
#
# Poissons Ratio (x) = 0.08176 0.05299
# Poissons Ratio (y) = 0.17847 0.48427
# Poissons Ratio (z) = 0.18079 0.75684
#
# Static dielectric constant tensor:
#      x y z
#    x 1.904850 -0.017580 -0.000740 
#    y -0.017580 1.938620 -0.007130 
#    z -0.000740 -0.007130 1.872600 
# 
# From -- ./inp_files/399990.got.cif
#   From: 2010.05.17/outbox.cif.g08.bks.cpg/sg2_200_cif.got.tgz:399990.got - 2010.06.03 11:33:40.
