data_PCOD9108093
_publ_section_title
;
Structure prediction by ZEFSAII (Michael W. Deem and Ramdas Pophale) SiO2 
 PCOD9108093
Probable space group: P -1
;
_chemical_formula_sum "Si O2"
_cell_formula_units_Z 16
_cell_length_a 9.086240
_cell_length_b 11.654151
_cell_length_c 8.176456
_cell_angle_alpha 74.757499
_cell_angle_beta 88.273830
_cell_angle_gamma 58.912963
_cell_volume 709.524827
_symmetry_space_group_name_H-M "P -1"
_symmetry_group_IT_number 2
_symmetry_cell_setting 'triclinic'
loop_
_space_group_symop_operation_xyz
x,y,z
-x,-y,-z
loop_
_atom_site_type_symbol
_atom_site_label
_atom_site_fract_x
_atom_site_fract_y
_atom_site_fract_z
Si Si1 0.300599 0.316041 0.635402
Si Si2 0.252810 0.658164 0.778238
Si Si3 0.198359 0.417121 0.966501
Si Si4 0.294718 0.571799 0.447305
Si Si5 0.939014 0.942588 0.674612
Si Si6 0.450632 0.781814 0.841183
Si Si7 0.311341 0.065992 0.554242
Si Si8 0.317111 0.796804 0.204139
O O1 0.215964 0.362711 0.800131
O O2 0.247297 0.453794 0.477634
O O3 0.262696 0.205055 0.601519
O O4 0.508622 0.245180 0.681572
O O5 0.265147 0.525542 0.911419
O O6 0.213327 0.651047 0.591387
O O7 0.416921 0.674828 0.782117
O O8 0.097050 0.803352 0.797249
O O9 0.342455 0.287827 0.119696
O O10 0.000000 0.500000 0.000000
O O11 0.500000 0.500000 0.500000
O O12 0.260950 0.683175 0.268969
O O13 0.814874 0.903351 0.602657
O O14 0.834912 0.060120 0.768722
O O15 0.000000 0.000000 0.500000
O O16 0.339021 0.935956 0.710628
O O17 0.376616 0.795185 0.020056
O O18 0.500000 0.000000 0.500000
#
# Coordination Sequence:
#
# PCOD9108093 Si02
#       8
#     2   2   2   2   2   2   2   2
#     4   9  21  41  65  97 130 176 225 264 337 398
#     4  11  23  44  65  97 134 174 223 269 324 406
#     4  10  24  44  67  99 137 173 213 284 339 383
#     4   9  18  37  66  89 128 173 220 266 322 391
#     4  12  23  43  69  97 134 170 227 273 327 389
#     4  11  25  43  68  98 132 178 226 265 338 401
#     4  12  25  44  70  98 131 180 226 273 332 403
#     4  10  20  40  66  98 130 176 215 282 327 389
#
# _framework density 22.550301999999999
#
# number of rings (size 3 to 8) (size 9 to 14) (size 15 to 20)
#    0.000    1.500    3.750    1.125    3.500    3.500 
#    2.250    3.750    0.000    0.000    0.000    0.000 
#    0.000    0.000    0.000    0.000    0.000    0.000 
#
# Total GULP energy -89445.993751 kJ/mol
# GULP energy per Si atom -5590.374609 kJ/mol
# Density = 2.249898 g / cm^3
# Si number density = 22.550302 Si / 1000 Ang^3
#
#
#
# Elastic Constant Matrix: (Units=GPa)
#
#
# Indices 1 2 3 4 5 6 
#
# 1 70.1625 28.1064 10.5069 5.9206 3.7485 6.7220
# 2 28.1064 128.9035 21.6966 10.1319 -2.9918 5.8005
# 3 10.5069 21.6966 42.3004 -6.7641 -2.3356 6.1787
# 4 5.9206 10.1319 -6.7641 27.9327 -3.9160 -6.8498
# 5 3.7485 -2.9918 -2.3356 -3.9160 27.0286 1.5884
# 6 6.7220 5.8005 6.1787 -6.8498 1.5884 52.9599
#
#
#
# Elastic Compliance Matrix: (Units=1/GPa)
#
#
# Indices 1 2 3 4 5 6 
#
# 1 0.016555 -0.002711 -0.003318 -0.004262 -0.003391 -0.001867
# 2 -0.002711 0.009513 -0.004740 -0.004129 0.000462 -0.000693
# 3 -0.003318 -0.004740 0.028841 0.009635 0.003900 -0.001295
# 4 -0.004262 -0.004129 0.009635 0.042770 0.006858 0.005195
# 5 -0.003391 0.000462 0.003900 0.006858 0.038871 -0.000354
# 6 -0.001867 -0.000693 -0.001295 0.005195 -0.000354 0.020029
#
#
# Mechanical properties :
#
#
# Convention : Reuss Voigt Hill
#
# Bulk Modulus (GPa) = 29.96472 40.22067 35.09269
# Shear Modulus (GPa) = 26.42162 33.65467 30.03815
#
# Velocity S-wave (km/s) = 3.42669 3.86738 3.65369
# Velocity P-wave (km/s) = 5.38266 6.14955 5.77884
#
# Compressibility (1/GPa) = 0.03337258
#
# Stress axis : x y z
#
# Youngs Moduli (GPa) = 60.40438 105.11919 34.67314
#
# Poissons Ratio (x) = 0.28497 0.11503
# Poissons Ratio (y) = 0.16375 0.16433
# Poissons Ratio (z) = 0.20040 0.49822
#
# Static dielectric constant tensor:
#      x y z
#    x 1.777620 0.002570 -0.014460 
#    y 0.002570 1.859080 -0.031650 
#    z -0.014460 -0.031650 1.835830 
# 
# From -- ./inp_files/177779.got.cif
#   From: 2010.05.17/outbox.cif.g08.bks.cpg/sg2_89_cif.got.tgz:177779.got - 2010.06.03 11:33:40.
