data_PCOD9108916
_publ_section_title
;
Structure prediction by ZEFSAII (Michael W. Deem and Ramdas Pophale) SiO2 
 PCOD9108916
Probable space group: P -1
;
_chemical_formula_sum "Si O2"
_cell_formula_units_Z 16
_cell_length_a 18.843308
_cell_length_b 19.167158
_cell_length_c 6.538387
_cell_angle_alpha 99.783418
_cell_angle_beta 69.734219
_cell_angle_gamma 158.910394
_cell_volume 710.239080
_symmetry_space_group_name_H-M "P -1"
_symmetry_group_IT_number 2
_symmetry_cell_setting 'triclinic'
loop_
_space_group_symop_operation_xyz
x,y,z
-x,-y,-z
loop_
_atom_site_type_symbol
_atom_site_label
_atom_site_fract_x
_atom_site_fract_y
_atom_site_fract_z
Si Si1 0.611946 0.658537 0.108060
Si Si2 0.251795 0.699146 0.272600
Si Si3 0.300456 0.477670 0.605415
Si Si4 0.259691 0.067628 0.539367
Si Si5 0.552827 0.877016 0.301699
Si Si6 0.114289 0.813849 0.254623
Si Si7 0.536520 0.967316 0.739365
Si Si8 0.968313 0.878937 0.068545
O O1 0.414910 0.534053 0.336962
O O2 0.753782 0.742378 0.185333
O O3 0.500000 0.500000 0.000000
O O4 0.814261 0.888252 0.929090
O O5 0.326568 0.690723 0.293621
O O6 0.428066 0.918384 0.273486
O O7 0.000000 0.500000 0.500000
O O8 0.312408 0.751332 0.996665
O O9 0.518519 0.691511 0.637046
O O10 0.121263 0.268493 0.796963
O O11 0.156516 0.417837 0.638607
O O12 0.371316 0.125194 0.651961
O O13 0.175955 0.937544 0.392141
O O14 0.059143 0.936475 0.779834
O O15 0.529918 0.915584 0.518616
O O16 0.757597 0.071653 0.032995
O O17 0.232884 0.854657 0.278640
#
# Coordination Sequence:
#
# PCOD9108916 Si02
#       8
#     2   2   2   2   2   2   2   2
#     4  10  22  38  61  90 119 157 200 245 299 358
#     4  10  21  37  61  90 114 157 200 240 302 357
#     4  11  22  38  62  88 119 166 197 244 306 351
#     4  10  22  40  58  88 123 157 204 251 293 361
#     4  10  20  41  59  83 124 157 196 251 297 347
#     4  10  21  40  60  86 123 161 201 249 301 350
#     4   9  21  40  58  85 124 153 195 253 292 351
#     4  10  21  40  59  87 125 152 199 253 294 353
#
# _framework density 22.527625
#
# number of rings (size 3 to 8) (size 9 to 14) (size 15 to 20)
#    0.000    2.000    1.250    1.500    1.750    2.000 
#    9.000    0.000    0.000    0.000    0.000    0.000 
#    0.000    0.000    0.000    0.000    0.000    0.000 
#
# Total GULP energy -89293.711451 kJ/mol
# GULP energy per Si atom -5580.856966 kJ/mol
# Density = 2.247635 g / cm^3
# Si number density = 22.527625 Si / 1000 Ang^3
#
#
#
# Elastic Constant Matrix: (Units=GPa)
#
#
# Indices 1 2 3 4 5 6 
#
# 1 72.8808 -18.2022 22.2087 -13.5191 -6.8325 13.4372
# 2 -18.2022 44.4227 23.4405 -11.1672 1.0173 0.2779
# 3 22.2087 23.4405 103.8729 -9.8620 -18.6124 14.0333
# 4 -13.5191 -11.1672 -9.8620 30.4081 -3.4209 -13.3793
# 5 -6.8325 1.0173 -18.6124 -3.4209 41.4608 -7.7493
# 6 13.4372 0.2779 14.0333 -13.3793 -7.7493 36.9220
#
#
#
# Elastic Compliance Matrix: (Units=1/GPa)
#
#
# Indices 1 2 3 4 5 6 
#
# 1 0.022710 0.016422 -0.006960 0.013803 0.001265 -0.000476
# 2 0.016422 0.040545 -0.011562 0.020771 -0.000740 0.005484
# 3 -0.006960 -0.011562 0.014700 -0.003431 0.004856 -0.003191
# 4 0.013803 0.020771 -0.003431 0.054081 0.007937 0.017387
# 5 0.001265 -0.000740 0.004856 0.007937 0.028402 0.006537
# 6 -0.000476 0.005484 -0.003191 0.017387 0.006537 0.036101
#
#
# Mechanical properties :
#
#
# Convention : Reuss Voigt Hill
#
# Bulk Modulus (GPa) = 13.55851 30.67453 22.11652
# Shear Modulus (GPa) = 22.19017 34.67349 28.43183
#
# Velocity S-wave (km/s) = 3.14191 3.92746 3.55644
# Velocity P-wave (km/s) = 4.38107 5.84915 5.16751
#
# Compressibility (1/GPa) = 0.07375442
#
# Stress axis : x y z
#
# Youngs Moduli (GPa) = 44.03333 24.66400 68.02725
#
# Poissons Ratio (x) = -0.40503 0.47346
# Poissons Ratio (y) = -0.72311 0.78655
# Poissons Ratio (z) = 0.30647 0.28517
#
# Static dielectric constant tensor:
#      x y z
#    x 1.863950 0.009580 0.032620 
#    y 0.009580 1.850960 -0.022040 
#    z 0.032620 -0.022040 1.824790 
# 
# From -- ./inp_files/13289.got.cif
#   From: 2010.05.17/outbox.cif.g08.bks.cpg/sg2_7_cif.got.tgz:13289.got - 2010.06.03 11:33:40.
