data_PCOD9108231
_publ_section_title
;
Structure prediction by ZEFSAII (Michael W. Deem and Ramdas Pophale) SiO2 
 PCOD9108231
Probable space group: P -1
;
_chemical_formula_sum "Si O2"
_cell_formula_units_Z 16
_cell_length_a 5.054290
_cell_length_b 20.602517
_cell_length_c 9.249015
_cell_angle_alpha 131.440978
_cell_angle_beta 75.331863
_cell_angle_gamma 118.732137
_cell_volume 629.993683
_symmetry_space_group_name_H-M "P -1"
_symmetry_group_IT_number 2
_symmetry_cell_setting 'triclinic'
loop_
_space_group_symop_operation_xyz
x,y,z
-x,-y,-z
loop_
_atom_site_type_symbol
_atom_site_label
_atom_site_fract_x
_atom_site_fract_y
_atom_site_fract_z
Si Si1 0.102673 0.195897 0.033924
Si Si2 0.036430 0.105592 0.193992
Si Si3 0.442574 0.987548 0.244989
Si Si4 0.244680 0.531928 0.387252
Si Si5 0.852232 0.560274 0.020865
Si Si6 0.367411 0.103518 0.649541
Si Si7 0.975921 0.228619 0.575710
Si Si8 0.064271 0.342849 0.445212
O O1 0.225200 0.170688 0.129347
O O2 0.096349 0.296229 0.219793
O O3 0.248124 0.178492 0.841268
O O4 0.770980 0.107999 0.948392
O O5 0.161431 0.165378 0.415993
O O6 0.676144 0.068257 0.228989
O O7 0.000000 0.000000 0.000000
O O8 0.604482 0.953826 0.298170
O O9 0.240003 0.028366 0.423296
O O10 0.108873 0.447101 0.165494
O O11 0.599794 0.572580 0.438969
O O12 0.000000 0.500000 0.500000
O O13 0.193500 0.620244 0.459498
O O14 0.500000 0.500000 0.000000
O O15 0.000000 0.500000 0.000000
O O16 0.913556 0.666429 0.215443
O O17 0.701004 0.166201 0.627289
O O18 0.958948 0.260102 0.458133
#
# Coordination Sequence:
#
# PCOD9108231 Si02
#       8
#     2   2   2   2   2   2   2   2
#     4  11  23  38  65  95 131 181 233 284 351 418
#     4  10  20  40  67  93 139 179 227 285 351 422
#     4  10  21  40  61  92 132 180 228 286 349 417
#     4  12  26  48  75 105 143 179 234 304 367 415
#     4  12  24  49  76 102 143 188 240 296 356 432
#     4  10  22  41  61  93 138 172 234 288 348 414
#     4  10  23  43  66 103 132 191 231 286 352 431
#     4  11  26  46  69 105 140 181 236 290 355 437
#
# _framework density 25.397078
#
# number of rings (size 3 to 8) (size 9 to 14) (size 15 to 20)
#    0.000    1.250    3.750    1.125    3.500    0.000 
#    4.500    1.250    0.000    0.000    0.000    0.000 
#    0.000    0.000    0.000    0.000    0.000    0.000 
#
# Total GULP energy -89143.141674 kJ/mol
# GULP energy per Si atom -5571.446355 kJ/mol
# Density = 2.533927 g / cm^3
# Si number density = 25.397078 Si / 1000 Ang^3
#
#
#
# Elastic Constant Matrix: (Units=GPa)
#
#
# Indices 1 2 3 4 5 6 
#
# 1 78.9224 3.1926 25.1994 -1.4178 -5.9163 3.0639
# 2 3.1926 68.9456 2.7667 -6.9650 5.2520 2.6755
# 3 25.1994 2.7667 233.6322 2.9165 -34.4635 1.7579
# 4 -1.4178 -6.9650 2.9165 47.0222 7.7098 -9.7379
# 5 -5.9163 5.2520 -34.4635 7.7098 37.8120 -1.0538
# 6 3.0639 2.6755 1.7579 -9.7379 -1.0538 29.1600
#
#
#
# Elastic Compliance Matrix: (Units=1/GPa)
#
#
# Indices 1 2 3 4 5 6 
#
# 1 0.013219 -0.000589 -0.001267 -0.000024 0.000966 -0.001231
# 2 -0.000589 0.015104 -0.000637 0.002702 -0.003336 -0.000504
# 3 -0.001267 -0.000637 0.005160 -0.001329 0.004853 -0.000388
# 4 -0.000024 0.002702 -0.001329 0.024395 -0.006348 0.007752
# 5 0.000966 -0.003336 0.004853 -0.006348 0.032750 -0.001024
# 6 -0.001231 -0.000504 -0.000388 0.007752 -0.001024 0.037044
#
#
# Mechanical properties :
#
#
# Convention : Reuss Voigt Hill
#
# Bulk Modulus (GPa) = 35.09352 49.31307 42.20330
# Shear Modulus (GPa) = 35.17243 46.15495 40.66369
#
# Velocity S-wave (km/s) = 3.72546 4.26764 4.00574
# Velocity P-wave (km/s) = 5.68800 6.61383 6.16831
#
# Compressibility (1/GPa) = 0.02849529
#
# Stress axis : x y z
#
# Youngs Moduli (GPa) = 75.64995 66.20927 193.80470
#
# Poissons Ratio (x) = 0.03903 0.24549
# Poissons Ratio (y) = 0.04459 0.12351
# Poissons Ratio (z) = 0.09583 0.04219
#
# Static dielectric constant tensor:
#      x y z
#    x 2.540920 -0.315970 0.100400 
#    y -0.315970 2.199790 -0.009560 
#    z 0.100400 -0.009560 2.031950 
# 
# From -- ./inp_files/78045.got.cif
#   From: 2010.05.17/outbox.cif.g08.bks.cpg/sg2_40_cif.got.tgz:78045.got - 2010.06.03 11:33:40.
