data_PCOD9108784
_publ_section_title
;
Structure prediction by ZEFSAII (Michael W. Deem and Ramdas Pophale) SiO2 
 PCOD9108784
Probable space group: P -1
;
_chemical_formula_sum "Si O2"
_cell_formula_units_Z 14
_cell_length_a 11.692650
_cell_length_b 9.437080
_cell_length_c 9.569803
_cell_angle_alpha 58.962961
_cell_angle_beta 139.694459
_cell_angle_gamma 112.429398
_cell_volume 585.149844
_symmetry_space_group_name_H-M "P -1"
_symmetry_group_IT_number 2
_symmetry_cell_setting 'triclinic'
loop_
_space_group_symop_operation_xyz
x,y,z
-x,-y,-z
loop_
_atom_site_type_symbol
_atom_site_label
_atom_site_fract_x
_atom_site_fract_y
_atom_site_fract_z
Si Si1 0.458258 0.137641 0.275919
Si Si2 0.550729 0.830993 0.055355
Si Si3 0.021617 0.156384 0.536553
Si Si4 0.151777 0.512534 0.752711
Si Si5 0.381981 0.520044 0.688507
Si Si6 0.086661 0.985139 0.942111
Si Si7 0.052571 0.607894 0.129957
O O1 0.504390 0.314362 0.294209
O O2 0.500000 0.000000 0.500000
O O3 0.267926 0.079165 0.077021
O O4 0.540607 0.145495 0.193387
O O5 0.767374 0.810805 0.278924
O O6 0.505213 0.646245 0.158645
O O7 0.500000 0.000000 0.000000
O O8 0.896843 0.311825 0.309906
O O9 0.000000 0.000000 0.500000
O O10 0.969889 0.089931 0.673377
O O11 0.312453 0.498073 0.797553
O O12 0.000000 0.500000 0.500000
O O13 0.105817 0.389660 0.901080
O O14 0.221350 0.545231 0.413566
O O15 0.097438 0.790268 0.021193
O O16 0.000000 0.000000 0.000000
O O17 0.000000 0.500000 0.000000
#
# Coordination Sequence:
#
# PCOD9108784 Si02
#       7
#     2   2   2   2   2   2   2
#     4  11  25  47  69 100 141 184 236 294 349 422
#     4  11  26  46  67 100 143 188 236 288 359 423
#     4  11  23  40  66 100 136 176 229 287 346 414
#     4  10  20  40  71  97 132 181 236 280 349 410
#     4  11  23  47  71 101 143 191 241 289 351 437
#     4  11  24  41  69 102 135 178 232 285 352 419
#     4  11  22  41  69 107 143 174 230 299 355 411
#
# _framework density 23.925497
#
# number of rings (size 3 to 8) (size 9 to 14) (size 15 to 20)
#    0.000    1.143    4.286    3.000    4.000    0.000 
#    0.000    0.714    0.000    0.000    0.000    0.000 
#    0.000    0.000    0.000    0.000    0.000    0.000 
#
# Total GULP energy -78055.962700 kJ/mol
# GULP energy per Si atom -5575.425907 kJ/mol
# Density = 2.387104 g / cm^3
# Si number density = 23.925497 Si / 1000 Ang^3
#
#
#
# Elastic Constant Matrix: (Units=GPa)
#
#
# Indices 1 2 3 4 5 6 
#
# 1 49.0071 34.5646 19.4448 1.0107 9.2787 10.3570
# 2 34.5646 227.0263 56.0006 -13.6784 0.0534 -5.9436
# 3 19.4448 56.0006 104.1591 -4.5488 3.1786 10.9041
# 4 1.0107 -13.6784 -4.5488 52.1207 -0.9791 -1.3192
# 5 9.2787 0.0534 3.1786 -0.9791 38.8162 -3.1234
# 6 10.3570 -5.9436 10.9041 -1.3192 -3.1234 39.7031
#
#
#
# Elastic Compliance Matrix: (Units=1/GPa)
#
#
# Indices 1 2 3 4 5 6 
#
# 1 0.026953 -0.003937 -0.001988 -0.002054 -0.006945 -0.007689
# 2 -0.003937 0.005823 -0.002667 0.001469 0.001413 0.002791
# 3 -0.001988 -0.002667 0.011771 0.000272 -0.000733 -0.003162
# 4 -0.002054 0.001469 0.000272 0.019692 0.001078 0.001420
# 5 -0.006945 0.001413 -0.000733 0.001078 0.027866 0.004452
# 6 -0.007689 0.002791 -0.003162 0.001420 0.004452 0.028876
#
#
# Mechanical properties :
#
#
# Convention : Reuss Voigt Hill
#
# Bulk Modulus (GPa) = 36.54483 66.69027 51.61755
# Shear Modulus (GPa) = 33.94765 44.14019 39.04392
#
# Velocity S-wave (km/s) = 3.77090 4.29989 4.04406
# Velocity P-wave (km/s) = 5.85382 7.25167 6.58991
#
# Compressibility (1/GPa) = 0.02736365
#
# Stress axis : x y z
#
# Youngs Moduli (GPa) = 37.10203 171.72503 84.95411
#
# Poissons Ratio (x) = 0.67601 0.16889
# Poissons Ratio (y) = 0.14606 0.22658
# Poissons Ratio (z) = 0.07376 0.45801
#
# Static dielectric constant tensor:
#      x y z
#    x 2.324510 0.162520 -0.161710 
#    y 0.162520 2.150260 -0.145300 
#    z -0.161710 -0.145300 2.006580 
# 
# From -- ./inp_files/159210.got.cif
#   From: 2010.05.17/outbox.cif.g08.bks.cpg/sg2_80_cif.got.tgz:159210.got - 2010.06.03 11:33:40.
