data_PCOD9108347
_publ_section_title
;
Structure prediction by ZEFSAII (Michael W. Deem and Ramdas Pophale) SiO2 
 PCOD9108347
Probable space group: P -1
;
_chemical_formula_sum "Si O2"
_cell_formula_units_Z 12
_cell_length_a 11.018012
_cell_length_b 17.023898
_cell_length_c 14.011648
_cell_angle_alpha 156.977391
_cell_angle_beta 29.492830
_cell_angle_gamma 147.229325
_cell_volume 495.125594
_symmetry_space_group_name_H-M "P -1"
_symmetry_group_IT_number 2
_symmetry_cell_setting 'triclinic'
loop_
_space_group_symop_operation_xyz
x,y,z
-x,-y,-z
loop_
_atom_site_type_symbol
_atom_site_label
_atom_site_fract_x
_atom_site_fract_y
_atom_site_fract_z
Si Si1 0.942085 0.572875 0.516668
Si Si2 0.847745 0.715393 0.096246
Si Si3 0.500270 0.264121 0.054567
Si Si4 0.282617 0.111038 0.235405
Si Si5 0.403858 0.906553 0.563184
Si Si6 0.948742 0.752576 0.282165
O O1 0.039254 0.434866 0.216677
O O2 0.111323 0.800228 0.641522
O O3 0.000000 0.500000 0.500000
O O4 0.649361 0.574339 0.706726
O O5 0.567180 0.735830 0.284778
O O6 0.866906 0.657935 0.129537
O O7 0.025854 0.940647 0.211019
O O8 0.795097 0.306835 0.924294
O O9 0.456299 0.074817 0.798689
O O10 0.365282 0.205741 0.183108
O O11 0.239515 0.268217 0.522864
O O12 0.500000 0.000000 0.000000
O O13 0.500000 0.000000 0.500000
O O14 0.000000 0.000000 0.500000
#
# Coordination Sequence:
#
# PCOD9108347 Si02
#       6
#     2   2   2   2   2   2
#     4  12  28  45  66 106 149 186 229 291 354 405
#     4  11  22  43  68 101 147 173 231 297 354 405
#     4  12  23  43  73  99 137 183 242 280 342 428
#     4  11  19  40  72 102 135 183 231 282 348 427
#     4  12  24  46  75  98 137 194 244 279 335 427
#     4  10  20  40  68 103 133 178 233 291 351 409
#
# _framework density 24.236276
#
# number of rings (size 3 to 8) (size 9 to 14) (size 15 to 20)
#    0.000    0.667    6.667    4.000    0.000    0.667 
#    0.000    0.833    0.000    0.000    0.000    0.000 
#    0.000    0.000    0.000    0.000    0.000    0.000 
#
# Total GULP energy -67288.727447 kJ/mol
# GULP energy per Si atom -5607.393954 kJ/mol
# Density = 2.418111 g / cm^3
# Si number density = 24.236276 Si / 1000 Ang^3
#
#
#
# Elastic Constant Matrix: (Units=GPa)
#
#
# Indices 1 2 3 4 5 6 
#
# 1 185.9307 51.5506 97.9806 -21.8975 -2.3072 -28.9816
# 2 51.5506 102.7300 14.3856 -25.9316 6.9992 -15.5548
# 3 97.9806 14.3856 194.2250 -29.8982 8.7353 -11.1553
# 4 -21.8975 -25.9316 -29.8982 36.9282 -1.1186 4.2880
# 5 -2.3072 6.9992 8.7353 -1.1186 66.6425 -11.2159
# 6 -28.9816 -15.5548 -11.1553 4.2880 -11.2159 55.8321
#
#
#
# Elastic Compliance Matrix: (Units=1/GPa)
#
#
# Indices 1 2 3 4 5 6 
#
# 1 0.009187 -0.003931 -0.004427 -0.001219 0.001838 0.003252
# 2 -0.003931 0.014025 0.002533 0.009366 -0.001558 0.001341
# 3 -0.004427 0.002533 0.008107 0.005755 -0.001506 -0.000717
# 4 -0.001219 0.009366 0.005755 0.037557 -0.001148 0.000012
# 5 0.001838 -0.001558 -0.001506 -0.001148 0.016004 0.003522
# 6 0.003252 0.001341 -0.000717 0.000012 0.003522 0.020536
#
#
# Mechanical properties :
#
#
# Convention : Reuss Voigt Hill
#
# Bulk Modulus (GPa) = 50.83924 90.07990 70.45957
# Shear Modulus (GPa) = 40.44575 53.14515 46.79545
#
# Velocity S-wave (km/s) = 4.08954 4.68781 4.39886
# Velocity P-wave (km/s) = 6.58188 8.15774 7.41181
#
# Compressibility (1/GPa) = 0.01966985
#
# Stress axis : x y z
#
# Youngs Moduli (GPa) = 108.84546 71.29918 123.35361
#
# Poissons Ratio (x) = 0.28026 0.54609
# Poissons Ratio (y) = 0.42784 -0.31245
# Poissons Ratio (z) = 0.48187 -0.18060
#
# Static dielectric constant tensor:
#      x y z
#    x 1.892270 0.032780 0.010930 
#    y 0.032780 2.073610 0.050340 
#    z 0.010930 0.050340 1.933730 
# 
# From -- ./inp_files/377516.got.cif
#   From: 2010.05.17/outbox.cif.g08.bks.cpg/sg2_189_cif.got.tgz:377516.got - 2010.06.03 11:33:40.
