data_PCOD9108842
_publ_section_title
;
Structure prediction by ZEFSAII (Michael W. Deem and Ramdas Pophale) SiO2 
 PCOD9108842
Probable space group: P -1
;
_chemical_formula_sum "Si O2"
_cell_formula_units_Z 16
_cell_length_a 6.169723
_cell_length_b 5.911247
_cell_length_c 21.685650
_cell_angle_alpha 82.822447
_cell_angle_beta 62.736592
_cell_angle_gamma 75.684906
_cell_volume 681.140484
_symmetry_space_group_name_H-M "P -1"
_symmetry_group_IT_number 2
_symmetry_cell_setting 'triclinic'
loop_
_space_group_symop_operation_xyz
x,y,z
-x,-y,-z
loop_
_atom_site_type_symbol
_atom_site_label
_atom_site_fract_x
_atom_site_fract_y
_atom_site_fract_z
Si Si1 0.232843 0.464639 0.561156
Si Si2 0.881331 0.283850 0.995172
Si Si3 0.830510 0.969056 0.764605
Si Si4 0.433754 0.703931 0.854638
Si Si5 0.650777 0.271639 0.347104
Si Si6 0.438450 0.377738 0.756902
Si Si7 0.823965 0.820735 0.525662
Si Si8 0.018392 0.157267 0.847891
O O1 0.500000 0.500000 0.500000
O O2 0.248635 0.551230 0.625433
O O3 0.214513 0.220135 0.540996
O O4 0.994247 0.618190 0.552103
O O5 0.892613 0.292777 0.919597
O O6 0.622684 0.318925 0.065363
O O7 0.000000 0.500000 0.000000
O O8 0.000000 0.000000 0.000000
O O9 0.661857 0.154113 0.735323
O O10 0.828697 0.078547 0.829060
O O11 0.698222 0.754471 0.799512
O O12 0.108455 0.899340 0.705810
O O13 0.405374 0.482700 0.826349
O O14 0.222698 0.926819 0.850972
O O15 0.520488 0.428347 0.302293
O O16 0.448167 0.147801 0.409278
O O17 0.177830 0.304193 0.782384
O O18 0.000000 0.000000 0.500000
#
# Coordination Sequence:
#
# PCOD9108842 Si02
#       8
#     2   2   2   2   2   2   2   2
#     4   9  22  47  69 103 137 174 221 278 343 416
#     4  10  20  40  73 102 140 202 248 311 380 430
#     4  11  26  43  66 107 139 187 238 296 357 430
#     4  10  22  43  67  97 148 180 249 299 355 433
#     4  11  25  47  71 100 145 183 227 288 360 423
#     4  11  24  44  67  99 142 185 232 301 350 432
#     4  10  23  49  74 103 136 175 229 284 340 427
#     4  10  22  43  67  99 141 188 242 298 366 426
#
# _framework density 23.490013999999999
#
# number of rings (size 3 to 8) (size 9 to 14) (size 15 to 20)
#    0.000    1.750    2.500    0.000    3.500    2.500 
#   18.000    0.625    0.000    0.000    0.000    0.000 
#    0.000    0.000    0.000    0.000    0.000    0.000 
#
# Total GULP energy -89254.465669 kJ/mol
# GULP energy per Si atom -5578.404104 kJ/mol
# Density = 2.343655 g / cm^3
# Si number density = 23.490014 Si / 1000 Ang^3
#
#
#
# Elastic Constant Matrix: (Units=GPa)
#
#
# Indices 1 2 3 4 5 6 
#
# 1 84.8734 25.0984 36.1457 6.3667 -8.4512 -2.3969
# 2 25.0984 69.2966 36.7952 2.4661 -16.3823 8.7830
# 3 36.1457 36.7952 120.6202 9.9966 -0.4214 -5.4203
# 4 6.3667 2.4661 9.9966 30.0223 12.2544 9.7984
# 5 -8.4512 -16.3823 -0.4214 12.2544 28.9103 8.2334
# 6 -2.3969 8.7830 -5.4203 9.7984 8.2334 45.6717
#
#
#
# Elastic Compliance Matrix: (Units=1/GPa)
#
#
# Indices 1 2 3 4 5 6 
#
# 1 0.014646 -0.002617 -0.003217 -0.003805 0.004088 0.000969
# 2 -0.002617 0.023730 -0.006465 -0.003347 0.016190 -0.007669
# 3 -0.003217 -0.006465 0.011537 -0.001928 -0.004672 0.003700
# 4 -0.003805 -0.003347 -0.001928 0.045333 -0.020602 -0.005797
# 5 0.004088 0.016190 -0.004672 -0.020602 0.056236 -0.009171
# 6 0.000969 -0.007669 0.003700 -0.005797 -0.009171 0.026757
#
#
# Mechanical properties :
#
#
# Convention : Reuss Voigt Hill
#
# Bulk Modulus (GPa) = 39.50515 52.31876 45.91196
# Shear Modulus (GPa) = 23.66560 32.70426 28.18493
#
# Velocity S-wave (km/s) = 3.17752 3.73535 3.46767
# Velocity P-wave (km/s) = 5.50604 6.39726 5.96831
#
# Compressibility (1/GPa) = 0.02531315
#
# Stress axis : x y z
#
# Youngs Moduli (GPa) = 68.27660 42.14030 86.68068
#
# Poissons Ratio (x) = 0.11030 0.27889
# Poissons Ratio (y) = 0.17870 0.56041
# Poissons Ratio (z) = 0.21967 0.27245
#
# Static dielectric constant tensor:
#      x y z
#    x 1.845970 -0.052810 0.032360 
#    y -0.052810 2.000010 0.042680 
#    z 0.032360 0.042680 1.859760 
# 
# From -- ./inp_files/603246.got.cif
#   From: 2010.05.17/outbox.cif.g08.bks.cpg/sg2_302_cif.got.tgz:603246.got - 2010.06.03 11:33:40.
