data_PCOD9108503
_publ_section_title
;
Structure prediction by ZEFSAII (Michael W. Deem and Ramdas Pophale) SiO2 
 PCOD9108503
Probable space group: P -1
;
_chemical_formula_sum "Si O2"
_cell_formula_units_Z 16
_cell_length_a 13.689275
_cell_length_b 9.506405
_cell_length_c 12.122230
_cell_angle_alpha 111.983191
_cell_angle_beta 68.496128
_cell_angle_gamma 51.275620
_cell_volume 635.887871
_symmetry_space_group_name_H-M "P -1"
_symmetry_group_IT_number 2
_symmetry_cell_setting 'triclinic'
loop_
_space_group_symop_operation_xyz
x,y,z
-x,-y,-z
loop_
_atom_site_type_symbol
_atom_site_label
_atom_site_fract_x
_atom_site_fract_y
_atom_site_fract_z
Si Si1 0.820667 0.056707 0.620724
Si Si2 0.984207 0.342456 0.992553
Si Si3 0.518002 0.905936 0.289799
Si Si4 0.309935 0.789588 0.526683
Si Si5 0.617358 0.594309 0.476982
Si Si6 0.656259 0.445644 0.981174
Si Si7 0.986876 0.538960 0.386245
Si Si8 0.123210 0.062007 0.083924
O O1 0.726026 0.201096 0.581858
O O2 0.832778 0.186771 0.732928
O O3 0.015902 0.683999 0.412854
O O4 0.611234 0.249542 0.833509
O O5 0.721484 0.645866 0.218297
O O6 0.131997 0.090232 0.958797
O O7 0.000000 0.500000 0.000000
O O8 0.086015 0.126891 0.781826
O O9 0.491767 0.116891 0.340940
O O10 0.261005 0.173331 0.483625
O O11 0.630538 0.655971 0.078640
O O12 0.485486 0.700296 0.455513
O O13 0.390848 0.533598 0.474149
O O14 0.874688 0.308834 0.269922
O O15 0.733842 0.244905 0.996472
O O16 0.135002 0.214839 0.178869
O O17 0.000000 0.500000 0.500000
#
# Coordination Sequence:
#
# PCOD9108503 Si02
#       8
#     2   2   2   2   2   2   2   2
#     4  10  22  41  67  97 132 174 226 278 335 398
#     4  12  25  43  66 103 139 177 220 281 346 400
#     4  10  23  41  66  93 139 169 229 273 329 408
#     4  11  24  43  68  95 142 174 222 280 349 397
#     4  10  24  42  64 102 132 180 220 280 343 403
#     4  10  22  41  67  99 127 177 230 276 327 401
#     4  10  20  40  68  99 131 173 224 280 330 399
#     4  11  24  40  70  99 138 172 232 277 337 410
#
# _framework density 25.161669
#
# number of rings (size 3 to 8) (size 9 to 14) (size 15 to 20)
#    0.000    1.500    2.500    1.500    7.000    2.000 
#    0.000    3.125    2.750    0.000    0.000    0.000 
#    0.000    0.000    0.000    0.000    0.000    0.000 
#
# Total GULP energy -89235.786664 kJ/mol
# GULP energy per Si atom -5577.236667 kJ/mol
# Density = 2.510440 g / cm^3
# Si number density = 25.161669 Si / 1000 Ang^3
#
#
#
# Elastic Constant Matrix: (Units=GPa)
#
#
# Indices 1 2 3 4 5 6 
#
# 1 76.8869 28.3943 34.2394 8.7016 24.5689 22.9358
# 2 28.3943 121.0304 41.6742 0.5613 20.6380 0.7779
# 3 34.2394 41.6742 94.0874 16.3180 23.8263 13.5759
# 4 8.7016 0.5613 16.3180 40.9545 -4.9715 13.3678
# 5 24.5689 20.6380 23.8263 -4.9715 53.0170 12.6119
# 6 22.9358 0.7779 13.5759 13.3678 12.6119 41.0362
#
#
#
# Elastic Compliance Matrix: (Units=1/GPa)
#
#
# Indices 1 2 3 4 5 6 
#
# 1 0.019440 -0.002506 -0.003534 -0.000623 -0.004592 -0.008034
# 2 -0.002506 0.010439 -0.003795 0.000789 -0.001776 0.002747
# 3 -0.003534 -0.003795 0.015792 -0.006126 -0.004613 0.000236
# 4 -0.000623 0.000789 -0.006126 0.031346 0.008137 -0.010352
# 5 -0.004592 -0.001776 -0.004613 0.008137 0.026072 -0.006537
# 6 -0.008034 0.002747 0.000236 -0.010352 -0.006537 0.034110
#
#
# Mechanical properties :
#
#
# Convention : Reuss Voigt Hill
#
# Bulk Modulus (GPa) = 38.46189 55.62450 47.04319
# Shear Modulus (GPa) = 30.20464 39.51468 34.85966
#
# Velocity S-wave (km/s) = 3.46847 3.96717 3.72617
# Velocity P-wave (km/s) = 5.59995 6.56806 6.10323
#
# Compressibility (1/GPa) = 0.02599976
#
# Stress axis : x y z
#
# Youngs Moduli (GPa) = 51.44005 95.79794 63.32325
#
# Poissons Ratio (x) = 0.24009 0.22379
# Poissons Ratio (y) = 0.12892 0.24032
# Poissons Ratio (z) = 0.18180 0.36356
#
# Static dielectric constant tensor:
#      x y z
#    x 2.201570 -0.014910 0.048170 
#    y -0.014910 2.000140 0.016100 
#    z 0.048170 0.016100 2.050450 
# 
# From -- ./inp_files/307848.got.cif
#   From: 2010.05.17/outbox.cif.g08.bks.cpg/sg2_154_cif.got.tgz:307848.got - 2010.06.03 11:33:40.
