data_PCOD9108071
_publ_section_title
;
Structure prediction by ZEFSAII (Michael W. Deem and Ramdas Pophale) SiO2 
 PCOD9108071
Probable space group: P -1
;
_chemical_formula_sum "Si O2"
_cell_formula_units_Z 15
_cell_length_a 6.686042
_cell_length_b 5.286204
_cell_length_c 20.019039
_cell_angle_alpha 76.528388
_cell_angle_beta 107.229413
_cell_angle_gamma 108.544377
_cell_volume 633.142186
_symmetry_space_group_name_H-M "P -1"
_symmetry_group_IT_number 2
_symmetry_cell_setting 'triclinic'
loop_
_space_group_symop_operation_xyz
x,y,z
-x,-y,-z
loop_
_atom_site_type_symbol
_atom_site_label
_atom_site_fract_x
_atom_site_fract_y
_atom_site_fract_z
Si Si1 0.367307 0.202131 0.764368
Si Si2 0.000000 0.000000 0.500000
Si Si3 0.854179 0.692511 0.995942
Si Si4 0.909963 0.764650 0.741969
Si Si5 0.585823 0.727425 0.391737
Si Si6 0.346063 0.138344 0.410686
Si Si7 0.287346 0.125179 0.158501
Si Si8 0.852039 0.650199 0.148120
O O1 0.429978 0.292924 0.689407
O O2 0.336253 0.378454 0.814208
O O3 0.535631 0.040889 0.815440
O O4 0.118652 0.020653 0.744190
O O5 0.829550 0.871081 0.430150
O O6 0.789256 0.979150 0.530296
O O7 0.699307 0.699970 0.917621
O O8 0.769201 0.596073 0.067484
O O9 0.000000 0.500000 0.000000
O O10 0.000000 0.000000 0.000000
O O11 0.811857 0.744918 0.660165
O O12 0.715019 0.764750 0.773630
O O13 0.007341 0.537586 0.796954
O O14 0.525829 0.416233 0.429550
O O15 0.433698 0.912862 0.393597
O O16 0.035336 0.937216 0.144382
#
# Coordination Sequence:
#
# PCOD9108071 Si02
#       8
#     2   1   2   2   2   2   2   2
#     4  11  24  41  66 105 139 187 246 299 355 430
#     4  12  28  54  78 112 152 184 240 308 364 432
#     4  10  20  40  66  96 138 187 237 298 364 420
#     4  11  22  41  67  99 140 189 240 298 354 427
#     4  12  28  49  76 111 146 195 241 297 367 440
#     4  12  28  48  77 109 146 194 243 294 368 439
#     4  10  21  41  65  93 138 187 238 296 360 425
#     4  10  23  39  67  98 139 189 242 297 362 424
#
# _framework density 23.691358000000001
#
# number of rings (size 3 to 8) (size 9 to 14) (size 15 to 20)
#    0.000    1.067    4.000    1.600    3.733    3.733 
#    0.000    0.667    0.000    0.000    0.000    0.000 
#    0.000    0.000    0.000    0.000    0.000    0.000 
#
# Total GULP energy -83508.228954 kJ/mol
# GULP energy per Si atom -5567.215264 kJ/mol
# Density = 2.363744 g / cm^3
# Si number density = 23.691358 Si / 1000 Ang^3
#
#
#
# Elastic Constant Matrix: (Units=GPa)
#
#
# Indices 1 2 3 4 5 6 
#
# 1 186.1506 44.7508 95.3012 3.9386 -9.6460 -47.1418
# 2 44.7508 78.5997 35.5638 0.4371 -15.5661 -18.0731
# 3 95.3012 35.5638 192.4404 23.4995 0.2123 -32.9721
# 4 3.9386 0.4371 23.4995 26.7534 3.6238 -4.5171
# 5 -9.6460 -15.5661 0.2123 3.6238 57.3280 -4.4239
# 6 -47.1418 -18.0731 -32.9721 -4.5171 -4.4239 61.4444
#
#
#
# Elastic Compliance Matrix: (Units=1/GPa)
#
#
# Indices 1 2 3 4 5 6 
#
# 1 0.008840 -0.002212 -0.003492 0.002416 0.001096 0.004515
# 2 -0.002212 0.016111 -0.001611 0.001354 0.004122 0.002574
# 3 -0.003492 -0.001611 0.008124 -0.006398 -0.000597 0.000693
# 4 0.002416 0.001354 -0.006398 0.043177 -0.001788 0.001864
# 5 0.001096 0.004122 -0.000597 -0.001788 0.019092 0.002976
# 6 0.004515 0.002574 0.000693 0.001864 0.002976 0.021219
#
#
# Mechanical properties :
#
#
# Convention : Reuss Voigt Hill
#
# Bulk Modulus (GPa) = 54.21044 89.82471 72.01758
# Shear Modulus (GPa) = 36.40548 47.87681 42.14115
#
# Velocity S-wave (km/s) = 3.92427 4.50027 4.22211
# Velocity P-wave (km/s) = 6.59279 8.06226 7.36427
#
# Compressibility (1/GPa) = 0.01844663
#
# Stress axis : x y z
#
# Youngs Moduli (GPa) = 113.11738 62.06789 123.09042
#
# Poissons Ratio (x) = 0.13727 0.42982
# Poissons Ratio (y) = 0.25018 0.19831
# Poissons Ratio (z) = 0.39500 0.09999
#
# Static dielectric constant tensor:
#      x y z
#    x 1.874580 0.073120 -0.016440 
#    y 0.073120 2.076810 0.027780 
#    z -0.016440 0.027780 1.961600 
# 
# From -- ./inp_files/9527.got.cif
#   From: 2010.05.17/outbox.cif.g08.bks.cpg/sg2_5_cif.got.tgz:9527.got - 2010.06.03 11:33:40.
