data_PCOD9108437
_publ_section_title
;
Structure prediction by ZEFSAII (Michael W. Deem and Ramdas Pophale) SiO2 
 PCOD9108437
Probable space group: P -1
;
_chemical_formula_sum "Si O2"
_cell_formula_units_Z 14
_cell_length_a 14.370494
_cell_length_b 11.737715
_cell_length_c 7.451334
_cell_angle_alpha 90.614982
_cell_angle_beta 87.361865
_cell_angle_gamma 150.124432
_cell_volume 624.328389
_symmetry_space_group_name_H-M "P -1"
_symmetry_group_IT_number 2
_symmetry_cell_setting 'triclinic'
loop_
_space_group_symop_operation_xyz
x,y,z
-x,-y,-z
loop_
_atom_site_type_symbol
_atom_site_label
_atom_site_fract_x
_atom_site_fract_y
_atom_site_fract_z
Si Si1 0.807393 0.038417 0.355652
Si Si2 0.256688 0.917570 0.276389
Si Si3 0.369432 0.684316 0.938434
Si Si4 0.025440 0.200003 0.857145
Si Si5 0.923653 0.848863 0.742949
Si Si6 0.931968 0.493503 0.829406
Si Si7 0.513425 0.411537 0.854588
O O1 0.707148 0.984639 0.535665
O O2 0.975458 0.131694 0.396766
O O3 0.909085 0.250941 0.247464
O O4 0.665971 0.808911 0.251842
O O5 0.124257 0.666844 0.303088
O O6 0.147701 0.898977 0.168452
O O7 0.447999 0.076022 0.172654
O O8 0.212632 0.471080 0.811420
O O9 0.252866 0.635481 0.089312
O O10 0.448984 0.660952 0.035937
O O11 0.043364 0.176994 0.063832
O O12 0.011672 0.066623 0.753301
O O13 0.703251 0.630703 0.728733
O O14 0.000000 0.500000 0.000000
O O15 0.500000 0.500000 0.000000
#
# Coordination Sequence:
#
# PCOD9108437 Si02
#       7
#     2   2   2   2   2   2   2
#     4  12  25  43  63 103 137 168 211 280 340 381
#     4  12  26  41  64 100 140 167 214 278 339 380
#     4  11  22  42  69  96 125 174 233 261 316 394
#     4  10  20  41  69  95 128 174 227 265 320 394
#     4  10  20  40  68  96 126 175 225 271 318 388
#     4  12  23  47  71  91 127 182 230 264 313 398
#     4  11  22  40  72  97 129 173 229 263 317 402
#
# _framework density 22.424097
#
# number of rings (size 3 to 8) (size 9 to 14) (size 15 to 20)
#    0.000    0.857    4.286    6.000    0.000    1.714 
#    0.000    6.429    0.000    0.000    0.000    0.000 
#    0.000    0.000    0.000    0.000    0.000    0.000 
#
# Total GULP energy -78212.127912 kJ/mol
# GULP energy per Si atom -5586.580565 kJ/mol
# Density = 2.237306 g / cm^3
# Si number density = 22.424097 Si / 1000 Ang^3
#
#
#
# Elastic Constant Matrix: (Units=GPa)
#
#
# Indices 1 2 3 4 5 6 
#
# 1 97.1620 23.4051 17.7762 2.8541 -9.5209 -0.9199
# 2 23.4051 93.3504 15.2528 26.9444 10.0788 -1.3561
# 3 17.7762 15.2528 52.5613 5.5784 1.9776 -5.3418
# 4 2.8541 26.9444 5.5784 22.3846 -7.8719 -13.2366
# 5 -9.5209 10.0788 1.9776 -7.8719 25.2706 4.9569
# 6 -0.9199 -1.3561 -5.3418 -13.2366 4.9569 39.7408
#
#
#
# Elastic Compliance Matrix: (Units=1/GPa)
#
#
# Indices 1 2 3 4 5 6 
#
# 1 0.014280 -0.009605 -0.004125 0.017996 0.014425 0.003643
# 2 -0.009605 0.033653 -0.000496 -0.059411 -0.032593 -0.014864
# 3 -0.004125 -0.000496 0.021448 -0.004916 -0.004908 0.001745
# 4 0.017996 -0.059411 -0.004916 0.167403 0.074334 0.044214
# 5 0.014425 -0.032593 -0.004908 0.074334 0.078901 0.013479
# 6 0.003643 -0.014864 0.001745 0.044214 0.013479 0.038020
#
#
# Mechanical properties :
#
#
# Convention : Reuss Voigt Hill
#
# Bulk Modulus (GPa) = 24.43250 39.54909 31.99079
# Shear Modulus (GPa) = 12.63266 29.92184 21.27725
#
# Velocity S-wave (km/s) = 2.37608 3.65685 3.08369
# Velocity P-wave (km/s) = 4.29499 5.95863 5.19385
#
# Compressibility (1/GPa) = 0.04092909
#
# Stress axis : x y z
#
# Youngs Moduli (GPa) = 70.02895 29.71511 46.62423
#
# Poissons Ratio (x) = 0.28542 0.19230
# Poissons Ratio (y) = 0.67264 0.02314
# Poissons Ratio (z) = 0.28884 0.01474
#
# Static dielectric constant tensor:
#      x y z
#    x 1.809840 0.030460 -0.003510 
#    y 0.030460 1.893710 -0.026570 
#    z -0.003510 -0.026570 1.864730 
# 
# From -- ./inp_files/307974.got.cif
#   From: 2010.05.17/outbox.cif.g08.bks.cpg/sg2_154_cif.got.tgz:307974.got - 2010.06.03 11:33:40.
