data_PCOD9108011
_publ_section_title
;
Structure prediction by ZEFSAII (Michael W. Deem and Ramdas Pophale) SiO2 
 PCOD9108011
Probable space group: P -1
;
_chemical_formula_sum "Si O2"
_cell_formula_units_Z 16
_cell_length_a 15.797790
_cell_length_b 19.691079
_cell_length_c 9.188886
_cell_angle_alpha 122.398508
_cell_angle_beta 147.442262
_cell_angle_gamma 35.381127
_cell_volume 778.491822
_symmetry_space_group_name_H-M "P -1"
_symmetry_group_IT_number 2
_symmetry_cell_setting 'triclinic'
loop_
_space_group_symop_operation_xyz
x,y,z
-x,-y,-z
loop_
_atom_site_type_symbol
_atom_site_label
_atom_site_fract_x
_atom_site_fract_y
_atom_site_fract_z
Si Si1 0.800567 0.408965 0.801269
Si Si2 0.504700 0.636851 0.456974
Si Si3 0.859619 0.471105 0.257218
Si Si4 0.910070 0.184959 0.698840
Si Si5 0.742230 0.245594 0.217305
Si Si6 0.309725 0.021039 0.333998
Si Si7 0.085836 0.715950 0.744117
Si Si8 0.302643 0.859008 0.226705
O O1 0.500000 0.500000 0.500000
O O2 0.770841 0.482726 0.708895
O O3 0.953616 0.263409 0.834735
O O4 0.901352 0.413523 0.094300
O O5 0.363780 0.712949 0.494547
O O6 0.472862 0.731643 0.430595
O O7 0.332135 0.643940 0.119844
O O8 0.945951 0.366504 0.377311
O O9 0.000000 0.500000 0.500000
O O10 0.549278 0.610430 0.990766
O O11 0.899928 0.157757 0.489898
O O12 0.113775 0.069518 0.979318
O O13 0.862511 0.269877 0.324795
O O14 0.719865 0.181027 0.000685
O O15 0.150244 0.138080 0.355388
O O16 0.500000 0.000000 0.500000
O O17 0.431970 0.892629 0.435192
O O18 0.000000 0.000000 0.000000
#
# Coordination Sequence:
#
# PCOD9108011 Si02
#       8
#     2   2   2   2   2   2   2   2
#     4  10  16  35  62  88 123 165 209 243 307 379
#     4   9  16  34  64  85 111 162 210 246 286 359
#     4  12  23  35  60 101 131 153 203 272 319 354
#     4  10  18  36  65  90 112 168 215 243 300 381
#     4  11  22  36  65  93 119 163 219 250 299 378
#     4  11  23  41  65  86 121 171 203 251 322 373
#     4  10  20  40  61  86 125 168 208 248 305 381
#     4  11  21  39  60  91 123 160 212 256 300 368
#
# _framework density 20.552558999999999
#
# number of rings (size 3 to 8) (size 9 to 14) (size 15 to 20)
#    0.000    1.500   10.000    0.375    1.750    1.500 
#    0.000    1.875    0.000    4.500    0.000    0.000 
#    0.000    0.000    0.000    0.000    0.000    0.000 
#
# Total GULP energy -89236.842001 kJ/mol
# GULP energy per Si atom -5577.302625 kJ/mol
# Density = 2.050578 g / cm^3
# Si number density = 20.552559 Si / 1000 Ang^3
#
#
#
# Elastic Constant Matrix: (Units=GPa)
#
#
# Indices 1 2 3 4 5 6 
#
# 1 98.1980 31.4088 22.0650 6.3454 -3.2542 20.6197
# 2 31.4088 84.3013 3.0587 7.7426 2.6316 31.2866
# 3 22.0650 3.0587 19.1648 10.4821 -4.0750 3.1317
# 4 6.3454 7.7426 10.4821 22.3550 5.4539 -2.1725
# 5 -3.2542 2.6316 -4.0750 5.4539 30.5641 10.8084
# 6 20.6197 31.2866 3.1317 -2.1725 10.8084 46.0621
#
#
#
# Elastic Compliance Matrix: (Units=1/GPa)
#
#
# Indices 1 2 3 4 5 6 
#
# 1 0.016925 -0.005709 -0.023419 0.008495 -0.001899 -0.001260
# 2 -0.005709 0.020229 0.016620 -0.016623 0.008140 -0.015008
# 3 -0.023419 0.016620 0.122360 -0.065958 0.031063 -0.019524
# 4 0.008495 -0.016623 -0.065958 0.088722 -0.030537 0.023322
# 5 -0.001899 0.008140 0.031063 -0.030537 0.048326 -0.019570
# 6 -0.001260 -0.015008 -0.019524 0.023322 -0.019570 0.039487
#
#
# Mechanical properties :
#
#
# Convention : Reuss Voigt Hill
#
# Bulk Modulus (GPa) = 7.43510 34.96989 21.20249
# Shear Modulus (GPa) = 12.31833 29.47170 20.89502
#
# Velocity S-wave (km/s) = 2.45083 3.79088 3.19197
# Velocity P-wave (km/s) = 3.41090 6.01771 4.89117
#
# Compressibility (1/GPa) = 0.13449721
#
# Stress axis : x y z
#
# Youngs Moduli (GPa) = 59.08591 49.43401 8.17258
#
# Poissons Ratio (x) = 0.28224 0.19139
# Poissons Ratio (y) = 0.33735 -0.13583
# Poissons Ratio (z) = 1.38373 -0.82159
#
# Static dielectric constant tensor:
#      x y z
#    x 1.797350 0.030680 0.018010 
#    y 0.030680 1.775030 -0.035080 
#    z 0.018010 -0.035080 1.769630 
# 
# From -- ./inp_files/317851.got.cif
#   From: 2010.05.17/outbox.cif.g08.bks.cpg/sg2_159_cif.got.tgz:317851.got - 2010.06.03 11:33:40.
