data_PCOD9108150
_publ_section_title
;
Structure prediction by ZEFSAII (Michael W. Deem and Ramdas Pophale) SiO2 
 PCOD9108150
Probable space group: P -1
;
_chemical_formula_sum "Si O2"
_cell_formula_units_Z 12
_cell_length_a 8.837950
_cell_length_b 16.053749
_cell_length_c 16.989231
_cell_angle_alpha 162.508183
_cell_angle_beta 51.553143
_cell_angle_gamma 119.772556
_cell_volume 517.582457
_symmetry_space_group_name_H-M "P -1"
_symmetry_group_IT_number 2
_symmetry_cell_setting 'triclinic'
loop_
_space_group_symop_operation_xyz
x,y,z
-x,-y,-z
loop_
_atom_site_type_symbol
_atom_site_label
_atom_site_fract_x
_atom_site_fract_y
_atom_site_fract_z
Si Si1 0.159278 0.801968 0.336154
Si Si2 0.628474 0.209879 0.141276
Si Si3 0.521446 0.445002 0.214735
Si Si4 0.035950 0.794531 0.727242
Si Si5 0.503286 0.043038 0.717493
Si Si6 0.259045 0.133271 0.732961
O O1 0.380341 0.784866 0.214857
O O2 0.141633 0.953324 0.564156
O O3 0.150858 0.481214 0.057204
O O4 0.000000 0.000000 0.500000
O O5 0.500000 0.500000 0.500000
O O6 0.626165 0.317049 0.148950
O O7 0.500000 0.000000 0.000000
O O8 0.863666 0.001357 0.906981
O O9 0.278875 0.671179 0.512997
O O10 0.613500 0.674707 0.353419
O O11 0.505837 0.182851 0.928269
O O12 0.000000 0.500000 0.500000
O O13 0.000000 0.000000 0.000000
O O14 0.291036 0.116089 0.800955
O O15 0.500000 0.000000 0.500000
#
# Coordination Sequence:
#
# PCOD9108150 Si02
#       6
#     2   2   2   2   2   2
#     4  11  22  41  68  94 125 167 214 255 308 392
#     4  12  23  43  69  92 126 171 218 262 316 391
#     4  12  24  41  66  96 134 163 212 279 321 363
#     4  12  23  43  69  93 122 174 223 255 315 399
#     4  11  23  42  63  93 130 163 207 267 326 361
#     4  10  20  40  67  86 119 173 207 240 310 394
#
# _framework density 23.184709999999999
#
# number of rings (size 3 to 8) (size 9 to 14) (size 15 to 20)
#    0.000    0.667    3.333    7.500    0.000    0.000 
#    9.000    0.000    0.000    0.000    0.000    0.000 
#    0.000    0.000    0.000    0.000    0.000    0.000 
#
# Total GULP energy -67095.637784 kJ/mol
# GULP energy per Si atom -5591.303149 kJ/mol
# Density = 2.313194 g / cm^3
# Si number density = 23.184710 Si / 1000 Ang^3
#
#
#
# Elastic Constant Matrix: (Units=GPa)
#
#
# Indices 1 2 3 4 5 6 
#
# 1 97.9307 15.6922 46.3790 -7.7661 -3.8659 -46.1518
# 2 15.6922 74.6777 20.0279 18.2739 -0.6522 -31.8982
# 3 46.3790 20.0279 127.1879 19.8498 29.9130 -25.0333
# 4 -7.7661 18.2739 19.8498 39.2648 -13.2205 1.1689
# 5 -3.8659 -0.6522 29.9130 -13.2205 49.0066 5.3314
# 6 -46.1518 -31.8982 -25.0333 1.1689 5.3314 59.0813
#
#
#
# Elastic Compliance Matrix: (Units=1/GPa)
#
#
# Indices 1 2 3 4 5 6 
#
# 1 0.021709 0.000278 -0.009752 0.011976 0.009608 0.011873
# 2 0.000278 0.022244 0.003295 -0.014850 -0.007285 0.014575
# 3 -0.009752 0.003295 0.018928 -0.019185 -0.017909 0.004177
# 4 0.011976 -0.014850 -0.019185 0.054262 0.028228 -0.010413
# 5 0.009608 -0.007285 -0.017909 0.028228 0.040508 -0.008230
# 6 0.011873 0.014575 0.004177 -0.010413 -0.008230 0.036788
#
#
# Mechanical properties :
#
#
# Convention : Reuss Voigt Hill
#
# Bulk Modulus (GPa) = 19.79216 51.55493 35.67354
# Shear Modulus (GPa) = 22.35764 43.98370 33.17067
#
# Velocity S-wave (km/s) = 3.10873 4.36030 3.78658
# Velocity P-wave (km/s) = 4.63043 6.90177 5.87688
#
# Compressibility (1/GPa) = 0.05052506
#
# Stress axis : x y z
#
# Youngs Moduli (GPa) = 46.06291 44.95502 52.83263
#
# Poissons Ratio (x) = -0.01251 0.51522
# Poissons Ratio (y) = -0.01282 -0.17410
# Poissons Ratio (z) = 0.44921 -0.14814
#
# Static dielectric constant tensor:
#      x y z
#    x 1.934210 -0.010010 0.022620 
#    y -0.010010 1.862490 0.021400 
#    z 0.022620 0.021400 1.849370 
# 
# From -- ./inp_files/32311.got.cif
#   From: 2010.05.17/outbox.cif.g08.bks.cpg/sg2_17_cif.got.tgz:32311.got - 2010.06.03 11:33:40.
