data_PCOD9108127
_publ_section_title
;
Structure prediction by ZEFSAII (Michael W. Deem and Ramdas Pophale) SiO2 
 PCOD9108127
Probable space group: P -1
;
_chemical_formula_sum "Si O2"
_cell_formula_units_Z 14
_cell_length_a 23.291433
_cell_length_b 9.618159
_cell_length_c 8.091642
_cell_angle_alpha 72.451707
_cell_angle_beta 47.465923
_cell_angle_gamma 34.804592
_cell_volume 608.255752
_symmetry_space_group_name_H-M "P -1"
_symmetry_group_IT_number 2
_symmetry_cell_setting 'triclinic'
loop_
_space_group_symop_operation_xyz
x,y,z
-x,-y,-z
loop_
_atom_site_type_symbol
_atom_site_label
_atom_site_fract_x
_atom_site_fract_y
_atom_site_fract_z
Si Si1 0.413193 0.198023 0.765825
Si Si2 0.727503 0.837694 0.390189
Si Si3 0.235675 0.736769 0.539655
Si Si4 0.675968 0.248855 0.316695
Si Si5 0.171055 0.870289 0.266788
Si Si6 0.851305 0.399624 0.099661
Si Si7 0.182677 0.498619 0.350751
O O1 0.232914 0.529103 0.924363
O O2 0.500000 0.000000 0.500000
O O3 0.534818 0.113163 0.643233
O O4 0.349860 0.193506 0.032451
O O5 0.804675 0.641081 0.145086
O O6 0.804421 0.622909 0.469642
O O7 0.756490 0.960638 0.303997
O O8 0.334155 0.642725 0.533347
O O9 0.266802 0.749717 0.293284
O O10 0.237501 0.557434 0.606407
O O11 0.044477 0.074263 0.835861
O O12 0.500000 0.500000 0.500000
O O13 0.764986 0.181156 0.015539
O O14 0.174186 0.688039 0.330971
O O15 0.990829 0.237917 0.496352
#
# Coordination Sequence:
#
# PCOD9108127 Si02
#       7
#     2   2   2   2   2   2   2
#     4  10  21  38  64  97 134 169 220 286 328 386
#     4  11  23  41  66  98 139 179 217 280 341 399
#     4  11  22  42  70  98 135 179 222 282 337 402
#     4  12  28  47  64  98 146 182 215 279 357 408
#     4  11  24  42  73  99 134 179 225 286 332 402
#     4  10  20  40  67 101 128 170 235 277 331 397
#     4  11  21  42  68 105 129 170 241 277 329 400
#
# _framework density 23.016632000000001
#
# number of rings (size 3 to 8) (size 9 to 14) (size 15 to 20)
#    0.000    1.143    2.857    3.857    4.000    2.857 
#    5.143    1.429    0.000    0.000    0.000    0.000 
#    0.000    0.000    0.000    0.000    0.000    0.000 
#
# Total GULP energy -78040.035217 kJ/mol
# GULP energy per Si atom -5574.288230 kJ/mol
# Density = 2.296424 g / cm^3
# Si number density = 23.016632 Si / 1000 Ang^3
#
#
#
# Elastic Constant Matrix: (Units=GPa)
#
#
# Indices 1 2 3 4 5 6 
#
# 1 101.1406 21.1448 7.6864 -17.7636 16.3402 -18.8274
# 2 21.1448 94.3939 12.5620 -24.3330 4.8727 0.1005
# 3 7.6864 12.5620 49.7429 -6.9874 14.7740 -10.1925
# 4 -17.7636 -24.3330 -6.9874 39.9126 -11.4063 1.7467
# 5 16.3402 4.8727 14.7740 -11.4063 27.7795 1.2762
# 6 -18.8274 0.1005 -10.1925 1.7467 1.2762 44.9046
#
#
#
# Elastic Compliance Matrix: (Units=1/GPa)
#
#
# Indices 1 2 3 4 5 6 
#
# 1 0.012998 -0.002242 0.002494 0.002326 -0.007907 0.006155
# 2 -0.002242 0.013383 -0.003644 0.007828 0.004226 -0.002222
# 3 0.002494 -0.003644 0.026753 -0.001320 -0.015948 0.007631
# 4 0.002326 0.007828 -0.001320 0.034108 0.012012 -0.001010
# 5 -0.007907 0.004226 -0.015948 0.012012 0.053732 -0.008939
# 6 0.006155 -0.002222 0.007631 -0.001010 -0.008939 0.026880
#
#
# Mechanical properties :
#
#
# Convention : Reuss Voigt Hill
#
# Bulk Modulus (GPa) = 21.57516 36.45155 29.01336
# Shear Modulus (GPa) = 26.30329 36.11162 31.20746
#
# Velocity S-wave (km/s) = 3.38419 3.96528 3.68620
# Velocity P-wave (km/s) = 4.96633 6.06927 5.54529
#
# Compressibility (1/GPa) = 0.04634959
#
# Stress axis : x y z
#
# Youngs Moduli (GPa) = 76.93434 74.71965 37.37862
#
# Poissons Ratio (x) = 0.16756 -0.09322
# Poissons Ratio (y) = 0.17252 0.13621
# Poissons Ratio (z) = -0.19187 0.27228
#
# Static dielectric constant tensor:
#      x y z
#    x 1.904280 -0.018150 0.079860 
#    y -0.018150 1.994400 0.037860 
#    z 0.079860 0.037860 1.995190 
# 
# From -- ./inp_files/352135.got.cif
#   From: 2010.05.17/outbox.cif.g08.bks.cpg/sg2_177_cif.got.tgz:352135.got - 2010.06.03 11:33:40.
