data_PCOD9108343
_publ_section_title
;
Structure prediction by ZEFSAII (Michael W. Deem and Ramdas Pophale) SiO2 
 PCOD9108343
Probable space group: P -1
;
_chemical_formula_sum "Si O2"
_cell_formula_units_Z 13
_cell_length_a 17.852819
_cell_length_b 9.038167
_cell_length_c 6.142574
_cell_angle_alpha 70.384631
_cell_angle_beta 124.479507
_cell_angle_gamma 142.054891
_cell_volume 490.262510
_symmetry_space_group_name_H-M "P -1"
_symmetry_group_IT_number 2
_symmetry_cell_setting 'triclinic'
loop_
_space_group_symop_operation_xyz
x,y,z
-x,-y,-z
loop_
_atom_site_type_symbol
_atom_site_label
_atom_site_fract_x
_atom_site_fract_y
_atom_site_fract_z
Si Si1 0.532299 0.924723 0.391016
Si Si2 0.741636 0.058506 0.001933
Si Si3 0.500000 0.500000 0.000000
Si Si4 0.670908 0.594307 0.575758
Si Si5 0.888935 0.734116 0.566648
Si Si6 0.095781 0.859775 0.125200
Si Si7 0.793545 0.302186 0.369736
O O1 0.393186 0.632699 0.275393
O O2 0.500000 0.000000 0.500000
O O3 0.623398 0.089935 0.248782
O O4 0.661134 0.005647 0.681905
O O5 0.632136 0.804756 0.075646
O O6 0.794456 0.270378 0.131360
O O7 0.871168 0.137277 0.074065
O O8 0.532388 0.501135 0.307747
O O9 0.740042 0.620824 0.448226
O O10 0.788676 0.859324 0.746018
O O11 0.854996 0.543976 0.446956
O O12 0.000000 0.000000 0.500000
O O13 0.947011 0.749998 0.890595
O O14 0.120010 0.735591 0.371128
#
# Coordination Sequence:
#
# PCOD9108343 Si02
#       7
#     2   2   1   2   2   2   2
#     4  10  22  42  68 105 141 175 228 297 361 412
#     4  10  23  39  68 104 136 183 230 283 355 418
#     4  10  20  40  68 102 140 170 228 286 352 420
#     4  11  23  45  72 105 139 180 236 291 358 415
#     4  12  27  47  70 104 144 191 239 291 348 417
#     4  11  25  46  72 100 143 193 234 288 345 429
#     4  11  24  47  73 102 140 187 238 290 353 418
#
# _framework density 26.516406
#
# number of rings (size 3 to 8) (size 9 to 14) (size 15 to 20)
#    0.000    1.231    3.077    1.846    2.154    4.308 
#    5.538    0.000    0.000    0.000    0.000    0.000 
#    0.000    0.000    0.000    0.000    0.000    0.000 
#
# Total GULP energy -72421.768771 kJ/mol
# GULP energy per Si atom -5570.905290 kJ/mol
# Density = 2.645605 g / cm^3
# Si number density = 26.516406 Si / 1000 Ang^3
#
#
#
# Elastic Constant Matrix: (Units=GPa)
#
#
# Indices 1 2 3 4 5 6 
#
# 1 67.2762 26.8567 -4.7374 15.0012 -23.3984 -16.6399
# 2 26.8567 128.7791 22.2721 23.6875 -5.9231 -15.1175
# 3 -4.7374 22.2721 82.4820 16.5855 -8.4048 -18.8146
# 4 15.0012 23.6875 16.5855 36.1947 -16.3606 -10.5632
# 5 -23.3984 -5.9231 -8.4048 -16.3606 34.3879 7.9542
# 6 -16.6399 -15.1175 -18.8146 -10.5632 7.9542 42.0614
#
#
#
# Elastic Compliance Matrix: (Units=1/GPa)
#
#
# Indices 1 2 3 4 5 6 
#
# 1 0.024404 -0.004362 0.006070 -0.000970 0.015094 0.007704
# 2 -0.004362 0.009919 -0.002188 -0.005651 -0.004553 0.000303
# 3 0.006070 -0.002188 0.015955 -0.004653 0.003854 0.006855
# 4 -0.000970 -0.005651 -0.004653 0.042250 0.016644 0.002967
# 5 0.015094 -0.004553 0.003854 0.016644 0.047120 0.001328
# 6 0.007704 0.000303 0.006855 0.002967 0.001328 0.030491
#
#
# Mechanical properties :
#
#
# Convention : Reuss Voigt Hill
#
# Bulk Modulus (GPa) = 20.27628 40.81335 30.54482
# Shear Modulus (GPa) = 26.66120 38.13851 32.39985
#
# Velocity S-wave (km/s) = 3.17434 3.79661 3.49933
# Velocity P-wave (km/s) = 4.59331 5.88592 5.27933
#
# Compressibility (1/GPa) = 0.04931871
#
# Stress axis : x y z
#
# Youngs Moduli (GPa) = 40.97623 100.81879 62.67607
#
# Poissons Ratio (x) = 0.43980 -0.38045
# Poissons Ratio (y) = 0.17875 0.13711
# Poissons Ratio (z) = -0.24873 0.22054
#
# Static dielectric constant tensor:
#      x y z
#    x 2.557590 0.090530 0.208370 
#    y 0.090530 2.273550 -0.109370 
#    z 0.208370 -0.109370 2.119630 
# 
# From -- ./inp_files/47104.got.cif
#   From: 2010.05.17/outbox.cif.g08.bks.cpg/sg2_24_cif.got.tgz:47104.got - 2010.06.03 11:33:40.
