data_PCOD9108538
_publ_section_title
;
Structure prediction by ZEFSAII (Michael W. Deem and Ramdas Pophale) SiO2 
 PCOD9108538
Probable space group: P -1
;
_chemical_formula_sum "Si O2"
_cell_formula_units_Z 15
_cell_length_a 8.054229
_cell_length_b 14.178441
_cell_length_c 7.746056
_cell_angle_alpha 117.410685
_cell_angle_beta 119.421242
_cell_angle_gamma 98.302033
_cell_volume 600.340065
_symmetry_space_group_name_H-M "P -1"
_symmetry_group_IT_number 2
_symmetry_cell_setting 'triclinic'
loop_
_space_group_symop_operation_xyz
x,y,z
-x,-y,-z
loop_
_atom_site_type_symbol
_atom_site_label
_atom_site_fract_x
_atom_site_fract_y
_atom_site_fract_z
Si Si1 0.782440 0.976170 0.771512
Si Si2 0.500000 0.500000 0.000000
Si Si3 0.609733 0.653433 0.827519
Si Si4 0.380218 0.235672 0.745010
Si Si5 0.766206 0.201887 0.053069
Si Si6 0.010089 0.427512 0.781370
Si Si7 0.400082 0.800842 0.671863
Si Si8 0.181293 0.440036 0.427721
O O1 0.755345 0.891487 0.524335
O O2 0.569532 0.898799 0.714056
O O3 0.792264 0.105473 0.867353
O O4 0.000000 0.000000 0.000000
O O5 0.751196 0.549858 0.104913
O O6 0.278682 0.247175 0.885055
O O7 0.501516 0.712261 0.698342
O O8 0.406084 0.536255 0.722078
O O9 0.733975 0.602211 0.732682
O O10 0.613367 0.245708 0.917859
O O11 0.430176 0.356195 0.771251
O O12 0.647320 0.150784 0.132383
O O13 0.000267 0.315470 0.308951
O O14 0.834229 0.288086 0.599968
O O15 0.933490 0.483192 0.631243
O O16 0.000000 0.500000 0.000000
#
# Coordination Sequence:
#
# PCOD9108538 Si02
#       8
#     2   1   2   2   2   2   2   2
#     4  12  27  48  72 101 142 192 249 302 357 429
#     4  12  24  40  72 106 146 172 240 294 368 432
#     4   9  21  41  71 101 145 175 241 295 365 446
#     4  11  25  44  69 105 136 186 237 296 362 426
#     4  11  24  46  71  95 147 192 239 286 359 444
#     4  11  23  40  66 106 149 182 229 306 362 432
#     4  10  24  43  68 102 138 190 242 298 364 420
#     4  10  20  40  69 105 138 190 225 292 372 425
#
# _framework density 24.985838999999999
#
# number of rings (size 3 to 8) (size 9 to 14) (size 15 to 20)
#    0.000    1.333    1.333    3.200    3.733    3.733 
#    0.000    6.000    0.000    0.000    0.000    0.000 
#    0.000    0.000    0.000    0.000    0.000    0.000 
#
# Total GULP energy -83859.061250 kJ/mol
# GULP energy per Si atom -5590.604083 kJ/mol
# Density = 2.492897 g / cm^3
# Si number density = 24.985839 Si / 1000 Ang^3
#
#
#
# Elastic Constant Matrix: (Units=GPa)
#
#
# Indices 1 2 3 4 5 6 
#
# 1 154.6800 23.6017 76.6429 7.3930 -5.0260 -15.7056
# 2 23.6017 47.5003 13.2118 17.6797 -5.8952 -17.4880
# 3 76.6429 13.2118 166.6730 19.7147 -18.3128 -12.9933
# 4 7.3930 17.6797 19.7147 32.0038 -8.5158 -2.7998
# 5 -5.0260 -5.8952 -18.3128 -8.5158 57.5310 7.0725
# 6 -15.7056 -17.4880 -12.9933 -2.7998 7.0725 52.4792
#
#
#
# Elastic Compliance Matrix: (Units=1/GPa)
#
#
# Indices 1 2 3 4 5 6 
#
# 1 0.009094 -0.004257 -0.004196 0.002709 -0.000637 0.000494
# 2 -0.004257 0.032432 0.002159 -0.017483 -0.000073 0.009145
# 3 -0.004196 0.002159 0.008623 -0.004979 0.001727 0.001100
# 4 0.002709 -0.017483 -0.004979 0.044001 0.003918 -0.004428
# 5 -0.000637 -0.000073 0.001727 0.003918 0.018707 -0.002100
# 6 0.000494 0.009145 0.001100 -0.004428 -0.002100 0.022570
#
#
# Mechanical properties :
#
#
# Convention : Reuss Voigt Hill
#
# Bulk Modulus (GPa) = 26.62317 66.19625 46.40971
# Shear Modulus (GPa) = 31.14630 45.42924 38.28777
#
# Velocity S-wave (km/s) = 3.53449 4.26866 3.91881
# Velocity P-wave (km/s) = 5.22832 7.13066 6.25226
#
# Compressibility (1/GPa) = 0.03756127
#
# Stress axis : x y z
#
# Youngs Moduli (GPa) = 109.96693 30.83376 115.97334
#
# Poissons Ratio (x) = 0.13125 0.48664
# Poissons Ratio (y) = 0.46811 -0.25043
# Poissons Ratio (z) = 0.46144 -0.06658
#
# Static dielectric constant tensor:
#      x y z
#    x 1.931030 0.055550 -0.016400 
#    y 0.055550 1.785040 0.039710 
#    z -0.016400 0.039710 1.943760 
# 
# From -- ./inp_files/208830.got.cif
#   From: 2010.05.17/outbox.cif.g08.bks.cpg/sg2_105_cif.got.tgz:208830.got - 2010.06.03 11:33:40.
