data_PCOD9108686
_publ_section_title
;
Structure prediction by ZEFSAII (Michael W. Deem and Ramdas Pophale) SiO2 
 PCOD9108686
Probable space group: P -1
;
_chemical_formula_sum "Si O2"
_cell_formula_units_Z 16
_cell_length_a 9.544593
_cell_length_b 10.176774
_cell_length_c 11.981043
_cell_angle_alpha 58.474682
_cell_angle_beta 137.672077
_cell_angle_gamma 100.713671
_cell_volume 625.835312
_symmetry_space_group_name_H-M "P -1"
_symmetry_group_IT_number 2
_symmetry_cell_setting 'triclinic'
loop_
_space_group_symop_operation_xyz
x,y,z
-x,-y,-z
loop_
_atom_site_type_symbol
_atom_site_label
_atom_site_fract_x
_atom_site_fract_y
_atom_site_fract_z
Si Si1 0.764377 0.416807 0.983486
Si Si2 0.792681 0.858650 0.709763
Si Si3 0.877422 0.437910 0.551099
Si Si4 0.771042 0.732246 0.981849
Si Si5 0.659182 0.111268 0.067392
Si Si6 0.461923 0.685560 0.553040
Si Si7 0.496946 0.745236 0.307188
Si Si8 0.294635 0.985728 0.629809
O O1 0.766788 0.562945 0.000180
O O2 0.622562 0.305161 0.990699
O O3 0.010461 0.297540 0.155416
O O4 0.661061 0.513147 0.766820
O O5 0.559561 0.825837 0.578475
O O6 0.794637 0.993756 0.559133
O O7 0.829230 0.844673 0.870855
O O8 0.731310 0.329301 0.476035
O O9 0.692818 0.593847 0.432727
O O10 0.000000 0.500000 0.500000
O O11 0.058595 0.323874 0.792454
O O12 0.526005 0.833991 0.834528
O O13 0.804203 0.027437 0.299185
O O14 0.690307 0.146106 0.938430
O O15 0.500000 0.000000 0.000000
O O16 0.394972 0.700190 0.378454
O O17 0.635549 0.855252 0.383569
#
# Coordination Sequence:
#
# PCOD9108686 Si02
#       8
#     2   2   2   2   2   2   2   2
#     4  11  22  41  72 100 128 174 233 280 333 397
#     4  10  22  43  68 100 130 179 231 273 336 404
#     4  12  24  40  67 107 138 173 228 286 339 401
#     4  11  23  39  68  98 136 166 228 279 330 400
#     4  10  22  39  66  96 135 173 220 271 345 390
#     4  10  21  40  72 101 133 174 227 284 333 394
#     4  10  20  40  70  92 134 178 224 271 336 396
#     4  10  22  42  64  89 142 181 215 273 339 402
#
# _framework density 25.565829999999998
#
# number of rings (size 3 to 8) (size 9 to 14) (size 15 to 20)
#    0.000    1.500    1.250    5.250    1.750    1.000 
#    2.250    2.500   22.000    0.000    0.000    0.000 
#    0.000    0.000    0.000    0.000    0.000    0.000 
#
# Total GULP energy -89112.158230 kJ/mol
# GULP energy per Si atom -5569.509889 kJ/mol
# Density = 2.550764 g / cm^3
# Si number density = 25.565830 Si / 1000 Ang^3
#
#
#
# Elastic Constant Matrix: (Units=GPa)
#
#
# Indices 1 2 3 4 5 6 
#
# 1 159.8467 26.6736 61.2620 -10.6334 -17.2642 26.8916
# 2 26.6736 85.2068 1.5470 -13.6976 6.5172 12.3349
# 3 61.2620 1.5470 152.8872 3.4514 -51.3283 11.7562
# 4 -10.6334 -13.6976 3.4514 14.7948 3.5619 -5.3370
# 5 -17.2642 6.5172 -51.3283 3.5619 50.4819 -14.5220
# 6 26.8916 12.3349 11.7562 -5.3370 -14.5220 34.6044
#
#
#
# Elastic Compliance Matrix: (Units=1/GPa)
#
#
# Indices 1 2 3 4 5 6 
#
# 1 0.009070 -0.000762 -0.004440 0.005561 -0.003384 -0.005831
# 2 -0.000762 0.015516 -0.002070 0.014167 -0.006776 -0.004894
# 3 -0.004440 -0.002070 0.012844 -0.009942 0.013669 0.004027
# 4 0.005561 0.014167 -0.009942 0.091384 -0.016097 0.001345
# 5 -0.003384 -0.006776 0.013669 -0.016097 0.038624 0.014128
# 6 -0.005831 -0.004894 0.004027 0.001345 0.014128 0.039942
#
#
# Mechanical properties :
#
#
# Convention : Reuss Voigt Hill
#
# Bulk Modulus (GPa) = 43.69227 64.10066 53.89646
# Shear Modulus (GPa) = 21.78135 40.54010 31.16072
#
# Velocity S-wave (km/s) = 2.92202 3.98642 3.49498
# Velocity P-wave (km/s) = 5.33961 6.80558 6.11668
#
# Compressibility (1/GPa) = 0.02288734
#
# Stress axis : x y z
#
# Youngs Moduli (GPa) = 110.25163 64.44770 77.85435
#
# Poissons Ratio (x) = 0.04910 0.34567
# Poissons Ratio (y) = 0.08400 0.16116
# Poissons Ratio (z) = 0.48951 0.13341
#
# Static dielectric constant tensor:
#      x y z
#    x 2.075690 0.002210 0.004120 
#    y 0.002210 2.113140 0.053140 
#    z 0.004120 0.053140 2.084040 
# 
# From -- ./inp_files/389574.got.cif
#   From: 2010.05.17/outbox.cif.g08.bks.cpg/sg2_195_cif.got.tgz:389574.got - 2010.06.03 11:33:40.
