data_PCOD9108356
_publ_section_title
;
Structure prediction by ZEFSAII (Michael W. Deem and Ramdas Pophale) SiO2 
 PCOD9108356
Probable space group: P -1
;
_chemical_formula_sum "Si O2"
_cell_formula_units_Z 12
_cell_length_a 11.542171
_cell_length_b 7.889625
_cell_length_c 7.431771
_cell_angle_alpha 128.259162
_cell_angle_beta 69.151716
_cell_angle_gamma 97.347206
_cell_volume 492.651764
_symmetry_space_group_name_H-M "P -1"
_symmetry_group_IT_number 2
_symmetry_cell_setting 'triclinic'
loop_
_space_group_symop_operation_xyz
x,y,z
-x,-y,-z
loop_
_atom_site_type_symbol
_atom_site_label
_atom_site_fract_x
_atom_site_fract_y
_atom_site_fract_z
Si Si1 0.340486 0.498285 0.122083
Si Si2 0.944626 0.382864 0.623050
Si Si3 0.807847 0.692099 0.388239
Si Si4 0.694160 0.921981 0.954419
Si Si5 0.603433 0.399375 0.236153
Si Si6 0.221530 0.932092 0.625980
O O1 0.190476 0.497308 0.164848
O O2 0.326650 0.724103 0.391575
O O3 0.376332 0.271842 0.055249
O O4 0.409513 0.519498 0.909807
O O5 0.906550 0.153767 0.422613
O O6 0.000000 0.500000 0.500000
O O7 0.043945 0.364608 0.715212
O O8 0.733223 0.485060 0.282075
O O9 0.759890 0.865827 0.377199
O O10 0.773727 0.813687 0.675513
O O11 0.614529 0.140285 0.072013
O O12 0.773385 0.001603 0.127705
O O13 0.500000 0.500000 0.500000
#
# Coordination Sequence:
#
# PCOD9108356 Si02
#       6
#     2   2   2   2   2   2
#     4  10  23  45  66 107 138 176 231 278 349 415
#     4  10  20  40  68 107 143 177 224 278 348 428
#     4  12  23  45  69 106 143 182 232 280 349 417
#     4  12  22  46  73  97 144 181 222 294 341 415
#     4  12  28  48  72  99 136 189 242 290 341 402
#     4  10  23  42  68 106 143 176 228 276 349 422
#
# _framework density 24.357975
#
# number of rings (size 3 to 8) (size 9 to 14) (size 15 to 20)
#    1.000    0.000    5.000    2.500    0.000    2.667 
#    3.000    1.667    0.000    0.000    0.000    0.000 
#    0.000    0.000    0.000    0.000    0.000    0.000 
#
# Total GULP energy -67159.654151 kJ/mol
# GULP energy per Si atom -5596.637846 kJ/mol
# Density = 2.430254 g / cm^3
# Si number density = 24.357975 Si / 1000 Ang^3
#
#
#
# Elastic Constant Matrix: (Units=GPa)
#
#
# Indices 1 2 3 4 5 6 
#
# 1 84.2562 33.6177 13.3700 8.2750 5.3370 3.4113
# 2 33.6177 183.0261 53.4026 12.9853 -8.9578 -15.4914
# 3 13.3700 53.4026 121.2875 -5.4376 20.4051 -4.9369
# 4 8.2750 12.9853 -5.4376 46.5323 -3.7399 0.5607
# 5 5.3370 -8.9578 20.4051 -3.7399 36.5872 -4.4619
# 6 3.4113 -15.4914 -4.9369 0.5607 -4.4619 47.7923
#
#
#
# Elastic Compliance Matrix: (Units=1/GPa)
#
#
# Indices 1 2 3 4 5 6 
#
# 1 0.013386 -0.002668 0.000049 -0.001852 -0.003076 -0.002081
# 2 -0.002668 0.007640 -0.003801 -0.001770 0.004530 0.002718
# 3 0.000049 -0.003801 0.011151 0.001796 -0.007066 -0.000764
# 4 -0.001852 -0.001770 0.001796 0.022617 0.001096 -0.000419
# 5 -0.003076 0.004530 -0.007066 0.001096 0.033439 0.004067
# 6 -0.002081 0.002718 -0.000764 -0.000419 0.004067 0.022259
#
#
# Mechanical properties :
#
#
# Convention : Reuss Voigt Hill
#
# Bulk Modulus (GPa) = 51.71203 65.48338 58.59770
# Shear Modulus (GPa) = 38.52724 45.39432 41.96078
#
# Velocity S-wave (km/s) = 3.98139 4.32166 4.15501
# Velocity P-wave (km/s) = 6.51240 7.20031 6.86498
#
# Compressibility (1/GPa) = 0.01933786
#
# Stress axis : x y z
#
# Youngs Moduli (GPa) = 74.70215 130.88820 89.67710
#
# Poissons Ratio (x) = 0.34926 -0.00440
# Poissons Ratio (y) = 0.19933 0.34083
# Poissons Ratio (z) = -0.00367 0.49746
#
# Static dielectric constant tensor:
#      x y z
#    x 2.055690 -0.012450 -0.013530 
#    y -0.012450 1.905100 0.013590 
#    z -0.013530 0.013590 1.915720 
# 
# From -- ./inp_files/236097.got.cif
#   From: 2010.05.17/outbox.cif.g08.bks.cpg/sg2_119_cif.got.tgz:236097.got - 2010.06.03 11:33:40.
