data_PCOD9108794
_publ_section_title
;
Structure prediction by ZEFSAII (Michael W. Deem and Ramdas Pophale) SiO2 
 PCOD9108794
Probable space group: P -1
;
_chemical_formula_sum "Si O2"
_cell_formula_units_Z 16
_cell_length_a 21.953010
_cell_length_b 8.944606
_cell_length_c 12.664347
_cell_angle_alpha 142.668616
_cell_angle_beta 26.265692
_cell_angle_gamma 136.957503
_cell_volume 665.891785
_symmetry_space_group_name_H-M "P -1"
_symmetry_group_IT_number 2
_symmetry_cell_setting 'triclinic'
loop_
_space_group_symop_operation_xyz
x,y,z
-x,-y,-z
loop_
_atom_site_type_symbol
_atom_site_label
_atom_site_fract_x
_atom_site_fract_y
_atom_site_fract_z
Si Si1 0.937083 0.221680 0.464498
Si Si2 0.190923 0.498101 0.538303
Si Si3 0.082719 0.757789 0.252055
Si Si4 0.288676 0.714736 0.302550
Si Si5 0.760325 0.803637 0.027642
Si Si6 0.295222 0.711160 0.709708
Si Si7 0.530956 0.694449 0.467909
Si Si8 0.449916 0.225998 0.971439
O O1 0.816811 0.143092 0.525224
O O2 0.000000 0.500000 0.500000
O O3 0.880087 0.234649 0.678466
O O4 0.080179 0.088906 0.159320
O O5 0.036702 0.449251 0.709659
O O6 0.250798 0.710270 0.483245
O O7 0.211055 0.567876 0.667759
O O8 0.287046 0.263050 0.249248
O O9 0.000000 0.000000 0.500000
O O10 0.205046 0.729845 0.965326
O O11 0.450848 0.788542 0.088393
O O12 0.258145 0.431793 0.152874
O O13 0.690413 0.718981 0.198654
O O14 0.675389 0.018203 0.232935
O O15 0.437796 0.604460 0.462083
O O16 0.500000 0.500000 0.500000
O O17 0.481282 0.968614 0.723149
O O18 0.500000 0.500000 0.000000
#
# Coordination Sequence:
#
# PCOD9108794 Si02
#       8
#     2   2   2   2   2   2   2   2
#     4  10  21  39  71  99 132 183 228 291 355 413
#     4  11  22  42  67 101 133 181 238 288 345 423
#     4  12  22  43  68 101 136 181 240 290 350 418
#     4  10  20  40  72 100 131 181 238 287 344 422
#     4  11  21  44  69  98 133 191 241 277 355 428
#     4  12  25  43  70 100 138 191 236 292 348 435
#     4  12  28  45  68 109 148 182 234 307 358 412
#     4  10  21  44  73 100 136 190 238 284 345 432
#
# _framework density 24.027927999999999
#
# number of rings (size 3 to 8) (size 9 to 14) (size 15 to 20)
#    0.000    1.000    3.750    5.250    3.500    0.000 
#    2.250    3.750    0.000    0.000    0.000    0.000 
#    0.000    0.000    0.000    0.000    0.000    0.000 
#
# Total GULP energy -89332.527928 kJ/mol
# GULP energy per Si atom -5583.282996 kJ/mol
# Density = 2.397324 g / cm^3
# Si number density = 24.027928 Si / 1000 Ang^3
#
#
#
# Elastic Constant Matrix: (Units=GPa)
#
#
# Indices 1 2 3 4 5 6 
#
# 1 164.1449 17.1751 44.0819 -22.2842 -12.3139 -2.4058
# 2 17.1751 56.9119 22.3213 -11.2212 10.4949 -10.4061
# 3 44.0819 22.3213 99.7243 -18.6562 11.2227 -3.9717
# 4 -22.2842 -11.2212 -18.6562 31.7633 -4.2474 -3.9066
# 5 -12.3139 10.4949 11.2227 -4.2474 39.4166 -13.9454
# 6 -2.4058 -10.4061 -3.9717 -3.9066 -13.9454 39.4587
#
#
#
# Elastic Compliance Matrix: (Units=1/GPa)
#
#
# Indices 1 2 3 4 5 6 
#
# 1 0.007968 -0.000870 -0.002950 0.004446 0.004779 0.002088
# 2 -0.000870 0.021459 -0.002875 0.005496 -0.002859 0.004851
# 3 -0.002950 -0.002875 0.013127 0.004078 -0.003630 -0.000496
# 4 0.004446 0.005496 0.004078 0.040779 0.006104 0.008326
# 5 0.004779 -0.002859 -0.003630 0.006104 0.033414 0.011586
# 6 0.002088 0.004851 -0.000496 0.008326 0.011586 0.031618
#
#
# Mechanical properties :
#
#
# Convention : Reuss Voigt Hill
#
# Bulk Modulus (GPa) = 34.29116 54.21530 44.25323
# Shear Modulus (GPa) = 29.15806 37.94124 33.54965
#
# Velocity S-wave (km/s) = 3.48732 3.97803 3.74073
# Velocity P-wave (km/s) = 5.52427 6.61151 6.09220
#
# Compressibility (1/GPa) = 0.02916203
#
# Stress axis : x y z
#
# Youngs Moduli (GPa) = 125.49756 46.60029 76.17840
#
# Poissons Ratio (x) = 0.04056 0.22476
# Poissons Ratio (y) = 0.10923 0.21905
# Poissons Ratio (z) = 0.37027 0.13400
#
# Static dielectric constant tensor:
#      x y z
#    x 1.994770 0.061440 -0.095200 
#    y 0.061440 1.998390 -0.067030 
#    z -0.095200 -0.067030 2.176690 
# 
# From -- ./inp_files/470184.got.cif
#   From: 2010.05.17/outbox.cif.g08.bks.cpg/sg2_236_cif.got.tgz:470184.got - 2010.06.03 11:33:40.
