data_PCOD9108975
_publ_section_title
;
Structure prediction by ZEFSAII (Michael W. Deem and Ramdas Pophale) SiO2 
 PCOD9108975
Probable space group: P -1
;
_chemical_formula_sum "Si O2"
_cell_formula_units_Z 16
_cell_length_a 7.262859
_cell_length_b 8.680558
_cell_length_c 14.445200
_cell_angle_alpha 108.746216
_cell_angle_beta 89.972631
_cell_angle_gamma 54.571531
_cell_volume 681.816734
_symmetry_space_group_name_H-M "P -1"
_symmetry_group_IT_number 2
_symmetry_cell_setting 'triclinic'
loop_
_space_group_symop_operation_xyz
x,y,z
-x,-y,-z
loop_
_atom_site_type_symbol
_atom_site_label
_atom_site_fract_x
_atom_site_fract_y
_atom_site_fract_z
Si Si1 0.897790 0.983161 0.848501
Si Si2 0.722319 0.266783 0.467976
Si Si3 0.121676 0.213391 0.362842
Si Si4 0.983859 0.468475 0.698394
Si Si5 0.120061 0.103532 0.738853
Si Si6 0.978123 0.680700 0.920162
Si Si7 0.518705 0.149823 0.592623
Si Si8 0.650399 0.768815 0.101601
O O1 0.621467 0.116248 0.887190
O O2 0.967605 0.113601 0.825464
O O3 0.976811 0.817001 0.734904
O O4 0.013825 0.842441 0.912231
O O5 0.500000 0.500000 0.500000
O O6 0.675149 0.197839 0.549952
O O7 0.944587 0.264489 0.454858
O O8 0.753450 0.106994 0.359996
O O9 0.150420 0.382800 0.361377
O O10 0.346811 0.989118 0.345817
O O11 0.976809 0.285844 0.697756
O O12 0.257724 0.349399 0.651326
O O13 0.911550 0.605085 0.817072
O O14 0.288885 0.136529 0.798571
O O15 0.208329 0.473004 0.921849
O O16 0.771067 0.776884 0.011865
O O17 0.500000 0.000000 0.500000
#
# Coordination Sequence:
#
# PCOD9108975 Si02
#       8
#     2   2   2   2   2   2   2   2
#     4  10  21  39  63  89 126 160 204 253 305 364
#     4  11  22  41  61  91 123 160 208 256 301 364
#     4  10  22  39  62  87 120 162 201 253 310 356
#     4  10  20  41  61  87 128 156 205 251 304 363
#     4  10  22  40  64  94 125 160 212 255 297 374
#     4   9  20  38  64  93 123 162 203 253 305 370
#     4  12  23  39  63  88 121 162 207 250 306 367
#     4  10  20  41  66  88 126 164 199 254 316 354
#
# _framework density 23.466716000000002
#
# number of rings (size 3 to 8) (size 9 to 14) (size 15 to 20)
#    0.000    1.750    2.500    2.250    0.000    1.000 
#    0.000   10.625    2.750    0.000    0.000    0.000 
#    0.000    0.000    0.000    0.000    0.000    0.000 
#
# Total GULP energy -89339.925008 kJ/mol
# GULP energy per Si atom -5583.745313 kJ/mol
# Density = 2.341330 g / cm^3
# Si number density = 23.466716 Si / 1000 Ang^3
#
#
#
# Elastic Constant Matrix: (Units=GPa)
#
#
# Indices 1 2 3 4 5 6 
#
# 1 46.3395 29.3600 33.5133 -3.6760 -23.3999 20.4403
# 2 29.3600 168.7147 43.3504 -27.1284 -26.1791 28.1495
# 3 33.5133 43.3504 104.3665 -3.7473 -22.9533 25.7899
# 4 -3.6760 -27.1284 -3.7473 45.0190 16.7286 -10.5982
# 5 -23.3999 -26.1791 -22.9533 16.7286 41.9484 -6.4686
# 6 20.4403 28.1495 25.7899 -10.5982 -6.4686 25.0133
#
#
#
# Elastic Compliance Matrix: (Units=1/GPa)
#
#
# Indices 1 2 3 4 5 6 
#
# 1 0.055845 -0.000193 -0.000859 -0.017391 0.030718 -0.043957
# 2 -0.000193 0.008024 -0.001177 0.002428 0.002359 -0.006019
# 3 -0.000859 -0.001177 0.015208 -0.005486 0.007115 -0.014138
# 4 -0.017391 0.002428 -0.005486 0.036094 -0.021436 0.026885
# 5 0.030718 0.002359 0.007115 -0.021436 0.050073 -0.031226
# 6 -0.043957 -0.006019 -0.014138 0.026885 -0.031226 0.100565
#
#
# Mechanical properties :
#
#
# Convention : Reuss Voigt Hill
#
# Bulk Modulus (GPa) = 13.40164 59.09648 36.24906
# Shear Modulus (GPa) = 16.94113 36.60929 26.77521
#
# Velocity S-wave (km/s) = 2.68978 3.95403 3.38151
# Velocity P-wave (km/s) = 3.92044 6.78849 5.54317
#
# Compressibility (1/GPa) = 0.07461772
#
# Stress axis : x y z
#
# Youngs Moduli (GPa) = 17.90684 124.62445 65.75586
#
# Poissons Ratio (x) = 0.02410 0.05646
# Poissons Ratio (y) = 0.00346 0.07742
# Poissons Ratio (z) = 0.01537 0.14673
#
# Static dielectric constant tensor:
#      x y z
#    x 1.898050 0.109550 -0.002370 
#    y 0.109550 1.896210 -0.001950 
#    z -0.002370 -0.001950 1.874680 
# 
# From -- ./inp_files/493168.got.cif
#   From: 2010.05.17/outbox.cif.g08.bks.cpg/sg2_247_cif.got.tgz:493168.got - 2010.06.03 11:33:40.
