data_PCOD9108782
_publ_section_title
;
Structure prediction by ZEFSAII (Michael W. Deem and Ramdas Pophale) SiO2 
 PCOD9108782
Probable space group: P -1
;
_chemical_formula_sum "Si O2"
_cell_formula_units_Z 14
_cell_length_a 12.124805
_cell_length_b 20.070055
_cell_length_c 13.754416
_cell_angle_alpha 23.103201
_cell_angle_beta 34.608152
_cell_angle_gamma 22.399941
_cell_volume 492.040849
_symmetry_space_group_name_H-M "P -1"
_symmetry_group_IT_number 2
_symmetry_cell_setting 'triclinic'
loop_
_space_group_symop_operation_xyz
x,y,z
-x,-y,-z
loop_
_atom_site_type_symbol
_atom_site_label
_atom_site_fract_x
_atom_site_fract_y
_atom_site_fract_z
Si Si1 0.686980 0.030165 0.960030
Si Si2 0.096181 0.400408 0.384276
Si Si3 0.847322 0.409246 0.308225
Si Si4 0.219828 0.479967 0.000788
Si Si5 0.862657 0.981817 0.211137
Si Si6 0.550975 0.181179 0.644483
Si Si7 0.354129 0.499753 0.196221
O O1 0.452021 0.297767 0.832361
O O2 0.727259 0.064531 0.773097
O O3 0.521339 0.957390 0.161731
O O4 0.023100 0.785096 0.083163
O O5 0.241252 0.133789 0.599500
O O6 0.260853 0.377881 0.382607
O O7 0.772869 0.552597 0.440497
O O8 0.062090 0.566552 0.102707
O O9 0.825778 0.376456 0.254421
O O10 0.931605 0.205075 0.596496
O O11 0.112574 0.369205 0.182691
O O12 0.555868 0.269752 0.073729
O O13 0.000000 0.000000 0.000000
O O14 0.601976 0.284605 0.384507
O O15 0.500000 0.500000 0.000000
#
# Coordination Sequence:
#
# PCOD9108782 Si02
#       7
#     2   2   2   2   2   2   2
#     4  10  20  40  71  97 130 178 221 277 333 397
#     4  10  20  44  68  95 133 177 221 275 324 397
#     4  10  21  41  69  98 132 179 227 270 335 392
#     4  10  22  40  67  95 136 176 226 270 329 393
#     4  11  24  42  66  96 138 178 223 270 329 395
#     4  10  21  40  70  99 127 174 226 271 343 397
#     4  11  26  43  68 104 135 173 223 270 347 407
#
# _framework density 28.452922000000001
#
# number of rings (size 3 to 8) (size 9 to 14) (size 15 to 20)
#    0.000    1.714    2.857    3.429    4.000    2.286 
#    0.000    1.429    0.000    0.000    0.000    0.000 
#    0.000    0.000    0.000    0.000    0.000    0.000 
#
# Total GULP energy -78354.536931 kJ/mol
# GULP energy per Si atom -5596.752638 kJ/mol
# Density = 2.838816 g / cm^3
# Si number density = 28.452922 Si / 1000 Ang^3
#
#
#
# Elastic Constant Matrix: (Units=GPa)
#
#
# Indices 1 2 3 4 5 6 
#
# 1 112.1926 7.0026 54.8610 -6.6460 44.2490 -14.4449
# 2 7.0026 106.0535 53.4489 3.8604 21.6789 -17.8368
# 3 54.8610 53.4489 201.5215 17.8630 44.4138 15.4231
# 4 -6.6460 3.8604 17.8630 40.1337 5.6352 7.7387
# 5 44.2490 21.6789 44.4138 5.6352 67.1671 7.0345
# 6 -14.4449 -17.8368 15.4231 7.7387 7.0345 41.8973
#
#
#
# Elastic Compliance Matrix: (Units=1/GPa)
#
#
# Indices 1 2 3 4 5 6 
#
# 1 0.016972 0.005268 -0.004727 0.003862 -0.011232 0.011007
# 2 0.005268 0.014545 -0.004793 0.000401 -0.006154 0.010732
# 3 -0.004727 -0.004793 0.008218 -0.002800 0.000110 -0.006197
# 4 0.003862 0.000401 -0.002800 0.027573 -0.002919 -0.002070
# 5 -0.011232 -0.006154 0.000110 -0.002919 0.025523 -0.010279
# 6 0.011007 0.010732 -0.006197 -0.002070 -0.010279 0.036621
#
#
# Mechanical properties :
#
#
# Convention : Reuss Voigt Hill
#
# Bulk Modulus (GPa) = 32.01752 72.26582 52.14167
# Shear Modulus (GPa) = 33.70078 50.13663 41.91871
#
# Velocity S-wave (km/s) = 3.44530 4.20228 3.84248
# Velocity P-wave (km/s) = 5.20616 6.99993 6.16859
#
# Compressibility (1/GPa) = 0.03123290
#
# Stress axis : x y z
#
# Youngs Moduli (GPa) = 58.92127 68.75220 121.68004
#
# Poissons Ratio (x) = -0.36220 0.57515
# Poissons Ratio (y) = -0.31041 0.58316
# Poissons Ratio (z) = 0.27851 0.32950
#
# Static dielectric constant tensor:
#      x y z
#    x 2.257130 0.025270 -0.034650 
#    y 0.025270 2.189160 -0.016680 
#    z -0.034650 -0.016680 2.274410 
# 
# From -- ./inp_files/535361.got.cif
#   From: 2010.05.17/outbox.cif.g08.bks.cpg/sg2_268_cif.got.tgz:535361.got - 2010.06.03 11:33:40.
