data_PCOD9108834
_publ_section_title
;
Structure prediction by ZEFSAII (Michael W. Deem and Ramdas Pophale) SiO2 
 PCOD9108834
Probable space group: P -1
;
_chemical_formula_sum "Si O2"
_cell_formula_units_Z 16
_cell_length_a 10.061195
_cell_length_b 10.346493
_cell_length_c 9.377378
_cell_angle_alpha 106.051625
_cell_angle_beta 125.714107
_cell_angle_gamma 59.811384
_cell_volume 684.892119
_symmetry_space_group_name_H-M "P -1"
_symmetry_group_IT_number 2
_symmetry_cell_setting 'triclinic'
loop_
_space_group_symop_operation_xyz
x,y,z
-x,-y,-z
loop_
_atom_site_type_symbol
_atom_site_label
_atom_site_fract_x
_atom_site_fract_y
_atom_site_fract_z
Si Si1 0.325989 0.080026 0.015610
Si Si2 0.074275 0.223075 0.372302
Si Si3 0.208719 0.567974 0.275008
Si Si4 0.008741 0.143788 0.617432
Si Si5 0.692479 0.478416 0.170002
Si Si6 0.631676 0.647125 0.460038
Si Si7 0.646998 0.041529 0.685943
Si Si8 0.192552 0.409893 0.966598
O O1 0.343960 0.003591 0.156675
O O2 0.159005 0.087744 0.818422
O O3 0.285160 0.253677 0.060160
O O4 0.500000 0.000000 0.000000
O O5 0.065292 0.211160 0.534195
O O6 0.208815 0.297754 0.437427
O O7 0.871777 0.322783 0.217908
O O8 0.164256 0.060158 0.305036
O O9 0.362043 0.427733 0.407854
O O10 0.163740 0.724257 0.371896
O O11 0.018586 0.552082 0.169992
O O12 0.230426 0.537057 0.110412
O O13 0.000000 0.000000 0.500000
O O14 0.679984 0.515042 0.338423
O O15 0.729260 0.602738 0.145328
O O16 0.500000 0.500000 0.000000
O O17 0.440343 0.781701 0.338553
O O18 0.500000 0.000000 0.500000
#
# Coordination Sequence:
#
# PCOD9108834 Si02
#       8
#     2   2   2   2   2   2   2   2
#     4  11  22  41  68  99 136 173 223 280 338 405
#     4  11  22  43  69  95 130 179 228 279 329 404
#     4  10  20  40  72  99 122 173 228 286 327 393
#     4  11  25  42  63  95 137 181 220 268 347 409
#     4  12  25  40  62  97 137 175 219 272 340 403
#     4  11  20  43  69  97 126 171 230 274 331 394
#     4  10  22  38  69 106 130 164 224 287 341 387
#     4  10  21  38  69 100 125 165 233 284 328 386
#
# _framework density 23.361343999999999
#
# number of rings (size 3 to 8) (size 9 to 14) (size 15 to 20)
#    0.000    1.250    2.500    5.625    3.500    2.000 
#    2.250    1.875    0.000    0.000    0.000    0.000 
#    0.000    0.000    0.000    0.000    0.000    0.000 
#
# Total GULP energy -89406.674905 kJ/mol
# GULP energy per Si atom -5587.917182 kJ/mol
# Density = 2.330817 g / cm^3
# Si number density = 23.361344 Si / 1000 Ang^3
#
#
#
# Elastic Constant Matrix: (Units=GPa)
#
#
# Indices 1 2 3 4 5 6 
#
# 1 65.5056 22.7231 36.4024 -10.8176 2.9718 -12.0270
# 2 22.7231 154.4685 59.4251 -14.6058 8.4595 -28.2238
# 3 36.4024 59.4251 134.0377 -20.7510 -23.9914 -6.0372
# 4 -10.8176 -14.6058 -20.7510 51.6930 -4.0835 4.1548
# 5 2.9718 8.4595 -23.9914 -4.0835 28.8634 -2.2436
# 6 -12.0270 -28.2238 -6.0372 4.1548 -2.2436 33.5664
#
#
#
# Elastic Compliance Matrix: (Units=1/GPa)
#
#
# Indices 1 2 3 4 5 6 
#
# 1 0.020466 0.001492 -0.007246 0.000630 -0.007959 0.006674
# 2 0.001492 0.010405 -0.006128 -0.000441 -0.007759 0.007717
# 3 -0.007246 -0.006128 0.015456 0.004556 0.015685 -0.004484
# 4 0.000630 -0.000441 0.004556 0.021847 0.006820 -0.001574
# 5 -0.007959 -0.007759 0.015685 0.006820 0.051434 -0.003961
# 6 0.006674 0.007717 -0.004484 -0.001574 -0.003961 0.037796
#
#
# Mechanical properties :
#
#
# Convention : Reuss Voigt Hill
#
# Bulk Modulus (GPa) = 44.31987 65.67923 54.99955
# Shear Modulus (GPa) = 26.49886 38.52196 32.51041
#
# Velocity S-wave (km/s) = 3.37160 4.06515 3.73451
# Velocity P-wave (km/s) = 5.84547 7.08586 6.49534
#
# Compressibility (1/GPa) = 0.02256324
#
# Stress axis : x y z
#
# Youngs Moduli (GPa) = 48.86240 96.10771 64.69962
#
# Poissons Ratio (x) = -0.14339 0.46882
# Poissons Ratio (y) = -0.07290 0.39646
# Poissons Ratio (z) = 0.35406 0.58891
#
# Static dielectric constant tensor:
#      x y z
#    x 1.894920 0.012170 0.025270 
#    y 0.012170 1.889560 0.046820 
#    z 0.025270 0.046820 1.825830 
# 
# From -- ./inp_files/262833.got.cif
#   From: 2010.05.17/outbox.cif.g08.bks.cpg/sg2_132_cif.got.tgz:262833.got - 2010.06.03 11:33:40.
