data_PCOD9108563
_publ_section_title
;
Structure prediction by ZEFSAII (Michael W. Deem and Ramdas Pophale) SiO2 
 PCOD9108563
Probable space group: P -1
;
_chemical_formula_sum "Si O2"
_cell_formula_units_Z 16
_cell_length_a 13.271122
_cell_length_b 9.389643
_cell_length_c 9.708664
_cell_angle_alpha 110.715176
_cell_angle_beta 51.758596
_cell_angle_gamma 124.441930
_cell_volume 783.612809
_symmetry_space_group_name_H-M "P -1"
_symmetry_group_IT_number 2
_symmetry_cell_setting 'triclinic'
loop_
_space_group_symop_operation_xyz
x,y,z
-x,-y,-z
loop_
_atom_site_type_symbol
_atom_site_label
_atom_site_fract_x
_atom_site_fract_y
_atom_site_fract_z
Si Si1 0.372130 0.313792 0.218898
Si Si2 0.854635 0.562787 0.044639
Si Si3 0.691476 0.500600 0.907973
Si Si4 0.343043 0.842744 0.611844
Si Si5 0.846233 0.319600 0.559897
Si Si6 0.356360 0.497869 0.561145
Si Si7 0.874481 0.054228 0.653951
Si Si8 0.158203 0.779719 0.990732
O O1 0.327331 0.369013 0.133732
O O2 0.328183 0.404178 0.407680
O O3 0.283179 0.113608 0.260160
O O4 0.545236 0.393058 0.084120
O O5 0.769888 0.594278 0.251798
O O6 0.802209 0.357625 0.016173
O O7 0.817734 0.609973 0.945529
O O8 0.022905 0.661915 0.968256
O O9 0.732086 0.372443 0.745118
O O10 0.227827 0.767717 0.555003
O O11 0.368150 0.683480 0.586133
O O12 0.279628 0.895108 0.817645
O O13 0.500000 0.000000 0.500000
O O14 0.871535 0.183922 0.585260
O O15 0.000000 0.500000 0.500000
O O16 0.500000 0.500000 0.500000
O O17 0.891938 0.136652 0.818767
O O18 0.000000 0.000000 0.500000
#
# Coordination Sequence:
#
# PCOD9108563 Si02
#       8
#     2   2   2   2   2   2   2   2
#     4  11  25  41  65 102 135 175 221 277 338 405
#     4  10  20  40  69  93 123 175 224 264 331 398
#     4  11  22  42  68  95 131 180 223 271 336 408
#     4  11  27  45  70 101 136 178 228 283 335 405
#     4  12  26  46  71  97 137 185 232 277 340 415
#     4  11  22  41  67  97 138 173 217 272 343 404
#     4  12  27  44  68 100 139 173 232 286 341 399
#     4  10  23  42  66  96 130 171 223 276 330 404
#
# _framework density 20.418247000000001
#
# number of rings (size 3 to 8) (size 9 to 14) (size 15 to 20)
#    0.000    1.000    3.750    2.250    7.000    0.500 
#    0.000    1.250    0.000    0.000    0.000    0.000 
#    0.000    0.000    0.000    0.000    0.000    0.000 
#
# Total GULP energy -89334.142527 kJ/mol
# GULP energy per Si atom -5583.383908 kJ/mol
# Density = 2.037177 g / cm^3
# Si number density = 20.418247 Si / 1000 Ang^3
#
#
#
# Elastic Constant Matrix: (Units=GPa)
#
#
# Indices 1 2 3 4 5 6 
#
# 1 100.7522 26.7710 13.8980 -6.3692 15.5161 -11.3623
# 2 26.7710 82.0137 16.9795 -11.8179 8.5027 -6.6159
# 3 13.8980 16.9795 120.5284 7.3086 3.6542 -2.9193
# 4 -6.3692 -11.8179 7.3086 27.2839 0.7827 -0.8430
# 5 15.5161 8.5027 3.6542 0.7827 32.7505 5.1108
# 6 -11.3623 -6.6159 -2.9193 -0.8430 5.1108 25.1196
#
#
#
# Elastic Compliance Matrix: (Units=1/GPa)
#
#
# Indices 1 2 3 4 5 6 
#
# 1 0.012514 -0.002378 -0.000919 0.002511 -0.006249 0.006283
# 2 -0.002378 0.014978 -0.002058 0.006685 -0.003240 0.003514
# 3 -0.000919 -0.002058 0.008901 -0.003494 0.000068 -0.000054
# 4 0.002511 0.006685 -0.003494 0.041338 -0.004264 0.004745
# 5 -0.006249 -0.003240 0.000068 -0.004264 0.036174 -0.011175
# 6 0.006283 0.003514 -0.000054 0.004745 -0.011175 0.046003
#
#
# Mechanical properties :
#
#
# Convention : Reuss Voigt Hill
#
# Bulk Modulus (GPa) = 38.93501 46.51016 42.72259
# Shear Modulus (GPa) = 27.90512 33.40719 30.65615
#
# Velocity S-wave (km/s) = 3.70087 4.04932 3.87901
# Velocity P-wave (km/s) = 6.11327 6.68512 6.40558
#
# Compressibility (1/GPa) = 0.02568382
#
# Stress axis : x y z
#
# Youngs Moduli (GPa) = 79.91337 66.76417 112.34574
#
# Poissons Ratio (x) = 0.15877 0.10319
# Poissons Ratio (y) = 0.19004 0.23119
# Poissons Ratio (z) = 0.07340 0.13739
#
# Static dielectric constant tensor:
#      x y z
#    x 1.757630 -0.007540 0.007670 
#    y -0.007540 1.742040 0.002040 
#    z 0.007670 0.002040 1.748530 
# 
# From -- ./inp_files/244913.got.cif
#   From: 2010.05.17/outbox.cif.g08.bks.cpg/sg2_123_cif.got.tgz:244913.got - 2010.06.03 11:33:40.
