data_PCOD9108600
_publ_section_title
;
Structure prediction by ZEFSAII (Michael W. Deem and Ramdas Pophale) SiO2 
 PCOD9108600
Probable space group: P -1
;
_chemical_formula_sum "Si O2"
_cell_formula_units_Z 16
_cell_length_a 18.917518
_cell_length_b 7.218190
_cell_length_c 5.295431
_cell_angle_alpha 63.622615
_cell_angle_beta 75.087189
_cell_angle_gamma 94.055407
_cell_volume 611.520758
_symmetry_space_group_name_H-M "P -1"
_symmetry_group_IT_number 2
_symmetry_cell_setting 'triclinic'
loop_
_space_group_symop_operation_xyz
x,y,z
-x,-y,-z
loop_
_atom_site_type_symbol
_atom_site_label
_atom_site_fract_x
_atom_site_fract_y
_atom_site_fract_z
Si Si1 0.248147 0.297237 0.730669
Si Si2 0.885434 0.572462 0.710162
Si Si3 0.907865 0.921646 0.862368
Si Si4 0.639521 0.375180 0.870279
Si Si5 0.678247 0.971598 0.773934
Si Si6 0.017178 0.703160 0.135635
Si Si7 0.251531 0.687309 0.817849
Si Si8 0.514766 0.871240 0.816848
O O1 0.310917 0.403707 0.407199
O O2 0.227922 0.507516 0.742325
O O3 0.165247 0.159114 0.841816
O O4 0.287919 0.170509 0.974508
O O5 0.881213 0.797190 0.702590
O O6 0.932505 0.448338 0.929360
O O7 0.939616 0.601524 0.404953
O O8 0.806844 0.407412 0.852546
O O9 0.931995 0.164935 0.768419
O O10 0.987942 0.856641 0.877180
O O11 0.660009 0.176954 0.814475
O O12 0.667239 0.334762 0.148579
O O13 0.550395 0.339968 0.976807
O O14 0.600791 0.857547 0.782067
O O15 0.738775 0.079693 0.442233
O O16 0.500000 0.000000 0.500000
O O17 0.500000 0.000000 0.000000
#
# Coordination Sequence:
#
# PCOD9108600 Si02
#       8
#     2   2   2   2   2   2   2   2
#     4  10  23  40  59  95 126 163 215 271 324 396
#     4  10  21  38  59  88 120 161 215 265 328 391
#     4  10  21  40  57  87 127 159 211 277 324 393
#     4  10  21  39  66  87 131 167 214 267 328 384
#     4  10  22  40  63  92 127 169 218 257 337 396
#     4  10  21  38  62  85 117 168 214 258 339 397
#     4  10  21  40  60  90 125 166 205 274 325 390
#     4  10  20  40  69  97 135 178 224 278 334 401
#
# _framework density 26.164276999999998
#
# number of rings (size 3 to 8) (size 9 to 14) (size 15 to 20)
#    0.000    2.000    1.250    1.500    1.750    1.500 
#   15.750    0.625    0.000    0.000    0.000    0.000 
#    0.000    0.000    0.000    0.000    0.000    0.000 
#
# Total GULP energy -89311.770386 kJ/mol
# GULP energy per Si atom -5581.985649 kJ/mol
# Density = 2.610473 g / cm^3
# Si number density = 26.164277 Si / 1000 Ang^3
#
#
#
# Elastic Constant Matrix: (Units=GPa)
#
#
# Indices 1 2 3 4 5 6 
#
# 1 151.6294 39.5957 51.4616 -18.4740 -6.5004 5.7010
# 2 39.5957 80.5050 41.8073 -4.4944 -8.7698 -14.4201
# 3 51.4616 41.8073 133.4314 -25.2172 -7.9757 12.0264
# 4 -18.4740 -4.4944 -25.2172 46.9990 7.3588 -7.4886
# 5 -6.5004 -8.7698 -7.9757 7.3588 46.9295 2.0641
# 6 5.7010 -14.4201 12.0264 -7.4886 2.0641 28.8597
#
#
#
# Elastic Compliance Matrix: (Units=1/GPa)
#
#
# Indices 1 2 3 4 5 6 
#
# 1 0.008372 -0.003642 -0.001544 0.001726 0.000051 -0.002386
# 2 -0.003642 0.019747 -0.006015 -0.001023 0.001765 0.012701
# 3 -0.001544 -0.006015 0.011290 0.003809 0.000267 -0.006436
# 4 0.001726 -0.001023 0.003809 0.025128 -0.003435 0.004327
# 5 0.000051 0.001765 0.000267 -0.003435 0.022305 -0.001726
# 6 -0.002386 0.012701 -0.006436 0.004327 -0.001726 0.045396
#
#
# Mechanical properties :
#
#
# Convention : Reuss Voigt Hill
#
# Bulk Modulus (GPa) = 58.79487 70.14388 64.46938
# Shear Modulus (GPa) = 31.18968 40.07106 35.63037
#
# Velocity S-wave (km/s) = 3.45638 3.91771 3.69425
# Velocity P-wave (km/s) = 6.20073 6.87981 6.54908
#
# Compressibility (1/GPa) = 0.01700829
#
# Stress axis : x y z
#
# Youngs Moduli (GPa) = 119.44505 50.64161 88.57084
#
# Poissons Ratio (x) = 0.18441 0.13672
# Poissons Ratio (y) = 0.43496 0.53278
# Poissons Ratio (z) = 0.18438 0.30462
#
# Static dielectric constant tensor:
#      x y z
#    x 2.068440 0.018800 0.053470 
#    y 0.018800 2.101680 0.012660 
#    z 0.053470 0.012660 2.193110 
# 
# From -- ./inp_files/115898.got.cif
#   From: 2010.05.17/outbox.cif.g08.bks.cpg/sg2_58_cif.got.tgz:115898.got - 2010.06.03 11:33:40.
