data_PCOD9108041
_publ_section_title
;
Structure prediction by ZEFSAII (Michael W. Deem and Ramdas Pophale) SiO2 
 PCOD9108041
Probable space group: P -1
;
_chemical_formula_sum "Si O2"
_cell_formula_units_Z 12
_cell_length_a 9.887616
_cell_length_b 11.979840
_cell_length_c 7.096995
_cell_angle_alpha 54.013957
_cell_angle_beta 134.295744
_cell_angle_gamma 132.707117
_cell_volume 431.645796
_symmetry_space_group_name_H-M "P -1"
_symmetry_group_IT_number 2
_symmetry_cell_setting 'triclinic'
loop_
_space_group_symop_operation_xyz
x,y,z
-x,-y,-z
loop_
_atom_site_type_symbol
_atom_site_label
_atom_site_fract_x
_atom_site_fract_y
_atom_site_fract_z
Si Si1 0.336042 0.834912 0.779625
Si Si2 0.611224 0.701580 0.258623
Si Si3 0.983012 0.517028 0.192852
Si Si4 0.450896 0.605719 0.625739
Si Si5 0.992531 0.191580 0.230192
Si Si6 0.194165 0.068901 0.263030
O O1 0.241024 0.853866 0.871391
O O2 0.191863 0.655765 0.754043
O O3 0.433618 0.158464 0.989430
O O4 0.302505 0.956758 0.499940
O O5 0.493565 0.652341 0.396884
O O6 0.524140 0.550707 0.190698
O O7 0.851717 0.741128 0.503645
O O8 0.205788 0.559686 0.466401
O O9 0.951025 0.671263 0.006589
O O10 0.000000 0.500000 0.000000
O O11 0.616724 0.756471 0.747494
O O12 0.074815 0.079942 0.325986
O O13 0.000000 0.000000 0.000000
#
# Coordination Sequence:
#
# PCOD9108041 Si02
#       6
#     2   2   2   2   2   2
#     4  11  20  37  64  93 114 147 203 248 292 344
#     4  10  17  33  64  95 113 143 198 254 295 332
#     4  10  16  35  62  95 115 140 199 251 295 338
#     4  10  18  35  61  88 122 152 186 247 299 343
#     4  10  20  38  65  90 119 148 195 250 293 343
#     4  11  26  42  54  82 131 166 189 234 298 355
#
# _framework density 27.80057
#
# number of rings (size 3 to 8) (size 9 to 14) (size 15 to 20)
#    0.000    1.667    6.667    2.500    0.000    2.667 
#    3.000    5.000    0.000    0.000    0.000    0.000 
#    0.000    0.000    0.000    0.000    0.000    0.000 
#
# Total GULP energy -67216.523492 kJ/mol
# GULP energy per Si atom -5601.376958 kJ/mol
# Density = 2.773729 g / cm^3
# Si number density = 27.800570 Si / 1000 Ang^3
#
#
#
# Elastic Constant Matrix: (Units=GPa)
#
#
# Indices 1 2 3 4 5 6 
#
# 1 66.1100 21.7921 33.0766 -0.3244 6.2095 -10.4839
# 2 21.7921 181.1074 99.7687 -4.7375 8.6188 -6.8381
# 3 33.0766 99.7687 167.3018 -34.7559 44.8823 -22.6900
# 4 -0.3244 -4.7375 -34.7559 63.8528 -6.5028 8.3010
# 5 6.2095 8.6188 44.8823 -6.5028 53.1895 -0.1464
# 6 -10.4839 -6.8381 -22.6900 8.3010 -0.1464 31.7506
#
#
#
# Elastic Compliance Matrix: (Units=1/GPa)
#
#
# Indices 1 2 3 4 5 6 
#
# 1 0.017454 -0.000107 -0.003524 -0.002264 0.000687 0.003817
# 2 -0.000107 0.009450 -0.007845 -0.002711 0.004761 -0.002875
# 3 -0.003524 -0.007845 0.016837 0.006402 -0.011722 0.007451
# 4 -0.002264 -0.002711 0.006402 0.018912 -0.002392 -0.001711
# 5 0.000687 0.004761 -0.011722 -0.002392 0.027530 -0.006372
# 6 0.003817 -0.002875 0.007451 -0.001711 -0.006372 0.037880
#
#
# Mechanical properties :
#
#
# Convention : Reuss Voigt Hill
#
# Bulk Modulus (GPa) = 48.09882 80.42157 64.26020
# Shear Modulus (GPa) = 31.65666 47.08403 39.37035
#
# Velocity S-wave (km/s) = 3.37813 4.11984 3.76729
# Velocity P-wave (km/s) = 5.70567 7.18482 6.48754
#
# Compressibility (1/GPa) = 0.02079053
#
# Stress axis : x y z
#
# Youngs Moduli (GPa) = 57.29228 105.82201 59.39184
#
# Poissons Ratio (x) = 0.01128 0.20931
# Poissons Ratio (y) = 0.00611 0.46591
# Poissons Ratio (z) = 0.20191 0.83014
#
# Static dielectric constant tensor:
#      x y z
#    x 2.185280 0.073960 -0.078370 
#    y 0.073960 2.213660 -0.035530 
#    z -0.078370 -0.035530 2.163220 
# 
# From -- ./inp_files/296401.got.cif
#   From: 2010.05.17/outbox.cif.g08.bks.cpg/sg2_149_cif.got.tgz:296401.got - 2010.06.03 11:33:40.
