data_PCOD9108795
_publ_section_title
;
Structure prediction by ZEFSAII (Michael W. Deem and Ramdas Pophale) SiO2 
 PCOD9108795
Probable space group: P -1
;
_chemical_formula_sum "Si O2"
_cell_formula_units_Z 16
_cell_length_a 19.620107
_cell_length_b 5.280952
_cell_length_c 8.105575
_cell_angle_alpha 116.843784
_cell_angle_beta 59.069509
_cell_angle_gamma 106.825790
_cell_volume 640.970632
_symmetry_space_group_name_H-M "P -1"
_symmetry_group_IT_number 2
_symmetry_cell_setting 'triclinic'
loop_
_space_group_symop_operation_xyz
x,y,z
-x,-y,-z
loop_
_atom_site_type_symbol
_atom_site_label
_atom_site_fract_x
_atom_site_fract_y
_atom_site_fract_z
Si Si1 0.297835 0.325857 0.235522
Si Si2 0.177363 0.804067 0.556194
Si Si3 0.768962 0.219654 0.004261
Si Si4 0.928152 0.259111 0.006249
Si Si5 0.415189 0.219506 0.335435
Si Si6 0.979326 0.166466 0.411319
Si Si7 0.292709 0.171124 0.732232
Si Si8 0.561186 0.393951 0.026055
O O1 0.229533 0.542889 0.374368
O O2 0.352283 0.378428 0.347093
O O3 0.361819 0.390207 0.026526
O O4 0.257495 0.009031 0.170686
O O5 0.121534 0.727430 0.761091
O O6 0.113864 0.882001 0.523976
O O7 0.236970 0.064324 0.615167
O O8 0.862436 0.278098 0.948349
O O9 0.733915 0.518237 0.103159
O O10 0.729641 0.063252 0.169842
O O11 0.000000 0.500000 0.000000
O O12 0.968386 0.965163 0.836406
O O13 0.380878 0.184461 0.550607
O O14 0.505881 0.352332 0.243661
O O15 0.415188 0.913315 0.154658
O O16 0.000000 0.500000 0.500000
O O17 0.000000 0.000000 0.500000
O O18 0.500000 0.500000 0.000000
#
# Coordination Sequence:
#
# PCOD9108795 Si02
#       8
#     2   2   2   2   2   2   2   2
#     4  11  23  44  70 105 139 181 235 292 345 407
#     4  11  24  46  72  98 133 188 236 285 343 421
#     4  11  27  42  67 102 144 177 228 296 355 400
#     4  11  24  47  71 100 137 186 237 284 348 426
#     4  10  20  40  72 100 135 188 235 276 336 421
#     4  12  27  45  68 101 137 175 224 292 354 408
#     4  11  24  44  67 101 138 184 230 282 342 420
#     4   9  20  38  70 103 138 176 237 278 335 410
#
# _framework density 24.962143999999999
#
# number of rings (size 3 to 8) (size 9 to 14) (size 15 to 20)
#    0.000    1.250    1.250    4.125    3.500    7.000 
#    0.000    1.250    0.000    0.000    0.000    0.000 
#    0.000    0.000    0.000    0.000    0.000    0.000 
#
# Total GULP energy -89654.844692 kJ/mol
# GULP energy per Si atom -5603.427793 kJ/mol
# Density = 2.490533 g / cm^3
# Si number density = 24.962144 Si / 1000 Ang^3
#
#
#
# Elastic Constant Matrix: (Units=GPa)
#
#
# Indices 1 2 3 4 5 6 
#
# 1 97.5483 28.5197 35.2079 11.7445 -7.7059 -4.4431
# 2 28.5197 115.4793 41.5122 6.6420 -7.4823 16.1742
# 3 35.2079 41.5122 120.1688 -6.0846 -30.6486 11.3258
# 4 11.7445 6.6420 -6.0846 54.3547 4.7325 -7.1279
# 5 -7.7059 -7.4823 -30.6486 4.7325 39.4126 -0.0725
# 6 -4.4431 16.1742 11.3258 -7.1279 -0.0725 53.9093
#
#
#
# Elastic Compliance Matrix: (Units=1/GPa)
#
#
# Indices 1 2 3 4 5 6 
#
# 1 0.012415 -0.002024 -0.003311 -0.002525 -0.000225 0.001992
# 2 -0.002024 0.010724 -0.003053 -0.001553 -0.000553 -0.002949
# 3 -0.003311 -0.003053 0.012768 0.001537 0.008514 -0.001825
# 4 -0.002525 -0.001553 0.001537 0.019811 -0.001967 0.002552
# 5 -0.000225 -0.000553 0.008514 -0.001967 0.032077 -0.001858
# 6 0.001992 -0.002949 -0.001825 0.002552 -0.001858 0.020317
#
#
# Mechanical properties :
#
#
# Convention : Reuss Voigt Hill
#
# Bulk Modulus (GPa) = 52.27600 60.40844 56.34222
# Shear Modulus (GPa) = 38.09097 44.73243 41.41170
#
# Velocity S-wave (km/s) = 3.91058 4.23781 4.07748
# Velocity P-wave (km/s) = 6.43255 6.94247 6.69237
#
# Compressibility (1/GPa) = 0.01912924
#
# Stress axis : x y z
#
# Youngs Moduli (GPa) = 80.54627 93.25274 78.32306
#
# Poissons Ratio (x) = 0.18876 0.25934
# Poissons Ratio (y) = 0.16304 0.23913
# Poissons Ratio (z) = 0.26671 0.28472
#
# Static dielectric constant tensor:
#      x y z
#    x 2.036410 0.007990 -0.012110 
#    y 0.007990 1.969130 -0.074030 
#    z -0.012110 -0.074030 2.117440 
# 
# From -- ./inp_files/340622.got.cif
#   From: 2010.05.17/outbox.cif.g08.bks.cpg/sg2_171_cif.got.tgz:340622.got - 2010.06.03 11:33:40.
