data_PCOD9108546
_publ_section_title
;
Structure prediction by ZEFSAII (Michael W. Deem and Ramdas Pophale) SiO2 
 PCOD9108546
Probable space group: P -1
;
_chemical_formula_sum "Si O2"
_cell_formula_units_Z 16
_cell_length_a 13.456484
_cell_length_b 16.705924
_cell_length_c 8.737226
_cell_angle_alpha 103.552052
_cell_angle_beta 103.787199
_cell_angle_gamma 20.260295
_cell_volume 660.223488
_symmetry_space_group_name_H-M "P -1"
_symmetry_group_IT_number 2
_symmetry_cell_setting 'triclinic'
loop_
_space_group_symop_operation_xyz
x,y,z
-x,-y,-z
loop_
_atom_site_type_symbol
_atom_site_label
_atom_site_fract_x
_atom_site_fract_y
_atom_site_fract_z
Si Si1 0.940975 0.899243 0.878509
Si Si2 0.606498 0.990360 0.330623
Si Si3 0.005685 0.246285 0.887262
Si Si4 0.681977 0.437536 0.390294
Si Si5 0.734711 0.714623 0.383735
Si Si6 0.431523 0.660444 0.695449
Si Si7 0.975261 0.586914 0.897914
Si Si8 0.835088 0.147387 0.832188
O O1 0.071004 0.740473 0.727191
O O2 0.848671 0.914847 0.995677
O O3 0.175154 0.785218 0.994396
O O4 0.762298 0.107446 0.831235
O O5 0.529385 0.088550 0.508908
O O6 0.322019 0.194260 0.210812
O O7 0.729935 0.807447 0.339859
O O8 0.814981 0.890303 0.263954
O O9 0.678257 0.469323 0.828632
O O10 0.006796 0.339049 0.984254
O O11 0.614830 0.546169 0.559065
O O12 0.712743 0.318482 0.394894
O O13 0.390481 0.658722 0.288174
O O14 0.000000 0.500000 0.500000
O O15 0.769797 0.621874 0.222558
O O16 0.155657 0.915722 0.772996
O O17 0.000000 0.500000 0.000000
#
# Coordination Sequence:
#
# PCOD9108546 Si02
#       8
#     2   2   2   2   2   2   2   2
#     4  10  23  38  64  94 124 168 212 270 313 375
#     4  10  22  44  70  91 132 172 211 269 330 389
#     4  12  24  42  62  99 133 158 225 271 308 381
#     4  10  20  44  63  88 131 170 211 255 334 379
#     4   9  20  44  70  91 120 179 210 252 338 397
#     4  10  23  39  65  92 127 170 211 268 312 383
#     4  11  23  43  69  94 127 173 214 265 333 388
#     4  10  20  40  69  86 127 174 214 248 338 383
#
# _framework density 24.234217999999998
#
# number of rings (size 3 to 8) (size 9 to 14) (size 15 to 20)
#    0.000    1.750    2.500    1.125    3.500    1.000 
#    6.750    0.000    0.000    0.000    0.000    0.000 
#    0.000    0.000    0.000    0.000    0.000    0.000 
#
# Total GULP energy -89303.403843 kJ/mol
# GULP energy per Si atom -5581.462740 kJ/mol
# Density = 2.417906 g / cm^3
# Si number density = 24.234218 Si / 1000 Ang^3
#
#
#
# Elastic Constant Matrix: (Units=GPa)
#
#
# Indices 1 2 3 4 5 6 
#
# 1 85.6879 31.2352 30.5049 3.3633 -26.0889 10.4410
# 2 31.2352 71.7689 31.2117 -7.8669 -1.7454 7.9419
# 3 30.5049 31.2117 102.1088 7.4616 -22.3077 -1.7228
# 4 3.3633 -7.8669 7.4616 46.0046 -7.1154 -5.7460
# 5 -26.0889 -1.7454 -22.3077 -7.1154 38.6525 -6.3584
# 6 10.4410 7.9419 -1.7228 -5.7460 -6.3584 32.1309
#
#
#
# Elastic Compliance Matrix: (Units=1/GPa)
#
#
# Indices 1 2 3 4 5 6 
#
# 1 0.018220 -0.007172 -0.000822 -0.001007 0.010951 -0.002205
# 2 -0.007172 0.020268 -0.005978 0.003332 -0.007399 -0.003868
# 3 -0.000822 -0.005978 0.013652 -0.001581 0.007364 0.003651
# 4 -0.001007 0.003332 -0.001581 0.023750 0.003652 0.004389
# 5 0.010951 -0.007399 0.007364 0.003652 0.039009 0.007038
# 6 -0.002205 -0.003868 0.003651 0.004389 0.007038 0.035168
#
#
# Mechanical properties :
#
#
# Convention : Reuss Voigt Hill
#
# Bulk Modulus (GPa) = 41.32863 49.49660 45.41261
# Shear Modulus (GPa) = 26.87060 34.46518 30.66789
#
# Velocity S-wave (km/s) = 3.33346 3.77526 3.56122
# Velocity P-wave (km/s) = 5.64861 6.28268 5.97406
#
# Compressibility (1/GPa) = 0.02419630
#
# Stress axis : x y z
#
# Youngs Moduli (GPa) = 54.88565 49.33848 73.24798
#
# Poissons Ratio (x) = 0.35386 0.06020
# Poissons Ratio (y) = 0.39365 0.43787
# Poissons Ratio (z) = 0.04511 0.29494
#
# Static dielectric constant tensor:
#      x y z
#    x 1.575090 0.081800 0.321970 
#    y 0.081800 1.937230 -0.052820 
#    z 0.321970 -0.052820 1.607790 
# 
# From -- ./inp_files/317746.got.cif
#   From: 2010.05.17/outbox.cif.g08.bks.cpg/sg2_159_cif.got.tgz:317746.got - 2010.06.03 11:33:40.
