data_PCOD9108353
_publ_section_title
;
Structure prediction by ZEFSAII (Michael W. Deem and Ramdas Pophale) SiO2 
 PCOD9108353
Probable space group: P -1
;
_chemical_formula_sum "Si O2"
_cell_formula_units_Z 15
_cell_length_a 8.540539
_cell_length_b 13.898413
_cell_length_c 8.673186
_cell_angle_alpha 44.614535
_cell_angle_beta 100.805722
_cell_angle_gamma 73.541603
_cell_volume 565.978356
_symmetry_space_group_name_H-M "P -1"
_symmetry_group_IT_number 2
_symmetry_cell_setting 'triclinic'
loop_
_space_group_symop_operation_xyz
x,y,z
-x,-y,-z
loop_
_atom_site_type_symbol
_atom_site_label
_atom_site_fract_x
_atom_site_fract_y
_atom_site_fract_z
Si Si1 0.820923 0.036247 0.024666
Si Si2 0.450051 0.321560 0.510114
Si Si3 0.678469 0.824449 0.105532
Si Si4 0.759071 0.543609 0.250705
Si Si5 0.500000 0.500000 0.500000
Si Si6 0.969541 0.259065 0.377159
Si Si7 0.616211 0.250844 0.279216
Si Si8 0.335354 0.031467 0.554108
O O1 0.740911 0.944676 0.021751
O O2 0.915678 0.934527 0.314640
O O3 0.641750 0.242051 0.759824
O O4 0.000000 0.000000 0.000000
O O5 0.346656 0.248624 0.657076
O O6 0.363837 0.514133 0.305087
O O7 0.543396 0.258652 0.431898
O O8 0.811015 0.663094 0.200110
O O9 0.468083 0.939698 0.839330
O O10 0.659564 0.502593 0.409914
O O11 0.932617 0.378519 0.377734
O O12 0.582803 0.650195 0.971716
O O13 0.752416 0.315185 0.227989
O O14 0.138927 0.225578 0.330177
O O15 0.741572 0.063102 0.440976
O O16 0.500000 0.000000 0.500000
#
# Coordination Sequence:
#
# PCOD9108353 Si02
#       8
#     2   2   2   2   1   2   2   2
#     4  12  23  40  72 103 134 172 244 292 348 418
#     4  11  21  40  71 103 136 186 233 276 357 417
#     4  10  24  44  70  99 140 190 229 293 356 426
#     4  10  23  45  70 105 148 188 235 286 359 422
#     4  10  20  40  68 104 140 190 226 280 352 422
#     4  12  24  42  69 109 142 182 237 298 342 424
#     4  11  23  43  71 102 145 191 230 291 348 428
#     4  11  25  44  69  98 141 188 240 293 357 413
#
# _framework density 26.502779
#
# number of rings (size 3 to 8) (size 9 to 14) (size 15 to 20)
#    0.000    1.067    4.000    2.000    1.867    0.533 
#    0.000    2.667    0.000    0.000    0.000    0.000 
#    0.000    0.000    0.000    0.000    0.000    0.000 
#
# Total GULP energy -83665.039445 kJ/mol
# GULP energy per Si atom -5577.669296 kJ/mol
# Density = 2.644246 g / cm^3
# Si number density = 26.502779 Si / 1000 Ang^3
#
#
#
# Elastic Constant Matrix: (Units=GPa)
#
#
# Indices 1 2 3 4 5 6 
#
# 1 140.5554 70.5013 10.9026 7.3223 -1.6051 -4.1346
# 2 70.5013 226.8453 13.0865 13.3388 -9.5940 -11.3013
# 3 10.9026 13.0865 78.5040 23.7631 2.3673 -7.6660
# 4 7.3223 13.3388 23.7631 36.5686 -3.1841 0.6955
# 5 -1.6051 -9.5940 2.3673 -3.1841 29.8205 -5.3793
# 6 -4.1346 -11.3013 -7.6660 0.6955 -5.3793 58.9572
#
#
#
# Elastic Compliance Matrix: (Units=1/GPa)
#
#
# Indices 1 2 3 4 5 6 
#
# 1 0.008479 -0.002593 -0.000620 -0.000381 -0.000372 -0.000013
# 2 -0.002593 0.005415 -0.000114 -0.001257 0.001659 0.001008
# 3 -0.000620 -0.000114 0.016333 -0.010673 -0.002147 0.001988
# 4 -0.000381 -0.001257 -0.010673 0.035185 0.003870 -0.001717
# 5 -0.000372 0.001659 -0.002147 0.003870 0.035205 0.003179
# 6 -0.000013 0.001008 0.001988 -0.001717 0.003179 0.017723
#
#
# Mechanical properties :
#
#
# Convention : Reuss Voigt Hill
#
# Bulk Modulus (GPa) = 42.42192 70.54286 56.48239
# Shear Modulus (GPa) = 37.63616 48.49687 43.06652
#
# Velocity S-wave (km/s) = 3.77249 4.28235 4.03548
# Velocity P-wave (km/s) = 5.91751 7.15027 6.56290
#
# Compressibility (1/GPa) = 0.02357272
#
# Stress axis : x y z
#
# Youngs Moduli (GPa) = 117.94231 184.66935 61.22662
#
# Poissons Ratio (x) = 0.47890 0.03795
# Poissons Ratio (y) = 0.30586 0.00697
# Poissons Ratio (z) = 0.07311 0.02101
#
# Static dielectric constant tensor:
#      x y z
#    x 2.049280 -0.257230 0.126240 
#    y -0.257230 1.761820 0.247700 
#    z 0.126240 0.247700 1.993550 
# 
# From -- ./inp_files/199665.got.cif
#   From: 2010.05.17/outbox.cif.g08.bks.cpg/sg2_100_cif.got.tgz:199665.got - 2010.06.03 11:33:40.
