data_PCOD9108570
_publ_section_title
;
Structure prediction by ZEFSAII (Michael W. Deem and Ramdas Pophale) SiO2 
 PCOD9108570
Probable space group: P -1
;
_chemical_formula_sum "Si O2"
_cell_formula_units_Z 14
_cell_length_a 9.015084
_cell_length_b 8.709210
_cell_length_c 11.776848
_cell_angle_alpha 92.678978
_cell_angle_beta 62.541844
_cell_angle_gamma 60.054101
_cell_volume 663.240823
_symmetry_space_group_name_H-M "P -1"
_symmetry_group_IT_number 2
_symmetry_cell_setting 'triclinic'
loop_
_space_group_symop_operation_xyz
x,y,z
-x,-y,-z
loop_
_atom_site_type_symbol
_atom_site_label
_atom_site_fract_x
_atom_site_fract_y
_atom_site_fract_z
Si Si1 0.042354 0.562084 0.871261
Si Si2 0.120602 0.875743 0.343923
Si Si3 0.749926 0.980516 0.885211
Si Si4 0.548653 0.827860 0.810817
Si Si5 0.583201 0.687261 0.562456
Si Si6 0.981973 0.418369 0.668311
Si Si7 0.504372 0.379513 0.649002
O O1 0.268640 0.511509 0.776403
O O2 0.880857 0.780949 0.899026
O O3 0.027861 0.433965 0.781453
O O4 0.000000 0.500000 0.000000
O O5 0.041742 0.747602 0.347456
O O6 0.356188 0.746954 0.299938
O O7 0.108255 0.986214 0.240014
O O8 0.000000 0.000000 0.500000
O O9 0.609037 0.963546 0.842486
O O10 0.612387 0.140026 0.034662
O O11 0.477946 0.844103 0.705689
O O12 0.762526 0.617682 0.729253
O O13 0.578047 0.510624 0.593250
O O14 0.485463 0.734577 0.471388
O O15 0.820232 0.616447 0.466254
#
# Coordination Sequence:
#
# PCOD9108570 Si02
#       7
#     2   2   2   2   2   2   2
#     4  10  24  48  69  92 135 179 219 269 340 399
#     4  12  26  42  67 104 135 168 226 278 321 393
#     4  10  25  41  67 101 131 172 223 279 324 387
#     4  10  20  40  69  93 131 177 222 270 326 390
#     4  10  20  41  67  96 128 180 220 264 325 394
#     4  10  22  41  69  95 131 182 220 261 335 402
#     4  10  24  39  70  95 130 175 222 270 331 387
#
# _framework density 21.108468999999999
#
# number of rings (size 3 to 8) (size 9 to 14) (size 15 to 20)
#    0.000    1.714    1.429    1.286   14.000    1.714 
#    2.571    3.571    0.000    0.000    0.000    0.000 
#    0.000    0.000    0.000    0.000    0.000    0.000 
#
# Total GULP energy -78145.665143 kJ/mol
# GULP energy per Si atom -5581.833225 kJ/mol
# Density = 2.106043 g / cm^3
# Si number density = 21.108469 Si / 1000 Ang^3
#
#
#
# Elastic Constant Matrix: (Units=GPa)
#
#
# Indices 1 2 3 4 5 6 
#
# 1 94.2725 48.4645 58.9942 -5.2358 -2.8266 13.7437
# 2 48.4645 76.6992 55.6316 -19.2333 3.6818 11.2132
# 3 58.9942 55.6316 181.9694 -14.6017 15.5963 21.9996
# 4 -5.2358 -19.2333 -14.6017 33.0595 4.6085 2.5693
# 5 -2.8266 3.6818 15.5963 4.6085 25.4527 -1.2469
# 6 13.7437 11.2132 21.9996 2.5693 -1.2469 22.4178
#
#
#
# Elastic Compliance Matrix: (Units=1/GPa)
#
#
# Indices 1 2 3 4 5 6 
#
# 1 0.018360 -0.010517 -0.003585 -0.005615 0.006702 -0.001461
# 2 -0.010517 0.025922 -0.002064 0.013909 -0.006488 -0.006448
# 3 -0.003585 -0.002064 0.008887 0.003548 -0.006494 -0.006258
# 4 -0.005615 0.013909 0.003548 0.041802 -0.012992 -0.012511
# 5 0.006702 -0.006488 -0.006494 -0.012992 0.047776 0.009655
# 6 -0.001461 -0.006448 -0.006258 -0.012511 0.009655 0.056841
#
#
# Mechanical properties :
#
#
# Convention : Reuss Voigt Hill
#
# Bulk Modulus (GPa) = 47.99191 75.45797 61.72494
# Shear Modulus (GPa) = 20.93230 28.84272 24.88751
#
# Velocity S-wave (km/s) = 3.15247 3.70050 3.43742
# Velocity P-wave (km/s) = 6.00300 7.35416 6.71266
#
# Compressibility (1/GPa) = 0.02083685
#
# Stress axis : x y z
#
# Youngs Moduli (GPa) = 54.46639 38.57692 112.52783
#
# Poissons Ratio (x) = 0.40571 0.40347
# Poissons Ratio (y) = 0.57282 0.23222
# Poissons Ratio (z) = 0.19529 0.07961
#
# Static dielectric constant tensor:
#      x y z
#    x 1.815350 -0.046650 -0.007380 
#    y -0.046650 1.772590 -0.001010 
#    z -0.007380 -0.001010 1.858130 
# 
# From -- ./inp_files/342635.got.cif
#   From: 2010.05.17/outbox.cif.g08.bks.cpg/sg2_172_cif.got.tgz:342635.got - 2010.06.03 11:33:40.
