data_PCOD9108755
_publ_section_title
;
Structure prediction by ZEFSAII (Michael W. Deem and Ramdas Pophale) SiO2 
 PCOD9108755
Probable space group: P -1
;
_chemical_formula_sum "Si O2"
_cell_formula_units_Z 16
_cell_length_a 8.671363
_cell_length_b 8.972703
_cell_length_c 11.800223
_cell_angle_alpha 128.516316
_cell_angle_beta 101.714979
_cell_angle_gamma 88.356547
_cell_volume 697.653654
_symmetry_space_group_name_H-M "P -1"
_symmetry_group_IT_number 2
_symmetry_cell_setting 'triclinic'
loop_
_space_group_symop_operation_xyz
x,y,z
-x,-y,-z
loop_
_atom_site_type_symbol
_atom_site_label
_atom_site_fract_x
_atom_site_fract_y
_atom_site_fract_z
Si Si1 0.163897 0.768154 0.220326
Si Si2 0.493269 0.095944 0.667682
Si Si3 0.662051 0.586571 0.626604
Si Si4 0.694507 0.551662 0.213287
Si Si5 0.553693 0.794808 0.931491
Si Si6 0.832863 0.663592 0.044366
Si Si7 0.200534 0.812987 0.507199
Si Si8 0.092674 0.330776 0.480858
O O1 0.329563 0.868997 0.241783
O O2 0.157489 0.846375 0.385133
O O3 0.007832 0.779690 0.128803
O O4 0.170533 0.537587 0.118555
O O5 0.436544 0.302121 0.739130
O O6 0.500000 0.000000 0.500000
O O7 0.351622 0.958186 0.639261
O O8 0.500000 0.500000 0.500000
O O9 0.612430 0.704678 0.781556
O O10 0.746417 0.399837 0.582861
O O11 0.782274 0.709216 0.615606
O O12 0.597842 0.343036 0.108856
O O13 0.793171 0.594905 0.134382
O O14 0.805029 0.596779 0.359774
O O15 0.698826 0.781077 0.032327
O O16 0.500000 0.000000 0.000000
O O17 0.048661 0.823735 0.568474
O O18 0.000000 0.500000 0.500000
#
# Coordination Sequence:
#
# PCOD9108755 Si02
#       8
#     2   2   2   2   2   2   2   2
#     4  10  20  40  71 103 135 179 236 295 372 416
#     4  10  22  39  68 102 138 176 232 307 363 428
#     4  11  22  43  73 100 142 196 243 294 365 436
#     4  12  23  46  67 103 146 186 244 295 367 428
#     4  12  26  46  72 109 149 200 246 288 365 452
#     4  11  23  43  74 100 142 193 235 303 359 438
#     4  10  20  43  68 103 142 178 242 303 367 427
#     4  10  23  41  70 103 143 193 233 304 370 429
#
# _framework density 22.934013
#
# number of rings (size 3 to 8) (size 9 to 14) (size 15 to 20)
#    0.000    1.250    5.000    1.125    0.000    1.500 
#    0.000    0.000    2.750    6.000    0.000    0.875 
#    0.000    0.000    0.000    0.000    0.000    0.000 
#
# Total GULP energy -89555.567521 kJ/mol
# GULP energy per Si atom -5597.222970 kJ/mol
# Density = 2.288181 g / cm^3
# Si number density = 22.934013 Si / 1000 Ang^3
#
#
#
# Elastic Constant Matrix: (Units=GPa)
#
#
# Indices 1 2 3 4 5 6 
#
# 1 166.4198 57.2118 53.8121 -1.4454 43.0091 21.2894
# 2 57.2118 97.2015 41.0926 9.1341 8.5058 -12.0286
# 3 53.8121 41.0926 92.4373 -2.9562 5.7103 5.2518
# 4 -1.4454 9.1341 -2.9562 44.0309 1.1648 -3.4468
# 5 43.0091 8.5058 5.7103 1.1648 50.7292 6.6813
# 6 21.2894 -12.0286 5.2518 -3.4468 6.6813 38.3112
#
#
#
# Elastic Compliance Matrix: (Units=1/GPa)
#
#
# Indices 1 2 3 4 5 6 
#
# 1 0.012077 -0.005821 -0.003541 0.001065 -0.008025 -0.006558
# 2 -0.005821 0.017036 -0.004883 -0.003415 0.001565 0.008673
# 3 -0.003541 -0.004883 0.015067 0.001699 0.002334 -0.001885
# 4 0.001065 -0.003415 0.001699 0.023632 -0.001120 0.000424
# 5 -0.008025 0.001565 0.002334 -0.001120 0.026018 -0.000007
# 6 -0.006558 0.008673 -0.001885 0.000424 -0.000007 0.032767
#
#
# Mechanical properties :
#
#
# Convention : Reuss Voigt Hill
#
# Bulk Modulus (GPa) = 63.73141 73.36575 68.54858
# Shear Modulus (GPa) = 31.18817 40.21040 35.69928
#
# Velocity S-wave (km/s) = 3.69170 4.19180 3.94967
# Velocity P-wave (km/s) = 6.78387 7.44900 7.12420
#
# Compressibility (1/GPa) = 0.01569085
#
# Stress axis : x y z
#
# Youngs Moduli (GPa) = 82.80075 58.69995 66.36901
#
# Poissons Ratio (x) = 0.34170 0.23498
# Poissons Ratio (y) = 0.48199 0.32409
# Poissons Ratio (z) = 0.29316 0.28664
#
# Static dielectric constant tensor:
#      x y z
#    x 1.865180 0.029710 -0.019680 
#    y 0.029710 1.935460 0.027650 
#    z -0.019680 0.027650 1.835120 
# 
# From -- ./inp_files/383600.got.cif
#   From: 2010.05.17/outbox.cif.g08.bks.cpg/sg2_192_cif.got.tgz:383600.got - 2010.06.03 11:33:40.
