data_PCOD9108744
_publ_section_title
;
Structure prediction by ZEFSAII (Michael W. Deem and Ramdas Pophale) SiO2 
 PCOD9108744
Probable space group: P -1
;
_chemical_formula_sum "Si O2"
_cell_formula_units_Z 16
_cell_length_a 11.542437
_cell_length_b 8.514460
_cell_length_c 10.584155
_cell_angle_alpha 115.000241
_cell_angle_beta 127.055164
_cell_angle_gamma 55.237086
_cell_volume 676.989809
_symmetry_space_group_name_H-M "P -1"
_symmetry_group_IT_number 2
_symmetry_cell_setting 'triclinic'
loop_
_space_group_symop_operation_xyz
x,y,z
-x,-y,-z
loop_
_atom_site_type_symbol
_atom_site_label
_atom_site_fract_x
_atom_site_fract_y
_atom_site_fract_z
Si Si1 0.513929 0.291849 0.916848
Si Si2 0.614613 0.194023 0.553168
Si Si3 0.699034 0.468467 0.535123
Si Si4 0.837861 0.662062 0.887202
Si Si5 0.720708 0.848684 0.358828
Si Si6 0.053974 0.829473 0.581317
Si Si7 0.174943 0.984642 0.138695
Si Si8 0.718083 0.001354 0.127141
O O1 0.347750 0.305840 0.755755
O O2 0.673545 0.158882 0.896019
O O3 0.500000 0.500000 0.000000
O O4 0.550413 0.172720 0.031605
O O5 0.651827 0.303691 0.499509
O O6 0.454505 0.354445 0.563134
O O7 0.763870 0.106125 0.715255
O O8 0.592608 0.016480 0.419313
O O9 0.748532 0.550128 0.720813
O O10 0.834876 0.364701 0.486306
O O11 0.849044 0.798418 0.828683
O O12 0.000000 0.500000 0.000000
O O13 0.760174 0.818444 0.001204
O O14 0.897294 0.803073 0.512267
O O15 0.718786 0.935122 0.247864
O O16 0.154133 0.902914 0.765743
O O17 0.000000 0.000000 0.500000
O O18 0.000000 0.000000 0.000000
#
# Coordination Sequence:
#
# PCOD9108744 Si02
#       8
#     2   2   2   2   2   2   2   2
#     4  11  27  44  66 100 143 180 229 284 356 417
#     4  11  24  42  69 101 146 178 238 284 361 411
#     4  11  23  40  70 108 135 188 233 291 342 430
#     4  11  23  41  71 101 137 178 243 286 347 412
#     4  11  23  43  72  99 133 186 229 289 346 413
#     4  10  20  40  71 100 133 176 237 283 340 406
#     4  11  27  46  69  97 143 190 227 295 355 417
#     4  10  22  43  71  99 138 180 230 288 345 412
#
# _framework density 23.634032000000001
#
# number of rings (size 3 to 8) (size 9 to 14) (size 15 to 20)
#    0.000    1.250    2.500    4.125    5.250    5.000 
#    0.000    0.625    0.000    0.000    0.000    0.000 
#    0.000    0.000    0.000    0.000    0.000    0.000 
#
# Total GULP energy -89412.861816 kJ/mol
# GULP energy per Si atom -5588.303863 kJ/mol
# Density = 2.358024 g / cm^3
# Si number density = 23.634032 Si / 1000 Ang^3
#
#
#
# Elastic Constant Matrix: (Units=GPa)
#
#
# Indices 1 2 3 4 5 6 
#
# 1 72.2530 32.3330 31.0147 6.0810 17.3212 -17.5800
# 2 32.3330 142.7624 47.0580 8.8763 9.9698 -16.6217
# 3 31.0147 47.0580 128.1529 11.6161 29.1074 -9.0967
# 4 6.0810 8.8763 11.6161 50.0635 7.2581 3.1860
# 5 17.3212 9.9698 29.1074 7.2581 44.0007 1.4561
# 6 -17.5800 -16.6217 -9.0967 3.1860 1.4561 31.1464
#
#
#
# Elastic Compliance Matrix: (Units=1/GPa)
#
#
# Indices 1 2 3 4 5 6 
#
# 1 0.019525 -0.002212 -0.001700 -0.001312 -0.006167 0.009766
# 2 -0.002212 0.008664 -0.002512 -0.000949 0.000637 0.002708
# 3 -0.001700 -0.002512 0.010596 -0.001064 -0.005634 0.001167
# 4 -0.001312 -0.000949 -0.001064 0.021058 -0.001918 -0.003622
# 5 -0.006167 0.000637 -0.005634 -0.001918 0.029251 -0.005958
# 6 0.009766 0.002708 0.001167 -0.003622 -0.005958 0.040054
#
#
# Mechanical properties :
#
#
# Convention : Reuss Voigt Hill
#
# Bulk Modulus (GPa) = 38.55723 62.66442 50.61082
# Shear Modulus (GPa) = 33.19130 40.55963 36.87546
#
# Velocity S-wave (km/s) = 3.75158 4.14714 3.95431
# Velocity P-wave (km/s) = 5.92583 7.03589 6.50459
#
# Compressibility (1/GPa) = 0.02593547
#
# Stress axis : x y z
#
# Youngs Moduli (GPa) = 51.21625 115.42449 94.37465
#
# Poissons Ratio (x) = 0.25536 0.16044
# Poissons Ratio (y) = 0.11331 0.23709
# Poissons Ratio (z) = 0.08707 0.28997
#
# Static dielectric constant tensor:
#      x y z
#    x 1.961580 0.012750 0.015300 
#    y 0.012750 1.867520 0.000820 
#    z 0.015300 0.000820 1.949030 
# 
# From -- ./inp_files/419804.got.cif
#   From: 2010.05.17/outbox.cif.g08.bks.cpg/sg2_210_cif.got.tgz:419804.got - 2010.06.03 11:33:40.
