data_PCOD9108637
_publ_section_title
;
Structure prediction by ZEFSAII (Michael W. Deem and Ramdas Pophale) SiO2 
 PCOD9108637
Probable space group: P -1
;
_chemical_formula_sum "Si O2"
_cell_formula_units_Z 15
_cell_length_a 12.072271
_cell_length_b 10.825173
_cell_length_c 8.781589
_cell_angle_alpha 127.252926
_cell_angle_beta 133.078382
_cell_angle_gamma 64.705623
_cell_volume 667.027973
_symmetry_space_group_name_H-M "P -1"
_symmetry_group_IT_number 2
_symmetry_cell_setting 'triclinic'
loop_
_space_group_symop_operation_xyz
x,y,z
-x,-y,-z
loop_
_atom_site_type_symbol
_atom_site_label
_atom_site_fract_x
_atom_site_fract_y
_atom_site_fract_z
Si Si1 0.932076 0.536537 0.630018
Si Si2 0.786308 0.230096 0.297641
Si Si3 0.401775 0.578820 0.335673
Si Si4 0.000000 0.000000 0.500000
Si Si5 0.530662 0.638576 0.009803
Si Si6 0.881647 0.239658 0.808177
Si Si7 0.360062 0.240592 0.506178
Si Si8 0.826101 0.056517 0.898401
O O1 0.898001 0.369820 0.543777
O O2 0.773865 0.629444 0.527137
O O3 0.000000 0.500000 0.500000
O O4 0.028294 0.643059 0.911397
O O5 0.613982 0.295834 0.171444
O O6 0.818475 0.182650 0.116870
O O7 0.843236 0.083343 0.340112
O O8 0.500000 0.500000 0.500000
O O9 0.360692 0.445359 0.074034
O O10 0.251918 0.660609 0.321974
O O11 0.508088 0.697897 0.432700
O O12 0.012161 0.870589 0.276320
O O13 0.500000 0.500000 0.000000
O O14 0.589570 0.768776 0.276254
O O15 0.790917 0.129787 0.756934
O O16 0.286090 0.080447 0.270862
O O17 0.000000 0.000000 0.000000
#
# Coordination Sequence:
#
# PCOD9108637 Si02
#       8
#     2   2   2   1   2   2   2   2
#     4  12  22  41  77 110 128 186 245 299 350 405
#     4  12  23  43  70 102 145 181 234 296 350 425
#     4  11  24  46  68 103 140 185 238 292 351 423
#     4  12  28  46  62 104 154 196 220 292 372 414
#     4  10  20  40  70 102 131 177 239 297 344 404
#     4  12  26  45  72 102 145 187 240 296 349 428
#     4  11  23  42  73 105 138 181 236 294 360 416
#     4  12  22  44  70 106 139 179 235 298 348 416
#
# _framework density 22.487814
#
# number of rings (size 3 to 8) (size 9 to 14) (size 15 to 20)
#    0.000    0.533    6.667    3.200    0.000    2.667 
#    2.400    0.000    0.000    5.600    0.000    0.000 
#    0.000    0.000    0.000    0.000    0.000    0.000 
#
# Total GULP energy -83543.828869 kJ/mol
# GULP energy per Si atom -5569.588591 kJ/mol
# Density = 2.243663 g / cm^3
# Si number density = 22.487814 Si / 1000 Ang^3
#
#
#
# Elastic Constant Matrix: (Units=GPa)
#
#
# Indices 1 2 3 4 5 6 
#
# 1 81.3985 36.2753 44.4178 20.7897 -6.1015 -23.9096
# 2 36.2753 114.7867 41.4877 -10.7483 3.0114 -29.7388
# 3 44.4178 41.4877 121.2752 16.6015 -5.5766 -1.0287
# 4 20.7897 -10.7483 16.6015 51.2336 -6.9649 -0.8590
# 5 -6.1015 3.0114 -5.5766 -6.9649 33.7180 1.7729
# 6 -23.9096 -29.7388 -1.0287 -0.8590 1.7729 40.4578
#
#
#
# Elastic Compliance Matrix: (Units=1/GPa)
#
#
# Indices 1 2 3 4 5 6 
#
# 1 0.021699 -0.002706 -0.005904 -0.007125 0.001169 0.010482
# 2 -0.002706 0.014059 -0.004571 0.005426 -0.001844 0.008815
# 3 -0.005904 -0.004571 0.012313 -0.002500 0.001209 -0.006642
# 4 -0.007125 0.005426 -0.002500 0.024757 0.002921 0.000112
# 5 0.001169 -0.001844 0.001209 0.002921 0.030939 -0.001928
# 6 0.010482 0.008815 -0.006642 0.000112 -0.001928 0.037309
#
#
# Mechanical properties :
#
#
# Convention : Reuss Voigt Hill
#
# Bulk Modulus (GPa) = 46.06179 62.42465 54.24322
# Shear Modulus (GPa) = 28.62448 38.10050 33.36249
#
# Velocity S-wave (km/s) = 3.57163 4.12062 3.85591
# Velocity P-wave (km/s) = 6.12668 7.10345 6.63306
#
# Compressibility (1/GPa) = 0.02170997
#
# Stress axis : x y z
#
# Youngs Moduli (GPa) = 46.08506 71.12645 81.21226
#
# Poissons Ratio (x) = 0.19245 0.47946
# Poissons Ratio (y) = 0.12469 0.37126
# Poissons Ratio (z) = 0.27207 0.32515
#
# Static dielectric constant tensor:
#      x y z
#    x 1.846860 -0.008170 -0.013510 
#    y -0.008170 1.880400 -0.017470 
#    z -0.013510 -0.017470 1.890780 
# 
# From -- ./inp_files/154112.got.cif
#   From: 2010.05.17/outbox.cif.g08.bks.cpg/sg2_78_cif.got.tgz:154112.got - 2010.06.03 11:33:40.
