data_PCOD9108654
_publ_section_title
;
Structure prediction by ZEFSAII (Michael W. Deem and Ramdas Pophale) SiO2 
 PCOD9108654
Probable space group: P -1
;
_chemical_formula_sum "Si O2"
_cell_formula_units_Z 16
_cell_length_a 23.969349
_cell_length_b 5.184532
_cell_length_c 17.900824
_cell_angle_alpha 104.954091
_cell_angle_beta 162.032428
_cell_angle_gamma 79.888675
_cell_volume 644.488354
_symmetry_space_group_name_H-M "P -1"
_symmetry_group_IT_number 2
_symmetry_cell_setting 'triclinic'
loop_
_space_group_symop_operation_xyz
x,y,z
-x,-y,-z
loop_
_atom_site_type_symbol
_atom_site_label
_atom_site_fract_x
_atom_site_fract_y
_atom_site_fract_z
Si Si1 0.595773 0.339748 0.921524
Si Si2 0.110805 0.772430 0.031144
Si Si3 0.264735 0.006805 0.397323
Si Si4 0.593061 0.376011 0.189226
Si Si5 0.869111 0.211069 0.642101
Si Si6 0.142482 0.279255 0.815624
Si Si7 0.263082 0.862889 0.774411
Si Si8 0.864597 0.115392 0.089339
O O1 0.469034 0.199310 0.680649
O O2 0.445131 0.370791 0.794198
O O3 0.712895 0.624703 0.059798
O O4 0.727185 0.198823 0.129377
O O5 0.229829 0.852224 0.263080
O O6 0.913641 0.858402 0.804866
O O7 0.049627 0.450341 0.910422
O O8 0.212314 0.913342 0.095946
O O9 0.251337 0.814178 0.438256
O O10 0.756294 0.294509 0.437877
O O11 0.667011 0.382476 0.199655
O O12 0.410963 0.129593 0.952845
O O13 0.934723 0.945283 0.678014
O O14 0.203051 0.100991 0.946004
O O15 0.942245 0.138603 0.515655
O O16 0.128292 0.579238 0.851306
#
# Coordination Sequence:
#
# PCOD9108654 Si02
#       8
#     2   2   2   2   2   2   2   2
#     4  12  26  43  65  99 144 178 228 285 337 404
#     4  10  20  40  70 104 131 180 221 285 344 407
#     4  10  22  37  67 105 140 168 226 284 348 398
#     4  11  23  40  69 102 131 176 228 291 337 398
#     4  11  19  40  71 101 138 173 228 285 344 400
#     4  12  28  45  72  95 143 188 229 272 342 406
#     4  11  25  43  65 101 130 187 225 281 338 407
#     4  11  24  46  70 100 132 187 230 277 331 416
#
# _framework density 24.825894000000002
#
# number of rings (size 3 to 8) (size 9 to 14) (size 15 to 20)
#    0.000    1.000    5.000    1.125    5.250    0.500 
#    0.000    1.250    0.000    0.000    0.000    0.000 
#    0.000    0.000    0.000    0.000    0.000    0.000 
#
# Total GULP energy -89413.209226 kJ/mol
# GULP energy per Si atom -5588.325577 kJ/mol
# Density = 2.476939 g / cm^3
# Si number density = 24.825894 Si / 1000 Ang^3
#
#
#
# Elastic Constant Matrix: (Units=GPa)
#
#
# Indices 1 2 3 4 5 6 
#
# 1 149.6991 34.1523 42.5420 1.2054 -17.0077 14.8831
# 2 34.1523 84.9919 7.8310 13.2235 -9.6572 5.8320
# 3 42.5420 7.8310 103.5559 10.7081 -21.5283 9.0674
# 4 1.2054 13.2235 10.7081 18.3815 -1.5085 9.4742
# 5 -17.0077 -9.6572 -21.5283 -1.5085 31.6454 5.0010
# 6 14.8831 5.8320 9.0674 9.4742 5.0010 47.2138
#
#
#
# Elastic Compliance Matrix: (Units=1/GPa)
#
#
# Indices 1 2 3 4 5 6 
#
# 1 0.008982 -0.003743 -0.003268 0.005811 0.002236 -0.003145
# 2 -0.003743 0.015303 0.002293 -0.012303 0.003482 0.000949
# 3 -0.003268 0.002293 0.013375 -0.008052 0.007822 -0.001035
# 4 0.005811 -0.012303 -0.008052 0.074588 -0.000389 -0.013692
# 5 0.002236 0.003482 0.007822 -0.000389 0.040246 -0.006822
# 6 -0.003145 0.000949 -0.001035 -0.013692 -0.006822 0.025723
#
#
# Mechanical properties :
#
#
# Convention : Reuss Voigt Hill
#
# Bulk Modulus (GPa) = 35.42781 56.36637 45.89709
# Shear Modulus (GPa) = 25.37298 36.36291 30.86795
#
# Velocity S-wave (km/s) = 3.20040 3.83131 3.52998
# Velocity P-wave (km/s) = 5.28755 6.50584 5.92808
#
# Compressibility (1/GPa) = 0.02822641
#
# Stress axis : x y z
#
# Youngs Moduli (GPa) = 111.32803 65.34628 74.76652
#
# Poissons Ratio (x) = 0.24456 0.24432
# Poissons Ratio (y) = 0.41666 -0.17146
# Poissons Ratio (z) = 0.36379 -0.14986
#
# Static dielectric constant tensor:
#      x y z
#    x 2.047610 -0.037550 0.019070 
#    y -0.037550 2.060800 -0.008800 
#    z 0.019070 -0.008800 1.927560 
# 
# From -- ./inp_files/119992.got.cif
#   From: 2010.05.17/outbox.cif.g08.bks.cpg/sg2_60_cif.got.tgz:119992.got - 2010.06.03 11:33:40.
