data_PCOD9108697
_publ_section_title
;
Structure prediction by ZEFSAII (Michael W. Deem and Ramdas Pophale) SiO2 
 PCOD9108697
Probable space group: P -1
;
_chemical_formula_sum "Si O2"
_cell_formula_units_Z 10
_cell_length_a 10.038562
_cell_length_b 10.058075
_cell_length_c 7.165743
_cell_angle_alpha 42.170253
_cell_angle_beta 89.349973
_cell_angle_gamma 108.867432
_cell_volume 422.219679
_symmetry_space_group_name_H-M "P -1"
_symmetry_group_IT_number 2
_symmetry_cell_setting 'triclinic'
loop_
_space_group_symop_operation_xyz
x,y,z
-x,-y,-z
loop_
_atom_site_type_symbol
_atom_site_label
_atom_site_fract_x
_atom_site_fract_y
_atom_site_fract_z
Si Si1 0.586505 0.545696 0.745960
Si Si2 0.719682 0.554632 0.224867
Si Si3 0.898789 0.760164 0.353379
Si Si4 0.120329 0.944602 0.458774
Si Si5 0.334125 0.781657 0.760413
O O1 0.460284 0.560139 0.608326
O O2 0.754411 0.749907 0.478902
O O3 0.500000 0.500000 0.000000
O O4 0.629796 0.345169 0.943142
O O5 0.825152 0.583182 0.369168
O O6 0.727582 0.404084 0.213785
O O7 0.764912 0.812589 0.892270
O O8 0.016137 0.752588 0.507689
O O9 0.000000 0.000000 0.000000
O O10 0.210467 0.864450 0.676257
O O11 0.000000 0.000000 0.500000
O O12 0.500000 0.000000 0.500000
#
# Coordination Sequence:
#
# PCOD9108697 Si02
#       5
#     2   2   2   2   2
#     4  10  20  40  70  95 128 176 226 266 323 403
#     4  10  22  41  65  94 134 173 219 275 330 398
#     4  10  23  41  65  99 137 174 213 278 347 383
#     4  11  23  41  67  98 132 175 221 277 333 393
#     4  11  23  40  68  98 131 176 229 271 324 396
#
# _framework density 23.684353000000002
#
# number of rings (size 3 to 8) (size 9 to 14) (size 15 to 20)
#    0.000    1.600    2.000    3.000    2.800    4.000 
#    0.000    5.000    0.000    0.000    0.000    0.000 
#    0.000    0.000    0.000    0.000    0.000    0.000 
#
# Total GULP energy -55686.710612 kJ/mol
# GULP energy per Si atom -5568.671061 kJ/mol
# Density = 2.363045 g / cm^3
# Si number density = 23.684353 Si / 1000 Ang^3
#
#
#
# Elastic Constant Matrix: (Units=GPa)
#
#
# Indices 1 2 3 4 5 6 
#
# 1 146.3629 0.1969 30.7212 -19.1459 5.9012 16.4734
# 2 0.1969 87.1295 3.1444 -27.9013 3.3686 14.6775
# 3 30.7212 3.1444 82.2381 -4.9737 -20.7987 -4.6297
# 4 -19.1459 -27.9013 -4.9737 21.9470 -1.1394 -11.7803
# 5 5.9012 3.3686 -20.7987 -1.1394 46.8425 -4.0627
# 6 16.4734 14.6775 -4.6297 -11.7803 -4.0627 43.3566
#
#
#
# Elastic Compliance Matrix: (Units=1/GPa)
#
#
# Indices 1 2 3 4 5 6 
#
# 1 0.009605 0.004346 -0.004059 0.011317 -0.003292 -0.002788
# 2 0.004346 0.021383 -0.001179 0.030050 -0.001968 -0.001035
# 3 -0.004059 -0.001179 0.016185 0.001686 0.008249 0.004901
# 4 0.011317 0.030050 0.001686 0.101187 0.000775 0.013273
# 5 -0.003292 -0.001968 0.008249 0.000775 0.026058 0.005450
# 6 -0.002788 -0.001035 0.004901 0.013273 0.005450 0.029115
#
#
# Mechanical properties :
#
#
# Convention : Reuss Voigt Hill
#
# Bulk Modulus (GPa) = 22.03235 42.65061 32.34148
# Shear Modulus (GPa) = 22.68091 41.20709 31.94400
#
# Velocity S-wave (km/s) = 3.09792 4.17567 3.67650
# Velocity P-wave (km/s) = 4.70307 6.42614 5.63090
#
# Compressibility (1/GPa) = 0.04538780
#
# Stress axis : x y z
#
# Youngs Moduli (GPa) = 104.10850 46.76522 61.78390
#
# Poissons Ratio (x) = -0.20322 0.25080
# Poissons Ratio (y) = -0.45241 0.07287
# Poissons Ratio (z) = 0.42261 0.05516
#
# Static dielectric constant tensor:
#      x y z
#    x 1.946070 0.090450 -0.062270 
#    y 0.090450 2.180840 0.002680 
#    z -0.062270 0.002680 1.990960 
# 
# From -- ./inp_files/146529.got.cif
#   From: 2010.05.17/outbox.cif.g08.bks.cpg/sg2_74_cif.got.tgz:146529.got - 2010.06.03 11:33:40.
