data_PCOD9108846
_publ_section_title
;
Structure prediction by ZEFSAII (Michael W. Deem and Ramdas Pophale) SiO2 
 PCOD9108846
Probable space group: P -1
;
_chemical_formula_sum "Si O2"
_cell_formula_units_Z 16
_cell_length_a 5.529856
_cell_length_b 14.854965
_cell_length_c 19.882273
_cell_angle_alpha 26.033694
_cell_angle_beta 70.644073
_cell_angle_gamma 82.964884
_cell_volume 612.699971
_symmetry_space_group_name_H-M "P -1"
_symmetry_group_IT_number 2
_symmetry_cell_setting 'triclinic'
loop_
_space_group_symop_operation_xyz
x,y,z
-x,-y,-z
loop_
_atom_site_type_symbol
_atom_site_label
_atom_site_fract_x
_atom_site_fract_y
_atom_site_fract_z
Si Si1 0.752514 0.583881 0.478442
Si Si2 0.162751 0.257314 0.286652
Si Si3 0.154408 0.869851 0.993696
Si Si4 0.558732 0.814430 0.500635
Si Si5 0.265876 0.609429 0.808119
Si Si6 0.408781 0.200859 0.859652
Si Si7 0.123476 0.909379 0.830280
Si Si8 0.937994 0.590368 0.664945
O O1 0.500000 0.500000 0.500000
O O2 0.614200 0.445597 0.651448
O O3 0.000000 0.500000 0.500000
O O4 0.891444 0.853517 0.303019
O O5 0.490461 0.318732 0.206850
O O6 0.989063 0.316982 0.205813
O O7 0.149353 0.403817 0.253498
O O8 0.000000 0.000000 0.500000
O O9 0.815790 0.790027 0.072279
O O10 0.190411 0.672905 0.164352
O O11 0.288609 0.888450 0.896037
O O12 0.247249 0.098705 0.872006
O O13 0.424504 0.762760 0.623789
O O14 0.274265 0.685505 0.569334
O O15 0.812746 0.740410 0.538305
O O16 0.710229 0.034862 0.292373
O O17 0.135728 0.339842 0.986599
O O18 0.500000 0.000000 0.000000
#
# Coordination Sequence:
#
# PCOD9108846 Si02
#       8
#     2   2   2   2   2   2   2   2
#     4  12  28  44  61  94 130 174 228 283 337 397
#     4  10  20  40  73 104 135 177 220 269 337 412
#     4  11  23  43  66  92 127 177 225 278 337 402
#     4  10  23  41  65  95 130 171 221 275 324 388
#     4  10  23  42  68 100 137 176 223 270 339 398
#     4  11  26  43  66  89 134 177 223 287 348 383
#     4  12  24  44  69  96 134 178 236 277 335 408
#     4  10  22  42  65  97 132 173 222 268 336 396
#
# _framework density 26.113927
#
# number of rings (size 3 to 8) (size 9 to 14) (size 15 to 20)
#    0.000    1.250    3.750    1.875    5.250    5.000 
#    2.250    0.000    0.000   18.000    0.000    0.000 
#    0.000    0.000    0.000    0.000    0.000    0.000 
#
# Total GULP energy -89190.043117 kJ/mol
# GULP energy per Si atom -5574.377695 kJ/mol
# Density = 2.605449 g / cm^3
# Si number density = 26.113927 Si / 1000 Ang^3
#
#
#
# Elastic Constant Matrix: (Units=GPa)
#
#
# Indices 1 2 3 4 5 6 
#
# 1 171.2433 22.1860 37.3556 -9.1697 13.7111 -15.4606
# 2 22.1860 86.1345 47.8052 -10.3627 -3.1775 0.1202
# 3 37.3556 47.8052 165.8874 -6.9852 11.9307 -6.3543
# 4 -9.1697 -10.3627 -6.9852 53.5634 5.5688 5.9467
# 5 13.7111 -3.1775 11.9307 5.5688 32.3719 -7.7644
# 6 -15.4606 0.1202 -6.3543 5.9467 -7.7644 26.4266
#
#
#
# Elastic Compliance Matrix: (Units=1/GPa)
#
#
# Indices 1 2 3 4 5 6 
#
# 1 0.006651 -0.001237 -0.000854 0.000673 -0.002034 0.002942
# 2 -0.001237 0.014531 -0.004081 0.001931 0.002790 -0.001386
# 3 -0.000854 -0.004081 0.007628 0.000297 -0.002789 0.000467
# 4 0.000673 0.001931 0.000297 0.020344 -0.005049 -0.005605
# 5 -0.002034 0.002790 -0.002789 -0.005049 0.036304 0.009930
# 6 0.002942 -0.001386 0.000467 -0.005605 0.009930 0.043859
#
#
# Mechanical properties :
#
#
# Convention : Reuss Voigt Hill
#
# Bulk Modulus (GPa) = 60.73784 70.88429 65.81106
# Shear Modulus (GPa) = 33.97897 43.53361 38.75629
#
# Velocity S-wave (km/s) = 3.61110 4.08740 3.85661
# Velocity P-wave (km/s) = 6.37934 7.03413 6.71472
#
# Compressibility (1/GPa) = 0.01646420
#
# Stress axis : x y z
#
# Youngs Moduli (GPa) = 150.35994 68.81947 131.10340
#
# Poissons Ratio (x) = 0.08516 0.11193
# Poissons Ratio (y) = 0.18606 0.53507
# Poissons Ratio (z) = 0.12837 0.28087
#
# Static dielectric constant tensor:
#      x y z
#    x 2.248690 0.080030 -0.042580 
#    y 0.080030 2.166050 -0.035330 
#    z -0.042580 -0.035330 2.123740 
# 
# From -- ./inp_files/604937.got.cif
#   From: 2010.05.17/outbox.cif.g08.bks.cpg/sg2_303_cif.got.tgz:604937.got - 2010.06.03 11:33:40.
