data_PCOD9108219
_publ_section_title
;
Structure prediction by ZEFSAII (Michael W. Deem and Ramdas Pophale) SiO2 
 PCOD9108219
Probable space group: P -1
;
_chemical_formula_sum "Si O2"
_cell_formula_units_Z 16
_cell_length_a 10.995736
_cell_length_b 9.229535
_cell_length_c 15.921594
_cell_angle_alpha 43.797831
_cell_angle_beta 102.906858
_cell_angle_gamma 69.430726
_cell_volume 708.757520
_symmetry_space_group_name_H-M "P -1"
_symmetry_group_IT_number 2
_symmetry_cell_setting 'triclinic'
loop_
_space_group_symop_operation_xyz
x,y,z
-x,-y,-z
loop_
_atom_site_type_symbol
_atom_site_label
_atom_site_fract_x
_atom_site_fract_y
_atom_site_fract_z
Si Si1 0.316532 0.828383 0.789896
Si Si2 0.988420 0.960910 0.227117
Si Si3 0.593043 0.150403 0.467427
Si Si4 0.228978 0.299590 0.471453
Si Si5 0.852345 0.650102 0.172987
Si Si6 0.923711 0.715568 0.815208
Si Si7 0.229751 0.692480 0.664850
Si Si8 0.200283 0.801449 0.070203
O O1 0.295826 0.714475 0.751626
O O2 0.326605 0.053125 0.666085
O O3 0.500000 0.500000 0.000000
O O4 0.130535 0.039435 0.730708
O O5 0.163499 0.613009 0.356882
O O6 0.058617 0.066184 0.247056
O O7 0.838329 0.220342 0.022302
O O8 0.688325 0.256088 0.414159
O O9 0.370716 0.480961 0.281765
O O10 0.647251 0.914404 0.501827
O O11 0.705975 0.942517 0.656302
O O12 0.026542 0.449648 0.350505
O O13 0.728488 0.608465 0.199446
O O14 0.945786 0.493776 0.160138
O O15 0.763329 0.995115 0.012828
O O16 0.000000 0.500000 0.000000
O O17 0.000000 0.000000 0.500000
O O18 0.000000 0.000000 0.000000
#
# Coordination Sequence:
#
# PCOD9108219 Si02
#       8
#     2   2   2   2   2   2   2   2
#     4  11  20  34  58  99 135 161 203 267 328 391
#     4  11  21  39  63  94 125 171 213 267 331 373
#     4  10  22  43  68  97 128 177 221 264 336 399
#     4   9  20  37  64  91 131 168 210 256 327 408
#     4  10  20  40  67  93 126 177 216 260 330 392
#     4  11  22  41  67  95 130 170 217 275 323 385
#     4  11  17  38  71  91 133 168 212 264 330 408
#     4  11  25  46  65  90 133 179 230 270 316 400
#
# _framework density 22.574718000000001
#
# number of rings (size 3 to 8) (size 9 to 14) (size 15 to 20)
#    0.000    1.500    5.000    2.625    0.000    0.500 
#    2.250   15.000    0.000    0.000    0.000    0.000 
#    0.000    0.000    0.000    0.000    0.000    0.000 
#
# Total GULP energy -89404.946087 kJ/mol
# GULP energy per Si atom -5587.809130 kJ/mol
# Density = 2.252334 g / cm^3
# Si number density = 22.574718 Si / 1000 Ang^3
#
#
#
# Elastic Constant Matrix: (Units=GPa)
#
#
# Indices 1 2 3 4 5 6 
#
# 1 62.5856 12.2187 34.2575 -9.8413 -12.9260 2.6074
# 2 12.2187 85.4241 39.9893 6.0641 3.5329 16.3650
# 3 34.2575 39.9893 187.3627 6.1697 -0.0779 2.4943
# 4 -9.8413 6.0641 6.1697 43.9805 -0.5012 -3.6363
# 5 -12.9260 3.5329 -0.0779 -0.5012 32.5340 3.9962
# 6 2.6074 16.3650 2.4943 -3.6363 3.9962 29.7061
#
#
#
# Elastic Compliance Matrix: (Units=1/GPa)
#
#
# Indices 1 2 3 4 5 6 
#
# 1 0.021035 -0.001876 -0.003609 0.005488 0.008762 -0.001016
# 2 -0.001876 0.015019 -0.002664 -0.002798 -0.001439 -0.008034
# 3 -0.003609 -0.002664 0.006591 -0.001276 -0.001302 0.001250
# 4 0.005488 -0.002798 -0.001276 0.024879 0.002386 0.003891
# 5 0.008762 -0.001439 -0.001302 0.002386 0.034933 -0.004274
# 6 -0.001016 -0.008034 0.001250 0.003891 -0.004274 0.039125
#
#
# Mechanical properties :
#
#
# Convention : Reuss Voigt Hill
#
# Bulk Modulus (GPa) = 37.95717 56.47817 47.21767
# Shear Modulus (GPa) = 30.00082 37.83792 33.91937
#
# Velocity S-wave (km/s) = 3.64944 4.09849 3.88046
# Velocity P-wave (km/s) = 5.88289 6.88981 6.40616
#
# Compressibility (1/GPa) = 0.02634548
#
# Stress axis : x y z
#
# Youngs Moduli (GPa) = 47.54027 66.58201 151.73245
#
# Poissons Ratio (x) = 0.12494 0.54761
# Poissons Ratio (y) = 0.08921 0.40421
# Poissons Ratio (z) = 0.17158 0.17737
#
# Static dielectric constant tensor:
#      x y z
#    x 1.916860 -0.030910 -0.048910 
#    y -0.030910 1.821180 -0.026570 
#    z -0.048910 -0.026570 1.870790 
# 
# From -- ./inp_files/515072.got.cif
#   From: 2010.05.17/outbox.cif.g08.bks.cpg/sg2_258_cif.got.tgz:515072.got - 2010.06.03 11:33:40.
