data_PCOD9108256
_publ_section_title
;
Structure prediction by ZEFSAII (Michael W. Deem and Ramdas Pophale) SiO2 
 PCOD9108256
Probable space group: P -1
;
_chemical_formula_sum "Si O2"
_cell_formula_units_Z 16
_cell_length_a 16.086330
_cell_length_b 15.876896
_cell_length_c 9.120896
_cell_angle_alpha 51.640177
_cell_angle_beta 133.044781
_cell_angle_gamma 154.777868
_cell_volume 725.420908
_symmetry_space_group_name_H-M "P -1"
_symmetry_group_IT_number 2
_symmetry_cell_setting 'triclinic'
loop_
_space_group_symop_operation_xyz
x,y,z
-x,-y,-z
loop_
_atom_site_type_symbol
_atom_site_label
_atom_site_fract_x
_atom_site_fract_y
_atom_site_fract_z
Si Si1 0.067302 0.628368 0.237211
Si Si2 0.292507 0.263712 0.157539
Si Si3 0.085252 0.952424 0.608270
Si Si4 0.069375 0.199034 0.726563
Si Si5 0.844354 0.659006 0.865536
Si Si6 0.145467 0.755005 0.515656
Si Si7 0.541140 0.344555 0.596495
Si Si8 0.433214 0.877913 0.193194
O O1 0.177666 0.738028 0.407898
O O2 0.236675 0.770506 0.159095
O O3 0.962052 0.428066 0.329460
O O4 0.885988 0.573804 0.067458
O O5 0.218966 0.301461 0.136651
O O6 0.494798 0.369832 0.361043
O O7 0.122479 0.032881 0.211148
O O8 0.268665 0.297384 0.931734
O O9 0.948866 0.804286 0.466250
O O10 0.056081 0.859810 0.818341
O O11 0.317958 0.147239 0.619048
O O12 0.000000 0.000000 0.500000
O O13 0.012136 0.268945 0.648380
O O14 0.673250 0.516655 0.685517
O O15 0.361211 0.960789 0.629617
O O16 0.627392 0.293303 0.731087
O O17 0.500000 0.000000 0.000000
#
# Coordination Sequence:
#
# PCOD9108256 Si02
#       8
#     2   2   2   2   2   2   2   2
#     4  11  27  42  72 100 128 189 222 275 347 388
#     4  10  20  40  67  95 127 175 215 269 338 387
#     4  11  22  40  65  98 130 171 214 270 338 395
#     4  10  20  40  69  94 131 174 216 274 335 395
#     4  12  23  42  67  96 133 170 219 274 331 401
#     4  11  23  48  67  95 141 172 230 281 326 407
#     4  11  24  40  66  97 134 169 218 277 330 392
#     4  12  25  45  69 100 136 175 230 277 334 404
#
# _framework density 22.056160999999999
#
# number of rings (size 3 to 8) (size 9 to 14) (size 15 to 20)
#    0.000    1.000    6.250    2.250    1.750    1.000 
#    0.000    0.625    0.000    0.000    0.000    0.000 
#    0.000    0.000    0.000    0.000    0.000    0.000 
#
# Total GULP energy -89426.820949 kJ/mol
# GULP energy per Si atom -5589.176309 kJ/mol
# Density = 2.200596 g / cm^3
# Si number density = 22.056161 Si / 1000 Ang^3
#
#
#
# Elastic Constant Matrix: (Units=GPa)
#
#
# Indices 1 2 3 4 5 6 
#
# 1 89.7315 3.7685 10.8404 -20.1786 9.6307 -9.1508
# 2 3.7685 42.1138 -4.1309 -10.1820 2.0910 -4.9354
# 3 10.8404 -4.1309 72.4166 -17.1693 19.5786 -4.7428
# 4 -20.1786 -10.1820 -17.1693 23.6102 -5.5723 12.8364
# 5 9.6307 2.0910 19.5786 -5.5723 42.5499 -7.2632
# 6 -9.1508 -4.9354 -4.7428 12.8364 -7.2632 22.4882
#
#
#
# Elastic Compliance Matrix: (Units=1/GPa)
#
#
# Indices 1 2 3 4 5 6 
#
# 1 0.014387 0.002659 0.002448 0.016333 -0.002941 -0.003319
# 2 0.002659 0.029009 0.006898 0.021415 -0.003137 -0.004333
# 3 0.002448 0.006898 0.021273 0.023456 -0.009209 -0.009366
# 4 0.016333 0.021415 0.023456 0.106080 -0.009742 -0.047405
# 5 -0.002941 -0.003137 -0.009209 -0.009742 0.029188 0.011161
# 6 -0.003319 -0.004333 -0.009366 -0.047405 0.011161 0.070854
#
#
# Mechanical properties :
#
#
# Convention : Reuss Voigt Hill
#
# Bulk Modulus (GPa) = 11.27647 25.02422 18.15035
# Shear Modulus (GPa) = 18.09352 30.64860 24.37106
#
# Velocity S-wave (km/s) = 2.86726 3.73174 3.32769
# Velocity P-wave (km/s) = 4.01065 5.47158 4.79705
#
# Compressibility (1/GPa) = 0.08868023
#
# Stress axis : x y z
#
# Youngs Moduli (GPa) = 69.50662 34.47175 47.00687
#
# Poissons Ratio (x) = -0.09165 -0.11508
# Poissons Ratio (y) = -0.18480 -0.32426
# Poissons Ratio (z) = -0.17017 -0.23779
#
# Static dielectric constant tensor:
#      x y z
#    x 1.728430 -0.035780 0.084160 
#    y -0.035780 1.807790 0.014610 
#    z 0.084160 0.014610 1.898630 
# 
# From -- ./inp_files/314750.got.cif
#   From: 2010.05.17/outbox.cif.g08.bks.cpg/sg2_158_cif.got.tgz:314750.got - 2010.06.03 11:33:40.
