data_PCOD9108293
_publ_section_title
;
Structure prediction by ZEFSAII (Michael W. Deem and Ramdas Pophale) SiO2 
 PCOD9108293
Probable space group: P -1
;
_chemical_formula_sum "Si O2"
_cell_formula_units_Z 14
_cell_length_a 11.176076
_cell_length_b 7.920406
_cell_length_c 8.816549
_cell_angle_alpha 63.646255
_cell_angle_beta 94.104950
_cell_angle_gamma 107.315379
_cell_volume 665.956123
_symmetry_space_group_name_H-M "P -1"
_symmetry_group_IT_number 2
_symmetry_cell_setting 'triclinic'
loop_
_space_group_symop_operation_xyz
x,y,z
-x,-y,-z
loop_
_atom_site_type_symbol
_atom_site_label
_atom_site_fract_x
_atom_site_fract_y
_atom_site_fract_z
Si Si1 0.916221 0.897899 0.672881
Si Si2 0.729934 0.524249 0.655719
Si Si3 0.521137 0.231183 0.958584
Si Si4 0.096272 0.949234 0.912991
Si Si5 0.336639 0.253211 0.700773
Si Si6 0.793417 0.175910 0.740768
Si Si7 0.495343 0.003206 0.318349
O O1 0.801209 0.723355 0.669073
O O2 0.005799 0.823098 0.826177
O O3 0.867839 0.061449 0.691128
O O4 0.000000 0.000000 0.500000
O O5 0.638049 0.379123 0.824780
O O6 0.656385 0.571142 0.484773
O O7 0.825273 0.411429 0.644363
O O8 0.403683 0.292650 0.855278
O O9 0.531815 0.212282 0.147916
O O10 0.500000 0.000000 0.000000
O O11 0.191461 0.135038 0.763466
O O12 0.183660 0.867330 0.063701
O O13 0.000000 0.000000 0.000000
O O14 0.409386 0.114978 0.681161
O O15 0.648865 0.096715 0.705572
O O16 0.500000 0.000000 0.500000
#
# Coordination Sequence:
#
# PCOD9108293 Si02
#       7
#     2   2   2   2   2   2   2
#     4  11  25  45  68 100 138 179 233 288 329 405
#     4  12  23  42  76 103 134 184 231 275 351 408
#     4  10  20  40  67  97 136 181 218 278 345 403
#     4  10  22  44  70  93 140 187 225 283 340 398
#     4  11  20  40  69 102 135 183 221 278 352 404
#     4  11  23  45  69  98 139 176 233 279 343 410
#     4  11  22  39  68 103 141 175 220 290 343 404
#
# _framework density 21.022406
#
# number of rings (size 3 to 8) (size 9 to 14) (size 15 to 20)
#    0.000    1.143    5.714    2.143    0.000    1.143 
#    0.000    5.714    0.000    0.000    0.000    0.000 
#    0.000    0.000    0.000    0.000    0.000    0.000 
#
# Total GULP energy -78056.679498 kJ/mol
# GULP energy per Si atom -5575.477107 kJ/mol
# Density = 2.097456 g / cm^3
# Si number density = 21.022406 Si / 1000 Ang^3
#
#
#
# Elastic Constant Matrix: (Units=GPa)
#
#
# Indices 1 2 3 4 5 6 
#
# 1 87.1445 18.6518 41.1337 3.0652 -1.3130 3.2134
# 2 18.6518 46.9968 39.0577 1.1233 8.7950 -7.9971
# 3 41.1337 39.0577 192.3436 5.0277 16.8579 -0.1913
# 4 3.0652 1.1233 5.0277 25.0608 5.9924 2.0332
# 5 -1.3130 8.7950 16.8579 5.9924 38.1931 4.1118
# 6 3.2134 -7.9971 -0.1913 2.0332 4.1118 24.7813
#
#
#
# Elastic Compliance Matrix: (Units=1/GPa)
#
#
# Indices 1 2 3 4 5 6 
#
# 1 0.013796 -0.004844 -0.002213 -0.001486 0.003207 -0.003779
# 2 -0.004844 0.030059 -0.004513 0.000772 -0.006434 0.011298
# 3 -0.002213 -0.004513 0.006762 -0.000371 -0.001880 -0.000775
# 4 -0.001486 0.000772 -0.000371 0.041816 -0.006418 -0.001927
# 5 0.003207 -0.006434 -0.001880 -0.006418 0.030367 -0.007019
# 6 -0.003779 0.011298 -0.000775 -0.001927 -0.007019 0.045806
#
#
# Mechanical properties :
#
#
# Convention : Reuss Voigt Hill
#
# Bulk Modulus (GPa) = 36.39241 58.24125 47.31683
# Shear Modulus (GPa) = 24.88732 32.78315 28.83524
#
# Velocity S-wave (km/s) = 3.44444 3.95326 3.70759
# Velocity P-wave (km/s) = 5.75914 6.97153 6.39413
#
# Compressibility (1/GPa) = 0.02747826
#
# Stress axis : x y z
#
# Youngs Moduli (GPa) = 72.48262 33.26764 147.87758
#
# Poissons Ratio (x) = 0.16115 0.32721
# Poissons Ratio (y) = 0.35112 0.66737
# Poissons Ratio (z) = 0.16038 0.15014
#
# Static dielectric constant tensor:
#      x y z
#    x 1.787290 -0.009020 0.021180 
#    y -0.009020 1.790220 0.024080 
#    z 0.021180 0.024080 1.829550 
# 
# From -- ./inp_files/233608.got.cif
#   From: 2010.05.17/outbox.cif.g08.bks.cpg/sg2_117_cif.got.tgz:233608.got - 2010.06.03 11:33:40.
