data_PCOD9108994
_publ_section_title
;
Structure prediction by ZEFSAII (Michael W. Deem and Ramdas Pophale) SiO2 
 PCOD9108994
Probable space group: P -1
;
_chemical_formula_sum "Si O2"
_cell_formula_units_Z 16
_cell_length_a 21.277366
_cell_length_b 6.296515
_cell_length_c 20.101534
_cell_angle_alpha 110.465734
_cell_angle_beta 19.901345
_cell_angle_gamma 101.899793
_cell_volume 792.901894
_symmetry_space_group_name_H-M "P -1"
_symmetry_group_IT_number 2
_symmetry_cell_setting 'triclinic'
loop_
_space_group_symop_operation_xyz
x,y,z
-x,-y,-z
loop_
_atom_site_type_symbol
_atom_site_label
_atom_site_fract_x
_atom_site_fract_y
_atom_site_fract_z
Si Si1 0.817893 0.960620 0.641865
Si Si2 0.283174 0.889039 0.880015
Si Si3 0.628683 0.983085 0.464839
Si Si4 0.736581 0.124139 0.598923
Si Si5 0.634803 0.586317 0.325361
Si Si6 0.445702 0.323984 0.130957
Si Si7 0.137540 0.770211 0.653029
Si Si8 0.472610 0.231797 0.249305
O O1 0.851306 0.971354 0.531119
O O2 0.755669 0.727109 0.689176
O O3 0.617022 0.175864 0.892851
O O4 0.000000 0.000000 0.500000
O O5 0.470235 0.921402 0.661293
O O6 0.240283 0.664220 0.864744
O O7 0.347980 0.811176 0.883038
O O8 0.093261 0.142306 0.088653
O O9 0.731791 0.742317 0.289477
O O10 0.506934 0.213398 0.563611
O O11 0.771248 0.067907 0.377120
O O12 0.603839 0.390415 0.788289
O O13 0.861735 0.162598 0.417960
O O14 0.598600 0.990659 0.693867
O O15 0.500000 0.500000 0.500000
O O16 0.512859 0.236636 0.130703
O O17 0.288260 0.487426 0.478065
#
# Coordination Sequence:
#
# PCOD9108994 Si02
#       8
#     2   2   2   2   2   2   2   2
#     4  10  21  38  62  90 118 155 202 247 293 360
#     4  11  22  38  63  89 119 166 199 247 312 352
#     4  10  20  41  61  89 125 155 202 257 297 361
#     4  10  21  41  59  85 124 162 195 250 303 345
#     4   9  20  39  65  88 122 159 199 252 305 355
#     4   9  21  40  59  85 122 158 195 247 303 348
#     4  11  23  38  62  91 121 161 208 248 300 367
#     4  10  21  41  58  87 129 156 202 257 293 358
#
# _framework density 20.179041000000002
#
# number of rings (size 3 to 8) (size 9 to 14) (size 15 to 20)
#    0.000    2.000    2.500    0.375    1.750    2.000 
#    6.750    5.625    0.000    0.000    0.000    0.000 
#    0.000    0.000    0.000    0.000    0.000    0.000 
#
# Total GULP energy -89202.939041 kJ/mol
# GULP energy per Si atom -5575.183690 kJ/mol
# Density = 2.013311 g / cm^3
# Si number density = 20.179041 Si / 1000 Ang^3
#
#
#
# Elastic Constant Matrix: (Units=GPa)
#
#
# Indices 1 2 3 4 5 6 
#
# 1 86.8067 20.6125 22.6964 -1.4255 1.3726 17.7818
# 2 20.6125 89.6171 19.3369 9.5052 -0.4773 20.5960
# 3 22.6964 19.3369 50.3200 1.3200 -10.4789 14.5351
# 4 -1.4255 9.5052 1.3200 17.0399 3.7761 5.4336
# 5 1.3726 -0.4773 -10.4789 3.7761 13.9262 1.7171
# 6 17.7818 20.5960 14.5351 5.4336 1.7171 38.9685
#
#
#
# Elastic Compliance Matrix: (Units=1/GPa)
#
#
# Indices 1 2 3 4 5 6 
#
# 1 0.014619 -0.001711 -0.006547 0.005540 -0.007464 -0.003768
# 2 -0.001711 0.013927 -0.002917 -0.006374 0.000751 -0.004636
# 3 -0.006547 -0.002917 0.031951 -0.004832 0.026871 -0.007898
# 4 0.005540 -0.006374 -0.004832 0.070050 -0.022639 -0.006127
# 5 -0.007464 0.000751 0.026871 -0.022639 0.099945 -0.008261
# 6 -0.003768 -0.004636 -0.007898 -0.006127 -0.008261 0.033996
#
#
# Mechanical properties :
#
#
# Convention : Reuss Voigt Hill
#
# Bulk Modulus (GPa) = 26.21565 39.11506 32.66535
# Shear Modulus (GPa) = 16.69142 24.92680 20.80911
#
# Velocity S-wave (km/s) = 2.87917 3.51847 3.21475
# Velocity P-wave (km/s) = 4.90638 5.99435 5.47745
#
# Compressibility (1/GPa) = 0.03814516
#
# Stress axis : x y z
#
# Youngs Moduli (GPa) = 68.40472 71.80177 31.29785
#
# Poissons Ratio (x) = 0.12286 0.20492
# Poissons Ratio (y) = 0.11705 0.09131
# Poissons Ratio (z) = 0.44788 0.20948
#
# Static dielectric constant tensor:
#      x y z
#    x 1.756420 0.001760 0.012410 
#    y 0.001760 1.725140 -0.001400 
#    z 0.012410 -0.001400 1.695110 
# 
# From -- ./inp_files/10604.got.cif
#   From: 2010.05.17/outbox.cif.g08.bks.cpg/sg2_6_cif.got.tgz:10604.got - 2010.06.03 11:33:40.
