data_PCOD9108037
_publ_section_title
;
Structure prediction by ZEFSAII (Michael W. Deem and Ramdas Pophale) SiO2 
 PCOD9108037
Probable space group: P -1
;
_chemical_formula_sum "Si O2"
_cell_formula_units_Z 16
_cell_length_a 15.286450
_cell_length_b 9.285797
_cell_length_c 11.638363
_cell_angle_alpha 65.782795
_cell_angle_beta 29.832268
_cell_angle_gamma 83.155301
_cell_volume 639.446224
_symmetry_space_group_name_H-M "P -1"
_symmetry_group_IT_number 2
_symmetry_cell_setting 'triclinic'
loop_
_space_group_symop_operation_xyz
x,y,z
-x,-y,-z
loop_
_atom_site_type_symbol
_atom_site_label
_atom_site_fract_x
_atom_site_fract_y
_atom_site_fract_z
Si Si1 0.803107 0.807769 0.754237
Si Si2 0.743224 0.623044 0.222795
Si Si3 0.578565 0.174170 0.769588
Si Si4 0.768142 0.462171 0.022669
Si Si5 0.592325 0.998746 0.584851
Si Si6 0.352560 0.294324 0.280446
Si Si7 0.131674 0.425478 0.651595
Si Si8 0.671540 0.903305 0.302957
O O1 0.797616 0.617944 0.848369
O O2 0.772527 0.818025 0.650903
O O3 0.612330 0.796476 0.043868
O O4 0.000000 0.000000 0.500000
O O5 0.500000 0.500000 0.500000
O O6 0.810587 0.572439 0.281080
O O7 0.800420 0.832497 0.111862
O O8 0.843674 0.579835 0.016666
O O9 0.737439 0.356168 0.598029
O O10 0.658998 0.139848 0.568928
O O11 0.500000 0.000000 0.000000
O O12 0.907663 0.373356 0.883056
O O13 0.532737 0.292988 0.359286
O O14 0.529517 0.803519 0.776031
O O15 0.746206 0.019540 0.298372
O O16 0.416084 0.011346 0.714681
O O17 0.211743 0.309743 0.531933
O O18 0.500000 0.500000 0.000000
#
# Coordination Sequence:
#
# PCOD9108037 Si02
#       8
#     2   2   2   2   2   2   2   2
#     4  12  26  44  67 102 140 175 227 288 340 399
#     4  10  20  40  66  95 130 173 223 278 334 402
#     4  12  22  40  66  94 129 178 224 274 334 401
#     4  11  24  41  66  99 139 173 228 280 343 406
#     4  11  22  39  70  98 130 170 233 274 334 406
#     4  12  24  45  72  96 137 185 228 278 335 414
#     4  12  24  42  68  99 130 181 231 273 339 412
#     4  10  21  41  68  97 131 176 220 283 341 404
#
# _framework density 25.021650999999999
#
# number of rings (size 3 to 8) (size 9 to 14) (size 15 to 20)
#    0.000    0.750    3.750    5.625    0.000    1.500 
#    0.000    0.625    0.000    0.000    0.000    0.000 
#    0.000    0.000    0.000    0.000    0.000    0.000 
#
# Total GULP energy -89514.816876 kJ/mol
# GULP energy per Si atom -5594.676055 kJ/mol
# Density = 2.496470 g / cm^3
# Si number density = 25.021651 Si / 1000 Ang^3
#
#
#
# Elastic Constant Matrix: (Units=GPa)
#
#
# Indices 1 2 3 4 5 6 
#
# 1 133.7555 42.3605 10.0672 -8.0192 15.2319 -2.9112
# 2 42.3605 142.7820 18.2495 3.1376 5.2980 -5.2505
# 3 10.0672 18.2495 43.8009 -5.1396 -9.9407 2.1725
# 4 -8.0192 3.1376 -5.1396 47.9692 5.8725 10.2214
# 5 15.2319 5.2980 -9.9407 5.8725 32.2845 1.5125
# 6 -2.9112 -5.2505 2.1725 10.2214 1.5125 70.7212
#
#
#
# Elastic Compliance Matrix: (Units=1/GPa)
#
#
# Indices 1 2 3 4 5 6 
#
# 1 0.009028 -0.002284 -0.001995 0.002025 -0.004870 0.000075
# 2 -0.002284 0.008209 -0.003340 -0.001320 -0.001097 0.000832
# 3 -0.001995 -0.003340 0.027167 0.001977 0.009572 -0.001655
# 4 0.002025 -0.001320 0.001977 0.022682 -0.004103 -0.003266
# 5 -0.004870 -0.001097 0.009572 -0.004103 0.037183 -0.000778
# 6 0.000075 0.000832 -0.001655 -0.003266 -0.000778 0.014744
#
#
# Mechanical properties :
#
#
# Convention : Reuss Voigt Hill
#
# Bulk Modulus (GPa) = 34.28732 51.29920 42.79326
# Shear Modulus (GPa) = 34.72909 46.83906 40.78407
#
# Velocity S-wave (km/s) = 3.72958 4.33129 4.04165
# Velocity P-wave (km/s) = 5.68147 6.74980 6.23855
#
# Compressibility (1/GPa) = 0.02916530
#
# Stress axis : x y z
#
# Youngs Moduli (GPa) = 110.77144 121.82313 36.80929
#
# Poissons Ratio (x) = 0.27829 0.07342
# Poissons Ratio (y) = 0.25305 0.12295
# Poissons Ratio (z) = 0.22093 0.40690
#
# Static dielectric constant tensor:
#      x y z
#    x 1.974200 0.022940 0.014550 
#    y 0.022940 2.011840 -0.005490 
#    z 0.014550 -0.005490 2.079900 
# 
# From -- ./inp_files/447051.got.cif
#   From: 2010.05.17/outbox.cif.g08.bks.cpg/sg2_224_cif.got.tgz:447051.got - 2010.06.03 11:33:40.
