data_PCOD9108020
_publ_section_title
;
Structure prediction by ZEFSAII (Michael W. Deem and Ramdas Pophale) SiO2 
 PCOD9108020
Probable space group: P -1
;
_chemical_formula_sum "Si O2"
_cell_formula_units_Z 11
_cell_length_a 9.578721
_cell_length_b 13.324183
_cell_length_c 7.231146
_cell_angle_alpha 81.593096
_cell_angle_beta 65.799288
_cell_angle_gamma 37.940932
_cell_volume 491.092713
_symmetry_space_group_name_H-M "P -1"
_symmetry_group_IT_number 2
_symmetry_cell_setting 'triclinic'
loop_
_space_group_symop_operation_xyz
x,y,z
-x,-y,-z
loop_
_atom_site_type_symbol
_atom_site_label
_atom_site_fract_x
_atom_site_fract_y
_atom_site_fract_z
Si Si1 0.274407 0.682908 0.173611
Si Si2 0.715270 0.189820 0.547707
Si Si3 0.000000 0.500000 0.500000
Si Si4 0.410583 0.784481 0.811645
Si Si5 0.223973 0.321441 0.819717
Si Si6 0.731290 0.911323 0.262784
O O1 0.328808 0.680343 0.357770
O O2 0.996690 0.779953 0.269817
O O3 0.500000 0.500000 0.000000
O O4 0.270428 0.792327 0.039404
O O5 0.675490 0.212400 0.343240
O O6 0.500258 0.225621 0.728833
O O7 0.000000 0.000000 0.500000
O O8 0.279274 0.390243 0.287425
O O9 0.162038 0.371234 0.624251
O O10 0.335751 0.942779 0.819630
O O11 0.232079 0.196708 0.879019
O O12 0.000000 0.500000 0.000000
O O13 0.500000 0.000000 0.500000
#
# Coordination Sequence:
#
# PCOD9108020 Si02
#       6
#     2   2   1   2   2   2
#     4  12  26  44  70 101 137 178 225 282 340 398
#     4  11  22  42  70  95 136 173 222 278 333 399
#     4  10  20  40  66  94 132 174 214 278 330 384
#     4  11  24  43  72  98 139 177 232 272 344 400
#     4  11  23  43  67  98 132 176 225 274 332 404
#     4  12  22  44  70  98 136 180 222 279 335 400
#
# _framework density 22.399027
#
# number of rings (size 3 to 8) (size 9 to 14) (size 15 to 20)
#    0.000    0.727    5.455    3.818    0.000    0.727 
#    0.000    7.273    0.000    0.000    0.000    0.000 
#    0.000    0.000    0.000    0.000    0.000    0.000 
#
# Total GULP energy -61304.463193 kJ/mol
# GULP energy per Si atom -5573.133018 kJ/mol
# Density = 2.234805 g / cm^3
# Si number density = 22.399027 Si / 1000 Ang^3
#
#
#
# Elastic Constant Matrix: (Units=GPa)
#
#
# Indices 1 2 3 4 5 6 
#
# 1 148.2201 59.4431 43.9693 32.5634 -18.8220 -11.8721
# 2 59.4431 93.4935 32.2956 25.5612 -3.0776 1.5538
# 3 43.9693 32.2956 89.8197 19.2908 -13.6175 6.4289
# 4 32.5634 25.5612 19.2908 40.6190 -4.2096 -7.4573
# 5 -18.8220 -3.0776 -13.6175 -4.2096 43.0338 13.3808
# 6 -11.8721 1.5538 6.4289 -7.4573 13.3808 49.5981
#
#
#
# Elastic Compliance Matrix: (Units=1/GPa)
#
#
# Indices 1 2 3 4 5 6 
#
# 1 0.010735 -0.004903 -0.002399 -0.003784 0.002673 0.001744
# 2 -0.004903 0.016124 -0.002329 -0.005611 -0.001732 -0.001753
# 3 -0.002399 -0.002329 0.014996 -0.004052 0.004457 -0.004257
# 4 -0.003784 -0.005611 -0.004052 0.033916 -0.001684 0.005349
# 5 0.002673 -0.001732 0.004457 -0.001684 0.027912 -0.007667
# 6 0.001744 -0.001753 -0.004257 0.005349 -0.007667 0.024059
#
#
# Mechanical properties :
#
#
# Convention : Reuss Voigt Hill
#
# Bulk Modulus (GPa) = 44.26290 66.99436 55.62863
# Shear Modulus (GPa) = 32.35474 39.70520 36.02997
#
# Velocity S-wave (km/s) = 3.80474 4.21483 4.01503
# Velocity P-wave (km/s) = 6.25343 7.32535 6.81051
#
# Compressibility (1/GPa) = 0.02259228
#
# Stress axis : x y z
#
# Youngs Moduli (GPa) = 93.15051 62.01839 66.68405
#
# Poissons Ratio (x) = 0.30409 0.15998
# Poissons Ratio (y) = 0.45673 0.15533
# Poissons Ratio (z) = 0.22348 0.14447
#
# Static dielectric constant tensor:
#      x y z
#    x 1.878280 0.026990 0.011180 
#    y 0.026990 1.921700 0.077240 
#    z 0.011180 0.077240 1.906060 
# 
# From -- ./inp_files/152343.got.cif
#   From: 2010.05.17/outbox.cif.g08.bks.cpg/sg2_77_cif.got.tgz:152343.got - 2010.06.03 11:33:40.
