data_PCOD9108045
_publ_section_title
;
Structure prediction by ZEFSAII (Michael W. Deem and Ramdas Pophale) SiO2 
 PCOD9108045
Probable space group: P -1
;
_chemical_formula_sum "Si O2"
_cell_formula_units_Z 14
_cell_length_a 9.773557
_cell_length_b 12.508673
_cell_length_c 9.432749
_cell_angle_alpha 50.606078
_cell_angle_beta 41.222760
_cell_angle_gamma 55.801535
_cell_volume 579.101932
_symmetry_space_group_name_H-M "P -1"
_symmetry_group_IT_number 2
_symmetry_cell_setting 'triclinic'
loop_
_space_group_symop_operation_xyz
x,y,z
-x,-y,-z
loop_
_atom_site_type_symbol
_atom_site_label
_atom_site_fract_x
_atom_site_fract_y
_atom_site_fract_z
Si Si1 0.435152 0.847186 0.190417
Si Si2 0.481809 0.579921 0.798504
Si Si3 0.124569 0.777196 0.985426
Si Si4 0.028720 0.809932 0.347485
Si Si5 0.077439 0.494046 0.646920
Si Si6 0.687817 0.552470 0.221984
Si Si7 0.859120 0.059230 0.425535
O O1 0.246721 0.823185 0.250296
O O2 0.626534 0.720862 0.122916
O O3 0.337960 0.845711 0.426036
O O4 0.500000 0.000000 0.000000
O O5 0.704173 0.556245 0.565649
O O6 0.333359 0.512842 0.859931
O O7 0.500000 0.500000 0.000000
O O8 0.373232 0.737648 0.790358
O O9 0.066130 0.844562 0.125801
O O10 0.053054 0.627243 0.181141
O O11 0.032730 0.856451 0.848423
O O12 0.992319 0.651333 0.531431
O O13 0.839440 0.918812 0.472193
O O14 0.121158 0.497219 0.778821
O O15 0.500000 0.500000 0.500000
O O16 0.000000 0.000000 0.500000
#
# Coordination Sequence:
#
# PCOD9108045 Si02
#       7
#     2   2   2   2   2   2   2
#     4  11  23  44  69  95 132 181 225 278 333 398
#     4  11  22  41  68 102 138 169 222 282 335 395
#     4  12  25  45  71  99 139 177 222 281 340 395
#     4  11  23  46  64  98 141 170 225 279 330 403
#     4  11  24  42  70 101 134 179 222 275 342 397
#     4  10  20  40  66  95 134 166 223 283 323 392
#     4  10  25  44  65  94 134 179 224 272 326 405
#
# _framework density 24.175364999999999
#
# number of rings (size 3 to 8) (size 9 to 14) (size 15 to 20)
#    0.000    1.143    4.286    2.571    6.000    1.714 
#    2.571    0.714    0.000    0.000    0.000    0.000 
#    0.000    0.000    0.000    0.000    0.000    0.000 
#
# Total GULP energy -78248.822212 kJ/mol
# GULP energy per Si atom -5589.201587 kJ/mol
# Density = 2.412034 g / cm^3
# Si number density = 24.175365 Si / 1000 Ang^3
#
#
#
# Elastic Constant Matrix: (Units=GPa)
#
#
# Indices 1 2 3 4 5 6 
#
# 1 78.8401 6.5694 43.8301 6.2288 36.6680 17.6589
# 2 6.5694 111.4439 35.2065 9.3564 21.8394 11.7777
# 3 43.8301 35.2065 108.7997 7.3467 38.5756 21.7000
# 4 6.2288 9.3564 7.3467 61.2603 13.9736 9.0967
# 5 36.6680 21.8394 38.5756 13.9736 51.2018 7.1934
# 6 17.6589 11.7777 21.7000 9.0967 7.1934 31.4631
#
#
#
# Elastic Compliance Matrix: (Units=1/GPa)
#
#
# Indices 1 2 3 4 5 6 
#
# 1 0.023008 0.003390 -0.003535 0.002241 -0.014599 -0.009054
# 2 0.003390 0.010840 -0.002624 -0.000185 -0.004596 -0.003047
# 3 -0.003535 -0.002624 0.015225 0.001548 -0.007357 -0.006300
# 4 0.002241 -0.000185 0.001548 0.018397 -0.006870 -0.006005
# 5 -0.014599 -0.004596 -0.007357 -0.006870 0.038207 0.008240
# 6 -0.009054 -0.003047 -0.006300 -0.006005 0.008240 0.042203
#
#
# Mechanical properties :
#
#
# Convention : Reuss Voigt Hill
#
# Bulk Modulus (GPa) = 22.96953 52.25508 37.61231
# Shear Modulus (GPa) = 29.77468 43.01689 36.39578
#
# Velocity S-wave (km/s) = 3.51324 4.22283 3.88427
# Velocity P-wave (km/s) = 5.09696 6.74080 5.97567
#
# Compressibility (1/GPa) = 0.04353593
#
# Stress axis : x y z
#
# Youngs Moduli (GPa) = 43.46399 92.24740 65.68269
#
# Poissons Ratio (x) = -0.31273 0.23218
# Poissons Ratio (y) = -0.14735 0.17233
# Poissons Ratio (z) = 0.15364 0.24203
#
# Static dielectric constant tensor:
#      x y z
#    x 1.939910 -0.002020 0.000250 
#    y -0.002020 1.871860 -0.025520 
#    z 0.000250 -0.025520 1.947320 
# 
# From -- ./inp_files/153732.got.cif
#   From: 2010.05.17/outbox.cif.g08.bks.cpg/sg2_77_cif.got.tgz:153732.got - 2010.06.03 11:33:40.
