data_PCOD9108972
_publ_section_title
;
Structure prediction by ZEFSAII (Michael W. Deem and Ramdas Pophale) SiO2 
 PCOD9108972
Probable space group: P -1
;
_chemical_formula_sum "Si O2"
_cell_formula_units_Z 16
_cell_length_a 15.725027
_cell_length_b 8.519469
_cell_length_c 12.042806
_cell_angle_alpha 100.831973
_cell_angle_beta 151.599998
_cell_angle_gamma 92.408098
_cell_volume 675.387305
_symmetry_space_group_name_H-M "P -1"
_symmetry_group_IT_number 2
_symmetry_cell_setting 'triclinic'
loop_
_space_group_symop_operation_xyz
x,y,z
-x,-y,-z
loop_
_atom_site_type_symbol
_atom_site_label
_atom_site_fract_x
_atom_site_fract_y
_atom_site_fract_z
Si Si1 0.853140 0.068665 0.391039
Si Si2 0.282758 0.273014 0.333334
Si Si3 0.300388 0.950936 0.560607
Si Si4 0.488506 0.730384 0.843848
Si Si5 0.174347 0.539660 0.115067
Si Si6 0.689597 0.503071 0.952990
Si Si7 0.315906 0.694440 0.866219
Si Si8 0.167457 0.895056 0.149360
O O1 0.860551 0.075818 0.532809
O O2 0.845364 0.237948 0.347706
O O3 0.000000 0.000000 0.500000
O O4 0.634929 0.915952 0.091702
O O5 0.292031 0.437960 0.292368
O O6 0.482365 0.349821 0.644945
O O7 0.253840 0.088459 0.215672
O O8 0.073238 0.207352 0.151873
O O9 0.354689 0.784306 0.615903
O O10 0.217711 0.944915 0.343182
O O11 0.493716 0.135367 0.837419
O O12 0.621321 0.654985 0.923419
O O13 0.372442 0.625004 0.806788
O O14 0.145530 0.461029 0.947122
O O15 0.251411 0.750905 0.206430
O O16 0.000000 0.500000 0.000000
O O17 0.747747 0.445063 0.126995
#
# Coordination Sequence:
#
# PCOD9108972 Si02
#       8
#     2   2   2   2   2   2   2   2
#     4   9  19  37  58  91 122 155 204 257 304 384
#     4  10  22  38  61  90 122 161 221 254 305 373
#     4   9  17  37  62  84 122 160 200 252 315 361
#     4   9  20  36  63  89 121 159 201 257 314 370
#     4  10  24  42  55  85 129 161 213 267 303 366
#     4  12  21  39  62  91 122 167 208 254 315 374
#     4   9  19  38  59  92 121 153 206 251 303 382
#     4  10  20  41  61  87 123 167 204 265 313 358
#
# _framework density 23.690110000000001
#
# number of rings (size 3 to 8) (size 9 to 14) (size 15 to 20)
#    0.000    2.250    1.250    3.000    0.000    2.500 
#   11.250    1.875    0.000    0.000    0.000    0.000 
#    0.000    0.000    0.000    0.000    0.000    0.000 
#
# Total GULP energy -89232.395141 kJ/mol
# GULP energy per Si atom -5577.024696 kJ/mol
# Density = 2.363619 g / cm^3
# Si number density = 23.690110 Si / 1000 Ang^3
#
#
#
# Elastic Constant Matrix: (Units=GPa)
#
#
# Indices 1 2 3 4 5 6 
#
# 1 121.8319 41.0593 20.1101 -28.3219 8.0013 -20.3168
# 2 41.0593 138.6215 11.1762 -14.3895 5.8502 -21.2841
# 3 20.1101 11.1762 62.2022 12.8898 6.5746 7.5776
# 4 -28.3219 -14.3895 12.8898 44.0977 0.7801 -7.0411
# 5 8.0013 5.8502 6.5746 0.7801 22.2855 -4.8398
# 6 -20.3168 -21.2841 7.5776 -7.0411 -4.8398 28.2452
#
#
#
# Elastic Compliance Matrix: (Units=1/GPa)
#
#
# Indices 1 2 3 4 5 6 
#
# 1 0.018083 0.001043 -0.012856 0.019242 0.001183 0.022241
# 2 0.001043 0.009764 -0.005034 0.007129 0.000767 0.011367
# 3 -0.012856 -0.005034 0.030265 -0.023126 -0.008340 -0.028354
# 4 0.019242 0.007129 -0.023126 0.050224 0.004698 0.038742
# 5 0.001183 0.000767 -0.008340 0.004698 0.049432 0.013308
# 6 0.022241 0.011367 -0.028354 0.038742 0.013308 0.079513
#
#
# Mechanical properties :
#
#
# Convention : Reuss Voigt Hill
#
# Bulk Modulus (GPa) = 40.95410 51.92742 46.44076
# Shear Modulus (GPa) = 17.91377 35.61301 26.76339
#
# Velocity S-wave (km/s) = 2.75284 3.88143 3.36479
# Velocity P-wave (km/s) = 5.23728 6.48493 5.89421
#
# Compressibility (1/GPa) = 0.02441758
#
# Stress axis : x y z
#
# Youngs Moduli (GPa) = 55.30030 102.41919 33.04112
#
# Poissons Ratio (x) = -0.10680 0.42477
# Poissons Ratio (y) = -0.05767 0.16634
# Poissons Ratio (z) = 0.71092 0.51562
#
# Static dielectric constant tensor:
#      x y z
#    x 1.906300 0.030160 0.035190 
#    y 0.030160 1.964570 0.050650 
#    z 0.035190 0.050650 1.923360 
# 
# From -- ./inp_files/382614.got.cif
#   From: 2010.05.17/outbox.cif.g08.bks.cpg/sg2_192_cif.got.tgz:382614.got - 2010.06.03 11:33:40.
