data_PCOD9108761
_publ_section_title
;
Structure prediction by ZEFSAII (Michael W. Deem and Ramdas Pophale) SiO2 
 PCOD9108761
Probable space group: P -1
;
_chemical_formula_sum "Si O2"
_cell_formula_units_Z 16
_cell_length_a 21.994426
_cell_length_b 16.987316
_cell_length_c 11.395479
_cell_angle_alpha 149.319957
_cell_angle_beta 42.330357
_cell_angle_gamma 160.557687
_cell_volume 655.486648
_symmetry_space_group_name_H-M "P -1"
_symmetry_group_IT_number 2
_symmetry_cell_setting 'triclinic'
loop_
_space_group_symop_operation_xyz
x,y,z
-x,-y,-z
loop_
_atom_site_type_symbol
_atom_site_label
_atom_site_fract_x
_atom_site_fract_y
_atom_site_fract_z
Si Si1 0.166262 0.753353 0.686340
Si Si2 0.109999 0.375442 0.435877
Si Si3 0.332427 0.208511 0.459927
Si Si4 0.328287 0.322422 0.231661
Si Si5 0.942290 0.926466 0.268802
Si Si6 0.747020 0.253178 0.054740
Si Si7 0.486471 0.750502 0.355927
Si Si8 0.316751 0.719764 0.065918
O O1 0.087361 0.494055 0.546446
O O2 0.000000 0.500000 0.500000
O O3 0.377526 0.054625 0.702572
O O4 0.201734 0.971789 0.977351
O O5 0.306289 0.592416 0.385226
O O6 0.147662 0.500350 0.672645
O O7 0.954815 0.001138 0.209840
O O8 0.500000 0.500000 0.500000
O O9 0.466119 0.381529 0.608373
O O10 0.184815 0.128310 0.564785
O O11 0.221591 0.880988 0.167302
O O12 0.389591 0.452837 0.176162
O O13 0.171043 0.222072 0.357480
O O14 0.809620 0.576679 0.044410
O O15 0.791555 0.392133 0.041917
O O16 0.510579 0.921228 0.999438
O O17 0.609626 0.020160 0.632086
#
# Coordination Sequence:
#
# PCOD9108761 Si02
#       8
#     2   2   2   2   2   2   2   2
#     4  12  26  46  72 101 138 183 237 297 354 414
#     4  10  25  45  67 107 137 186 236 286 353 418
#     4  12  24  42  70 105 142 187 229 284 351 418
#     4  11  26  47  69 104 139 182 238 288 358 413
#     4  11  26  43  69 102 147 180 237 290 336 430
#     4  10  21  41  70 100 145 184 230 284 349 427
#     4  10  22  46  72  99 137 181 233 292 351 415
#     4  10  20  40  71 104 139 184 225 286 353 412
#
# _framework density 24.409347
#
# number of rings (size 3 to 8) (size 9 to 14) (size 15 to 20)
#    0.000    1.250    2.500    2.250    5.250    3.500 
#    2.250    3.125    0.000    0.000    0.000    0.000 
#    0.000    0.000    0.000    0.000    0.000    0.000 
#
# Total GULP energy -89414.766893 kJ/mol
# GULP energy per Si atom -5588.422931 kJ/mol
# Density = 2.435379 g / cm^3
# Si number density = 24.409347 Si / 1000 Ang^3
#
#
#
# Elastic Constant Matrix: (Units=GPa)
#
#
# Indices 1 2 3 4 5 6 
#
# 1 118.1182 28.6982 46.1423 9.4452 -30.4497 -30.2517
# 2 28.6982 117.0799 20.1707 -0.4184 -20.2101 -8.7703
# 3 46.1423 20.1707 58.6395 2.8709 -9.8712 2.5680
# 4 9.4452 -0.4184 2.8709 44.3285 -5.5552 -17.9654
# 5 -30.4497 -20.2101 -9.8712 -5.5552 29.4318 14.8751
# 6 -30.2517 -8.7703 2.5680 -17.9654 14.8751 35.4203
#
#
#
# Elastic Compliance Matrix: (Units=1/GPa)
#
#
# Indices 1 2 3 4 5 6 
#
# 1 0.021398 0.000497 -0.016661 0.005152 0.008421 0.018683
# 2 0.000497 0.010080 -0.002975 0.001488 0.006033 0.001357
# 3 -0.016661 -0.002975 0.032673 -0.007140 0.001170 -0.021449
# 4 0.005152 0.001488 -0.007140 0.030366 -0.000974 0.021097
# 5 0.008421 0.006033 0.001170 -0.000974 0.054514 -0.014787
# 6 0.018683 0.001357 -0.021449 0.021097 -0.014787 0.062990
#
#
# Mechanical properties :
#
#
# Convention : Reuss Voigt Hill
#
# Bulk Modulus (GPa) = 38.65144 53.76222 46.20683
# Shear Modulus (GPa) = 19.31065 35.09122 27.20093
#
# Velocity S-wave (km/s) = 2.81573 3.79570 3.34183
# Velocity P-wave (km/s) = 5.14200 6.42517 5.81907
#
# Compressibility (1/GPa) = 0.02587225
#
# Stress axis : x y z
#
# Youngs Moduli (GPa) = 46.73348 99.20301 30.60611
#
# Poissons Ratio (x) = -0.04930 0.50994
# Poissons Ratio (y) = -0.02323 0.09106
# Poissons Ratio (z) = 0.77865 0.29515
#
# Static dielectric constant tensor:
#      x y z
#    x 1.940930 0.033880 0.013210 
#    y 0.033880 2.011970 0.056960 
#    z 0.013210 0.056960 1.984730 
# 
# From -- ./inp_files/475453.got.cif
#   From: 2010.05.17/outbox.cif.g08.bks.cpg/sg2_238_cif.got.tgz:475453.got - 2010.06.03 11:33:40.
