data_PCOD9108684
_publ_section_title
;
Structure prediction by ZEFSAII (Michael W. Deem and Ramdas Pophale) SiO2 
 PCOD9108684
Probable space group: P -1
;
_chemical_formula_sum "Si O2"
_cell_formula_units_Z 16
_cell_length_a 8.033994
_cell_length_b 14.019999
_cell_length_c 8.780215
_cell_angle_alpha 99.243586
_cell_angle_beta 52.461404
_cell_angle_gamma 118.970336
_cell_volume 673.057996
_symmetry_space_group_name_H-M "P -1"
_symmetry_group_IT_number 2
_symmetry_cell_setting 'triclinic'
loop_
_space_group_symop_operation_xyz
x,y,z
-x,-y,-z
loop_
_atom_site_type_symbol
_atom_site_label
_atom_site_fract_x
_atom_site_fract_y
_atom_site_fract_z
Si Si1 0.799590 0.961036 0.229924
Si Si2 0.094193 0.741776 0.984324
Si Si3 0.720282 0.752745 0.404601
Si Si4 0.513069 0.986286 0.808838
Si Si5 0.218881 0.322383 0.147124
Si Si6 0.251786 0.563478 0.744336
Si Si7 0.986272 0.867655 0.570055
Si Si8 0.262789 0.542274 0.068571
O O1 0.950005 0.049132 0.302056
O O2 0.703300 0.838634 0.320340
O O3 0.586264 0.967377 0.260700
O O4 0.000000 0.000000 0.000000
O O5 0.947984 0.739674 0.217104
O O6 0.913135 0.732653 0.949179
O O7 0.170344 0.649742 0.879772
O O8 0.339570 0.855820 0.856542
O O9 0.481401 0.633084 0.528021
O O10 0.767120 0.812649 0.558645
O O11 0.794710 0.053295 0.639237
O O12 0.500000 0.000000 0.000000
O O13 0.247836 0.444702 0.158629
O O14 0.053875 0.244637 0.353786
O O15 0.492969 0.343774 0.003149
O O16 0.004486 0.472359 0.779013
O O17 0.306861 0.520411 0.860253
#
# Coordination Sequence:
#
# PCOD9108684 Si02
#       8
#     2   2   2   2   2   2   2   2
#     4  12  24  41  64  96 137 173 221 269 317 395
#     4  11  23  44  63  95 137 173 214 274 324 390
#     4  12  24  43  65 101 132 175 223 263 329 396
#     4  12  24  42  61  96 139 174 216 267 318 389
#     4  10  20  40  70  92 129 172 219 274 338 384
#     4  10  22  41  71  93 126 171 223 271 336 394
#     4  12  23  40  67  96 133 180 216 266 328 394
#     4   9  20  41  66  95 125 168 219 282 336 385
#
# _framework density 23.772098
#
# number of rings (size 3 to 8) (size 9 to 14) (size 15 to 20)
#    0.000    1.000    5.000    1.500    3.500    1.000 
#    2.250    6.250    0.000    0.000    0.000    0.000 
#    0.000    0.000    0.000    0.000    0.000    0.000 
#
# Total GULP energy -89213.187965 kJ/mol
# GULP energy per Si atom -5575.824248 kJ/mol
# Density = 2.371799 g / cm^3
# Si number density = 23.772098 Si / 1000 Ang^3
#
#
#
# Elastic Constant Matrix: (Units=GPa)
#
#
# Indices 1 2 3 4 5 6 
#
# 1 83.7109 22.5415 21.3846 3.4399 8.7695 14.4615
# 2 22.5415 57.0591 28.5108 -12.5358 0.3165 14.3636
# 3 21.3846 28.5108 150.0172 -22.6753 10.7292 2.0249
# 4 3.4399 -12.5358 -22.6753 43.9998 7.9575 3.0631
# 5 8.7695 0.3165 10.7292 7.9575 43.3500 -14.0438
# 6 14.4615 14.3636 2.0249 3.0631 -14.0438 48.2091
#
#
#
# Elastic Compliance Matrix: (Units=1/GPa)
#
#
# Indices 1 2 3 4 5 6 
#
# 1 0.014630 -0.004674 -0.001236 -0.002224 -0.003444 -0.003806
# 2 -0.004674 0.023796 -0.002636 0.006588 -0.001908 -0.006552
# 3 -0.001236 -0.002636 0.008133 0.004008 -0.002538 -0.000180
# 4 -0.002224 0.006588 0.004008 0.028606 -0.007624 -0.005502
# 5 -0.003444 -0.001908 -0.002538 -0.007624 0.029280 0.010722
# 6 -0.003806 -0.006552 -0.000180 -0.005502 0.010722 0.027317
#
#
# Mechanical properties :
#
#
# Convention : Reuss Voigt Hill
#
# Bulk Modulus (GPa) = 33.93404 48.40677 41.17041
# Shear Modulus (GPa) = 31.51110 41.66847 36.58978
#
# Velocity S-wave (km/s) = 3.64476 4.19122 3.92751
# Velocity P-wave (km/s) = 5.65845 6.62034 6.15820
#
# Compressibility (1/GPa) = 0.02946893
#
# Stress axis : x y z
#
# Youngs Moduli (GPa) = 68.35357 42.02373 122.95993
#
# Poissons Ratio (x) = 0.19640 0.15194
# Poissons Ratio (y) = 0.31945 0.32407
# Poissons Ratio (z) = 0.08447 0.11076
#
# Static dielectric constant tensor:
#      x y z
#    x 1.889760 -0.073540 -0.022820 
#    y -0.073540 1.928630 0.005020 
#    z -0.022820 0.005020 1.867230 
# 
# From -- ./inp_files/217652.got.cif
#   From: 2010.05.17/outbox.cif.g08.bks.cpg/sg2_109_cif.got.tgz:217652.got - 2010.06.03 11:33:40.
