data_PCOD9108687
_publ_section_title
;
Structure prediction by ZEFSAII (Michael W. Deem and Ramdas Pophale) SiO2 
 PCOD9108687
Probable space group: P -1
;
_chemical_formula_sum "Si O2"
_cell_formula_units_Z 13
_cell_length_a 10.136825
_cell_length_b 11.182510
_cell_length_c 8.036555
_cell_angle_alpha 86.911835
_cell_angle_beta 133.292155
_cell_angle_gamma 62.178890
_cell_volume 477.363888
_symmetry_space_group_name_H-M "P -1"
_symmetry_group_IT_number 2
_symmetry_cell_setting 'triclinic'
loop_
_space_group_symop_operation_xyz
x,y,z
-x,-y,-z
loop_
_atom_site_type_symbol
_atom_site_label
_atom_site_fract_x
_atom_site_fract_y
_atom_site_fract_z
Si Si1 0.009640 0.848641 0.426445
Si Si2 0.665551 0.354317 0.778249
Si Si3 0.196297 0.287200 0.860733
Si Si4 0.683042 0.963903 0.477900
Si Si5 0.000000 0.000000 0.000000
Si Si6 0.038086 0.390322 0.195761
Si Si7 0.606097 0.206637 0.014755
O O1 0.003234 0.725064 0.343874
O O2 0.842962 0.910944 0.447463
O O3 0.271026 0.783270 0.719099
O O4 0.841593 0.019943 0.160192
O O5 0.500000 0.500000 0.500000
O O6 0.796681 0.196340 0.789491
O O7 0.840181 0.373219 0.011981
O O8 0.536645 0.336757 0.812222
O O9 0.057249 0.475675 0.755971
O O10 0.382236 0.225232 0.872276
O O11 0.399658 0.140444 0.180701
O O12 0.712600 0.806903 0.554591
O O13 0.817139 0.983121 0.731858
O O14 0.000000 0.500000 0.000000
#
# Coordination Sequence:
#
# PCOD9108687 Si02
#       7
#     2   2   2   2   1   2   2
#     4  10  21  43  73 109 143 185 240 302 356 423
#     4  11  24  45  67 104 143 189 241 291 360 429
#     4  11  25  45  77 104 138 195 236 295 380 414
#     4  10  21  44  68 101 143 181 247 293 352 434
#     4  10  20  40  70  92 140 190 228 294 354 414
#     4  11  26  46  63 104 149 179 241 297 349 444
#     4  10  21  44  73 106 146 179 251 302 343 439
#
# _framework density 27.232893000000001
#
# number of rings (size 3 to 8) (size 9 to 14) (size 15 to 20)
#    0.000    1.538    3.077    2.769    0.000    6.769 
#    2.769    1.538    0.000    0.000    0.000    0.000 
#    0.000    0.000    0.000    0.000    0.000    0.000 
#
# Total GULP energy -72604.315288 kJ/mol
# GULP energy per Si atom -5584.947330 kJ/mol
# Density = 2.717091 g / cm^3
# Si number density = 27.232893 Si / 1000 Ang^3
#
#
#
# Elastic Constant Matrix: (Units=GPa)
#
#
# Indices 1 2 3 4 5 6 
#
# 1 74.5635 11.9758 13.0095 -16.6611 -8.1746 28.2581
# 2 11.9758 278.3919 95.7496 -17.6851 4.8604 22.7868
# 3 13.0095 95.7496 138.5995 -27.0382 -13.5095 3.3702
# 4 -16.6611 -17.6851 -27.0382 65.3655 15.8732 -5.8572
# 5 -8.1746 4.8604 -13.5095 15.8732 28.3682 -7.2206
# 6 28.2581 22.7868 3.3702 -5.8572 -7.2206 37.4145
#
#
#
# Elastic Compliance Matrix: (Units=1/GPa)
#
#
# Indices 1 2 3 4 5 6 
#
# 1 0.020039 0.001271 -0.001798 0.003631 -0.001257 -0.015421
# 2 0.001271 0.005397 -0.003992 0.000699 -0.004009 -0.004552
# 3 -0.001798 -0.003992 0.010962 0.002087 0.005274 0.004146
# 4 0.003631 0.000699 0.002087 0.019384 -0.009473 -0.002150
# 5 -0.001257 -0.004009 0.005274 -0.009473 0.046012 0.010313
# 6 -0.015421 -0.004552 0.004146 -0.002150 0.010313 0.042427
#
#
# Mechanical properties :
#
#
# Convention : Reuss Voigt Hill
#
# Bulk Modulus (GPa) = 36.54911 81.44719 58.99815
# Shear Modulus (GPa) = 30.79214 50.95099 40.87156
#
# Velocity S-wave (km/s) = 3.36623 4.33012 3.87824
# Velocity P-wave (km/s) = 5.34404 7.41435 6.46263
#
# Compressibility (1/GPa) = 0.02736045
#
# Stress axis : x y z
#
# Youngs Moduli (GPa) = 49.90304 185.28004 91.22641
#
# Poissons Ratio (x) = -0.23556 0.16406
# Poissons Ratio (y) = -0.06344 0.36415
# Poissons Ratio (z) = 0.08974 0.73958
#
# Static dielectric constant tensor:
#      x y z
#    x 2.292150 -0.030960 -0.061000 
#    y -0.030960 2.014400 -0.003190 
#    z -0.061000 -0.003190 2.025920 
# 
# From -- ./inp_files/244270.got.cif
#   From: 2010.05.17/outbox.cif.g08.bks.cpg/sg2_123_cif.got.tgz:244270.got - 2010.06.03 11:33:40.
