data_PCOD9108502
_publ_section_title
;
Structure prediction by ZEFSAII (Michael W. Deem and Ramdas Pophale) SiO2 
 PCOD9108502
Probable space group: P -1
;
_chemical_formula_sum "Si O2"
_cell_formula_units_Z 16
_cell_length_a 13.074278
_cell_length_b 11.645904
_cell_length_c 9.686820
_cell_angle_alpha 143.362586
_cell_angle_beta 74.504508
_cell_angle_gamma 126.345594
_cell_volume 638.833631
_symmetry_space_group_name_H-M "P -1"
_symmetry_group_IT_number 2
_symmetry_cell_setting 'triclinic'
loop_
_space_group_symop_operation_xyz
x,y,z
-x,-y,-z
loop_
_atom_site_type_symbol
_atom_site_label
_atom_site_fract_x
_atom_site_fract_y
_atom_site_fract_z
Si Si1 0.135752 0.679923 0.951530
Si Si2 0.370215 0.703265 0.805101
Si Si3 0.843863 0.045568 0.041350
Si Si4 0.860386 0.111744 0.580317
Si Si5 0.320240 0.600757 0.420867
Si Si6 0.923183 0.928618 0.150807
Si Si7 0.401429 0.042754 0.645233
Si Si8 0.527721 0.583177 0.799383
O O1 0.267522 0.694157 0.935900
O O2 0.136847 0.745080 0.855536
O O3 0.991105 0.403004 0.772215
O O4 0.153900 0.880677 0.243398
O O5 0.290520 0.566993 0.560483
O O6 0.419616 0.562276 0.718876
O O7 0.500000 0.000000 0.000000
O O8 0.905716 0.097496 0.223355
O O9 0.932275 0.996327 0.872611
O O10 0.679620 0.807793 0.891348
O O11 0.719514 0.022657 0.473031
O O12 0.896594 0.952441 0.341110
O O13 0.336450 0.837340 0.594295
O O14 0.460455 0.631675 0.388716
O O15 0.200639 0.358708 0.137606
O O16 0.500000 0.000000 0.500000
O O17 0.478302 0.311870 0.951825
#
# Coordination Sequence:
#
# PCOD9108502 Si02
#       8
#     2   2   2   2   2   2   2   2
#     4  11  25  42  70  96 138 192 220 278 355 398
#     4  12  23  42  69 102 136 179 228 288 341 404
#     4  10  20  40  68  99 130 175 226 281 340 396
#     4  11  25  45  64 101 142 179 232 276 340 423
#     4  11  24  42  71  99 133 177 227 286 344 395
#     4  10  23  42  69 101 135 171 232 287 334 410
#     4  12  24  43  71  94 141 182 227 279 341 417
#     4  11  23  44  64 105 132 174 233 281 342 402
#
# _framework density 25.045645
#
# number of rings (size 3 to 8) (size 9 to 14) (size 15 to 20)
#    0.000    1.000    5.000    1.875    5.250    1.500 
#    0.000    0.000    0.000    0.000    0.000    0.000 
#    0.000    0.000    0.000    0.000    0.000    0.000 
#
# Total GULP energy -89544.236464 kJ/mol
# GULP energy per Si atom -5596.514779 kJ/mol
# Density = 2.498864 g / cm^3
# Si number density = 25.045645 Si / 1000 Ang^3
#
#
#
# Elastic Constant Matrix: (Units=GPa)
#
#
# Indices 1 2 3 4 5 6 
#
# 1 93.8077 18.3299 12.2641 -7.9233 -12.0107 13.0685
# 2 18.3299 48.0061 4.3510 -8.8713 2.9907 5.9812
# 3 12.2641 4.3510 119.4042 -31.5204 -12.2350 6.7910
# 4 -7.9233 -8.8713 -31.5204 33.3063 4.8900 -15.3331
# 5 -12.0107 2.9907 -12.2350 4.8900 35.8748 -8.4217
# 6 13.0685 5.9812 6.7910 -15.3331 -8.4217 43.7117
#
#
#
# Elastic Compliance Matrix: (Units=1/GPa)
#
#
# Indices 1 2 3 4 5 6 
#
# 1 0.012462 -0.004753 -0.000766 -0.000727 0.003825 -0.002474
# 2 -0.004753 0.024109 0.000928 0.006545 -0.004307 -0.000556
# 3 -0.000766 0.000928 0.011744 0.012197 0.002733 0.003083
# 4 -0.000727 0.006545 0.012197 0.050028 0.000070 0.014989
# 5 0.003825 -0.004307 0.002733 0.000070 0.031644 0.005143
# 6 -0.002474 -0.000556 0.003083 0.014989 0.005143 0.029463
#
#
# Mechanical properties :
#
#
# Convention : Reuss Voigt Hill
#
# Bulk Modulus (GPa) = 25.55454 36.78979 31.17216
# Shear Modulus (GPa) = 27.52126 37.66341 32.59234
#
# Velocity S-wave (km/s) = 3.31848 3.88208 3.61129
# Velocity P-wave (km/s) = 4.99083 5.90043 5.46459
#
# Compressibility (1/GPa) = 0.03913199
#
# Stress axis : x y z
#
# Youngs Moduli (GPa) = 80.24305 41.47885 85.14718
#
# Poissons Ratio (x) = 0.19716 0.06523
# Poissons Ratio (y) = 0.38142 -0.07900
# Poissons Ratio (z) = 0.06147 -0.03848
#
# Static dielectric constant tensor:
#      x y z
#    x 1.967460 -0.004060 -0.026900 
#    y -0.004060 1.994090 0.004780 
#    z -0.026900 0.004780 2.001190 
# 
# From -- ./inp_files/308761.got.cif
#   From: 2010.05.17/outbox.cif.g08.bks.cpg/sg2_155_cif.got.tgz:308761.got - 2010.06.03 11:33:40.
