data_PCOD9108505
_publ_section_title
;
Structure prediction by ZEFSAII (Michael W. Deem and Ramdas Pophale) SiO2 
 PCOD9108505
Probable space group: P -1
;
_chemical_formula_sum "Si O2"
_cell_formula_units_Z 16
_cell_length_a 9.285110
_cell_length_b 15.621800
_cell_length_c 14.894969
_cell_angle_alpha 47.503657
_cell_angle_beta 149.683361
_cell_angle_gamma 129.991730
_cell_volume 793.761300
_symmetry_space_group_name_H-M "P -1"
_symmetry_group_IT_number 2
_symmetry_cell_setting 'triclinic'
loop_
_space_group_symop_operation_xyz
x,y,z
-x,-y,-z
loop_
_atom_site_type_symbol
_atom_site_label
_atom_site_fract_x
_atom_site_fract_y
_atom_site_fract_z
Si Si1 0.214602 0.060123 0.325829
Si Si2 0.990751 0.338247 0.202115
Si Si3 0.522897 0.370337 0.071584
Si Si4 0.150908 0.941590 0.701269
Si Si5 0.839210 0.968944 0.030649
Si Si6 0.521833 0.313016 0.313123
Si Si7 0.393141 0.518318 0.207940
Si Si8 0.878242 0.698083 0.266606
O O1 0.327331 0.192836 0.321110
O O2 0.986771 0.012142 0.315221
O O3 0.500000 0.000000 0.500000
O O4 0.024264 0.055849 0.137658
O O5 0.809090 0.360432 0.176071
O O6 0.944463 0.199282 0.261507
O O7 0.299557 0.424535 0.303367
O O8 0.832243 0.393184 0.994921
O O9 0.545723 0.302365 0.225911
O O10 0.500000 0.500000 0.000000
O O11 0.259573 0.331262 0.886438
O O12 0.497601 0.973150 0.851646
O O13 0.000000 0.000000 0.500000
O O14 0.866669 0.836350 0.170691
O O15 0.000000 0.000000 0.000000
O O16 0.400382 0.431193 0.188631
O O17 0.802943 0.320505 0.522077
O O18 0.688446 0.609556 0.297089
#
# Coordination Sequence:
#
# PCOD9108505 Si02
#       8
#     2   2   2   2   2   2   2   2
#     4  12  26  45  70 103 139 188 247 293 357 429
#     4  10  21  41  66  96 142 175 231 291 361 410
#     4  11  22  40  66 102 131 179 226 287 344 428
#     4  12  26  45  70 101 145 193 238 299 358 428
#     4  12  25  47  71 103 144 192 240 300 359 427
#     4  12  23  42  72 101 136 187 234 287 360 429
#     4  10  20  40  68  99 131 184 222 286 357 421
#     4  11  23  42  72  97 146 178 234 290 356 421
#
# _framework density 20.157192999999999
#
# number of rings (size 3 to 8) (size 9 to 14) (size 15 to 20)
#    0.000    0.750    7.500    2.250    1.750    0.000 
#    0.000    0.625    0.000    0.000    0.000    0.000 
#    0.000    0.000    0.000    0.000    0.000    0.000 
#
# Total GULP energy -89090.686849 kJ/mol
# GULP energy per Si atom -5568.167928 kJ/mol
# Density = 2.011131 g / cm^3
# Si number density = 20.157193 Si / 1000 Ang^3
#
#
#
# Elastic Constant Matrix: (Units=GPa)
#
#
# Indices 1 2 3 4 5 6 
#
# 1 155.1442 8.9192 51.2729 13.0371 15.1678 17.5548
# 2 8.9192 96.2653 29.1842 0.5423 23.2992 17.2484
# 3 51.2729 29.1842 98.6936 -3.6189 9.4113 13.7106
# 4 13.0371 0.5423 -3.6189 23.0995 -3.9942 8.6419
# 5 15.1678 23.2992 9.4113 -3.9942 26.7892 1.3726
# 6 17.5548 17.2484 13.7106 8.6419 1.3726 25.4485
#
#
#
# Elastic Compliance Matrix: (Units=1/GPa)
#
#
# Indices 1 2 3 4 5 6 
#
# 1 0.009463 0.002927 -0.004865 -0.006077 -0.006924 -0.003454
# 2 0.002927 0.016525 -0.003695 -0.001379 -0.014425 -0.009982
# 3 -0.004865 -0.003695 0.014423 0.007137 0.002193 -0.004452
# 4 -0.006077 -0.001379 0.007137 0.056847 0.011564 -0.018647
# 5 -0.006924 -0.014425 0.002193 0.011564 0.054414 0.006510
# 6 -0.003454 -0.009982 -0.004452 -0.018647 0.006510 0.056823
#
#
# Mechanical properties :
#
#
# Convention : Reuss Voigt Hill
#
# Bulk Modulus (GPa) = 34.31087 58.76175 46.53631
# Shear Modulus (GPa) = 21.78872 32.44923 27.11897
#
# Velocity S-wave (km/s) = 3.29133 4.01659 3.67191
# Velocity P-wave (km/s) = 5.61270 7.12220 6.41203
#
# Compressibility (1/GPa) = 0.02914528
#
# Stress axis : x y z
#
# Youngs Moduli (GPa) = 105.67013 60.51576 69.33179
#
# Poissons Ratio (x) = -0.17712 0.33727
# Poissons Ratio (y) = -0.30928 0.25620
# Poissons Ratio (z) = 0.51405 0.22362
#
# Static dielectric constant tensor:
#      x y z
#    x 1.818080 0.065780 0.078560 
#    y 0.065780 1.743850 0.037520 
#    z 0.078560 0.037520 1.731050 
# 
# From -- ./inp_files/328533.got.cif
#   From: 2010.05.17/outbox.cif.g08.bks.cpg/sg2_165_cif.got.tgz:328533.got - 2010.06.03 11:33:40.
