data_PCOD9108200
_publ_section_title
;
Structure prediction by ZEFSAII (Michael W. Deem and Ramdas Pophale) SiO2 
 PCOD9108200
Probable space group: P -1
;
_chemical_formula_sum "Si O2"
_cell_formula_units_Z 16
_cell_length_a 14.834655
_cell_length_b 6.195788
_cell_length_c 17.888764
_cell_angle_alpha 115.850795
_cell_angle_beta 151.444997
_cell_angle_gamma 59.349989
_cell_volume 675.857932
_symmetry_space_group_name_H-M "P -1"
_symmetry_group_IT_number 2
_symmetry_cell_setting 'triclinic'
loop_
_space_group_symop_operation_xyz
x,y,z
-x,-y,-z
loop_
_atom_site_type_symbol
_atom_site_label
_atom_site_fract_x
_atom_site_fract_y
_atom_site_fract_z
Si Si1 0.668352 0.324488 0.899709
Si Si2 0.599414 0.195819 0.555641
Si Si3 0.017950 0.546102 0.607407
Si Si4 0.185798 0.601325 0.137595
Si Si5 0.729382 0.250940 0.361918
Si Si6 0.545382 0.096033 0.337190
Si Si7 0.785962 0.080821 0.212891
Si Si8 0.671280 0.622517 0.078744
O O1 0.814665 0.295612 0.931748
O O2 0.487982 0.578036 0.793772
O O3 0.570302 0.103754 0.791949
O O4 0.734754 0.370574 0.038146
O O5 0.500000 0.500000 0.500000
O O6 0.775104 0.215752 0.741729
O O7 0.632711 0.069307 0.479645
O O8 0.500000 0.000000 0.500000
O O9 0.045621 0.817607 0.683572
O O10 0.228517 0.389666 0.769814
O O11 0.000000 0.500000 0.500000
O O12 0.849371 0.442885 0.503480
O O13 0.382702 0.365666 0.251323
O O14 0.000000 0.500000 0.000000
O O15 0.703024 0.081257 0.384949
O O16 0.816615 0.102216 0.328031
O O17 0.766850 0.815019 0.134724
O O18 0.562355 0.260983 0.064328
#
# Coordination Sequence:
#
# PCOD9108200 Si02
#       8
#     2   2   2   2   2   2   2   2
#     4  10  21  39  58  84 122 158 205 256 320 379
#     4  10  20  40  67  92 125 172 213 257 327 403
#     4  10  21  36  55  84 116 156 211 260 311 373
#     4  10  22  40  63  96 123 157 211 266 326 392
#     4   9  21  36  55  86 118 160 210 256 309 377
#     4  10  21  39  64  86 124 164 205 259 319 392
#     4   9  20  38  59  84 118 165 208 256 314 373
#     4  10  21  36  60  85 121 161 208 254 318 375
#
# _framework density 23.673613
#
# number of rings (size 3 to 8) (size 9 to 14) (size 15 to 20)
#    0.000    2.250    1.250    0.375    0.000   11.500 
#    0.000    1.250    0.000    0.000    0.000    0.000 
#    0.000    0.000    0.000    0.000    0.000    0.000 
#
# Total GULP energy -89155.756071 kJ/mol
# GULP energy per Si atom -5572.234754 kJ/mol
# Density = 2.361973 g / cm^3
# Si number density = 23.673613 Si / 1000 Ang^3
#
#
#
# Elastic Constant Matrix: (Units=GPa)
#
#
# Indices 1 2 3 4 5 6 
#
# 1 115.9964 26.7159 60.7486 21.0703 -8.6267 28.3024
# 2 26.7159 56.9832 21.4413 30.0643 -1.4137 15.7502
# 3 60.7486 21.4413 151.9951 26.8824 -17.9449 13.4069
# 4 21.0703 30.0643 26.8824 59.0593 8.9036 7.0272
# 5 -8.6267 -1.4137 -17.9449 8.9036 43.7278 11.7217
# 6 28.3024 15.7502 13.4069 7.0272 11.7217 33.6647
#
#
#
# Elastic Compliance Matrix: (Units=1/GPa)
#
#
# Indices 1 2 3 4 5 6 
#
# 1 0.014257 -0.000786 -0.003578 -0.002437 0.004865 -0.011378
# 2 -0.000786 0.028948 0.000791 -0.014420 0.007469 -0.012788
# 3 -0.003578 0.000791 0.009235 -0.003776 0.004352 -0.001767
# 4 -0.002437 -0.014420 -0.003776 0.027439 -0.010267 0.008146
# 5 0.004865 0.007469 0.004352 -0.010267 0.032945 -0.018646
# 6 -0.011378 -0.012788 -0.001767 0.008146 -0.018646 0.050749
#
#
# Mechanical properties :
#
#
# Convention : Reuss Voigt Hill
#
# Bulk Modulus (GPa) = 22.07862 60.30962 41.19412
# Shear Modulus (GPa) = 26.90819 41.69497 34.30158
#
# Velocity S-wave (km/s) = 3.37505 4.20127 3.81062
# Velocity P-wave (km/s) = 4.95323 7.00464 6.06628
#
# Compressibility (1/GPa) = 0.04529268
#
# Stress axis : x y z
#
# Youngs Moduli (GPa) = 70.14288 34.54460 108.28300
#
# Poissons Ratio (x) = 0.02717 0.38745
# Poissons Ratio (y) = 0.05516 -0.08565
# Poissons Ratio (z) = 0.25098 -0.02732
#
# Static dielectric constant tensor:
#      x y z
#    x 1.953210 0.104310 -0.006240 
#    y 0.104310 2.111820 -0.025660 
#    z -0.006240 -0.025660 1.905250 
# 
# From -- ./inp_files/351045.got.cif
#   From: 2010.05.17/outbox.cif.g08.bks.cpg/sg2_176_cif.got.tgz:351045.got - 2010.06.03 11:33:40.
