data_PCOD9108934
_publ_section_title
;
Structure prediction by ZEFSAII (Michael W. Deem and Ramdas Pophale) SiO2 
 PCOD9108934
Probable space group: P -1
;
_chemical_formula_sum "Si O2"
_cell_formula_units_Z 16
_cell_length_a 19.278309
_cell_length_b 6.752330
_cell_length_c 9.725281
_cell_angle_alpha 108.111230
_cell_angle_beta 137.644695
_cell_angle_gamma 56.318310
_cell_volume 698.596646
_symmetry_space_group_name_H-M "P -1"
_symmetry_group_IT_number 2
_symmetry_cell_setting 'triclinic'
loop_
_space_group_symop_operation_xyz
x,y,z
-x,-y,-z
loop_
_atom_site_type_symbol
_atom_site_label
_atom_site_fract_x
_atom_site_fract_y
_atom_site_fract_z
Si Si1 0.903458 0.929010 0.312251
Si Si2 0.514710 0.747697 0.923691
Si Si3 0.157091 0.794136 0.999527
Si Si4 0.828631 0.784156 0.794441
Si Si5 0.566021 0.597911 0.661925
Si Si6 0.994883 0.438514 0.206638
Si Si7 0.416776 0.934173 0.336735
Si Si8 0.656579 0.225033 0.091304
O O1 0.843791 0.078344 0.117064
O O2 0.793748 0.031218 0.276239
O O3 0.963748 0.646742 0.315423
O O4 0.000000 0.000000 0.500000
O O5 0.506204 0.735752 0.746473
O O6 0.414541 0.737166 0.864534
O O7 0.633728 0.490948 0.076892
O O8 0.500000 0.000000 0.000000
O O9 0.052266 0.733167 0.843528
O O10 0.288112 0.561625 0.160841
O O11 0.138235 0.004450 0.121127
O O12 0.872104 0.665804 0.682513
O O13 0.696504 0.911631 0.691734
O O14 0.908116 0.580949 0.980035
O O15 0.545669 0.350608 0.607489
O O16 0.552374 0.841604 0.604949
O O17 0.389208 0.875616 0.125390
#
# Coordination Sequence:
#
# PCOD9108934 Si02
#       8
#     2   2   2   2   2   2   2   2
#     4  11  24  46  65  87 128 182 228 269 322 396
#     4  11  24  42  68  98 136 177 218 271 342 398
#     4  11  21  42  69  90 134 169 215 278 336 391
#     4  10  20  41  60 100 134 159 214 279 327 389
#     4  12  21  41  66 100 135 171 215 275 336 399
#     4  10  22  39  68  92 123 176 218 272 332 377
#     4  12  22  40  72 101 135 176 217 271 348 405
#     4  11  23  47  65  95 140 176 218 278 330 401
#
# _framework density 22.903058999999999
#
# number of rings (size 3 to 8) (size 9 to 14) (size 15 to 20)
#    0.000    1.000    6.250    1.875    1.750    0.500 
#    9.000    1.250    0.000    0.000    0.000    0.000 
#    0.000    0.000    0.000    0.000    0.000    0.000 
#
# Total GULP energy -89232.549265 kJ/mol
# GULP energy per Si atom -5577.034329 kJ/mol
# Density = 2.285093 g / cm^3
# Si number density = 22.903059 Si / 1000 Ang^3
#
#
#
# Elastic Constant Matrix: (Units=GPa)
#
#
# Indices 1 2 3 4 5 6 
#
# 1 120.7867 40.6597 4.9927 8.3886 11.0245 -3.6357
# 2 40.6597 121.4292 5.8946 23.4405 5.2488 7.1762
# 3 4.9927 5.8946 31.5055 7.3814 8.6264 3.2864
# 4 8.3886 23.4405 7.3814 35.6876 13.4724 3.9040
# 5 11.0245 5.2488 8.6264 13.4724 25.4211 1.4297
# 6 -3.6357 7.1762 3.2864 3.9040 1.4297 50.4216
#
#
#
# Elastic Compliance Matrix: (Units=1/GPa)
#
#
# Indices 1 2 3 4 5 6 
#
# 1 0.009771 -0.003437 -0.000200 0.001502 -0.004324 0.001213
# 2 -0.003437 0.010746 -0.000556 -0.007275 0.003387 -0.001274
# 3 -0.000200 -0.000556 0.035534 -0.002885 -0.010230 -0.001738
# 4 0.001502 -0.007275 -0.002885 0.040582 -0.019607 -0.001254
# 5 -0.004324 0.003387 -0.010230 -0.019607 0.054384 -0.000151
# 6 0.001213 -0.001274 -0.001738 -0.001254 -0.000151 0.020316
#
#
# Mechanical properties :
#
#
# Convention : Reuss Voigt Hill
#
# Bulk Modulus (GPa) = 20.97914 41.86838 31.42376
# Shear Modulus (GPa) = 25.56131 37.11770 31.33950
#
# Velocity S-wave (km/s) = 3.34438 4.03009 3.70314
# Velocity P-wave (km/s) = 4.90847 6.32265 5.65990
#
# Compressibility (1/GPa) = 0.04766640
#
# Stress axis : x y z
#
# Youngs Moduli (GPa) = 102.34267 93.05606 28.14169
#
# Poissons Ratio (x) = 0.31981 0.00562
# Poissons Ratio (y) = 0.35172 0.01565
# Poissons Ratio (z) = 0.02045 0.05175
#
# Static dielectric constant tensor:
#      x y z
#    x 1.874070 0.024290 -0.006150 
#    y 0.024290 1.917630 -0.029020 
#    z -0.006150 -0.029020 1.940380 
# 
# From -- ./inp_files/459586.got.cif
#   From: 2010.05.17/outbox.cif.g08.bks.cpg/sg2_230_cif.got.tgz:459586.got - 2010.06.03 11:33:40.
