data_PCOD9108084
_publ_section_title
;
Structure prediction by ZEFSAII (Michael W. Deem and Ramdas Pophale) SiO2 
 PCOD9108084
Probable space group: P -1
;
_chemical_formula_sum "Si O2"
_cell_formula_units_Z 12
_cell_length_a 8.624928
_cell_length_b 9.323053
_cell_length_c 12.047252
_cell_angle_alpha 42.252760
_cell_angle_beta 84.910879
_cell_angle_gamma 105.685006
_cell_volume 561.249396
_symmetry_space_group_name_H-M "P -1"
_symmetry_group_IT_number 2
_symmetry_cell_setting 'triclinic'
loop_
_space_group_symop_operation_xyz
x,y,z
-x,-y,-z
loop_
_atom_site_type_symbol
_atom_site_label
_atom_site_fract_x
_atom_site_fract_y
_atom_site_fract_z
Si Si1 0.827988 0.460460 0.609610
Si Si2 0.697454 0.732376 0.859854
Si Si3 0.959908 0.726419 0.683877
Si Si4 0.679056 0.149988 0.472584
Si Si5 0.209214 0.006141 0.065914
Si Si6 0.222231 0.346909 0.702303
O O1 0.883208 0.578176 0.659501
O O2 0.712236 0.169050 0.804318
O O3 0.748738 0.596793 0.462548
O O4 0.000000 0.500000 0.500000
O O5 0.823674 0.648186 0.838186
O O6 0.698492 0.962377 0.663547
O O7 0.764982 0.823614 0.927491
O O8 0.500000 0.500000 0.000000
O O9 0.149044 0.742716 0.681313
O O10 0.000000 0.000000 0.500000
O O11 0.695395 0.385444 0.400024
O O12 0.500000 0.000000 0.500000
O O13 0.995354 0.813434 0.171613
O O14 0.288347 0.179268 0.854775
#
# Coordination Sequence:
#
# PCOD9108084 Si02
#       6
#     2   2   2   2   2   2
#     4  10  16  35  63  86 120 163 202 256 311 367
#     4  11  23  41  62  92 129 168 207 262 315 369
#     4  10  20  37  66  92 121 171 210 248 320 379
#     4  11  20  36  63  91 126 163 205 260 312 374
#     4  10  19  34  63  88 121 166 207 254 311 374
#     4  10  18  33  61  92 117 165 210 246 317 370
#
# _framework density 21.380869000000001
#
# number of rings (size 3 to 8) (size 9 to 14) (size 15 to 20)
#    0.000    1.667    5.000    4.000    0.000    0.000 
#    0.000    4.167   14.667   10.000    0.000    0.000 
#    0.000    0.000    0.000    0.000    0.000    0.000 
#
# Total GULP energy -66923.615550 kJ/mol
# GULP energy per Si atom -5576.967962 kJ/mol
# Density = 2.133221 g / cm^3
# Si number density = 21.380869 Si / 1000 Ang^3
#
#
#
# Elastic Constant Matrix: (Units=GPa)
#
#
# Indices 1 2 3 4 5 6 
#
# 1 44.4462 30.4282 33.7950 10.4652 0.8841 11.5346
# 2 30.4282 150.1349 29.6261 -9.3120 -13.5634 11.9031
# 3 33.7950 29.6261 115.3164 -3.4383 25.4773 2.9391
# 4 10.4652 -9.3120 -3.4383 29.1781 7.7558 2.6346
# 5 0.8841 -13.5634 25.4773 7.7558 40.4919 -1.9179
# 6 11.5346 11.9031 2.9391 2.6346 -1.9179 26.8429
#
#
#
# Elastic Compliance Matrix: (Units=1/GPa)
#
#
# Indices 1 2 3 4 5 6 
#
# 1 0.045360 -0.005858 -0.014183 -0.021181 0.009432 -0.012588
# 2 -0.005858 0.008658 -0.000960 0.004143 0.002771 -0.001425
# 3 -0.014183 -0.000960 0.015857 0.009476 -0.011661 0.003021
# 4 -0.021181 0.004143 0.009476 0.047772 -0.013234 0.000592
# 5 0.009432 0.002771 -0.011661 -0.013234 0.035281 -0.000185
# 6 -0.012588 -0.001425 0.003021 0.000592 -0.000185 0.042893
#
#
# Mechanical properties :
#
#
# Convention : Reuss Voigt Hill
#
# Bulk Modulus (GPa) = 35.87706 55.28846 45.58276
# Shear Modulus (GPa) = 20.23361 33.70578 26.96970
#
# Velocity S-wave (km/s) = 3.07960 3.97476 3.55546
# Velocity P-wave (km/s) = 5.42786 6.85419 6.18230
#
# Compressibility (1/GPa) = 0.02787296
#
# Stress axis : x y z
#
# Youngs Moduli (GPa) = 22.04578 115.50489 63.06510
#
# Poissons Ratio (x) = 0.67664 0.89445
# Poissons Ratio (y) = 0.12915 0.06052
# Poissons Ratio (z) = 0.31267 0.11085
#
# Static dielectric constant tensor:
#      x y z
#    x 1.875730 -0.001630 0.025530 
#    y -0.001630 1.811540 0.084960 
#    z 0.025530 0.084960 1.905840 
# 
# From -- ./inp_files/198817.got.cif
#   From: 2010.05.17/outbox.cif.g08.bks.cpg/sg2_100_cif.got.tgz:198817.got - 2010.06.03 11:33:40.
