data_PCOD9108514
_publ_section_title
;
Structure prediction by ZEFSAII (Michael W. Deem and Ramdas Pophale) SiO2 
 PCOD9108514
Probable space group: P -1
;
_chemical_formula_sum "Si O2"
_cell_formula_units_Z 15
_cell_length_a 7.250025
_cell_length_b 10.055057
_cell_length_c 8.235194
_cell_angle_alpha 82.317946
_cell_angle_beta 80.890400
_cell_angle_gamma 104.873002
_cell_volume 563.270879
_symmetry_space_group_name_H-M "P -1"
_symmetry_group_IT_number 2
_symmetry_cell_setting 'triclinic'
loop_
_space_group_symop_operation_xyz
x,y,z
-x,-y,-z
loop_
_atom_site_type_symbol
_atom_site_label
_atom_site_fract_x
_atom_site_fract_y
_atom_site_fract_z
Si Si1 0.769152 0.017804 0.569695
Si Si2 0.658765 0.410772 0.496841
Si Si3 0.500000 0.000000 0.000000
Si Si4 0.063565 0.855275 0.018750
Si Si5 0.236601 0.442545 0.859140
Si Si6 0.579874 0.888308 0.314284
Si Si7 0.952831 0.799166 0.694370
Si Si8 0.300803 0.504280 0.189421
O O1 0.557271 0.007855 0.665108
O O2 0.909632 0.171649 0.488559
O O3 0.754093 0.949579 0.403221
O O4 0.855083 0.925137 0.688197
O O5 0.500000 0.500000 0.500000
O O6 0.773490 0.458213 0.307270
O O7 0.532807 0.252501 0.558472
O O8 0.771163 0.437611 0.647734
O O9 0.278209 0.887566 0.059522
O O10 0.592960 0.894819 0.118888
O O11 0.900258 0.715521 0.129083
O O12 0.075722 0.807383 0.838182
O O13 0.000000 0.000000 0.000000
O O14 0.463461 0.439249 0.849780
O O15 0.211882 0.514948 0.023190
O O16 0.773778 0.661803 0.741476
#
# Coordination Sequence:
#
# PCOD9108514 Si02
#       8
#     2   2   1   2   2   2   2   2
#     4  10  21  40  67  98 136 180 232 293 350 414
#     4  10  21  39  68  97 134 183 236 282 344 423
#     4  12  26  44  62 104 146 172 232 290 348 420
#     4  11  24  41  70 102 140 186 230 288 356 422
#     4   9  20  39  63  99 128 175 237 277 346 418
#     4  11  24  43  64 102 140 186 226 295 357 405
#     4  10  20  40  69 100 135 181 237 282 351 431
#     4   9  19  36  63 100 129 173 231 287 336 416
#
# _framework density 26.630168999999999
#
# number of rings (size 3 to 8) (size 9 to 14) (size 15 to 20)
#    0.000    1.867    1.333    2.400    3.733    3.200 
#    7.200    2.667    0.000    3.200    0.000    0.000 
#    0.000    0.000    0.000    0.000    0.000    0.000 
#
# Total GULP energy -83540.823781 kJ/mol
# GULP energy per Si atom -5569.388252 kJ/mol
# Density = 2.656956 g / cm^3
# Si number density = 26.630169 Si / 1000 Ang^3
#
#
#
# Elastic Constant Matrix: (Units=GPa)
#
#
# Indices 1 2 3 4 5 6 
#
# 1 92.9194 40.8946 7.7662 8.9815 11.6644 31.3496
# 2 40.8946 144.5301 68.5052 -17.8504 -0.9460 38.0642
# 3 7.7662 68.5052 149.1206 -13.1354 9.8573 18.6982
# 4 8.9815 -17.8504 -13.1354 47.6839 12.4556 -2.0567
# 5 11.6644 -0.9460 9.8573 12.4556 28.7382 -1.2077
# 6 31.3496 38.0642 18.6982 -2.0567 -1.2077 41.8648
#
#
#
# Elastic Compliance Matrix: (Units=1/GPa)
#
#
# Indices 1 2 3 4 5 6 
#
# 1 0.016850 -0.003303 0.002276 -0.002387 -0.007155 -0.010955
# 2 -0.003303 0.011982 -0.004367 0.003224 0.001572 -0.006267
# 3 0.002276 -0.004367 0.009333 0.001758 -0.005113 -0.001964
# 4 -0.002387 0.003224 0.001758 0.025889 -0.010790 -0.000968
# 5 -0.007155 0.001572 -0.005113 -0.010790 0.044476 0.006965
# 6 -0.010955 -0.006267 -0.001964 -0.000968 0.006965 0.038818
#
#
# Mechanical properties :
#
#
# Convention : Reuss Voigt Hill
#
# Bulk Modulus (GPa) = 36.52553 68.98911 52.75732
# Shear Modulus (GPa) = 29.89330 41.61766 35.75548
#
# Velocity S-wave (km/s) = 3.35406 3.95752 3.66822
# Velocity P-wave (km/s) = 5.36146 6.84436 6.14778
#
# Compressibility (1/GPa) = 0.02737811
#
# Stress axis : x y z
#
# Youngs Moduli (GPa) = 59.34544 83.45639 107.15128
#
# Poissons Ratio (x) = 0.27567 -0.24390
# Poissons Ratio (y) = 0.19603 0.46790
# Poissons Ratio (z) = -0.13508 0.36443
#
# Static dielectric constant tensor:
#      x y z
#    x 2.123410 -0.007400 -0.185450 
#    y -0.007400 2.162830 0.097700 
#    z -0.185450 0.097700 2.447610 
# 
# From -- ./inp_files/171410.got.cif
#   From: 2010.05.17/outbox.cif.g08.bks.cpg/sg2_86_cif.got.tgz:171410.got - 2010.06.03 11:33:40.
