data_PCOD9108690
_publ_section_title
;
Structure prediction by ZEFSAII (Michael W. Deem and Ramdas Pophale) SiO2 
 PCOD9108690
Probable space group: P -1
;
_chemical_formula_sum "Si O2"
_cell_formula_units_Z 13
_cell_length_a 9.181493
_cell_length_b 9.860205
_cell_length_c 13.685934
_cell_angle_alpha 49.327366
_cell_angle_beta 142.385276
_cell_angle_gamma 136.952885
_cell_volume 508.246634
_symmetry_space_group_name_H-M "P -1"
_symmetry_group_IT_number 2
_symmetry_cell_setting 'triclinic'
loop_
_space_group_symop_operation_xyz
x,y,z
-x,-y,-z
loop_
_atom_site_type_symbol
_atom_site_label
_atom_site_fract_x
_atom_site_fract_y
_atom_site_fract_z
Si Si1 0.628593 0.185108 0.225596
Si Si2 0.482146 0.505522 0.289618
Si Si3 0.876106 0.569062 0.308041
Si Si4 0.677206 0.921409 0.222475
Si Si5 0.000000 0.000000 0.000000
Si Si6 0.943934 0.188663 0.081194
Si Si7 0.426641 0.865262 0.428668
O O1 0.792044 0.400105 0.260319
O O2 0.747500 0.122101 0.226788
O O3 0.596822 0.010336 0.366652
O O4 0.319677 0.135479 0.072507
O O5 0.620959 0.565935 0.227468
O O6 0.643731 0.708449 0.343848
O O7 0.530845 0.328038 0.444539
O O8 0.165879 0.391861 0.153165
O O9 0.000000 0.500000 0.500000
O O10 0.103417 0.776511 0.283293
O O11 0.893872 0.000888 0.213864
O O12 0.358614 0.837557 0.068005
O O13 0.959587 0.843458 0.957898
O O14 0.500000 0.000000 0.500000
#
# Coordination Sequence:
#
# PCOD9108690 Si02
#       7
#     2   2   2   2   1   2   2
#     4  11  22  43  63  97 132 168 219 272 319 385
#     4  11  22  38  66  94 127 174 217 261 325 385
#     4  10  21  38  65  95 123 168 224 262 314 382
#     4  10  25  39  65  95 137 169 209 270 330 384
#     4  10  20  40  70  94 118 174 220 258 316 384
#     4  10  21  44  65  92 135 170 214 264 327 378
#     4  11  22  39  66  93 128 168 219 276 310 376
#
# _framework density 25.578133000000001
#
# number of rings (size 3 to 8) (size 9 to 14) (size 15 to 20)
#    0.000    1.538    4.615    0.462    4.308    1.846 
#    0.000   11.538    0.000    0.000    0.000    0.000 
#    0.000    0.000    0.000    0.000    0.000    0.000 
#
# Total GULP energy -72442.245978 kJ/mol
# GULP energy per Si atom -5572.480460 kJ/mol
# Density = 2.551992 g / cm^3
# Si number density = 25.578133 Si / 1000 Ang^3
#
#
#
# Elastic Constant Matrix: (Units=GPa)
#
#
# Indices 1 2 3 4 5 6 
#
# 1 110.8336 21.4362 -2.4187 4.6356 1.2091 -3.0372
# 2 21.4362 153.3893 5.0550 28.6393 9.9197 -8.7107
# 3 -2.4187 5.0550 34.7108 7.3912 8.2364 -14.3656
# 4 4.6356 28.6393 7.3912 36.4517 -4.0393 -5.5062
# 5 1.2091 9.9197 8.2364 -4.0393 22.3959 2.5632
# 6 -3.0372 -8.7107 -14.3656 -5.5062 2.5632 36.1128
#
#
#
# Elastic Compliance Matrix: (Units=1/GPa)
#
#
# Indices 1 2 3 4 5 6 
#
# 1 0.009340 -0.001143 0.001583 -0.000531 -0.000804 0.001115
# 2 -0.001143 0.008525 0.002751 -0.007455 -0.006342 0.002368
# 3 0.001583 0.002751 0.043233 -0.010780 -0.021191 0.017855
# 4 -0.000531 -0.007455 -0.010780 0.036881 0.014120 -0.001510
# 5 -0.000804 -0.006342 -0.021191 0.014120 0.059226 -0.012078
# 6 0.001115 0.002368 0.017855 -0.001510 -0.012078 0.036086
#
#
# Mechanical properties :
#
#
# Convention : Reuss Voigt Hill
#
# Bulk Modulus (GPa) = 14.81934 38.56430 26.69182
# Shear Modulus (GPa) = 23.87763 37.31614 30.59688
#
# Velocity S-wave (km/s) = 3.05867 3.82371 3.46238
# Velocity P-wave (km/s) = 4.27554 5.88253 5.14220
#
# Compressibility (1/GPa) = 0.06747938
#
# Stress axis : x y z
#
# Youngs Moduli (GPa) = 107.07017 117.30177 23.13069
#
# Poissons Ratio (x) = 0.13406 -0.03661
# Poissons Ratio (y) = 0.12237 -0.06364
# Poissons Ratio (z) = -0.16946 -0.32272
#
# Static dielectric constant tensor:
#      x y z
#    x 3.299010 -0.238990 -1.106890 
#    y -0.238990 2.030010 0.083480 
#    z -1.106890 0.083480 3.211690 
# 
# From -- ./inp_files/60383.got.cif
#   From: 2010.05.17/outbox.cif.g08.bks.cpg/sg2_31_cif.got.tgz:60383.got - 2010.06.03 11:33:40.
