data_PCOD9108821
_publ_section_title
;
Structure prediction by ZEFSAII (Michael W. Deem and Ramdas Pophale) SiO2 
 PCOD9108821
Probable space group: P -1
;
_chemical_formula_sum "Si O2"
_cell_formula_units_Z 14
_cell_length_a 10.318222
_cell_length_b 9.117366
_cell_length_c 13.456959
_cell_angle_alpha 61.662008
_cell_angle_beta 65.188545
_cell_angle_gamma 117.310327
_cell_volume 573.620961
_symmetry_space_group_name_H-M "P -1"
_symmetry_group_IT_number 2
_symmetry_cell_setting 'triclinic'
loop_
_space_group_symop_operation_xyz
x,y,z
-x,-y,-z
loop_
_atom_site_type_symbol
_atom_site_label
_atom_site_fract_x
_atom_site_fract_y
_atom_site_fract_z
Si Si1 0.246253 0.198129 0.072189
Si Si2 0.749874 0.123957 0.056171
Si Si3 0.733178 0.361973 0.748319
Si Si4 0.095670 0.404843 0.587200
Si Si5 0.330383 0.685875 0.614394
Si Si6 0.680048 0.415012 0.966364
Si Si7 0.303131 0.289333 0.802986
O O1 0.181672 0.313563 0.101563
O O2 0.416186 0.252621 0.076320
O O3 0.384098 0.352079 0.873122
O O4 0.996692 0.852020 0.249437
O O5 0.565353 0.947047 0.074899
O O6 0.673382 0.869708 0.206794
O O7 0.680236 0.240593 0.081104
O O8 0.046460 0.417505 0.840302
O O9 0.829345 0.563302 0.559497
O O10 0.794225 0.487443 0.797130
O O11 0.871865 0.323736 0.689043
O O12 0.295612 0.676168 0.510636
O O13 0.412717 0.571434 0.641294
O O14 0.500000 0.000000 0.500000
O O15 0.000000 0.000000 0.000000
#
# Coordination Sequence:
#
# PCOD9108821 Si02
#       7
#     2   2   2   2   2   2   2
#     4  11  21  39  67 101 131 171 216 274 332 386
#     4  11  20  43  71  92 128 179 219 263 336 391
#     4  11  21  39  69 100 125 173 217 275 339 385
#     4  11  22  41  68  96 135 172 217 274 335 385
#     4  11  24  44  69  96 133 174 221 278 319 387
#     4  11  21  37  67 102 129 164 222 276 326 393
#     4  10  20  40  72  87 126 179 221 260 328 389
#
# _framework density 24.406361
#
# number of rings (size 3 to 8) (size 9 to 14) (size 15 to 20)
#    0.000    1.143    7.143    0.429    0.000    1.714 
#    5.143    7.143    0.000    0.000    0.000    0.000 
#    0.000    0.000    0.000    0.000    0.000    0.000 
#
# Total GULP energy -78043.458743 kJ/mol
# GULP energy per Si atom -5574.532767 kJ/mol
# Density = 2.435081 g / cm^3
# Si number density = 24.406361 Si / 1000 Ang^3
#
#
#
# Elastic Constant Matrix: (Units=GPa)
#
#
# Indices 1 2 3 4 5 6 
#
# 1 100.8078 29.9039 27.2454 -24.4578 16.7010 -36.9880
# 2 29.9039 128.8023 43.3362 -22.4812 9.9989 -37.7984
# 3 27.2454 43.3362 95.6140 0.2412 15.3500 -11.1283
# 4 -24.4578 -22.4812 0.2412 33.2736 -4.3090 4.3402
# 5 16.7010 9.9989 15.3500 -4.3090 36.2677 -6.8591
# 6 -36.9880 -37.7984 -11.1283 4.3402 -6.8591 45.2512
#
#
#
# Elastic Compliance Matrix: (Units=1/GPa)
#
#
# Indices 1 2 3 4 5 6 
#
# 1 0.021245 0.005686 -0.005979 0.016650 -0.003335 0.018541
# 2 0.005686 0.015203 -0.006914 0.012658 0.000361 0.014486
# 3 -0.005979 -0.006914 0.015195 -0.008832 -0.004088 -0.006699
# 4 0.016650 0.012658 -0.008832 0.048836 0.001709 0.017586
# 5 -0.003335 0.000361 -0.004088 0.001709 0.031156 0.001128
# 6 0.018541 0.014486 -0.006699 0.017586 0.001128 0.046192
#
#
# Mechanical properties :
#
#
# Convention : Reuss Voigt Hill
#
# Bulk Modulus (GPa) = 26.86253 58.46613 42.66433
# Shear Modulus (GPa) = 24.43176 37.94108 31.18642
#
# Velocity S-wave (km/s) = 3.16735 3.94706 3.57851
# Velocity P-wave (km/s) = 4.94029 6.69176 5.88159
#
# Compressibility (1/GPa) = 0.03722657
#
# Stress axis : x y z
#
# Youngs Moduli (GPa) = 47.07083 65.77760 65.80972
#
# Poissons Ratio (x) = -0.37399 0.39349
# Poissons Ratio (y) = -0.26763 0.45504
# Poissons Ratio (z) = 0.28145 0.45481
#
# Static dielectric constant tensor:
#      x y z
#    x 2.104800 -0.001180 -0.006780 
#    y -0.001180 1.940770 0.009320 
#    z -0.006780 0.009320 2.033130 
# 
# From -- ./inp_files/282723.got.cif
#   From: 2010.05.17/outbox.cif.g08.bks.cpg/sg2_142_cif.got.tgz:282723.got - 2010.06.03 11:33:40.
