data_PCOD9108877
_publ_section_title
;
Structure prediction by ZEFSAII (Michael W. Deem and Ramdas Pophale) SiO2 
 PCOD9108877
Probable space group: P -1
;
_chemical_formula_sum "Si O2"
_cell_formula_units_Z 11
_cell_length_a 5.326036
_cell_length_b 9.477124
_cell_length_c 10.872149
_cell_angle_alpha 106.571173
_cell_angle_beta 124.964266
_cell_angle_gamma 70.859298
_cell_volume 421.496524
_symmetry_space_group_name_H-M "P -1"
_symmetry_group_IT_number 2
_symmetry_cell_setting 'triclinic'
loop_
_space_group_symop_operation_xyz
x,y,z
-x,-y,-z
loop_
_atom_site_type_symbol
_atom_site_label
_atom_site_fract_x
_atom_site_fract_y
_atom_site_fract_z
Si Si1 0.128378 0.803724 0.925293
Si Si2 0.149145 0.061384 0.367008
Si Si3 0.225623 0.341017 0.564030
Si Si4 0.824263 0.826103 0.106772
Si Si5 0.500000 0.500000 0.500000
Si Si6 0.901507 0.528711 0.186713
O O1 0.224243 0.621388 0.906044
O O2 0.895359 0.866085 0.763771
O O3 0.450310 0.858299 0.008841
O O4 0.973536 0.849283 0.023610
O O5 0.042543 0.208249 0.459827
O O6 0.500000 0.000000 0.500000
O O7 0.957131 0.929249 0.269322
O O8 0.492710 0.343027 0.540913
O O9 0.285610 0.368831 0.729280
O O10 0.000000 0.500000 0.500000
O O11 0.920694 0.647520 0.116699
O O12 0.750176 0.537132 0.679147
#
# Coordination Sequence:
#
# PCOD9108877 Si02
#       6
#     2   2   2   2   1   2
#     4  12  28  55  78 116 166 214 262 330 402 495
#     4  12  27  52  82 117 161 212 269 338 399 480
#     4  10  22  45  75 115 147 201 269 330 388 461
#     4  12  30  50  79 119 165 210 264 329 417 472
#     4  10  20  40  74 114 150 190 266 330 376 458
#     4  11  25  44  82 114 154 208 272 328 398 474
#
# _framework density 26.097488999999999
#
# number of rings (size 3 to 8) (size 9 to 14) (size 15 to 20)
#    0.000    0.727    3.636    3.273    7.636    0.727 
#    6.545    0.000    0.000    0.000    0.000    0.000 
#    0.000    0.000    0.000    0.000    0.000    0.000 
#
# Total GULP energy -61283.089071 kJ/mol
# GULP energy per Si atom -5571.189916 kJ/mol
# Density = 2.603809 g / cm^3
# Si number density = 26.097489 Si / 1000 Ang^3
#
#
#
# Elastic Constant Matrix: (Units=GPa)
#
#
# Indices 1 2 3 4 5 6 
#
# 1 116.1104 42.6904 69.8410 4.3603 1.3197 17.1557
# 2 42.6904 163.3323 66.1353 23.8693 8.4377 7.0724
# 3 69.8410 66.1353 163.0930 25.9810 23.5456 2.7488
# 4 4.3603 23.8693 25.9810 75.5356 4.9421 4.0281
# 5 1.3197 8.4377 23.5456 4.9421 45.7355 0.8364
# 6 17.1557 7.0724 2.7488 4.0281 0.8364 36.5843
#
#
#
# Elastic Compliance Matrix: (Units=1/GPa)
#
#
# Indices 1 2 3 4 5 6 
#
# 1 0.013309 -0.001296 -0.005749 0.001750 0.002732 -0.005814
# 2 -0.001296 0.007633 -0.002286 -0.001521 -0.000020 -0.000528
# 3 -0.005749 -0.002286 0.010525 -0.002409 -0.004620 0.002718
# 4 0.001750 -0.001521 -0.002409 0.014555 -0.000067 -0.001947
# 5 0.002732 -0.000020 -0.004620 -0.000067 0.024203 -0.001476
# 6 -0.005814 -0.000528 0.002718 -0.001947 -0.001476 0.030206
#
#
# Mechanical properties :
#
#
# Convention : Reuss Voigt Hill
#
# Bulk Modulus (GPa) = 78.09214 88.87434 83.48324
# Shear Modulus (GPa) = 40.53070 49.16235 44.84652
#
# Velocity S-wave (km/s) = 3.94515 4.34498 4.14988
# Velocity P-wave (km/s) = 7.12324 7.70068 7.41758
#
# Compressibility (1/GPa) = 0.01280539
#
# Stress axis : x y z
#
# Youngs Moduli (GPa) = 75.13511 131.00741 95.00792
#
# Poissons Ratio (x) = 0.16977 0.54621
# Poissons Ratio (y) = 0.09737 0.21721
# Poissons Ratio (z) = 0.43196 0.29951
#
# Static dielectric constant tensor:
#      x y z
#    x 2.231270 -0.115810 0.129980 
#    y -0.115810 2.236460 -0.046850 
#    z 0.129980 -0.046850 2.103490 
# 
# From -- ./inp_files/360475.got.cif
#   From: 2010.05.17/outbox.cif.g08.bks.cpg/sg2_181_cif.got.tgz:360475.got - 2010.06.03 11:33:40.
