data_PCOD9108978
_publ_section_title
;
Structure prediction by ZEFSAII (Michael W. Deem and Ramdas Pophale) SiO2 
 PCOD9108978
Probable space group: P -1
;
_chemical_formula_sum "Si O2"
_cell_formula_units_Z 16
_cell_length_a 11.387698
_cell_length_b 14.852172
_cell_length_c 13.731690
_cell_angle_alpha 148.394146
_cell_angle_beta 136.484892
_cell_angle_gamma 40.059522
_cell_volume 764.588801
_symmetry_space_group_name_H-M "P -1"
_symmetry_group_IT_number 2
_symmetry_cell_setting 'triclinic'
loop_
_space_group_symop_operation_xyz
x,y,z
-x,-y,-z
loop_
_atom_site_type_symbol
_atom_site_label
_atom_site_fract_x
_atom_site_fract_y
_atom_site_fract_z
Si Si1 0.332854 0.303247 0.961631
Si Si2 0.773468 0.083490 0.018481
Si Si3 0.888814 0.462311 0.121558
Si Si4 0.963871 0.332957 0.266341
Si Si5 0.248470 0.467470 0.277545
Si Si6 0.595579 0.219477 0.364641
Si Si7 0.177012 0.000404 0.546906
Si Si8 0.930639 0.965456 0.213865
O O1 0.289719 0.428047 0.952273
O O2 0.218795 0.176712 0.760234
O O3 0.551498 0.171013 0.979195
O O4 0.262735 0.412962 0.122102
O O5 0.826568 0.242008 0.144052
O O6 0.875125 0.051562 0.153958
O O7 0.852750 0.869518 0.824190
O O8 0.879783 0.426449 0.197367
O O9 0.044594 0.542842 0.269976
O O10 0.989057 0.257026 0.946044
O O11 0.000000 0.500000 0.500000
O O12 0.387212 0.295194 0.269103
O O13 0.324466 0.628468 0.476731
O O14 0.640205 0.174937 0.464396
O O15 0.738413 0.038236 0.226542
O O16 0.101132 0.004200 0.397055
O O17 0.000000 0.000000 0.500000
#
# Coordination Sequence:
#
# PCOD9108978 Si02
#       8
#     2   2   2   2   2   2   2   2
#     4  12  24  41  66 100 138 171 220 277 327 408
#     4  10  24  47  72 100 131 174 231 278 339 394
#     4  11  24  39  66  94 132 178 216 270 341 389
#     4  10  25  47  75  96 130 177 226 288 339 395
#     4  11  22  36  61  98 137 171 217 266 331 405
#     4  10  21  34  57  93 131 177 217 263 315 403
#     4  10  21  35  59  90 136 175 210 255 327 393
#     4  10  20  41  61  87 131 174 215 271 324 393
#
# _framework density 20.926279999999998
#
# number of rings (size 3 to 8) (size 9 to 14) (size 15 to 20)
#    0.000    1.500    1.250    4.125    7.000    1.500 
#    2.250    0.625    0.000    0.000    0.000    0.000 
#    0.000    0.000    0.000    0.000    0.000    0.000 
#
# Total GULP energy -89209.825542 kJ/mol
# GULP energy per Si atom -5575.614096 kJ/mol
# Density = 2.087865 g / cm^3
# Si number density = 20.926280 Si / 1000 Ang^3
#
#
#
# Elastic Constant Matrix: (Units=GPa)
#
#
# Indices 1 2 3 4 5 6 
#
# 1 47.9820 24.5952 14.5800 -1.6224 6.0633 14.7014
# 2 24.5952 135.6286 36.3594 -10.2718 -12.6169 28.3091
# 3 14.5800 36.3594 94.0902 -2.8471 2.6422 9.1410
# 4 -1.6224 -10.2718 -2.8471 26.3482 4.8742 2.4308
# 5 6.0633 -12.6169 2.6422 4.8742 20.6306 0.8505
# 6 14.7014 28.3091 9.1410 2.4308 0.8505 18.1945
#
#
#
# Elastic Compliance Matrix: (Units=1/GPa)
#
#
# Indices 1 2 3 4 5 6 
#
# 1 0.029990 -0.000773 -0.001754 0.005153 -0.009356 -0.022400
# 2 -0.000773 0.013882 -0.003348 0.005268 0.008743 -0.020405
# 3 -0.001754 -0.003348 0.012243 0.000455 -0.003231 0.000566
# 4 0.005153 0.005268 0.000455 0.043495 -0.007884 -0.018031
# 5 -0.009356 0.008743 -0.003231 -0.007884 0.059097 -0.006129
# 6 -0.022400 -0.020405 0.000566 -0.018031 -0.006129 0.107221
#
#
# Mechanical properties :
#
#
# Convention : Reuss Voigt Hill
#
# Bulk Modulus (GPa) = 22.54018 47.64110 35.09064
# Shear Modulus (GPa) = 17.09590 26.51240 21.80415
#
# Velocity S-wave (km/s) = 2.86135 3.56328 3.23143
# Velocity P-wave (km/s) = 4.65951 6.30435 5.54328
#
# Compressibility (1/GPa) = 0.04436523
#
# Stress axis : x y z
#
# Youngs Moduli (GPa) = 33.34450 72.03453 81.67730
#
# Poissons Ratio (x) = 0.05569 0.14323
# Poissons Ratio (y) = 0.02578 0.27349
# Poissons Ratio (z) = 0.05847 0.24121
#
# Static dielectric constant tensor:
#      x y z
#    x 1.805250 0.040730 0.018960 
#    y 0.040730 1.851180 0.013530 
#    z 0.018960 0.013530 1.854600 
# 
# From -- ./inp_files/521955.got.cif
#   From: 2010.05.17/outbox.cif.g08.bks.cpg/sg2_261_cif.got.tgz:521955.got - 2010.06.03 11:33:40.
