data_PCOD9108831
_publ_section_title
;
Structure prediction by ZEFSAII (Michael W. Deem and Ramdas Pophale) SiO2 
 PCOD9108831
Probable space group: P -1
;
_chemical_formula_sum "Si O2"
_cell_formula_units_Z 16
_cell_length_a 14.251219
_cell_length_b 9.307655
_cell_length_c 8.121510
_cell_angle_alpha 84.356466
_cell_angle_beta 76.072405
_cell_angle_gamma 40.287715
_cell_volume 669.850215
_symmetry_space_group_name_H-M "P -1"
_symmetry_group_IT_number 2
_symmetry_cell_setting 'triclinic'
loop_
_space_group_symop_operation_xyz
x,y,z
-x,-y,-z
loop_
_atom_site_type_symbol
_atom_site_label
_atom_site_fract_x
_atom_site_fract_y
_atom_site_fract_z
Si Si1 0.714002 0.560789 0.407805
Si Si2 0.040030 0.545447 0.318834
Si Si3 0.435640 0.396200 0.867711
Si Si4 0.723334 0.899895 0.924397
Si Si5 0.858781 0.287997 0.847439
Si Si6 0.287407 0.123825 0.704163
Si Si7 0.017509 0.163167 0.148421
Si Si8 0.498228 0.609820 0.643532
O O1 0.632419 0.593300 0.273059
O O2 0.675974 0.773085 0.424842
O O3 0.887942 0.353507 0.309353
O O4 0.652316 0.525184 0.579197
O O5 0.190980 0.313447 0.198164
O O6 0.076832 0.670580 0.312391
O O7 0.000000 0.500000 0.500000
O O8 0.890924 0.697945 0.254897
O O9 0.463631 0.536239 0.811965
O O10 0.586940 0.138235 0.871466
O O11 0.314730 0.510856 0.049828
O O12 0.852296 0.869201 0.909698
O O13 0.674025 0.889610 0.120225
O O14 0.942895 0.230111 0.992513
O O15 0.909549 0.070760 0.805443
O O16 0.372771 0.878651 0.649705
O O17 0.500000 0.500000 0.500000
#
# Coordination Sequence:
#
# PCOD9108831 Si02
#       8
#     2   2   2   2   2   2   2   2
#     4  10  22  42  68 100 138 185 231 276 352 408
#     4  12  28  44  70 104 144 182 227 290 351 404
#     4  10  24  43  68 104 138 184 227 294 340 402
#     4  12  24  46  72 102 143 178 241 283 338 415
#     4  10  22  42  69 100 135 182 236 275 349 405
#     4  12  24  45  74  99 137 191 231 281 342 418
#     4  10  20  40  72  97 134 185 232 284 331 421
#     4  10  24  43  69 100 143 178 226 285 352 406
#
# _framework density 23.885936999999998
#
# number of rings (size 3 to 8) (size 9 to 14) (size 15 to 20)
#    0.000    1.250    2.500    3.000    8.750    4.000 
#    4.500    1.250    0.000    0.000    0.000    0.000 
#    0.000    0.000    0.000    0.000    0.000    0.000 
#
# Total GULP energy -89594.036125 kJ/mol
# GULP energy per Si atom -5599.627258 kJ/mol
# Density = 2.383157 g / cm^3
# Si number density = 23.885937 Si / 1000 Ang^3
#
#
#
# Elastic Constant Matrix: (Units=GPa)
#
#
# Indices 1 2 3 4 5 6 
#
# 1 84.7326 10.2205 11.9579 -10.1380 -21.8051 9.4451
# 2 10.2205 91.0591 13.6394 23.9144 2.1536 3.9133
# 3 11.9579 13.6394 88.3624 -6.4827 -10.9955 11.7631
# 4 -10.1380 23.9144 -6.4827 29.6255 6.3024 -11.3428
# 5 -21.8051 2.1536 -10.9955 6.3024 37.3589 -8.1386
# 6 9.4451 3.9133 11.7631 -11.3428 -8.1386 44.2818
#
#
#
# Elastic Compliance Matrix: (Units=1/GPa)
#
#
# Indices 1 2 3 4 5 6 
#
# 1 0.015018 -0.003553 -0.000058 0.006393 0.007922 0.000220
# 2 -0.003553 0.016341 -0.002903 -0.016311 -0.002094 -0.004478
# 3 -0.000058 -0.002903 0.012621 0.003878 0.002852 -0.001566
# 4 0.006393 -0.016311 0.003878 0.055087 -0.000639 0.013041
# 5 0.007922 -0.002094 0.002852 -0.000639 0.033263 0.003687
# 6 0.000220 -0.004478 -0.001566 0.013041 0.003687 0.027366
#
#
# Mechanical properties :
#
#
# Convention : Reuss Voigt Hill
#
# Bulk Modulus (GPa) = 32.30764 37.30997 34.80881
# Shear Modulus (GPa) = 27.31656 37.47564 32.39610
#
# Velocity S-wave (km/s) = 3.38542 3.96528 3.68677
# Velocity P-wave (km/s) = 5.36997 6.05133 5.72080
#
# Compressibility (1/GPa) = 0.03095243
#
# Stress axis : x y z
#
# Youngs Moduli (GPa) = 66.58802 61.19563 79.23347
#
# Poissons Ratio (x) = 0.21740 0.00463
# Poissons Ratio (y) = 0.23656 0.22999
# Poissons Ratio (z) = 0.00389 0.17763
#
# Static dielectric constant tensor:
#      x y z
#    x 1.361270 0.054000 -1.002410 
#    y 0.054000 1.863600 0.093670 
#    z -1.002410 0.093670 -0.037770 
# 
# From -- ./inp_files/298196.got.cif
#   From: 2010.05.17/outbox.cif.g08.bks.cpg/sg2_150_cif.got.tgz:298196.got - 2010.06.03 11:33:40.
