data_PCOD9108646
_publ_section_title
;
Structure prediction by ZEFSAII (Michael W. Deem and Ramdas Pophale) SiO2 
 PCOD9108646
Probable space group: P -1
;
_chemical_formula_sum "Si O2"
_cell_formula_units_Z 13
_cell_length_a 14.255702
_cell_length_b 10.975623
_cell_length_c 15.514835
_cell_angle_alpha 136.655847
_cell_angle_beta 161.084958
_cell_angle_gamma 43.220145
_cell_volume 530.989263
_symmetry_space_group_name_H-M "P -1"
_symmetry_group_IT_number 2
_symmetry_cell_setting 'triclinic'
loop_
_space_group_symop_operation_xyz
x,y,z
-x,-y,-z
loop_
_atom_site_type_symbol
_atom_site_label
_atom_site_fract_x
_atom_site_fract_y
_atom_site_fract_z
Si Si1 0.500000 0.500000 0.500000
Si Si2 0.620727 0.729064 0.409809
Si Si3 0.789525 0.513712 0.148659
Si Si4 0.094684 0.346416 0.856458
Si Si5 0.256242 0.040230 0.965015
Si Si6 0.270719 0.721863 0.266222
Si Si7 0.230841 0.166365 0.586321
O O1 0.761404 0.366345 0.608107
O O2 0.507996 0.661337 0.516179
O O3 0.403664 0.795251 0.334334
O O4 0.651565 0.854940 0.420277
O O5 0.943047 0.652285 0.688058
O O6 0.485585 0.563918 0.166598
O O7 0.749890 0.634594 0.261196
O O8 0.878112 0.638688 0.213696
O O9 0.275794 0.169316 0.967425
O O10 0.193205 0.523393 0.075473
O O11 0.018808 0.156888 0.883630
O O12 0.097194 0.873928 0.715998
O O13 0.557892 0.967864 0.237178
#
# Coordination Sequence:
#
# PCOD9108646 Si02
#       7
#     1   2   2   2   2   2   2
#     4  10  16  36  60  90 118 144 210 254 312 346
#     4  11  23  43  69  92 121 166 219 264 299 369
#     4  11  23  43  69  92 121 166 219 264 299 369
#     4  10  23  38  67  94 121 164 215 262 311 361
#     4  11  26  39  63  93 134 169 198 262 314 386
#     4  10  23  38  67  94 121 164 215 262 311 361
#     4  12  26  42  61  94 133 173 202 248 326 374
#
# _framework density 24.482603999999998
#
# number of rings (size 3 to 8) (size 9 to 14) (size 15 to 20)
#    0.000    1.231    1.538    4.615    8.615    2.462 
#    0.000    0.000    0.000    0.000    0.000    0.000 
#    0.000    0.000    0.000    0.000    0.000    0.000 
#
# Total GULP energy -72533.139173 kJ/mol
# GULP energy per Si atom -5579.472244 kJ/mol
# Density = 2.442688 g / cm^3
# Si number density = 24.482604 Si / 1000 Ang^3
#
#
#
# Elastic Constant Matrix: (Units=GPa)
#
#
# Indices 1 2 3 4 5 6 
#
# 1 35.2664 116.6483 -34.3572 -22.5717 51.2196 70.2726
# 2 116.6483 -176.8521 86.5464 17.4513 -133.0539 -81.2661
# 3 -34.3572 86.5464 28.4123 -13.3246 33.2432 44.0767
# 4 -22.5717 17.4513 -13.3246 42.3885 13.5428 -0.1065
# 5 51.2196 -133.0539 33.2432 13.5428 -61.2429 -55.0487
# 6 70.2726 -81.2661 44.0767 -0.1065 -55.0487 5.8482
#
#
#
# Elastic Compliance Matrix: (Units=1/GPa)
#
#
# Indices 1 2 3 4 5 6 
#
# 1 0.016313 0.002031 0.004833 0.002728 0.020714 -0.009187
# 2 0.002031 0.012024 -0.000574 0.001218 -0.016555 -0.008802
# 3 0.004833 -0.000574 0.025008 0.002273 0.026227 -0.007631
# 4 0.002728 0.001218 0.002273 0.024067 0.003747 0.002719
# 5 0.020714 -0.016555 0.026227 0.003747 0.069776 -0.019747
# 6 -0.009187 -0.008802 -0.007631 0.002719 -0.019747 0.030756
#
#
# Mechanical properties :
#
#
# Convention : Reuss Voigt Hill
#
# Bulk Modulus (GPa) = 15.16871 24.94463 20.05667
# Shear Modulus (GPa) = 26.68958 -21.40199 2.64379
#
# Velocity S-wave (km/s) = 3.30532 -2.95985 1.04029
# Velocity P-wave (km/s) = 4.55807 1.21247 3.10692
#
# Compressibility (1/GPa) = 0.06592519
#
# Stress axis : x y z
#
# Youngs Moduli (GPa) = 61.30196 83.16681 39.98670
#
# Poissons Ratio (x) = -0.16894 -0.19326
# Poissons Ratio (y) = -0.12453 0.02297
# Poissons Ratio (z) = -0.29628 0.04778
#
# Static dielectric constant tensor:
#      x y z
#    x 1.937340 -0.005130 -0.053270 
#    y -0.005130 1.958550 0.038490 
#    z -0.053270 0.038490 1.998610 
# 
# From -- ./inp_files/28554.got.cif
#   From: 2010.05.17/outbox.cif.g08.bks.cpg/sg2_15_cif.got.tgz:28554.got - 2010.06.03 11:33:40.
