data_PCOD9108274
_publ_section_title
;
Structure prediction by ZEFSAII (Michael W. Deem and Ramdas Pophale) SiO2 
 PCOD9108274
Probable space group: P -1
;
_chemical_formula_sum "Si O2"
_cell_formula_units_Z 16
_cell_length_a 7.851917
_cell_length_b 9.074024
_cell_length_c 15.920849
_cell_angle_alpha 63.930126
_cell_angle_beta 46.235722
_cell_angle_gamma 50.482319
_cell_volume 631.959898
_symmetry_space_group_name_H-M "P -1"
_symmetry_group_IT_number 2
_symmetry_cell_setting 'triclinic'
loop_
_space_group_symop_operation_xyz
x,y,z
-x,-y,-z
loop_
_atom_site_type_symbol
_atom_site_label
_atom_site_fract_x
_atom_site_fract_y
_atom_site_fract_z
Si Si1 0.413361 0.783967 0.660649
Si Si2 0.186582 0.549521 0.600254
Si Si3 0.895233 0.217253 0.957102
Si Si4 0.419513 0.399592 0.946240
Si Si5 0.186498 0.654569 0.394321
Si Si6 0.881351 0.783207 0.809340
Si Si7 0.439282 0.211038 0.812012
Si Si8 0.306913 0.163240 0.607394
O O1 0.637384 0.560818 0.647654
O O2 0.471665 0.832222 0.533136
O O3 0.122049 0.799945 0.768055
O O4 0.412178 0.958936 0.665201
O O5 0.500000 0.500000 0.500000
O O6 0.066170 0.640405 0.527672
O O7 0.201397 0.349133 0.652344
O O8 0.017507 0.685742 0.699073
O O9 0.685578 0.379156 0.054310
O O10 0.159711 0.238731 0.866161
O O11 0.722021 0.275539 0.915198
O O12 0.000000 0.000000 0.000000
O O13 0.225538 0.339962 0.076858
O O14 0.402281 0.344559 0.871032
O O15 0.383216 0.738573 0.322434
O O16 0.952630 0.786755 0.376019
O O17 0.624152 0.993527 0.832658
#
# Coordination Sequence:
#
# PCOD9108274 Si02
#       8
#     2   2   2   2   2   2   2   2
#     4  10  20  40  67  96 135 180 237 288 341 433
#     4  11  23  43  69 101 146 184 232 299 352 425
#     4  11  25  49  76 114 145 188 251 304 369 439
#     4  11  27  51  77 104 154 191 241 312 364 436
#     4  11  23  45  69  99 140 187 241 288 362 430
#     4  12  23  45  72 104 141 195 236 292 372 425
#     4  12  26  50  75 109 147 195 249 299 369 441
#     4  10  21  41  67 100 136 182 243 282 354 431
#
# _framework density 25.318058000000001
#
# number of rings (size 3 to 8) (size 9 to 14) (size 15 to 20)
#    0.000    1.000    5.000    3.000    0.000    2.500 
#    0.000    3.750    0.000    0.000    0.000    0.000 
#    0.000    0.000    0.000    0.000    0.000    0.000 
#
# Total GULP energy -89670.952362 kJ/mol
# GULP energy per Si atom -5604.434523 kJ/mol
# Density = 2.526043 g / cm^3
# Si number density = 25.318058 Si / 1000 Ang^3
#
#
#
# Elastic Constant Matrix: (Units=GPa)
#
#
# Indices 1 2 3 4 5 6 
#
# 1 123.7438 15.2046 40.7215 -10.5610 -28.8787 -3.3173
# 2 15.2046 165.2475 25.6281 -28.7859 1.1369 0.5180
# 3 40.7215 25.6281 80.8630 -8.2470 -4.0817 2.0573
# 4 -10.5610 -28.7859 -8.2470 28.5376 6.5489 -6.4720
# 5 -28.8787 1.1369 -4.0817 6.5489 37.1866 3.6806
# 6 -3.3173 0.5180 2.0573 -6.4720 3.6806 43.2973
#
#
#
# Elastic Compliance Matrix: (Units=1/GPa)
#
#
# Indices 1 2 3 4 5 6 
#
# 1 0.011975 -0.000161 -0.005477 0.000871 0.008492 0.000588
# 2 -0.000161 0.007741 -0.001692 0.008050 -0.002099 0.001357
# 3 -0.005477 -0.001692 0.015673 0.001231 -0.002625 -0.000737
# 4 0.000871 0.008050 0.001231 0.047566 -0.008578 0.007751
# 5 0.008492 -0.002099 -0.002625 -0.008578 0.035116 -0.003467
# 6 0.000588 0.001357 -0.000737 0.007751 -0.003467 0.024613
#
#
# Mechanical properties :
#
#
# Convention : Reuss Voigt Hill
#
# Bulk Modulus (GPa) = 48.24067 59.21810 53.72938
# Shear Modulus (GPa) = 30.44068 41.02432 35.73250
#
# Velocity S-wave (km/s) = 3.47123 4.02973 3.76086
# Velocity P-wave (km/s) = 5.92968 6.71507 6.33456
#
# Compressibility (1/GPa) = 0.02072940
#
# Stress axis : x y z
#
# Youngs Moduli (GPa) = 83.50519 129.17990 63.80500
#
# Poissons Ratio (x) = 0.02079 0.34946
# Poissons Ratio (y) = 0.01344 0.10795
# Poissons Ratio (z) = 0.45736 0.21856
#
# Static dielectric constant tensor:
#      x y z
#    x 2.027370 0.011540 0.020290 
#    y 0.011540 2.006600 0.019310 
#    z 0.020290 0.019310 1.995540 
# 
# From -- ./inp_files/556962.got.cif
#   From: 2010.05.17/outbox.cif.g08.bks.cpg/sg2_279_cif.got.tgz:556962.got - 2010.06.03 11:33:40.
