data_PCOD9108706
_publ_section_title
;
Structure prediction by ZEFSAII (Michael W. Deem and Ramdas Pophale) SiO2 
 PCOD9108706
Probable space group: P -1
;
_chemical_formula_sum "Si O2"
_cell_formula_units_Z 16
_cell_length_a 8.405421
_cell_length_b 8.787859
_cell_length_c 18.409875
_cell_angle_alpha 37.795923
_cell_angle_beta 101.178861
_cell_angle_gamma 117.127309
_cell_volume 706.339104
_symmetry_space_group_name_H-M "P -1"
_symmetry_group_IT_number 2
_symmetry_cell_setting 'triclinic'
loop_
_space_group_symop_operation_xyz
x,y,z
-x,-y,-z
loop_
_atom_site_type_symbol
_atom_site_label
_atom_site_fract_x
_atom_site_fract_y
_atom_site_fract_z
Si Si1 0.862741 0.975156 0.295001
Si Si2 0.849037 0.722681 0.548359
Si Si3 0.561986 0.841060 0.968520
Si Si4 0.887692 0.546583 0.108527
Si Si5 0.173940 0.162081 0.882633
Si Si6 0.459090 0.301957 0.741280
Si Si7 0.098456 0.717293 0.361470
Si Si8 0.560785 0.754585 0.834706
O O1 0.948186 0.313746 0.186786
O O2 0.830419 0.826660 0.427003
O O3 0.665105 0.846796 0.284567
O O4 0.991700 0.897252 0.285777
O O5 0.654136 0.568131 0.633316
O O6 0.907524 0.479859 0.631253
O O7 0.000000 0.000000 0.500000
O O8 0.625806 0.838046 0.892185
O O9 0.493855 0.068993 0.874172
O O10 0.715250 0.903129 0.019313
O O11 0.409221 0.503657 0.092532
O O12 0.903647 0.656647 0.151321
O O13 0.663257 0.380500 0.136697
O O14 0.012669 0.844878 0.964034
O O15 0.325702 0.351463 0.764735
O O16 0.000000 0.500000 0.500000
O O17 0.315670 0.951702 0.307690
#
# Coordination Sequence:
#
# PCOD9108706 Si02
#       8
#     2   2   2   2   2   2   2   2
#     4  11  25  42  73  96 131 176 230 274 328 397
#     4  11  26  47  70  97 133 174 225 280 342 393
#     4  10  21  38  67  96 135 178 215 272 331 395
#     4  10  22  45  64 101 136 176 218 279 329 394
#     4  10  25  39  66 101 144 170 220 272 340 391
#     4  12  24  45  67 100 135 177 226 275 331 401
#     4  10  23  44  69 100 132 174 228 275 329 400
#     4  10  20  40  70  96 133 181 221 270 334 398
#
# _framework density 22.652011999999999
#
# number of rings (size 3 to 8) (size 9 to 14) (size 15 to 20)
#    0.000    1.500    2.500    0.750    3.500   10.500 
#    0.000    1.250    0.000    0.000    0.000    0.000 
#    0.000    0.000    0.000    0.000    0.000    0.000 
#
# Total GULP energy -89332.572586 kJ/mol
# GULP energy per Si atom -5583.285787 kJ/mol
# Density = 2.260045 g / cm^3
# Si number density = 22.652012 Si / 1000 Ang^3
#
#
#
# Elastic Constant Matrix: (Units=GPa)
#
#
# Indices 1 2 3 4 5 6 
#
# 1 97.8326 54.8901 44.5744 -21.2580 -20.0768 -14.2347
# 2 54.8901 106.4116 65.4695 -23.9041 -12.2531 2.5476
# 3 44.5744 65.4695 91.8788 -20.0137 -24.6953 -2.7459
# 4 -21.2580 -23.9041 -20.0137 45.8498 1.4036 7.3778
# 5 -20.0768 -12.2531 -24.6953 1.4036 45.9398 -3.1547
# 6 -14.2347 2.5476 -2.7459 7.3778 -3.1547 36.4539
#
#
#
# Elastic Compliance Matrix: (Units=1/GPa)
#
#
# Indices 1 2 3 4 5 6 
#
# 1 0.017598 -0.007458 -0.000949 0.002510 0.005616 0.007300
# 2 -0.007458 0.021073 -0.012104 0.003417 -0.004689 -0.006394
# 3 -0.000949 -0.012104 0.022976 0.002617 0.008795 0.002438
# 4 0.002510 0.003417 0.002617 0.026507 0.002315 -0.004226
# 5 0.005616 -0.004689 0.008795 0.002315 0.027981 0.005136
# 6 0.007300 -0.006394 0.002438 -0.004226 0.005136 0.032212
#
#
# Mechanical properties :
#
#
# Convention : Reuss Voigt Hill
#
# Bulk Modulus (GPa) = 48.48570 69.55454 59.02012
# Shear Modulus (GPa) = 25.47820 34.39464 29.93642
#
# Velocity S-wave (km/s) = 3.35739 3.90088 3.63930
# Velocity P-wave (km/s) = 6.03991 7.14573 6.61597
#
# Compressibility (1/GPa) = 0.02062464
#
# Stress axis : x y z
#
# Youngs Moduli (GPa) = 56.82320 47.45507 43.52297
#
# Poissons Ratio (x) = 0.35393 0.04130
# Poissons Ratio (y) = 0.42379 0.52682
# Poissons Ratio (z) = 0.05392 0.57441
#
# Static dielectric constant tensor:
#      x y z
#    x 1.920440 -0.017960 0.016790 
#    y -0.017960 1.850850 0.006470 
#    z 0.016790 0.006470 1.865330 
# 
# From -- ./inp_files/556791.got.cif
#   From: 2010.05.17/outbox.cif.g08.bks.cpg/sg2_279_cif.got.tgz:556791.got - 2010.06.03 11:33:40.
