data_PCOD9108804
_publ_section_title
;
Structure prediction by ZEFSAII (Michael W. Deem and Ramdas Pophale) SiO2 
 PCOD9108804
Probable space group: P -1
;
_chemical_formula_sum "Si O2"
_cell_formula_units_Z 15
_cell_length_a 18.084876
_cell_length_b 15.389422
_cell_length_c 12.492173
_cell_angle_alpha 27.778320
_cell_angle_beta 41.332331
_cell_angle_gamma 27.277238
_cell_volume 732.285632
_symmetry_space_group_name_H-M "P -1"
_symmetry_group_IT_number 2
_symmetry_cell_setting 'triclinic'
loop_
_space_group_symop_operation_xyz
x,y,z
-x,-y,-z
loop_
_atom_site_type_symbol
_atom_site_label
_atom_site_fract_x
_atom_site_fract_y
_atom_site_fract_z
Si Si1 0.321228 0.320120 0.178878
Si Si2 0.687287 0.956300 0.163249
Si Si3 0.160046 0.905717 0.023343
Si Si4 0.111145 0.914834 0.713050
Si Si5 0.000000 0.000000 0.500000
Si Si6 0.191180 0.131789 0.104310
Si Si7 0.856705 0.453750 0.658008
Si Si8 0.831163 0.732917 0.786798
O O1 0.514033 0.077936 0.248281
O O2 0.223224 0.377694 0.328498
O O3 0.263176 0.278653 0.182636
O O4 0.267267 0.599223 0.913462
O O5 0.824992 0.643065 0.394686
O O6 0.719598 0.108827 0.025637
O O7 0.698792 0.974064 0.004111
O O8 0.227056 0.644109 0.173619
O O9 0.029195 0.972292 0.174182
O O10 0.045847 0.173105 0.780382
O O11 0.151310 0.082857 0.481551
O O12 0.039718 0.944372 0.644216
O O13 0.153302 0.964305 0.355628
O O14 0.245013 0.162505 0.124218
O O15 0.013156 0.432754 0.938219
#
# Coordination Sequence:
#
# PCOD9108804 Si02
#       8
#     2   2   2   2   1   2   2   2
#     4  11  24  40  57  88 131 162 195 237 309 364
#     4  12  23  39  61  91 127 158 192 251 301 367
#     4  10  21  39  64  93 114 151 213 254 289 344
#     4  10  20  37  63  87 117 156 202 249 292 348
#     4  10  16  36  64  82 116 144 198 252 288 342
#     4  10  20  37  65  92 112 155 208 247 299 347
#     4  10  23  40  61  88 119 163 204 248 290 351
#     4  10  21  39  63  89 115 161 200 251 294 353
#
# _framework density 20.483809000000001
#
# number of rings (size 3 to 8) (size 9 to 14) (size 15 to 20)
#    0.000    1.600    2.667    2.400    0.000    5.333 
#    0.000    2.667    0.000    0.000    0.000    0.000 
#    0.000    0.000    0.000    0.000    0.000    0.000 
#
# Total GULP energy -83501.771573 kJ/mol
# GULP energy per Si atom -5566.784772 kJ/mol
# Density = 2.043719 g / cm^3
# Si number density = 20.483809 Si / 1000 Ang^3
#
#
#
# Elastic Constant Matrix: (Units=GPa)
#
#
# Indices 1 2 3 4 5 6 
#
# 1 822.2671 266.2788 -632.1552 69.4348 -31.0506 -26.5275
# 2 266.2788 108.7246 -216.8592 33.7850 -3.0157 0.3488
# 3 -632.1552 -216.8592 671.0305 -42.1482 26.6372 45.5420
# 4 69.4348 33.7850 -42.1482 22.6520 3.5130 4.2802
# 5 -31.0506 -3.0157 26.6372 3.5130 28.5471 9.8055
# 6 -26.5275 0.3488 45.5420 4.2802 9.8055 24.7012
#
#
#
# Elastic Compliance Matrix: (Units=1/GPa)
#
#
# Indices 1 2 3 4 5 6 
#
# 1 0.008532 -0.016201 0.002552 0.001605 0.004024 0.002811
# 2 -0.016201 0.097999 0.014970 -0.061780 -0.001598 -0.035043
# 3 0.002552 0.014970 0.008748 -0.011839 0.001873 -0.012293
# 4 0.001605 -0.061780 -0.011839 0.109141 -0.010488 0.009675
# 5 0.004024 -0.001598 0.001873 -0.010488 0.043827 -0.014690
# 6 0.002811 -0.035043 -0.012293 0.009675 -0.014690 0.070816
#
#
# Mechanical properties :
#
#
# Convention : Reuss Voigt Hill
#
# Bulk Modulus (GPa) = 8.48032 48.50567 28.49299
# Shear Modulus (GPa) = 13.30751 160.83057 87.06904
#
# Velocity S-wave (km/s) = 2.55161 8.87054 6.52676
# Velocity P-wave (km/s) = 3.58189 11.34225 8.41060
#
# Compressibility (1/GPa) = 0.11792012
#
# Stress axis : x y z
#
# Youngs Moduli (GPa) = 117.21065 10.20422 114.30610
#
# Poissons Ratio (x) = 0.16532 -0.29171
# Poissons Ratio (y) = 1.89891 -1.71111
# Poissons Ratio (z) = -0.29912 -0.15275
#
# Static dielectric constant tensor:
#      x y z
#    x 1.734950 0.053430 -0.018160 
#    y 0.053430 1.724350 -0.014400 
#    z -0.018160 -0.014400 1.740250 
# 
# From -- ./inp_files/303479.got.cif
#   From: 2010.05.17/outbox.cif.g08.bks.cpg/sg2_152_cif.got.tgz:303479.got - 2010.06.03 11:33:40.
