data_PCOD9108711
_publ_section_title
;
Structure prediction by ZEFSAII (Michael W. Deem and Ramdas Pophale) SiO2 
 PCOD9108711
Probable space group: P -1
;
_chemical_formula_sum "Si O2"
_cell_formula_units_Z 15
_cell_length_a 5.854221
_cell_length_b 14.979701
_cell_length_c 14.913291
_cell_angle_alpha 139.048437
_cell_angle_beta 96.528465
_cell_angle_gamma 107.705450
_cell_volume 681.980867
_symmetry_space_group_name_H-M "P -1"
_symmetry_group_IT_number 2
_symmetry_cell_setting 'triclinic'
loop_
_space_group_symop_operation_xyz
x,y,z
-x,-y,-z
loop_
_atom_site_type_symbol
_atom_site_label
_atom_site_fract_x
_atom_site_fract_y
_atom_site_fract_z
Si Si1 0.681153 0.505484 0.726918
Si Si2 0.836312 0.629815 0.133376
Si Si3 0.742571 0.287948 0.421424
Si Si4 0.407963 0.578553 0.629209
Si Si5 0.250367 0.200692 0.596650
Si Si6 0.500000 0.000000 0.500000
Si Si7 0.158480 0.655332 0.995608
Si Si8 0.304054 0.996360 0.685441
O O1 0.660072 0.368243 0.555400
O O2 0.594371 0.609713 0.748210
O O3 0.458895 0.389901 0.708675
O O4 0.995738 0.626499 0.874704
O O5 0.917030 0.787239 0.317764
O O6 0.008740 0.688357 0.093519
O O7 0.500000 0.500000 0.000000
O O8 0.905997 0.521619 0.112487
O O9 0.585539 0.276473 0.313545
O O10 0.698533 0.120740 0.327839
O O11 0.080262 0.431742 0.529366
O O12 0.500000 0.500000 0.500000
O O13 0.017385 0.081126 0.420005
O O14 0.430185 0.141914 0.600645
O O15 0.445213 0.980196 0.591404
O O16 0.494204 0.808044 0.127206
#
# Coordination Sequence:
#
# PCOD9108711 Si02
#       8
#     2   2   2   2   2   1   2   2
#     4  11  21  41  65  95 124 173 219 266 321 400
#     4  11  23  44  63  89 130 191 228 266 314 394
#     4  10  20  40  70  97 128 163 220 273 334 385
#     4   9  20  39  69  99 121 162 220 277 323 401
#     4  12  24  42  66  90 133 179 226 265 326 388
#     4  12  26  42  60  98 134 170 226 276 318 376
#     4  11  26  40  62  94 138 173 226 270 325 384
#     4  12  24  41  63  98 134 175 211 279 331 384
#
# _framework density 21.994752999999999
#
# number of rings (size 3 to 8) (size 9 to 14) (size 15 to 20)
#    0.000    1.067    4.000    2.800    1.867    1.067 
#    0.000    0.667    0.000    7.200    0.000    0.000 
#    0.000    0.000    0.000    0.000    0.000    0.000 
#
# Total GULP energy -83686.297188 kJ/mol
# GULP energy per Si atom -5579.086479 kJ/mol
# Density = 2.194469 g / cm^3
# Si number density = 21.994753 Si / 1000 Ang^3
#
#
#
# Elastic Constant Matrix: (Units=GPa)
#
#
# Indices 1 2 3 4 5 6 
#
# 1 48.1421 18.8875 13.7110 -6.7142 3.6444 -19.0816
# 2 18.8875 137.0307 21.0611 -5.9265 3.8105 -32.7019
# 3 13.7110 21.0611 70.6920 2.6292 25.2534 -17.9007
# 4 -6.7142 -5.9265 2.6292 21.7228 -0.6535 7.9329
# 5 3.6444 3.8105 25.2534 -0.6535 41.7047 -7.5153
# 6 -19.0816 -32.7019 -17.9007 7.9329 -7.5153 44.7284
#
#
#
# Elastic Compliance Matrix: (Units=1/GPa)
#
#
# Indices 1 2 3 4 5 6 
#
# 1 0.026031 -0.000872 -0.003357 0.005172 0.001441 0.008449
# 2 -0.000872 0.009002 -0.001494 0.000300 0.001201 0.005760
# 3 -0.003357 -0.001494 0.020785 -0.006118 -0.011356 0.004971
# 4 0.005172 0.000300 -0.006118 0.051738 0.002453 -0.008787
# 5 0.001441 0.001201 -0.011356 0.002453 0.030967 0.001716
# 6 0.008449 0.005760 0.004971 -0.008787 0.001716 0.034009
#
#
# Mechanical properties :
#
#
# Convention : Reuss Voigt Hill
#
# Bulk Modulus (GPa) = 22.53711 40.35377 31.44544
# Shear Modulus (GPa) = 25.15486 35.11152 30.13319
#
# Velocity S-wave (km/s) = 3.38550 3.99978 3.70539
# Velocity P-wave (km/s) = 5.05479 6.30221 5.71265
#
# Compressibility (1/GPa) = 0.04437127
#
# Stress axis : x y z
#
# Youngs Moduli (GPa) = 38.41562 111.09072 48.11097
#
# Poissons Ratio (x) = 0.09689 0.16150
# Poissons Ratio (y) = 0.03350 0.07190
# Poissons Ratio (z) = 0.12895 0.16602
#
# Static dielectric constant tensor:
#      x y z
#    x 1.999880 0.032000 0.100310 
#    y 0.032000 1.805420 -0.000600 
#    z 0.100310 -0.000600 1.859180 
# 
# From -- ./inp_files/44214.got.cif
#   From: 2010.05.17/outbox.cif.g08.bks.cpg/sg2_23_cif.got.tgz:44214.got - 2010.06.03 11:33:40.
