data_PCOD9108275
_publ_section_title
;
Structure prediction by ZEFSAII (Michael W. Deem and Ramdas Pophale) SiO2 
 PCOD9108275
Probable space group: P -1
;
_chemical_formula_sum "Si O2"
_cell_formula_units_Z 14
_cell_length_a 15.875551
_cell_length_b 7.401188
_cell_length_c 9.535747
_cell_angle_alpha 50.521941
_cell_angle_beta 142.896545
_cell_angle_gamma 122.462700
_cell_volume 520.649567
_symmetry_space_group_name_H-M "P -1"
_symmetry_group_IT_number 2
_symmetry_cell_setting 'triclinic'
loop_
_space_group_symop_operation_xyz
x,y,z
-x,-y,-z
loop_
_atom_site_type_symbol
_atom_site_label
_atom_site_fract_x
_atom_site_fract_y
_atom_site_fract_z
Si Si1 0.812674 0.347782 0.937965
Si Si2 0.641468 0.864023 0.735089
Si Si3 0.341794 0.028875 0.941799
Si Si4 0.126919 0.224439 0.375739
Si Si5 0.585613 0.350043 0.011166
Si Si6 0.084369 0.372954 0.796510
Si Si7 0.807156 0.155958 0.576366
O O1 0.694667 0.134244 0.891757
O O2 0.828328 0.462123 0.057588
O O3 0.965792 0.263286 0.156849
O O4 0.791472 0.545055 0.696430
O O5 0.573398 0.596799 0.798889
O O6 0.500000 0.000000 0.500000
O O7 0.702445 0.998324 0.610552
O O8 0.803721 0.799570 0.030156
O O9 0.199137 0.140075 0.652911
O O10 0.456729 0.243083 0.986760
O O11 0.391163 0.847377 0.979519
O O12 0.146254 0.015264 0.398291
O O13 0.718667 0.350574 0.290094
O O14 0.000000 0.500000 0.500000
O O15 0.956141 0.260801 0.778871
#
# Coordination Sequence:
#
# PCOD9108275 Si02
#       7
#     2   2   2   2   2   2   2
#     4  11  22  41  69 108 140 183 246 297 356 433
#     4  12  26  46  68 105 147 186 242 295 359 431
#     4  10  20  40  67  96 143 184 228 294 361 419
#     4  10  22  40  68 104 141 184 244 293 357 431
#     4  10  22  43  67  99 138 191 234 288 357 430
#     4  12  23  47  78 104 147 192 240 298 362 433
#     4  11  23  46  72 100 145 192 236 296 364 428
#
# _framework density 26.889488
#
# number of rings (size 3 to 8) (size 9 to 14) (size 15 to 20)
#    0.000    1.143    4.286    1.714    0.000    2.857 
#    7.714    4.286    0.000    0.000    0.000    0.000 
#    0.000    0.000    0.000    0.000    0.000    0.000 
#
# Total GULP energy -78231.139430 kJ/mol
# GULP energy per Si atom -5587.938531 kJ/mol
# Density = 2.682829 g / cm^3
# Si number density = 26.889488 Si / 1000 Ang^3
#
#
#
# Elastic Constant Matrix: (Units=GPa)
#
#
# Indices 1 2 3 4 5 6 
#
# 1 78.0258 71.7377 4.8540 9.0741 -10.2095 -21.7440
# 2 71.7377 123.7041 95.7117 -19.6754 32.2679 84.2308
# 3 4.8540 95.7117 92.6299 -2.5834 -30.1731 -70.1117
# 4 9.0741 -19.6754 -2.5834 39.6504 23.4704 25.4264
# 5 -10.2095 32.2679 -30.1731 23.4704 27.8947 -40.2999
# 6 -21.7440 84.2308 -70.1117 25.4264 -40.2999 -3.8885
#
#
#
# Elastic Compliance Matrix: (Units=1/GPa)
#
#
# Indices 1 2 3 4 5 6 
#
# 1 0.012683 -0.001331 -0.003214 0.000605 -0.003286 -0.003794
# 2 -0.001331 0.003716 0.000781 -0.003217 0.004701 0.004108
# 3 -0.003214 0.000781 0.006684 0.005971 -0.004206 -0.002999
# 4 0.000605 -0.003217 0.005971 0.023168 -0.003214 0.004068
# 5 -0.003286 0.004701 -0.004206 -0.003214 0.017543 -0.006798
# 6 -0.003794 0.004108 -0.002999 0.004068 -0.006798 0.004160
#
#
# Mechanical properties :
#
#
# Convention : Reuss Voigt Hill
#
# Bulk Modulus (GPa) = 64.29219 70.99629 67.64424
# Shear Modulus (GPa) = 61.98281 20.86841 41.42561
#
# Velocity S-wave (km/s) = 4.80635 2.78884 3.92929
# Velocity P-wave (km/s) = 7.40020 6.06881 6.76733
#
# Compressibility (1/GPa) = 0.01555399
#
# Stress axis : x y z
#
# Youngs Moduli (GPa) = 78.84841 269.08255 149.60855
#
# Poissons Ratio (x) = 0.35822 0.48086
# Poissons Ratio (y) = 0.10497 -0.11683
# Poissons Ratio (z) = 0.25343 -0.21012
#
# Static dielectric constant tensor:
#      x y z
#    x 1.827560 0.333590 0.041390 
#    y 0.333590 1.813420 -0.057980 
#    z 0.041390 -0.057980 1.999070 
# 
# From -- ./inp_files/461836.got.cif
#   From: 2010.05.17/outbox.cif.g08.bks.cpg/sg2_231_cif.got.tgz:461836.got - 2010.06.03 11:33:40.
