data_PCOD9108312
_publ_section_title
;
Structure prediction by ZEFSAII (Michael W. Deem and Ramdas Pophale) SiO2 
 PCOD9108312
Probable space group: P -1
;
_chemical_formula_sum "Si O2"
_cell_formula_units_Z 14
_cell_length_a 10.900293
_cell_length_b 10.720505
_cell_length_c 10.978988
_cell_angle_alpha 97.136300
_cell_angle_beta 114.414539
_cell_angle_gamma 138.773091
_cell_volume 530.253311
_symmetry_space_group_name_H-M "P -1"
_symmetry_group_IT_number 2
_symmetry_cell_setting 'triclinic'
loop_
_space_group_symop_operation_xyz
x,y,z
-x,-y,-z
loop_
_atom_site_type_symbol
_atom_site_label
_atom_site_fract_x
_atom_site_fract_y
_atom_site_fract_z
Si Si1 0.228492 0.001505 0.815219
Si Si2 0.560893 0.859133 0.717193
Si Si3 0.795895 0.597063 0.077020
Si Si4 0.921363 0.079427 0.516707
Si Si5 0.285359 0.233487 0.061552
Si Si6 0.740199 0.180525 0.016012
Si Si7 0.372691 0.757366 0.381120
O O1 0.074386 0.851911 0.606382
O O2 0.134804 0.845871 0.876092
O O3 0.583125 0.299372 0.966544
O O4 0.193736 0.109873 0.874323
O O5 0.531696 0.717698 0.780332
O O6 0.345027 0.672617 0.493345
O O7 0.887257 0.140663 0.825524
O O8 0.546281 0.978780 0.797154
O O9 0.623497 0.549512 0.909224
O O10 0.868729 0.699333 0.258877
O O11 0.599407 0.857670 0.410895
O O12 0.000000 0.000000 0.500000
O O13 0.000000 0.000000 0.000000
O O14 0.048053 0.505239 0.161422
O O15 0.500000 0.000000 0.000000
O O16 0.500000 0.000000 0.500000
#
# Coordination Sequence:
#
# PCOD9108312 Si02
#       7
#     2   2   2   2   2   2   2
#     4  11  23  40  64 102 139 182 238 295 352 427
#     4   9  22  43  67  97 140 183 235 297 354 414
#     4  10  20  40  67  98 140 186 236 283 358 424
#     4  11  24  43  72 108 141 186 240 297 352 424
#     4   9  18  36  61  94 134 184 228 278 350 426
#     4  11  27  46  71 103 140 188 245 301 359 424
#     4  11  27  49  74 105 141 192 247 295 358 433
#
# _framework density 26.402477000000001
#
# number of rings (size 3 to 8) (size 9 to 14) (size 15 to 20)
#    0.000    1.714    1.429    1.286    6.000    3.429 
#    0.000    0.714    0.000    0.000    0.000    0.000 
#    0.000    0.000    0.000    0.000    0.000    0.000 
#
# Total GULP energy -77993.330108 kJ/mol
# GULP energy per Si atom -5570.952151 kJ/mol
# Density = 2.634238 g / cm^3
# Si number density = 26.402477 Si / 1000 Ang^3
#
#
#
# Elastic Constant Matrix: (Units=GPa)
#
#
# Indices 1 2 3 4 5 6 
#
# 1 101.6571 3.6405 28.8893 8.6545 3.5503 36.2865
# 2 3.6405 131.8127 18.6221 -12.9020 -1.1946 5.4426
# 3 28.8893 18.6221 140.9967 -4.1432 -13.4371 14.6755
# 4 8.6545 -12.9020 -4.1432 50.8178 14.8732 -6.2262
# 5 3.5503 -1.1946 -13.4371 14.8732 31.9466 -8.7049
# 6 36.2865 5.4426 14.6755 -6.2262 -8.7049 42.8208
#
#
#
# Elastic Compliance Matrix: (Units=1/GPa)
#
#
# Indices 1 2 3 4 5 6 
#
# 1 0.016088 0.000136 -0.002413 -0.003122 -0.005253 -0.014345
# 2 0.000136 0.007970 -0.001074 0.002236 -0.001406 -0.000721
# 3 -0.002413 -0.001074 0.008067 -0.000298 0.003800 0.000146
# 4 -0.003122 0.002236 -0.000298 0.024120 -0.009843 0.003970
# 5 -0.005253 -0.001406 0.003800 -0.009843 0.040790 0.010189
# 6 -0.014345 -0.000721 0.000146 0.003970 0.010189 0.038199
#
#
# Mechanical properties :
#
#
# Convention : Reuss Voigt Hill
#
# Bulk Modulus (GPa) = 39.33642 52.97448 46.15545
# Shear Modulus (GPa) = 33.24218 46.67135 39.95677
#
# Velocity S-wave (km/s) = 3.55217 4.20895 3.89443
# Velocity P-wave (km/s) = 5.63515 6.61272 6.14341
#
# Compressibility (1/GPa) = 0.02542173
#
# Stress axis : x y z
#
# Youngs Moduli (GPa) = 62.15983 125.46471 123.96436
#
# Poissons Ratio (x) = -0.01703 0.29919
# Poissons Ratio (y) = -0.00844 0.13311
# Poissons Ratio (z) = 0.15002 0.13472
#
# Static dielectric constant tensor:
#      x y z
#    x 2.372810 -0.250380 0.055320 
#    y -0.250380 2.404010 0.042310 
#    z 0.055320 0.042310 2.086600 
# 
# From -- ./inp_files/426218.got.cif
#   From: 2010.05.17/outbox.cif.g08.bks.cpg/sg2_214_cif.got.tgz:426218.got - 2010.06.03 11:33:40.
