data_PCOD9108594
_publ_section_title
;
Structure prediction by ZEFSAII (Michael W. Deem and Ramdas Pophale) SiO2 
 PCOD9108594
Probable space group: P -1
;
_chemical_formula_sum "Si O2"
_cell_formula_units_Z 16
_cell_length_a 13.774409
_cell_length_b 9.354364
_cell_length_c 9.113744
_cell_angle_alpha 141.369923
_cell_angle_beta 93.205651
_cell_angle_gamma 93.182273
_cell_volume 722.636101
_symmetry_space_group_name_H-M "P -1"
_symmetry_group_IT_number 2
_symmetry_cell_setting 'triclinic'
loop_
_space_group_symop_operation_xyz
x,y,z
-x,-y,-z
loop_
_atom_site_type_symbol
_atom_site_label
_atom_site_fract_x
_atom_site_fract_y
_atom_site_fract_z
Si Si1 0.760834 0.504418 0.846072
Si Si2 0.131110 0.682814 0.547017
Si Si3 0.782803 0.922153 0.951834
Si Si4 0.920658 0.789785 0.645264
Si Si5 0.760175 0.727659 0.332259
Si Si6 0.391556 0.938972 0.514832
Si Si7 0.453676 0.843571 0.735007
Si Si8 0.366650 0.380968 0.510969
O O1 0.834227 0.363376 0.650888
O O2 0.766227 0.722003 0.912034
O O3 0.656883 0.332878 0.713483
O O4 0.787916 0.603204 0.088351
O O5 0.108013 0.451795 0.459417
O O6 0.034662 0.805953 0.630821
O O7 0.215871 0.845318 0.772625
O O8 0.884940 0.962593 0.899373
O O9 0.704533 0.823340 0.743185
O O10 0.855525 0.797700 0.499665
O O11 0.683863 0.562988 0.298008
O O12 0.693250 0.925322 0.447141
O O13 0.406372 0.994080 0.733230
O O14 0.500000 0.000000 0.500000
O O15 0.387269 0.614084 0.606836
O O16 0.534651 0.728807 0.558253
O O17 0.500000 0.000000 0.000000
#
# Coordination Sequence:
#
# PCOD9108594 Si02
#       8
#     2   2   2   2   2   2   2   2
#     4  11  25  41  64  97 135 176 220 270 332 402
#     4  10  21  43  73  98 133 179 220 273 337 397
#     4  10  20  40  69  96 134 175 219 274 327 393
#     4   9  22  42  68 106 133 169 229 273 327 400
#     4  11  25  42  65  97 137 174 214 280 330 393
#     4  12  26  46  64  96 133 180 220 267 344 393
#     4  11  25  41  67  94 125 173 226 278 329 392
#     4  10  23  42  62  98 129 168 230 275 320 397
#
# _framework density 22.141158999999998
#
# number of rings (size 3 to 8) (size 9 to 14) (size 15 to 20)
#    0.000    1.500    2.500    1.125    5.250    3.000 
#    0.000    2.500    0.000    0.000    0.000    0.000 
#    0.000    0.000    0.000    0.000    0.000    0.000 
#
# Total GULP energy -89288.314383 kJ/mol
# GULP energy per Si atom -5580.519649 kJ/mol
# Density = 2.209076 g / cm^3
# Si number density = 22.141159 Si / 1000 Ang^3
#
#
#
# Elastic Constant Matrix: (Units=GPa)
#
#
# Indices 1 2 3 4 5 6 
#
# 1 115.0609 32.7845 32.4179 -18.1754 -18.0819 -4.3978
# 2 32.7845 81.8261 22.1239 -37.4366 -2.6766 0.1967
# 3 32.4179 22.1239 93.8739 -32.8016 -7.7745 5.2203
# 4 -18.1754 -37.4366 -32.8016 35.1931 3.6642 5.1744
# 5 -18.0819 -2.6766 -7.7745 3.6642 27.0273 -7.3726
# 6 -4.3978 0.1967 5.2203 5.1744 -7.3726 38.2965
#
#
#
# Elastic Compliance Matrix: (Units=1/GPa)
#
#
# Indices 1 2 3 4 5 6 
#
# 1 0.012212 -0.006065 -0.004335 -0.005694 0.008292 0.004390
# 2 -0.006065 0.029593 0.008346 0.037986 -0.006140 -0.008301
# 3 -0.004335 0.008346 0.019535 0.026091 -0.001928 -0.007100
# 4 -0.005694 0.037986 0.026091 0.094110 -0.010524 -0.019147
# 5 0.008292 -0.006140 -0.001928 -0.010524 0.045952 0.011515
# 6 0.004390 -0.008301 -0.007100 -0.019147 0.011515 0.032430
#
#
# Mechanical properties :
#
#
# Convention : Reuss Voigt Hill
#
# Bulk Modulus (GPa) = 17.47295 51.71262 34.59278
# Shear Modulus (GPa) = 19.45397 33.66570 26.55983
#
# Velocity S-wave (km/s) = 2.96739 3.90359 3.46724
# Velocity P-wave (km/s) = 4.43275 6.61241 5.62909
#
# Compressibility (1/GPa) = 0.05723133
#
# Stress axis : x y z
#
# Youngs Moduli (GPa) = 81.88672 33.79230 51.19136
#
# Poissons Ratio (x) = 0.20496 0.22191
# Poissons Ratio (y) = 0.49667 -0.42726
# Poissons Ratio (z) = 0.35497 -0.28204
#
# Static dielectric constant tensor:
#      x y z
#    x 1.902710 -0.005940 -0.023890 
#    y -0.005940 1.810290 0.006630 
#    z -0.023890 0.006630 1.812020 
# 
# From -- ./inp_files/288623.got.cif
#   From: 2010.05.17/outbox.cif.g08.bks.cpg/sg2_145_cif.got.tgz:288623.got - 2010.06.03 11:33:40.
