data_PCOD9108901
_publ_section_title
;
Structure prediction by ZEFSAII (Michael W. Deem and Ramdas Pophale) SiO2 
 PCOD9108901
Probable space group: P -1
;
_chemical_formula_sum "Si O2"
_cell_formula_units_Z 14
_cell_length_a 14.658747
_cell_length_b 6.726145
_cell_length_c 16.499743
_cell_angle_alpha 99.485570
_cell_angle_beta 41.766711
_cell_angle_gamma 126.171140
_cell_volume 751.314233
_symmetry_space_group_name_H-M "P -1"
_symmetry_group_IT_number 2
_symmetry_cell_setting 'triclinic'
loop_
_space_group_symop_operation_xyz
x,y,z
-x,-y,-z
loop_
_atom_site_type_symbol
_atom_site_label
_atom_site_fract_x
_atom_site_fract_y
_atom_site_fract_z
Si Si1 0.520129 0.430304 0.360841
Si Si2 0.485787 0.334972 0.199718
Si Si3 0.626187 0.332883 0.439665
Si Si4 0.006292 0.366660 0.673483
Si Si5 0.676822 0.336440 0.922280
Si Si6 0.172851 0.845609 0.475611
Si Si7 0.803990 0.737651 0.716265
O O1 0.587874 0.499419 0.227529
O O2 0.643780 0.432951 0.343081
O O3 0.489641 0.617938 0.430124
O O4 0.305054 0.101274 0.472337
O O5 0.353569 0.379240 0.256495
O O6 0.324186 0.996323 0.310836
O O7 0.626125 0.400804 0.042290
O O8 0.827933 0.510891 0.363638
O O9 0.500000 0.000000 0.500000
O O10 0.867669 0.397143 0.801587
O O11 0.103845 0.566312 0.541869
O O12 0.886715 0.041113 0.709667
O O13 0.703114 0.520777 0.843969
O O14 0.500000 0.000000 0.000000
O O15 0.988034 0.791652 0.574094
#
# Coordination Sequence:
#
# PCOD9108901 Si02
#       7
#     2   2   2   2   2   2   2
#     4   9  21  35  59  87 115 148 193 247 291 341
#     4  10  20  41  56  86 127 151 195 244 295 347
#     4  11  19  38  62  87 118 151 198 246 303 338
#     4  11  21  37  62  90 117 158 197 241 297 352
#     4  11  24  40  57  87 123 166 195 231 293 368
#     4   9  20  36  55  92 113 146 196 248 288 340
#     4  11  21  38  61  86 121 157 197 240 302 349
#
# _framework density 18.634015000000002
#
# number of rings (size 3 to 8) (size 9 to 14) (size 15 to 20)
#    0.857    0.857    4.286    0.857    0.000    0.571 
#    7.714    0.714    0.000    1.714    0.000    0.000 
#    0.000    0.000    0.000    0.000    0.000    0.000 
#
# Total GULP energy -78122.386863 kJ/mol
# GULP energy per Si atom -5580.170490 kJ/mol
# Density = 1.859160 g / cm^3
# Si number density = 18.634015 Si / 1000 Ang^3
#
#
#
# Elastic Constant Matrix: (Units=GPa)
#
#
# Indices 1 2 3 4 5 6 
#
# 1 129.7126 20.6840 28.0124 13.4800 6.0788 -17.0570
# 2 20.6840 85.3780 2.6615 -8.7790 15.7618 -12.3077
# 3 28.0124 2.6615 68.5208 -1.8921 20.9604 -11.2681
# 4 13.4800 -8.7790 -1.8921 18.6841 -0.4183 9.0294
# 5 6.0788 15.7618 20.9604 -0.4183 27.8772 1.5785
# 6 -17.0570 -12.3077 -11.2681 9.0294 1.5785 24.7957
#
#
#
# Elastic Compliance Matrix: (Units=1/GPa)
#
#
# Indices 1 2 3 4 5 6 
#
# 1 0.011976 -0.003076 -0.003829 -0.015550 0.001175 0.010560
# 2 -0.003076 0.016529 0.006169 0.006782 -0.013624 0.007289
# 3 -0.003829 0.006169 0.024719 0.001655 -0.021919 0.012454
# 4 -0.015550 0.006782 0.001655 0.086610 0.001776 -0.038231
# 5 0.001175 -0.013624 -0.021919 0.001776 0.060983 -0.020444
# 6 0.010560 0.007289 0.012454 -0.038231 -0.020444 0.072094
#
#
# Mechanical properties :
#
#
# Convention : Reuss Voigt Hill
#
# Bulk Modulus (GPa) = 19.32292 42.92524 31.12408
# Shear Modulus (GPa) = 17.14480 29.75496 23.44988
#
# Velocity S-wave (km/s) = 3.03657 4.00034 3.55131
# Velocity P-wave (km/s) = 4.76304 6.66506 5.79265
#
# Compressibility (1/GPa) = 0.05175201
#
# Stress axis : x y z
#
# Youngs Moduli (GPa) = 83.49878 60.50034 40.45552
#
# Poissons Ratio (x) = 0.18608 0.15491
# Poissons Ratio (y) = 0.25682 -0.24957
# Poissons Ratio (z) = 0.31972 -0.37323
#
# Static dielectric constant tensor:
#      x y z
#    x 1.654440 -0.001860 0.015340 
#    y -0.001860 1.649520 0.004220 
#    z 0.015340 0.004220 1.654490 
# 
# From -- ./inp_files/128373.got.cif
#   From: 2010.05.17/outbox.cif.g08.bks.cpg/sg2_65_cif.got.tgz:128373.got - 2010.06.03 11:33:40.
