data_PCOD9108661
_publ_section_title
;
Structure prediction by ZEFSAII (Michael W. Deem and Ramdas Pophale) SiO2 
 PCOD9108661
Probable space group: P -1
;
_chemical_formula_sum "Si O2"
_cell_formula_units_Z 12
_cell_length_a 9.435087
_cell_length_b 8.787658
_cell_length_c 11.150438
_cell_angle_alpha 139.544054
_cell_angle_beta 123.588438
_cell_angle_gamma 79.503289
_cell_volume 448.319782
_symmetry_space_group_name_H-M "P -1"
_symmetry_group_IT_number 2
_symmetry_cell_setting 'triclinic'
loop_
_space_group_symop_operation_xyz
x,y,z
-x,-y,-z
loop_
_atom_site_type_symbol
_atom_site_label
_atom_site_fract_x
_atom_site_fract_y
_atom_site_fract_z
Si Si1 0.875230 0.690070 0.002487
Si Si2 0.678657 0.435419 0.381861
Si Si3 0.508928 0.280337 0.696588
Si Si4 0.960507 0.398836 0.200848
Si Si5 0.850790 0.857134 0.447796
Si Si6 0.663630 0.970124 0.924942
O O1 0.726240 0.501968 0.918821
O O2 0.934357 0.536992 0.838734
O O3 0.771174 0.837282 0.971655
O O4 0.066353 0.921405 0.279689
O O5 0.595753 0.613612 0.385553
O O6 0.886754 0.595012 0.626581
O O7 0.662416 0.205777 0.145530
O O8 0.545254 0.263205 0.325899
O O9 0.373781 0.235172 0.722978
O O10 0.500000 0.000000 0.500000
O O11 0.889659 0.607515 0.335975
O O12 0.783118 0.114300 0.951478
O O13 0.000000 0.000000 0.500000
#
# Coordination Sequence:
#
# PCOD9108661 Si02
#       6
#     2   2   2   2   2   2
#     4  11  26  45  70 107 136 175 236 281 341 414
#     4  10  21  40  72 105 136 179 228 281 343 400
#     4  11  25  46  70  99 143 185 226 280 338 412
#     4  12  23  42  74 104 138 178 226 287 345 402
#     4  12  27  47  71  98 139 185 228 284 344 407
#     4  10  20  40  70 106 138 174 224 285 341 405
#
# _framework density 26.766608999999999
#
# number of rings (size 3 to 8) (size 9 to 14) (size 15 to 20)
#    0.000    1.000    3.333    3.000    0.000    7.333 
#    0.000    0.000    0.000    0.000    0.000    0.000 
#    0.000    0.000    0.000    0.000    0.000    0.000 
#
# Total GULP energy -67234.392351 kJ/mol
# GULP energy per Si atom -5602.866029 kJ/mol
# Density = 2.670569 g / cm^3
# Si number density = 26.766609 Si / 1000 Ang^3
#
#
#
# Elastic Constant Matrix: (Units=GPa)
#
#
# Indices 1 2 3 4 5 6 
#
# 1 163.2525 53.9515 68.0272 23.6173 14.9831 7.7823
# 2 53.9515 72.5278 23.6982 39.2053 2.9368 -11.4704
# 3 68.0272 23.6982 108.4807 23.5127 1.3307 -4.5656
# 4 23.6173 39.2053 23.5127 46.9358 11.0006 4.0435
# 5 14.9831 2.9368 1.3307 11.0006 52.0548 22.7619
# 6 7.7823 -11.4704 -4.5656 4.0435 22.7619 66.2466
#
#
#
# Elastic Compliance Matrix: (Units=1/GPa)
#
#
# Indices 1 2 3 4 5 6 
#
# 1 0.012021 -0.011338 -0.006861 0.007811 -0.002830 -0.003353
# 2 -0.011338 0.038223 0.005751 -0.030701 0.003506 0.009016
# 3 -0.006861 0.005751 0.014357 -0.009260 0.002086 0.002640
# 4 0.007811 -0.030701 -0.009260 0.050086 -0.007676 -0.007291
# 5 -0.002830 0.003506 0.002086 -0.007676 0.024380 -0.006825
# 6 -0.003353 0.009016 0.002640 -0.007291 -0.006825 0.020022
#
#
# Mechanical properties :
#
#
# Convention : Reuss Voigt Hill
#
# Bulk Modulus (GPa) = 25.18617 70.62388 47.90503
# Shear Modulus (GPa) = 25.35245 46.28637 35.81941
#
# Velocity S-wave (km/s) = 3.08095 4.16295 3.66213
# Velocity P-wave (km/s) = 4.69961 7.03912 5.98479
#
# Compressibility (1/GPa) = 0.03970433
#
# Stress axis : x y z
#
# Youngs Moduli (GPa) = 83.18845 26.16250 69.65384
#
# Poissons Ratio (x) = 0.29664 0.47787
# Poissons Ratio (y) = 0.94321 -0.40058
# Poissons Ratio (z) = 0.57073 -0.15046
#
# Static dielectric constant tensor:
#      x y z
#    x 2.188390 0.161520 0.001050 
#    y 0.161520 2.166850 0.000160 
#    z 0.001050 0.000160 1.985970 
# 
# From -- ./inp_files/162570.got.cif
#   From: 2010.05.17/outbox.cif.g08.bks.cpg/sg2_82_cif.got.tgz:162570.got - 2010.06.03 11:33:40.
