data_PCOD9108384
_publ_section_title
;
Structure prediction by ZEFSAII (Michael W. Deem and Ramdas Pophale) SiO2 
 PCOD9108384
Probable space group: P -1
;
_chemical_formula_sum "Si O2"
_cell_formula_units_Z 16
_cell_length_a 8.812052
_cell_length_b 13.175567
_cell_length_c 13.835366
_cell_angle_alpha 96.408455
_cell_angle_beta 108.565114
_cell_angle_gamma 31.645786
_cell_volume 756.778706
_symmetry_space_group_name_H-M "P -1"
_symmetry_group_IT_number 2
_symmetry_cell_setting 'triclinic'
loop_
_space_group_symop_operation_xyz
x,y,z
-x,-y,-z
loop_
_atom_site_type_symbol
_atom_site_label
_atom_site_fract_x
_atom_site_fract_y
_atom_site_fract_z
Si Si1 0.730013 0.941850 0.941603
Si Si2 0.846172 0.692882 0.461688
Si Si3 0.743826 0.322030 0.113071
Si Si4 0.514584 0.673650 0.768392
Si Si5 0.698003 0.452409 0.612529
Si Si6 0.126543 0.335443 0.947277
Si Si7 0.761580 0.859227 0.658204
Si Si8 0.321427 0.009308 0.737382
O O1 0.498551 0.138679 0.978750
O O2 0.498669 0.996240 0.837257
O O3 0.963680 0.876955 0.915655
O O4 0.908791 0.756640 0.021154
O O5 0.873968 0.751789 0.567373
O O6 0.000000 0.500000 0.500000
O O7 0.058561 0.611031 0.405239
O O8 0.466327 0.914516 0.380471
O O9 0.589095 0.327556 0.155747
O O10 0.940658 0.289346 0.223215
O O11 0.500000 0.500000 0.000000
O O12 0.454921 0.642652 0.656292
O O13 0.385584 0.858390 0.763419
O O14 0.901538 0.463996 0.822717
O O15 0.500000 0.500000 0.500000
O O16 0.945983 0.238349 0.690873
O O17 0.000000 0.500000 0.000000
O O18 0.501459 0.926605 0.662201
#
# Coordination Sequence:
#
# PCOD9108384 Si02
#       8
#     2   2   2   2   2   2   2   2
#     4  10  21  41  64  87 125 164 211 256 305 371
#     4  10  20  40  68  92 117 162 217 265 316 374
#     4  11  23  41  62  94 137 173 204 264 323 371
#     4  12  23  39  64  93 127 165 214 257 314 376
#     4  11  24  40  61  92 128 163 205 266 322 371
#     4  11  21  38  68  92 115 165 215 254 303 375
#     4   9  21  40  63  91 127 163 210 264 314 376
#     4  10  21  39  64  90 122 168 211 254 311 380
#
# _framework density 21.142243000000001
#
# number of rings (size 3 to 8) (size 9 to 14) (size 15 to 20)
#    0.000    1.500    3.750    1.500    0.000    1.500 
#    0.000    1.875    0.000    0.000    0.000    0.000 
#    0.000    0.000    0.000    0.000    0.000    0.000 
#
# Total GULP energy -89160.092869 kJ/mol
# GULP energy per Si atom -5572.505804 kJ/mol
# Density = 2.109412 g / cm^3
# Si number density = 21.142243 Si / 1000 Ang^3
#
#
#
# Elastic Constant Matrix: (Units=GPa)
#
#
# Indices 1 2 3 4 5 6 
#
# 1 67.2957 57.5671 16.8015 0.0966 -20.6611 -5.0115
# 2 57.5671 156.0253 40.9591 1.7266 -13.7456 8.6841
# 3 16.8015 40.9591 96.9323 -4.1116 -0.4909 6.9150
# 4 0.0966 1.7266 -4.1116 37.2153 -10.5682 -9.9439
# 5 -20.6611 -13.7456 -0.4909 -10.5682 33.2813 2.2406
# 6 -5.0115 8.6841 6.9150 -9.9439 2.2406 24.5094
#
#
#
# Elastic Compliance Matrix: (Units=1/GPa)
#
#
# Indices 1 2 3 4 5 6 
#
# 1 0.029266 -0.009779 -0.001354 0.007805 0.015810 0.011552
# 2 -0.009779 0.010887 -0.002606 -0.003024 -0.002159 -0.006152
# 3 -0.001354 -0.002606 0.011832 0.000374 -0.001461 -0.002407
# 4 0.007805 -0.003024 0.000374 0.035072 0.013692 0.015540
# 5 0.015810 -0.002159 -0.001461 0.013692 0.042890 0.006044
# 6 0.011552 -0.006152 -0.002407 0.015540 0.006044 0.051774
#
#
# Mechanical properties :
#
#
# Convention : Reuss Voigt Hill
#
# Bulk Modulus (GPa) = 40.80181 61.21208 51.00695
# Shear Modulus (GPa) = 23.00247 32.66291 27.83269
#
# Velocity S-wave (km/s) = 3.30204 3.93480 3.63223
# Velocity P-wave (km/s) = 5.82053 7.04691 6.46287
#
# Compressibility (1/GPa) = 0.02450871
#
# Stress axis : x y z
#
# Youngs Moduli (GPa) = 34.16886 91.85223 84.51469
#
# Poissons Ratio (x) = 0.89825 0.11439
# Poissons Ratio (y) = 0.33415 0.22022
# Poissons Ratio (z) = 0.04625 0.23934
#
# Static dielectric constant tensor:
#      x y z
#    x 1.755720 -0.044680 0.035860 
#    y -0.044680 1.799190 0.065870 
#    z 0.035860 0.065870 1.825110 
# 
# From -- ./inp_files/500471.got.cif
#   From: 2010.05.17/outbox.cif.g08.bks.cpg/sg2_251_cif.got.tgz:500471.got - 2010.06.03 11:33:40.
