data_PCOD9108304
_publ_section_title
;
Structure prediction by ZEFSAII (Michael W. Deem and Ramdas Pophale) SiO2 
 PCOD9108304
Probable space group: P -1
;
_chemical_formula_sum "Si O2"
_cell_formula_units_Z 13
_cell_length_a 8.809396
_cell_length_b 12.275255
_cell_length_c 9.488735
_cell_angle_alpha 93.319072
_cell_angle_beta 95.267973
_cell_angle_gamma 37.540185
_cell_volume 622.385428
_symmetry_space_group_name_H-M "P -1"
_symmetry_group_IT_number 2
_symmetry_cell_setting 'triclinic'
loop_
_space_group_symop_operation_xyz
x,y,z
-x,-y,-z
loop_
_atom_site_type_symbol
_atom_site_label
_atom_site_fract_x
_atom_site_fract_y
_atom_site_fract_z
Si Si1 0.886359 0.897597 0.227542
Si Si2 0.477959 0.737834 0.891123
Si Si3 0.532161 0.607746 0.466606
Si Si4 0.068193 0.565212 0.296079
Si Si5 0.000000 0.000000 0.500000
Si Si6 0.789237 0.304155 0.040096
Si Si7 0.261259 0.452222 0.811711
O O1 0.894824 0.768002 0.268881
O O2 0.986418 0.915257 0.364590
O O3 0.620523 0.094183 0.168235
O O4 0.061549 0.804278 0.096598
O O5 0.705796 0.561190 0.807337
O O6 0.244591 0.785020 0.875730
O O7 0.578004 0.687675 0.055564
O O8 0.500000 0.500000 0.500000
O O9 0.791038 0.501796 0.549479
O O10 0.303348 0.807024 0.521946
O O11 0.561999 0.605994 0.302387
O O12 0.919029 0.539191 0.258592
O O13 0.886601 0.356847 0.130741
O O14 0.500000 0.500000 0.000000
#
# Coordination Sequence:
#
# PCOD9108304 Si02
#       7
#     2   2   2   2   1   2   2
#     4  12  24  40  70 102 136 181 225 287 339 403
#     4  11  23  43  69 103 139 176 236 277 336 411
#     4  12  25  47  72  98 135 184 233 284 337 403
#     4  12  24  46  68 103 146 178 226 277 353 418
#     4  12  24  42  70 102 128 182 236 280 334 394
#     4  10  20  40  67  98 132 176 233 277 330 393
#     4  11  25  45  71 102 141 184 221 287 349 404
#
# _framework density 20.887377000000001
#
# number of rings (size 3 to 8) (size 9 to 14) (size 15 to 20)
#    0.000    0.615    6.154    4.154    0.000    0.615 
#    0.000    0.769    0.000    0.000    0.000    0.000 
#    0.000    0.000    0.000    0.000    0.000    0.000 
#
# Total GULP energy -72401.747008 kJ/mol
# GULP energy per Si atom -5569.365154 kJ/mol
# Density = 2.083984 g / cm^3
# Si number density = 20.887377 Si / 1000 Ang^3
#
#
#
# Elastic Constant Matrix: (Units=GPa)
#
#
# Indices 1 2 3 4 5 6 
#
# 1 92.5673 16.6733 36.4323 9.9210 25.6699 20.5287
# 2 16.6733 105.1246 30.8623 7.1085 8.0215 18.7912
# 3 36.4323 30.8623 102.9594 11.3478 7.9739 15.8363
# 4 9.9210 7.1085 11.3478 45.4828 -2.0567 6.0387
# 5 25.6699 8.0215 7.9739 -2.0567 32.5047 4.0318
# 6 20.5287 18.7912 15.8363 6.0387 4.0318 15.2669
#
#
#
# Elastic Compliance Matrix: (Units=1/GPa)
#
#
# Indices 1 2 3 4 5 6 
#
# 1 0.020854 0.003152 -0.003376 -0.001595 -0.013515 -0.024218
# 2 0.003152 0.012933 -0.002115 -0.000042 -0.003038 -0.017143
# 3 -0.003376 -0.002115 0.012469 -0.001284 0.000727 -0.005474
# 4 -0.001595 -0.000042 -0.001284 0.023757 0.003945 -0.006910
# 5 -0.013515 -0.003038 0.000727 0.003945 0.041177 0.008723
# 6 -0.024218 -0.017143 -0.005474 -0.006910 0.008723 0.125275
#
#
# Mechanical properties :
#
#
# Convention : Reuss Voigt Hill
#
# Bulk Modulus (GPa) = 24.05244 52.06524 38.05884
# Shear Modulus (GPa) = 19.60767 33.09645 26.35206
#
# Velocity S-wave (km/s) = 3.06720 3.98492 3.55579
# Velocity P-wave (km/s) = 4.90754 6.79364 5.92611
#
# Compressibility (1/GPa) = 0.04157583
#
# Stress axis : x y z
#
# Youngs Moduli (GPa) = 47.95260 77.32384 80.20202
#
# Poissons Ratio (x) = -0.24372 0.27079
# Poissons Ratio (y) = -0.15114 0.16964
# Poissons Ratio (z) = 0.16191 0.16355
#
# Static dielectric constant tensor:
#      x y z
#    x 1.781590 0.025530 0.014250 
#    y 0.025530 1.751830 -0.024770 
#    z 0.014250 -0.024770 1.781950 
# 
# From -- ./inp_files/188617.got.cif
#   From: 2010.05.17/outbox.cif.g08.bks.cpg/sg2_95_cif.got.tgz:188617.got - 2010.06.03 11:33:40.
