data_PCOD9108788
_publ_section_title
;
Structure prediction by ZEFSAII (Michael W. Deem and Ramdas Pophale) SiO2 
 PCOD9108788
Probable space group: P -1
;
_chemical_formula_sum "Si O2"
_cell_formula_units_Z 13
_cell_length_a 15.303243
_cell_length_b 18.419992
_cell_length_c 7.223640
_cell_angle_alpha 43.370375
_cell_angle_beta 126.573725
_cell_angle_gamma 157.431629
_cell_volume 514.216210
_symmetry_space_group_name_H-M "P -1"
_symmetry_group_IT_number 2
_symmetry_cell_setting 'triclinic'
loop_
_space_group_symop_operation_xyz
x,y,z
-x,-y,-z
loop_
_atom_site_type_symbol
_atom_site_label
_atom_site_fract_x
_atom_site_fract_y
_atom_site_fract_z
Si Si1 0.486132 0.542400 0.601880
Si Si2 0.456801 0.161757 0.366783
Si Si3 0.016709 0.330758 0.015983
Si Si4 0.008563 0.880200 0.345624
Si Si5 0.751552 0.238609 0.104699
Si Si6 0.596226 0.875437 0.187521
Si Si7 0.000000 0.000000 0.500000
O O1 0.500000 0.500000 0.500000
O O2 0.536036 0.710732 0.337238
O O3 0.717112 0.709097 0.701157
O O4 0.204532 0.285227 0.760020
O O5 0.453914 0.172330 0.566678
O O6 0.725093 0.407283 0.190348
O O7 0.267769 0.086264 0.201187
O O8 0.357277 0.959261 0.569785
O O9 0.036770 0.273632 0.327755
O O10 0.829325 0.262404 0.954870
O O11 0.878273 0.142475 0.036024
O O12 0.012162 0.960289 0.378579
O O13 0.562781 0.168287 0.006744
O O14 0.000000 0.500000 0.000000
#
# Coordination Sequence:
#
# PCOD9108788 Si02
#       7
#     2   2   2   2   2   2   1
#     4  10  19  34  66  86 108 154 197 241 295 341
#     4  10  20  36  58  86 120 154 190 235 290 350
#     4  10  20  36  58  86 120 154 190 235 290 350
#     4   9  19  36  60  85 116 151 193 240 285 343
#     4  10  21  36  57  83 120 153 196 240 281 348
#     4  10  19  37  57  85 114 153 196 238 291 344
#     4  10  16  36  64  82 106 156 196 230 300 338
#
# _framework density 25.281193999999999
#
# number of rings (size 3 to 8) (size 9 to 14) (size 15 to 20)
#    0.000    2.462    3.077    3.692    0.000    3.077 
#    0.000    5.385    0.000    3.692    0.000    0.000 
#    0.000    0.000    0.000    0.000    0.000    0.000 
#
# Total GULP energy -72378.420936 kJ/mol
# GULP energy per Si atom -5567.570841 kJ/mol
# Density = 2.522365 g / cm^3
# Si number density = 25.281194 Si / 1000 Ang^3
#
#
#
# Elastic Constant Matrix: (Units=GPa)
#
#
# Indices 1 2 3 4 5 6 
#
# 1 100.7980 34.0857 55.9241 -15.0841 22.7855 2.1684
# 2 34.0857 155.9484 40.7677 -32.4372 3.0414 2.7314
# 3 55.9241 40.7677 87.3686 -19.1664 3.5737 8.1786
# 4 -15.0841 -32.4372 -19.1664 36.1690 9.3688 4.4246
# 5 22.7855 3.0414 3.5737 9.3688 27.1364 -13.4225
# 6 2.1684 2.7314 8.1786 4.4246 -13.4225 54.4669
#
#
#
# Elastic Compliance Matrix: (Units=1/GPa)
#
#
# Indices 1 2 3 4 5 6 
#
# 1 0.023759 0.000959 -0.011216 0.012452 -0.026236 -0.006787
# 2 0.000959 0.008788 -0.002358 0.008752 -0.005597 -0.002215
# 3 -0.011216 -0.002358 0.020218 0.002682 0.005424 -0.001352
# 4 0.012452 0.008752 0.002682 0.053729 -0.037763 -0.015008
# 5 -0.026236 -0.005597 0.005424 -0.037763 0.083818 0.024234
# 6 -0.006787 -0.002215 -0.001352 -0.015008 0.024234 0.026135
#
#
# Mechanical properties :
#
#
# Convention : Reuss Voigt Hill
#
# Bulk Modulus (GPa) = 36.31591 67.29666 51.80629
# Shear Modulus (GPa) = 19.93185 37.77695 28.85440
#
# Velocity S-wave (km/s) = 2.81090 3.86977 3.38204
# Velocity P-wave (km/s) = 4.99308 6.82963 5.98226
#
# Compressibility (1/GPa) = 0.02753614
#
# Stress axis : x y z
#
# Youngs Moduli (GPa) = 42.08923 113.79693 49.46019
#
# Poissons Ratio (x) = -0.10919 0.55473
# Poissons Ratio (y) = -0.04038 0.11664
# Poissons Ratio (z) = 0.47206 0.26836
#
# Static dielectric constant tensor:
#      x y z
#    x 2.223430 0.009670 0.012520 
#    y 0.009670 2.091030 0.013160 
#    z 0.012520 0.013160 2.079480 
# 
# From -- ./inp_files/337480.got.cif
#   From: 2010.05.17/outbox.cif.g08.bks.cpg/sg2_169_cif.got.tgz:337480.got - 2010.06.03 11:33:40.
