data_PCOD9108180
_publ_section_title
;
Structure prediction by ZEFSAII (Michael W. Deem and Ramdas Pophale) SiO2 
 PCOD9108180
Probable space group: P -1
;
_chemical_formula_sum "Si O2"
_cell_formula_units_Z 16
_cell_length_a 17.296679
_cell_length_b 11.551795
_cell_length_c 9.005729
_cell_angle_alpha 52.191742
_cell_angle_beta 128.392378
_cell_angle_gamma 149.735002
_cell_volume 697.309897
_symmetry_space_group_name_H-M "P -1"
_symmetry_group_IT_number 2
_symmetry_cell_setting 'triclinic'
loop_
_space_group_symop_operation_xyz
x,y,z
-x,-y,-z
loop_
_atom_site_type_symbol
_atom_site_label
_atom_site_fract_x
_atom_site_fract_y
_atom_site_fract_z
Si Si1 0.684716 0.210241 0.078623
Si Si2 0.678803 0.864373 0.392680
Si Si3 0.131753 0.478616 0.230722
Si Si4 0.016479 0.136650 0.598021
Si Si5 0.720044 0.752132 0.091000
Si Si6 0.060978 0.414849 0.699007
Si Si7 0.458919 0.431957 0.258516
Si Si8 0.849163 0.191258 0.905577
O O1 0.763606 0.369656 0.193959
O O2 0.727484 0.086484 0.237823
O O3 0.757336 0.379096 0.891372
O O4 0.500000 0.000000 0.000000
O O5 0.540466 0.647506 0.290877
O O6 0.614398 0.772200 0.556555
O O7 0.830586 0.933462 0.504621
O O8 0.112794 0.312616 0.435179
O O9 0.182133 0.672200 0.244652
O O10 0.958550 0.303455 0.092652
O O11 0.102572 0.087280 0.783145
O O12 0.043181 0.275677 0.659685
O O13 0.595827 0.538485 0.225062
O O14 0.674090 0.662906 0.937711
O O15 0.707669 0.913765 0.967883
O O16 0.000000 0.500000 0.500000
O O17 0.947805 0.255639 0.829723
#
# Coordination Sequence:
#
# PCOD9108180 Si02
#       8
#     2   2   2   2   2   2   2   2
#     4  11  25  41  65  94 130 172 211 265 330 391
#     4  11  23  44  67  91 129 176 215 261 327 387
#     4  10  21  40  66  96 126 165 217 266 316 387
#     4  12  24  41  70 100 127 168 226 268 315 383
#     4  11  25  42  65  99 130 171 216 272 318 380
#     4  11  21  41  65  97 125 164 213 272 320 375
#     4  10  25  44  63  90 138 173 207 264 332 388
#     4  10  20  40  67  90 130 168 210 267 322 375
#
# _framework density 22.945319999999999
#
# number of rings (size 3 to 8) (size 9 to 14) (size 15 to 20)
#    0.000    1.250    2.500    3.750    3.500    4.000 
#    4.500    0.625    0.000    0.000    0.000    0.000 
#    0.000    0.000    0.000    0.000    0.000    0.000 
#
# Total GULP energy -89426.898245 kJ/mol
# GULP energy per Si atom -5589.181140 kJ/mol
# Density = 2.289310 g / cm^3
# Si number density = 22.945320 Si / 1000 Ang^3
#
#
#
# Elastic Constant Matrix: (Units=GPa)
#
#
# Indices 1 2 3 4 5 6 
#
# 1 40.1066 16.6636 28.4260 1.8999 -16.9003 -4.8658
# 2 16.6636 94.4414 30.4629 9.0165 -9.3640 4.5913
# 3 28.4260 30.4629 112.3865 -4.5051 -23.8351 7.2250
# 4 1.8999 9.0165 -4.5051 32.7238 7.4716 -2.8034
# 5 -16.9003 -9.3640 -23.8351 7.4716 37.0694 -0.9037
# 6 -4.8658 4.5913 7.2250 -2.8034 -0.9037 36.7557
#
#
#
# Elastic Compliance Matrix: (Units=1/GPa)
#
#
# Indices 1 2 3 4 5 6 
#
# 1 0.037351 -0.003084 -0.006415 -0.004659 0.013224 0.006561
# 2 -0.003084 0.012479 -0.002452 -0.003959 0.000925 -0.001764
# 3 -0.006415 -0.002452 0.012263 0.001600 0.003952 -0.002734
# 4 -0.004659 -0.003959 0.001600 0.034357 -0.008973 0.001963
# 5 0.013224 0.000925 0.003952 -0.008973 0.037615 0.001099
# 6 0.006561 -0.001764 -0.002734 0.001963 0.001099 0.029010
#
#
# Mechanical properties :
#
#
# Convention : Reuss Voigt Hill
#
# Bulk Modulus (GPa) = 26.18408 44.22658 35.20533
# Shear Modulus (GPa) = 25.03668 32.73524 28.88596
#
# Velocity S-wave (km/s) = 3.30683 3.78122 3.55195
# Velocity P-wave (km/s) = 5.10063 6.19517 5.67435
#
# Compressibility (1/GPa) = 0.03819114
#
# Stress axis : x y z
#
# Youngs Moduli (GPa) = 26.77324 80.13481 81.54608
#
# Poissons Ratio (x) = 0.24713 0.52314
# Poissons Ratio (y) = 0.08257 0.19992
# Poissons Ratio (z) = 0.17176 0.19646
#
# Static dielectric constant tensor:
#      x y z
#    x 1.890640 -0.000050 0.008010 
#    y -0.000050 1.866150 -0.017100 
#    z 0.008010 -0.017100 1.873560 
# 
# From -- ./inp_files/332966.got.cif
#   From: 2010.05.17/outbox.cif.g08.bks.cpg/sg2_167_cif.got.tgz:332966.got - 2010.06.03 11:33:40.
