data_PCOD9108985
_publ_section_title
;
Structure prediction by ZEFSAII (Michael W. Deem and Ramdas Pophale) SiO2 
 PCOD9108985
Probable space group: P -1
;
_chemical_formula_sum "Si O2"
_cell_formula_units_Z 16
_cell_length_a 10.137292
_cell_length_b 8.625433
_cell_length_c 21.478187
_cell_angle_alpha 48.994487
_cell_angle_beta 142.917435
_cell_angle_gamma 103.191161
_cell_volume 650.245004
_symmetry_space_group_name_H-M "P -1"
_symmetry_group_IT_number 2
_symmetry_cell_setting 'triclinic'
loop_
_space_group_symop_operation_xyz
x,y,z
-x,-y,-z
loop_
_atom_site_type_symbol
_atom_site_label
_atom_site_fract_x
_atom_site_fract_y
_atom_site_fract_z
Si Si1 0.133793 0.752891 0.010004
Si Si2 0.213406 0.619293 0.824224
Si Si3 0.743000 0.869988 0.676120
Si Si4 0.598136 0.809198 0.770628
Si Si5 0.615577 0.641681 0.292970
Si Si6 0.040129 0.844914 0.265770
Si Si7 0.988216 0.596964 0.618839
Si Si8 0.139303 0.106016 0.686648
O O1 0.323280 0.476405 0.111890
O O2 0.317783 0.711709 0.149482
O O3 0.829414 0.821933 0.886111
O O4 0.078101 0.991442 0.885659
O O5 0.022399 0.643434 0.801578
O O6 0.167712 0.528454 0.767263
O O7 0.105778 0.915046 0.688843
O O8 0.500000 0.500000 0.000000
O O9 0.681690 0.771999 0.738559
O O10 0.500000 0.000000 0.500000
O O11 0.761566 0.092814 0.649558
O O12 0.272291 0.086777 0.576493
O O13 0.622350 0.878658 0.250080
O O14 0.795723 0.526812 0.325779
O O15 0.827545 0.402874 0.484091
O O16 0.804829 0.973378 0.198734
O O17 0.149186 0.545819 0.383245
#
# Coordination Sequence:
#
# PCOD9108985 Si02
#       8
#     2   2   2   2   2   2   2   2
#     4  10  22  38  64  91 122 166 209 257 307 377
#     4  11  24  37  61  95 127 156 210 263 308 366
#     4  10  20  41  61  88 123 175 199 248 311 385
#     4  10  22  41  61  91 126 166 210 253 316 378
#     4  10  22  39  67  89 125 166 209 261 313 372
#     4   9  22  39  67  92 123 166 212 259 308 376
#     4  11  23  40  64  96 125 163 214 266 311 368
#     4   9  21  42  59  91 127 168 203 249 328 383
#
# _framework density 24.606110999999999
#
# number of rings (size 3 to 8) (size 9 to 14) (size 15 to 20)
#    0.000    2.000    1.250    0.750    8.750    5.000 
#    2.250    0.000    0.000    7.500    0.000    0.000 
#    0.000    0.000    0.000    0.000    0.000    0.000 
#
# Total GULP energy -89363.522402 kJ/mol
# GULP energy per Si atom -5585.220150 kJ/mol
# Density = 2.455011 g / cm^3
# Si number density = 24.606111 Si / 1000 Ang^3
#
#
#
# Elastic Constant Matrix: (Units=GPa)
#
#
# Indices 1 2 3 4 5 6 
#
# 1 73.1027 -1.6636 13.8455 1.1944 -4.3890 -14.1569
# 2 -1.6636 44.2242 -2.2989 9.8763 -18.3146 5.0578
# 3 13.8455 -2.2989 90.0098 30.7809 5.0630 -4.4677
# 4 1.1944 9.8763 30.7809 51.0818 -1.2735 -9.0441
# 5 -4.3890 -18.3146 5.0630 -1.2735 20.6731 -2.9673
# 6 -14.1569 5.0578 -4.4677 -9.0441 -2.9673 31.2860
#
#
#
# Elastic Compliance Matrix: (Units=1/GPa)
#
#
# Indices 1 2 3 4 5 6 
#
# 1 0.016357 0.001874 -0.003500 0.002992 0.007346 0.008161
# 2 0.001874 0.039003 0.001494 -0.008452 0.033416 -0.004518
# 3 -0.003500 0.001494 0.015190 -0.009985 -0.004176 -0.002938
# 4 0.002992 -0.008452 -0.009985 0.028808 -0.001269 0.009502
# 5 0.007346 0.033416 -0.004176 -0.001269 0.081148 0.004655
# 6 0.008161 -0.004518 -0.002938 0.009502 0.004655 0.039155
#
#
# Mechanical properties :
#
#
# Convention : Reuss Voigt Hill
#
# Bulk Modulus (GPa) = 14.22715 25.23363 19.73039
# Shear Modulus (GPa) = 20.54625 33.77176 27.15900
#
# Velocity S-wave (km/s) = 2.89278 3.70874 3.32588
# Velocity P-wave (km/s) = 4.11729 5.34948 4.77331
#
# Compressibility (1/GPa) = 0.07028816
#
# Stress axis : x y z
#
# Youngs Moduli (GPa) = 61.13462 25.63888 65.83326
#
# Poissons Ratio (x) = -0.04805 0.23039
# Poissons Ratio (y) = -0.11456 -0.09838
# Poissons Ratio (z) = 0.21394 -0.03832
#
# Static dielectric constant tensor:
#      x y z
#    x 1.985240 0.005810 0.018810 
#    y 0.005810 2.025270 -0.097840 
#    z 0.018810 -0.097840 1.983730 
# 
# From -- ./inp_files/609800.got.cif
#   From: 2010.05.17/outbox.cif.g08.bks.cpg/sg2_305_cif.got.tgz:609800.got - 2010.06.03 11:33:40.
