data_PCOD9108358
_publ_section_title
;
Structure prediction by ZEFSAII (Michael W. Deem and Ramdas Pophale) SiO2 
 PCOD9108358
Probable space group: P -1
;
_chemical_formula_sum "Si O2"
_cell_formula_units_Z 12
_cell_length_a 13.225907
_cell_length_b 13.600690
_cell_length_c 5.054138
_cell_angle_alpha 71.697357
_cell_angle_beta 107.415433
_cell_angle_gamma 143.920488
_cell_volume 506.631679
_symmetry_space_group_name_H-M "P -1"
_symmetry_group_IT_number 2
_symmetry_cell_setting 'triclinic'
loop_
_space_group_symop_operation_xyz
x,y,z
-x,-y,-z
loop_
_atom_site_type_symbol
_atom_site_label
_atom_site_fract_x
_atom_site_fract_y
_atom_site_fract_z
Si Si1 0.763109 0.227842 0.991311
Si Si2 0.570542 0.825453 0.535080
Si Si3 0.345792 0.650378 0.990723
Si Si4 0.047595 0.329064 0.387082
Si Si5 0.050913 0.971675 0.313342
Si Si6 0.000000 0.500000 0.500000
Si Si7 0.500000 0.000000 0.500000
O O1 0.716571 0.273735 0.160450
O O2 0.893343 0.393193 0.774811
O O3 0.608949 0.089846 0.790440
O O4 0.867440 0.211386 0.191654
O O5 0.495943 0.768205 0.228510
O O6 0.590962 0.958800 0.534805
O O7 0.746203 0.898881 0.637213
O O8 0.422260 0.672219 0.754964
O O9 0.197569 0.472393 0.173345
O O10 0.036821 0.403106 0.555040
O O11 0.049138 0.214512 0.590186
O O12 0.000000 0.000000 0.500000
O O13 0.000000 0.000000 0.000000
#
# Coordination Sequence:
#
# PCOD9108358 Si02
#       7
#     2   2   2   2   2   1   1
#     4  10  23  37  66 109 154 194 238 296 396 460
#     4  11  25  46  70 108 151 190 250 310 379 446
#     4  10  24  41  71 111 146 184 239 315 389 442
#     4  11  26  43  77 107 155 199 257 309 379 460
#     4  12  30  53  76 106 149 213 263 305 363 456
#     4  10  20  40  68 108 142 194 234 318 368 456
#     4  10  24  38  70 106 156 190 232 312 390 442
#
# _framework density 23.685846999999999
#
# number of rings (size 3 to 8) (size 9 to 14) (size 15 to 20)
#    0.000    1.333    0.000    4.000   23.333    1.333 
#    0.000    5.000    0.000    0.000    0.000    0.000 
#    0.000    0.000    0.000    0.000    0.000    0.000 
#
# Total GULP energy -66812.409524 kJ/mol
# GULP energy per Si atom -5567.700794 kJ/mol
# Density = 2.363194 g / cm^3
# Si number density = 23.685847 Si / 1000 Ang^3
#
#
#
# Elastic Constant Matrix: (Units=GPa)
#
#
# Indices 1 2 3 4 5 6 
#
# 1 170.4062 47.7636 64.2014 -4.0508 14.1162 3.7566
# 2 47.7636 78.5286 30.1788 -14.8626 11.0204 -2.9871
# 3 64.2014 30.1788 140.6373 1.7306 19.0030 -2.5128
# 4 -4.0508 -14.8626 1.7306 28.7480 -6.9978 3.3866
# 5 14.1162 11.0204 19.0030 -6.9978 54.8542 -3.9271
# 6 3.7566 -2.9871 -2.5128 3.3866 -3.9271 49.0658
#
#
#
# Elastic Compliance Matrix: (Units=1/GPa)
#
#
# Indices 1 2 3 4 5 6 
#
# 1 0.008066 -0.003948 -0.002778 -0.000739 -0.000485 -0.000988
# 2 -0.003948 0.017611 -0.001972 0.008417 -0.000720 0.000635
# 3 -0.002778 -0.001972 0.009162 -0.002601 -0.002355 0.000553
# 4 -0.000739 0.008417 -0.002601 0.040502 0.004423 -0.002006
# 5 -0.000485 -0.000720 -0.002355 0.004423 0.019963 0.001165
# 6 -0.000988 0.000635 0.000553 -0.002006 0.001165 0.020755
#
#
# Mechanical properties :
#
#
# Convention : Reuss Voigt Hill
#
# Bulk Modulus (GPa) = 57.32657 74.87329 66.09993
# Shear Modulus (GPa) = 35.90155 43.02882 39.46519
#
# Velocity S-wave (km/s) = 3.89747 4.26684 4.08633
# Velocity P-wave (km/s) = 6.67152 7.48025 7.08743
#
# Compressibility (1/GPa) = 0.01744392
#
# Stress axis : x y z
#
# Youngs Moduli (GPa) = 123.97942 56.78120 109.14740
#
# Poissons Ratio (x) = 0.22415 0.30321
# Poissons Ratio (y) = 0.48943 0.21524
# Poissons Ratio (z) = 0.34441 0.11197
#
# Static dielectric constant tensor:
#      x y z
#    x 1.795180 -0.055290 0.001370 
#    y -0.055290 1.820320 0.077760 
#    z 0.001370 0.077760 1.953710 
# 
# From -- ./inp_files/19141.got.cif
#   From: 2010.05.17/outbox.cif.g08.bks.cpg/sg2_10_cif.got.tgz:19141.got - 2010.06.03 11:33:40.
