data_PCOD9108249
_publ_section_title
;
Structure prediction by ZEFSAII (Michael W. Deem and Ramdas Pophale) SiO2 
 PCOD9108249
Probable space group: P -1
;
_chemical_formula_sum "Si O2"
_cell_formula_units_Z 16
_cell_length_a 20.228677
_cell_length_b 8.151914
_cell_length_c 8.195161
_cell_angle_alpha 95.111873
_cell_angle_beta 125.621679
_cell_angle_gamma 126.524807
_cell_volume 657.668774
_symmetry_space_group_name_H-M "P -1"
_symmetry_group_IT_number 2
_symmetry_cell_setting 'triclinic'
loop_
_space_group_symop_operation_xyz
x,y,z
-x,-y,-z
loop_
_atom_site_type_symbol
_atom_site_label
_atom_site_fract_x
_atom_site_fract_y
_atom_site_fract_z
Si Si1 0.909763 0.129058 0.239053
Si Si2 0.843667 0.583275 0.799884
Si Si3 0.521388 0.847298 0.456511
Si Si4 0.215989 0.625738 0.669962
Si Si5 0.419079 0.302428 0.712334
Si Si6 0.857231 0.995426 0.786493
Si Si7 0.356567 0.133367 0.073117
Si Si8 0.769619 0.579306 0.023650
O O1 0.895247 0.907942 0.223410
O O2 0.873177 0.102235 0.995902
O O3 0.786503 0.003688 0.153143
O O4 0.065915 0.433808 0.505706
O O5 0.798360 0.436140 0.547629
O O6 0.832079 0.760613 0.761393
O O7 0.779789 0.466856 0.877740
O O8 0.996372 0.767052 0.063479
O O9 0.566845 0.863177 0.342782
O O10 0.622691 0.922416 0.730465
O O11 0.500000 0.000000 0.500000
O O12 0.365386 0.535349 0.217577
O O13 0.247541 0.527035 0.831775
O O14 0.332172 0.948052 0.891784
O O15 0.265660 0.114354 0.487458
O O16 0.504323 0.543655 0.721909
O O17 0.500000 0.500000 0.000000
#
# Coordination Sequence:
#
# PCOD9108249 Si02
#       8
#     2   2   2   2   2   2   2   2
#     4  10  20  40  67  94 131 178 229 274 341 407
#     4   9  21  39  66  97 135 171 224 285 338 403
#     4  12  25  46  69  97 138 182 230 284 346 412
#     4  11  24  39  66 102 134 178 227 282 337 410
#     4  12  27  43  71 102 137 182 231 284 344 420
#     4   9  19  40  65  95 131 174 222 283 343 397
#     4  12  23  43  66  94 137 178 223 282 346 407
#     4  11  22  42  68  98 132 185 227 277 344 413
#
# _framework density 24.328354999999998
#
# number of rings (size 3 to 8) (size 9 to 14) (size 15 to 20)
#    0.000    1.250    3.750    3.375    1.750    2.000 
#    0.000    1.875    0.000    4.500    0.000    0.000 
#    0.000    0.000    0.000    0.000    0.000    0.000 
#
# Total GULP energy -89282.139132 kJ/mol
# GULP energy per Si atom -5580.133696 kJ/mol
# Density = 2.427298 g / cm^3
# Si number density = 24.328355 Si / 1000 Ang^3
#
#
#
# Elastic Constant Matrix: (Units=GPa)
#
#
# Indices 1 2 3 4 5 6 
#
# 1 124.4812 22.5786 49.5210 -7.0446 8.4943 2.7629
# 2 22.5786 58.5285 11.6652 7.2305 -4.9795 8.3800
# 3 49.5210 11.6652 122.0741 -6.7239 2.1402 -3.6919
# 4 -7.0446 7.2305 -6.7239 27.3310 -3.5033 -3.6373
# 5 8.4943 -4.9795 2.1402 -3.5033 35.5415 8.6070
# 6 2.7629 8.3800 -3.6919 -3.6373 8.6070 28.1957
#
#
#
# Elastic Compliance Matrix: (Units=1/GPa)
#
#
# Indices 1 2 3 4 5 6 
#
# 1 0.010547 -0.004029 -0.003672 0.002637 -0.002818 0.000884
# 2 -0.004029 0.021526 -0.001197 -0.007500 0.005440 -0.008788
# 3 -0.003672 -0.001197 0.009988 0.002110 -0.000259 0.002375
# 4 0.002637 -0.007500 0.002110 0.040809 0.000427 0.007381
# 5 -0.002818 0.005440 -0.000259 0.000427 0.032340 -0.011191
# 6 0.000884 -0.008788 0.002375 0.007381 -0.011191 0.042671
#
#
# Mechanical properties :
#
#
# Convention : Reuss Voigt Hill
#
# Bulk Modulus (GPa) = 41.21070 52.51260 46.86165
# Shear Modulus (GPa) = 27.20877 32.96824 30.08850
#
# Velocity S-wave (km/s) = 3.34787 3.68521 3.52058
# Velocity P-wave (km/s) = 5.64982 6.30393 5.98582
#
# Compressibility (1/GPa) = 0.02426554
#
# Stress axis : x y z
#
# Youngs Moduli (GPa) = 94.81497 46.45553 100.11677
#
# Poissons Ratio (x) = 0.18716 0.36764
# Poissons Ratio (y) = 0.38200 0.11983
# Poissons Ratio (z) = 0.34817 0.05560
#
# Static dielectric constant tensor:
#      x y z
#    x 2.000170 0.029160 -0.030920 
#    y 0.029160 2.033260 0.043490 
#    z -0.030920 0.043490 1.925650 
# 
# From -- ./inp_files/343693.got.cif
#   From: 2010.05.17/outbox.cif.g08.bks.cpg/sg2_172_cif.got.tgz:343693.got - 2010.06.03 11:33:40.
