data_PCOD9108952
_publ_section_title
;
Structure prediction by ZEFSAII (Michael W. Deem and Ramdas Pophale) SiO2 
 PCOD9108952
Probable space group: P -1
;
_chemical_formula_sum "Si O2"
_cell_formula_units_Z 15
_cell_length_a 9.191575
_cell_length_b 7.460004
_cell_length_c 10.475169
_cell_angle_alpha 103.973499
_cell_angle_beta 65.204987
_cell_angle_gamma 115.800468
_cell_volume 585.529889
_symmetry_space_group_name_H-M "P -1"
_symmetry_group_IT_number 2
_symmetry_cell_setting 'triclinic'
loop_
_space_group_symop_operation_xyz
x,y,z
-x,-y,-z
loop_
_atom_site_type_symbol
_atom_site_label
_atom_site_fract_x
_atom_site_fract_y
_atom_site_fract_z
Si Si1 0.851357 0.463636 0.150486
Si Si2 0.036557 0.842446 0.634996
Si Si3 0.575526 0.638939 0.179271
Si Si4 0.500000 0.500000 0.500000
Si Si5 0.508463 0.864189 0.751398
Si Si6 0.697341 0.759894 0.893056
Si Si7 0.884648 0.710337 0.391289
Si Si8 0.621027 0.185307 0.565730
O O1 0.726039 0.568037 0.155452
O O2 0.703642 0.236487 0.180478
O O3 0.969127 0.596469 0.247648
O O4 0.000000 0.500000 0.000000
O O5 0.193045 0.764011 0.556536
O O6 0.894781 0.797448 0.790379
O O7 0.942096 0.754356 0.521938
O O8 0.108755 0.082207 0.635219
O O9 0.412640 0.470196 0.143606
O O10 0.489986 0.675583 0.350990
O O11 0.662894 0.792473 0.058928
O O12 0.551622 0.713673 0.613231
O O13 0.698615 0.539787 0.422136
O O14 0.607786 0.866445 0.847898
O O15 0.601273 0.086520 0.696668
O O16 0.500000 0.000000 0.500000
#
# Coordination Sequence:
#
# PCOD9108952 Si02
#       8
#     2   2   2   1   2   2   2   2
#     4  10  23  42  68  92 126 179 230 268 329 413
#     4  11  21  38  65  99 131 166 223 275 330 395
#     4  10  25  43  64  93 138 176 221 279 337 399
#     4  10  16  36  66  92 128 166 224 256 320 390
#     4  10  21  38  68  92 128 180 216 265 336 394
#     4  10  22  43  66  92 132 184 220 272 333 395
#     4  10  20  35  66 100 124 164 222 280 316 392
#     4  12  26  41  63 102 137 173 220 282 342 394
#
# _framework density 25.617822
#
# number of rings (size 3 to 8) (size 9 to 14) (size 15 to 20)
#    0.000    1.600    2.667    1.600    3.733    6.400 
#    0.000    2.000    0.000    0.000    0.000    0.000 
#    0.000    0.000    0.000    0.000    0.000    0.000 
#
# Total GULP energy -83547.677428 kJ/mol
# GULP energy per Si atom -5569.845162 kJ/mol
# Density = 2.555951 g / cm^3
# Si number density = 25.617822 Si / 1000 Ang^3
#
#
#
# Elastic Constant Matrix: (Units=GPa)
#
#
# Indices 1 2 3 4 5 6 
#
# 1 86.6898 33.2567 23.2049 -17.2342 -25.2930 6.8750
# 2 33.2567 53.2611 10.0958 -3.9384 -7.3685 4.6733
# 3 23.2049 10.0958 138.2798 -19.9421 -13.8097 5.2733
# 4 -17.2342 -3.9384 -19.9421 39.0190 2.6774 2.5881
# 5 -25.2930 -7.3685 -13.8097 2.6774 43.6410 -3.2891
# 6 6.8750 4.6733 5.2733 2.5881 -3.2891 29.1948
#
#
#
# Elastic Compliance Matrix: (Units=1/GPa)
#
#
# Indices 1 2 3 4 5 6 
#
# 1 0.019847 -0.010305 -0.000580 0.006982 0.008960 -0.002529
# 2 -0.010305 0.025027 -0.000528 -0.002064 -0.001901 -0.001515
# 3 -0.000580 -0.000528 0.008153 0.003825 0.001816 -0.001386
# 4 0.006982 -0.002064 0.003825 0.030566 0.002701 -0.004410
# 5 0.008960 -0.001901 0.001816 0.002701 0.028256 0.000810
# 6 -0.002529 -0.001515 -0.001386 -0.004410 0.000810 0.035823
#
#
# Mechanical properties :
#
#
# Convention : Reuss Voigt Hill
#
# Bulk Modulus (GPa) = 33.10979 45.70506 39.40743
# Shear Modulus (GPa) = 27.69075 36.48251 32.08663
#
# Velocity S-wave (km/s) = 3.29130 3.77783 3.54292
# Velocity P-wave (km/s) = 5.23413 6.07529 5.67033
#
# Compressibility (1/GPa) = 0.03020255
#
# Stress axis : x y z
#
# Youngs Moduli (GPa) = 50.38595 39.95657 122.64855
#
# Poissons Ratio (x) = 0.41174 0.07112
# Poissons Ratio (y) = 0.51922 0.06473
# Poissons Ratio (z) = 0.02922 0.02109
#
# Static dielectric constant tensor:
#      x y z
#    x 1.996880 -0.055970 -0.003940 
#    y -0.055970 2.062020 -0.036190 
#    z -0.003940 -0.036190 2.177100 
# 
# From -- ./inp_files/382865.got.cif
#   From: 2010.05.17/outbox.cif.g08.bks.cpg/sg2_192_cif.got.tgz:382865.got - 2010.06.03 11:33:40.
