data_PCOD9108996
_publ_section_title
;
Structure prediction by ZEFSAII (Michael W. Deem and Ramdas Pophale) SiO2 
 PCOD9108996
Probable space group: P -1
;
_chemical_formula_sum "Si O2"
_cell_formula_units_Z 16
_cell_length_a 9.134165
_cell_length_b 17.234204
_cell_length_c 8.465143
_cell_angle_alpha 70.151331
_cell_angle_beta 68.011690
_cell_angle_gamma 127.786947
_cell_volume 615.448082
_symmetry_space_group_name_H-M "P -1"
_symmetry_group_IT_number 2
_symmetry_cell_setting 'triclinic'
loop_
_space_group_symop_operation_xyz
x,y,z
-x,-y,-z
loop_
_atom_site_type_symbol
_atom_site_label
_atom_site_fract_x
_atom_site_fract_y
_atom_site_fract_z
Si Si1 0.672657 0.971452 0.436264
Si Si2 0.266825 0.557409 0.416438
Si Si3 0.009104 0.483897 0.189331
Si Si4 0.851607 0.926599 0.936899
Si Si5 0.091716 0.298574 0.615775
Si Si6 0.414700 0.851869 0.277346
Si Si7 0.943331 0.254438 0.067967
Si Si8 0.438778 0.552612 0.881901
O O1 0.868006 0.137905 0.278721
O O2 0.570652 0.945528 0.313075
O O3 0.372620 0.837134 0.750910
O O4 0.877313 0.981341 0.346588
O O5 0.592070 0.741756 0.157263
O O6 0.257635 0.461216 0.423221
O O7 0.000000 0.500000 0.500000
O O8 0.125169 0.494094 0.691703
O O9 0.787071 0.314081 0.460826
O O10 0.335971 0.586788 0.001219
O O11 0.000000 0.500000 0.000000
O O12 0.659248 0.924402 0.006660
O O13 0.000000 0.000000 0.000000
O O14 0.287491 0.315670 0.440694
O O15 0.795568 0.180792 0.712865
O O16 0.050951 0.274055 0.837184
O O17 0.166700 0.402178 0.986968
O O18 0.500000 0.500000 0.000000
#
# Coordination Sequence:
#
# PCOD9108996 Si02
#       8
#     2   2   2   2   2   2   2   2
#     4  10  21  41  61  86 125 173 222 259 329 404
#     4  11  20  38  63  96 127 166 211 275 328 377
#     4  11  22  37  61  93 130 167 210 263 332 386
#     4   9  19  36  64  85 121 171 214 250 319 396
#     4  12  23  39  65  96 132 162 224 281 330 381
#     4  10  20  41  61  89 126 173 208 271 326 387
#     4  11  24  38  63  92 125 170 216 279 323 388
#     4  12  22  42  65  95 131 170 214 273 335 390
#
# _framework density 25.997318
#
# number of rings (size 3 to 8) (size 9 to 14) (size 15 to 20)
#    0.000    1.250    5.000    1.875    0.000    2.500 
#    0.000    0.625    0.000    0.000    0.000    0.000 
#    0.000    0.000    0.000    0.000    0.000    0.000 
#
# Total GULP energy -89395.182351 kJ/mol
# GULP energy per Si atom -5587.198897 kJ/mol
# Density = 2.593815 g / cm^3
# Si number density = 25.997318 Si / 1000 Ang^3
#
#
#
# Elastic Constant Matrix: (Units=GPa)
#
#
# Indices 1 2 3 4 5 6 
#
# 1 80.8839 2.4725 23.4321 -5.5400 -28.5753 -1.2297
# 2 2.4725 61.4520 11.5977 -19.2130 5.8530 4.2086
# 3 23.4321 11.5977 100.3834 2.1251 -32.6786 -4.0193
# 4 -5.5400 -19.2130 2.1251 44.2049 -7.9754 -8.4722
# 5 -28.5753 5.8530 -32.6786 -7.9754 58.3851 16.1049
# 6 -1.2297 4.2086 -4.0193 -8.4722 16.1049 37.4889
#
#
#
# Elastic Compliance Matrix: (Units=1/GPa)
#
#
# Indices 1 2 3 4 5 6 
#
# 1 0.015749 -0.000083 -0.001180 0.002999 0.008132 -0.002417
# 2 -0.000083 0.019752 -0.003368 0.008315 -0.002922 0.000553
# 3 -0.001180 -0.003368 0.012966 -0.001240 0.007315 -0.001693
# 4 0.002999 0.008315 -0.001240 0.027951 0.002590 0.004236
# 5 0.008132 -0.002922 0.007315 0.002590 0.028709 -0.010369
# 6 -0.002417 0.000553 -0.001693 0.004236 -0.010369 0.031763
#
#
# Mechanical properties :
#
#
# Convention : Reuss Voigt Hill
#
# Bulk Modulus (GPa) = 25.50550 35.30266 30.40408
# Shear Modulus (GPa) = 31.40310 41.69692 36.55001
#
# Velocity S-wave (km/s) = 3.47931 4.00921 3.75362
# Velocity P-wave (km/s) = 5.09636 5.91950 5.52329
#
# Compressibility (1/GPa) = 0.03920723
#
# Stress axis : x y z
#
# Youngs Moduli (GPa) = 63.49449 50.62765 77.12406
#
# Poissons Ratio (x) = 0.00418 0.09098
# Poissons Ratio (y) = 0.00524 0.25975
# Poissons Ratio (z) = 0.07490 0.17051
#
# Static dielectric constant tensor:
#      x y z
#    x 2.096130 -0.097480 -0.058800 
#    y -0.097480 2.906430 0.488480 
#    z -0.058800 0.488480 2.374700 
# 
# From -- ./inp_files/223422.got.cif
#   From: 2010.05.17/outbox.cif.g08.bks.cpg/sg2_112_cif.got.tgz:223422.got - 2010.06.03 11:33:40.
