data_PCOD9108926
_publ_section_title
;
Structure prediction by ZEFSAII (Michael W. Deem and Ramdas Pophale) SiO2 
 PCOD9108926
Probable space group: P -1
;
_chemical_formula_sum "Si O2"
_cell_formula_units_Z 16
_cell_length_a 12.504992
_cell_length_b 8.604431
_cell_length_c 13.347824
_cell_angle_alpha 75.357095
_cell_angle_beta 147.715781
_cell_angle_gamma 84.758329
_cell_volume 599.061005
_symmetry_space_group_name_H-M "P -1"
_symmetry_group_IT_number 2
_symmetry_cell_setting 'triclinic'
loop_
_space_group_symop_operation_xyz
x,y,z
-x,-y,-z
loop_
_atom_site_type_symbol
_atom_site_label
_atom_site_fract_x
_atom_site_fract_y
_atom_site_fract_z
Si Si1 0.168621 0.457653 0.861497
Si Si2 0.513183 0.159262 0.924117
Si Si3 0.124459 0.606815 0.506671
Si Si4 0.647562 0.788251 0.748533
Si Si5 0.699396 0.224632 0.244186
Si Si6 0.674840 0.902827 0.399665
Si Si7 0.571031 0.429155 0.432151
Si Si8 0.100581 0.776117 0.091232
O O1 0.093512 0.345665 0.747084
O O2 0.929143 0.683945 0.643149
O O3 0.239255 0.360257 0.042183
O O4 0.417810 0.413383 0.017777
O O5 0.701994 0.176795 0.136389
O O6 0.259248 0.381994 0.687499
O O7 0.521317 0.103746 0.823716
O O8 0.500000 0.000000 0.000000
O O9 0.108899 0.737181 0.565170
O O10 0.312842 0.604457 0.578954
O O11 0.516706 0.711456 0.595098
O O12 0.449677 0.000429 0.608563
O O13 0.869479 0.777830 0.874724
O O14 0.720259 0.050248 0.354145
O O15 0.331596 0.654794 0.218776
O O16 0.780397 0.359381 0.692182
O O17 0.000000 0.000000 0.000000
#
# Coordination Sequence:
#
# PCOD9108926 Si02
#       8
#     2   2   2   2   2   2   2   2
#     4  10  21  37  63  89 122 167 206 260 311 366
#     4   9  20  37  62  92 130 169 212 262 313 365
#     4  11  20  38  66  91 125 170 210 262 309 377
#     4  11  22  43  65  91 128 166 205 256 320 373
#     4  10  20  41  59  92 126 168 212 261 315 363
#     4   9  20  35  61  91 123 163 211 257 305 371
#     4  11  24  45  64  98 127 161 216 258 313 382
#     4  11  27  43  69  96 127 164 207 263 317 381
#
# _framework density 26.708465
#
# number of rings (size 3 to 8) (size 9 to 14) (size 15 to 20)
#    0.000    1.750    3.750    0.750    3.500    3.500 
#    0.000    6.250    0.000   12.000    0.000    0.000 
#    0.000    0.000    0.000    0.000    0.000    0.000 
#
# Total GULP energy -89669.060414 kJ/mol
# GULP energy per Si atom -5604.316276 kJ/mol
# Density = 2.664768 g / cm^3
# Si number density = 26.708465 Si / 1000 Ang^3
#
#
#
# Elastic Constant Matrix: (Units=GPa)
#
#
# Indices 1 2 3 4 5 6 
#
# 1 55.3046 10.8724 28.7036 -5.0982 5.1166 4.5680
# 2 10.8724 138.9227 49.7208 6.9437 11.4732 -4.2147
# 3 28.7036 49.7208 128.7562 -14.3707 7.5537 -10.4172
# 4 -5.0982 6.9437 -14.3707 65.4095 -8.2362 5.2684
# 5 5.1166 11.4732 7.5537 -8.2362 37.8577 -0.9703
# 6 4.5680 -4.2147 -10.4172 5.2684 -0.9703 39.3498
#
#
#
# Elastic Compliance Matrix: (Units=1/GPa)
#
#
# Indices 1 2 3 4 5 6 
#
# 1 0.021149 0.000098 -0.004884 0.000641 -0.001873 -0.003870
# 2 0.000098 0.008733 -0.003459 -0.001999 -0.002399 0.000217
# 3 -0.004884 -0.003459 0.010642 0.002119 0.000116 0.002733
# 4 0.000641 -0.001999 0.002119 0.016628 0.003666 -0.001863
# 5 -0.001873 -0.002399 0.000116 0.003666 0.028174 0.000195
# 6 -0.003870 0.000217 0.002733 -0.001863 0.000195 0.026863
#
#
# Mechanical properties :
#
#
# Convention : Reuss Voigt Hill
#
# Bulk Modulus (GPa) = 41.60765 55.73078 48.66921
# Shear Modulus (GPa) = 36.57851 44.10252 40.34052
#
# Velocity S-wave (km/s) = 3.70475 4.06797 3.89061
# Velocity P-wave (km/s) = 5.82345 6.55562 6.20035
#
# Compressibility (1/GPa) = 0.02403404
#
# Stress axis : x y z
#
# Youngs Moduli (GPa) = 47.28261 114.50519 93.96619
#
# Poissons Ratio (x) = -0.01125 0.45897
# Poissons Ratio (y) = -0.00465 0.32505
# Poissons Ratio (z) = 0.23095 0.39609
#
# Static dielectric constant tensor:
#      x y z
#    x 2.113190 0.008970 0.027700 
#    y 0.008970 2.083120 -0.019070 
#    z 0.027700 -0.019070 2.063510 
# 
# From -- ./inp_files/529714.got.cif
#   From: 2010.05.17/outbox.cif.g08.bks.cpg/sg2_265_cif.got.tgz:529714.got - 2010.06.03 11:33:40.
