data_PCOD9108149
_publ_section_title
;
Structure prediction by ZEFSAII (Michael W. Deem and Ramdas Pophale) SiO2 
 PCOD9108149
Probable space group: P -1
;
_chemical_formula_sum "Si O2"
_cell_formula_units_Z 16
_cell_length_a 16.391250
_cell_length_b 9.484382
_cell_length_c 11.082991
_cell_angle_alpha 110.702783
_cell_angle_beta 76.966819
_cell_angle_gamma 151.991473
_cell_volume 742.012225
_symmetry_space_group_name_H-M "P -1"
_symmetry_group_IT_number 2
_symmetry_cell_setting 'triclinic'
loop_
_space_group_symop_operation_xyz
x,y,z
-x,-y,-z
loop_
_atom_site_type_symbol
_atom_site_label
_atom_site_fract_x
_atom_site_fract_y
_atom_site_fract_z
Si Si1 0.712610 0.233970 0.729637
Si Si2 0.643836 0.145590 0.248274
Si Si3 0.385060 0.422662 0.428390
Si Si4 0.213912 0.914735 0.919124
Si Si5 0.285072 0.927317 0.574471
Si Si6 0.171768 0.848856 0.188524
Si Si7 0.898501 0.087185 0.258988
Si Si8 0.159261 0.255006 0.621661
O O1 0.714483 0.135666 0.578527
O O2 0.710928 0.110557 0.801345
O O3 0.903968 0.616638 0.770092
O O4 0.549742 0.088919 0.747690
O O5 0.645545 0.994146 0.126047
O O6 0.719781 0.216708 0.374738
O O7 0.781945 0.492629 0.265647
O O8 0.500000 0.500000 0.500000
O O9 0.319075 0.453450 0.542385
O O10 0.520350 0.688660 0.360536
O O11 0.223954 0.069641 0.323489
O O12 0.220253 0.059920 0.863803
O O13 0.026876 0.528735 0.843058
O O14 0.207884 0.952410 0.070712
O O15 0.138428 0.819743 0.621011
O O16 0.863010 0.896777 0.306558
O O17 0.000000 0.000000 0.500000
#
# Coordination Sequence:
#
# PCOD9108149 Si02
#       8
#     2   2   2   2   2   2   2   2
#     4  11  20  35  61  89 123 155 194 255 306 354
#     4  11  23  38  59  89 127 158 193 249 307 366
#     4  12  21  37  62  96 120 154 199 257 306 350
#     4   9  22  43  63  85 116 171 212 237 290 361
#     4  11  21  37  59  89 124 157 199 243 304 368
#     4  10  20  40  67  86 117 162 214 248 284 362
#     4  10  22  38  60  86 122 162 207 242 294 361
#     4  12  23  36  60  94 127 155 192 253 317 359
#
# _framework density 21.562985999999999
#
# number of rings (size 3 to 8) (size 9 to 14) (size 15 to 20)
#    0.000    1.250    3.750    2.250    1.750    2.500 
#    0.000    2.500    2.750    3.000    0.000    0.000 
#    0.000    0.000    0.000    0.000    0.000    0.000 
#
# Total GULP energy -89319.113359 kJ/mol
# GULP energy per Si atom -5582.444585 kJ/mol
# Density = 2.151391 g / cm^3
# Si number density = 21.562986 Si / 1000 Ang^3
#
#
#
# Elastic Constant Matrix: (Units=GPa)
#
#
# Indices 1 2 3 4 5 6 
#
# 1 119.1406 36.7581 5.3811 -12.9853 17.2136 -6.6636
# 2 36.7581 57.5923 2.0853 -14.4860 9.7626 -5.4721
# 3 5.3811 2.0853 45.9125 -17.2421 13.7683 -9.9600
# 4 -12.9853 -14.4860 -17.2421 24.8483 -10.4704 6.4341
# 5 17.2136 9.7626 13.7683 -10.4704 16.6012 -11.0648
# 6 -6.6636 -5.4721 -9.9600 6.4341 -11.0648 41.5559
#
#
#
# Elastic Compliance Matrix: (Units=1/GPa)
#
#
# Indices 1 2 3 4 5 6 
#
# 1 0.011617 -0.005803 0.001834 -0.000476 -0.011404 -0.001424
# 2 -0.005803 0.025212 0.006335 0.013817 -0.005070 0.000419
# 3 0.001834 0.006335 0.035490 0.019774 -0.022137 0.000679
# 4 -0.000476 0.013817 0.019774 0.070375 0.021169 0.001223
# 5 -0.011404 -0.005070 -0.022137 0.021169 0.120809 0.021087
# 6 -0.001424 0.000419 0.000679 0.001223 0.021087 0.029479
#
#
# Mechanical properties :
#
#
# Convention : Reuss Voigt Hill
#
# Bulk Modulus (GPa) = 12.97836 34.56604 23.77220
# Shear Modulus (GPa) = 15.92699 28.49580 22.21139
#
# Velocity S-wave (km/s) = 2.72072 3.63921 3.21295
# Velocity P-wave (km/s) = 3.98768 5.80719 4.98122
#
# Compressibility (1/GPa) = 0.07705131
#
# Stress axis : x y z
#
# Youngs Moduli (GPa) = 86.08022 39.66332 28.17727
#
# Poissons Ratio (x) = 0.23016 -0.05168
# Poissons Ratio (y) = 0.49952 -0.17850
# Poissons Ratio (z) = -0.15788 -0.25127
#
# Static dielectric constant tensor:
#      x y z
#    x 1.807920 -0.046630 0.027160 
#    y -0.046630 2.545650 -0.072870 
#    z 0.027160 -0.072870 1.781340 
# 
# From -- ./inp_files/190363.got.cif
#   From: 2010.05.17/outbox.cif.g08.bks.cpg/sg2_96_cif.got.tgz:190363.got - 2010.06.03 11:33:40.
