data_PCOD9108819
_publ_section_title
;
Structure prediction by ZEFSAII (Michael W. Deem and Ramdas Pophale) SiO2 
 PCOD9108819
Probable space group: P -1
;
_chemical_formula_sum "Si O2"
_cell_formula_units_Z 14
_cell_length_a 14.745231
_cell_length_b 9.373989
_cell_length_c 14.588100
_cell_angle_alpha 36.012059
_cell_angle_beta 150.496354
_cell_angle_gamma 142.182723
_cell_volume 557.529586
_symmetry_space_group_name_H-M "P -1"
_symmetry_group_IT_number 2
_symmetry_cell_setting 'triclinic'
loop_
_space_group_symop_operation_xyz
x,y,z
-x,-y,-z
loop_
_atom_site_type_symbol
_atom_site_label
_atom_site_fract_x
_atom_site_fract_y
_atom_site_fract_z
Si Si1 0.401710 0.800038 0.362421
Si Si2 0.672195 0.553636 0.352916
Si Si3 0.720197 0.089524 0.178427
Si Si4 0.770226 0.971809 0.483833
Si Si5 0.086168 0.825986 0.295232
Si Si6 0.299939 0.249461 0.116400
Si Si7 0.031250 0.455938 0.154255
O O1 0.417104 0.590096 0.557132
O O2 0.551611 0.833613 0.395967
O O3 0.176701 0.711794 0.185942
O O4 0.429727 0.071608 0.289829
O O5 0.815169 0.396411 0.525688
O O6 0.474659 0.510342 0.144297
O O7 0.781681 0.845909 0.319384
O O8 0.840631 0.345683 0.101782
O O9 0.757100 0.120696 0.302554
O O10 0.500000 0.000000 0.000000
O O11 0.859142 0.755161 0.641519
O O12 0.882443 0.110807 0.601279
O O13 0.195441 0.085396 0.199199
O O14 0.867853 0.744652 0.105950
O O15 0.000000 0.500000 0.000000
#
# Coordination Sequence:
#
# PCOD9108819 Si02
#       7
#     2   2   2   2   2   2   2
#     4  11  21  40  77 109 147 199 243 307 360 452
#     4  11  22  45  71 106 159 189 249 302 381 434
#     4  12  30  49  73 108 153 198 245 324 380 437
#     4  12  23  46  76 114 146 191 257 309 379 436
#     4  10  21  39  75 108 151 201 248 306 364 453
#     4  10  20  40  72 114 152 196 254 292 375 447
#     4  12  27  46  75 107 146 196 258 303 380 458
#
# _framework density 25.110775
#
# number of rings (size 3 to 8) (size 9 to 14) (size 15 to 20)
#    0.000    0.857    4.286    3.429    2.000    3.429 
#    0.000    1.429    0.000    0.000    0.000    0.000 
#    0.000    0.000    0.000    0.000    0.000    0.000 
#
# Total GULP energy -78368.167277 kJ/mol
# GULP energy per Si atom -5597.726234 kJ/mol
# Density = 2.505362 g / cm^3
# Si number density = 25.110775 Si / 1000 Ang^3
#
#
#
# Elastic Constant Matrix: (Units=GPa)
#
#
# Indices 1 2 3 4 5 6 
#
# 1 87.3532 14.7344 33.1598 13.0382 -10.1614 4.9017
# 2 14.7344 114.0498 30.6931 18.0248 -5.5948 -2.2842
# 3 33.1598 30.6931 128.0509 22.7091 -10.5812 -2.8227
# 4 13.0382 18.0248 22.7091 48.5462 -8.9196 6.3400
# 5 -10.1614 -5.5948 -10.5812 -8.9196 45.6900 8.8522
# 6 4.9017 -2.2842 -2.8227 6.3400 8.8522 38.7051
#
#
#
# Elastic Compliance Matrix: (Units=1/GPa)
#
#
# Indices 1 2 3 4 5 6 
#
# 1 0.013252 -0.000665 -0.002909 -0.001213 0.002397 -0.002279
# 2 -0.000665 0.009761 -0.001651 -0.002822 -0.000084 0.001021
# 3 -0.002909 -0.001651 0.009594 -0.003185 0.000483 0.001382
# 4 -0.001213 -0.002822 -0.003185 0.025006 0.004572 -0.005387
# 5 0.002397 -0.000084 0.000483 0.004572 0.024707 -0.006673
# 6 -0.002279 0.001021 0.001382 -0.005387 -0.006673 0.028695
#
#
# Mechanical properties :
#
#
# Convention : Reuss Voigt Hill
#
# Bulk Modulus (GPa) = 45.13724 54.06984 49.60354
# Shear Modulus (GPa) = 38.80449 43.31272 41.05860
#
# Velocity S-wave (km/s) = 3.93534 4.15766 4.04802
# Velocity P-wave (km/s) = 6.21799 6.68037 6.45333
#
# Compressibility (1/GPa) = 0.02215465
#
# Stress axis : x y z
#
# Youngs Moduli (GPa) = 75.45927 102.45115 104.23386
#
# Poissons Ratio (x) = 0.06818 0.30325
# Poissons Ratio (y) = 0.05022 0.17212
# Poissons Ratio (z) = 0.21953 0.16917
#
# Static dielectric constant tensor:
#      x y z
#    x 1.881330 0.107520 0.095940 
#    y 0.107520 1.789900 -0.142380 
#    z 0.095940 -0.142380 2.064100 
# 
# From -- ./inp_files/529330.got.cif
#   From: 2010.05.17/outbox.cif.g08.bks.cpg/sg2_265_cif.got.tgz:529330.got - 2010.06.03 11:33:40.
