data_PCOD9108802
_publ_section_title
;
Structure prediction by ZEFSAII (Michael W. Deem and Ramdas Pophale) SiO2 
 PCOD9108802
Probable space group: P -1
;
_chemical_formula_sum "Si O2"
_cell_formula_units_Z 16
_cell_length_a 17.690907
_cell_length_b 16.460402
_cell_length_c 8.679772
_cell_angle_alpha 56.231873
_cell_angle_beta 37.636052
_cell_angle_gamma 29.068475
_cell_volume 666.031964
_symmetry_space_group_name_H-M "P -1"
_symmetry_group_IT_number 2
_symmetry_cell_setting 'triclinic'
loop_
_space_group_symop_operation_xyz
x,y,z
-x,-y,-z
loop_
_atom_site_type_symbol
_atom_site_label
_atom_site_fract_x
_atom_site_fract_y
_atom_site_fract_z
Si Si1 0.312054 0.448967 0.268862
Si Si2 0.255959 0.804150 0.582230
Si Si3 0.378525 0.561106 0.826986
Si Si4 0.148155 0.972754 0.174288
Si Si5 0.440831 0.890289 0.223022
Si Si6 0.175631 0.246072 0.416933
Si Si7 0.017772 0.262128 0.948169
Si Si8 0.207746 0.434610 0.777064
O O1 0.572910 0.230645 0.044630
O O2 0.258687 0.464588 0.514421
O O3 0.097199 0.547951 0.409152
O O4 0.332369 0.548680 0.081137
O O5 0.365081 0.685000 0.688020
O O6 0.387790 0.646697 0.406445
O O7 0.000000 0.000000 0.500000
O O8 0.973310 0.981101 0.838682
O O9 0.164817 0.664193 0.955928
O O10 0.322045 0.870842 0.381062
O O11 0.106101 0.118326 0.074335
O O12 0.570550 0.776714 0.294202
O O13 0.254502 0.101756 0.333456
O O14 0.642828 0.791867 0.884213
O O15 0.196497 0.196890 0.611661
O O16 0.880655 0.436762 0.079280
O O17 0.000000 0.500000 0.000000
#
# Coordination Sequence:
#
# PCOD9108802 Si02
#       8
#     2   2   2   2   2   2   2   2
#     4  11  23  44  69 103 143 178 229 291 340 407
#     4  10  20  40  72 101 134 184 225 282 340 412
#     4   9  19  40  71  98 134 180 232 271 337 421
#     4  11  23  43  71 104 144 177 230 284 351 410
#     4  11  23  45  73 100 140 181 236 287 340 417
#     4  10  24  47  72  99 135 188 239 279 339 420
#     4  10  23  45  69 100 136 186 229 282 344 419
#     4  12  25  44  69 104 145 175 230 294 353 400
#
# _framework density 24.022870999999999
#
# number of rings (size 3 to 8) (size 9 to 14) (size 15 to 20)
#    0.000    1.500    3.750    0.750    0.000    2.500 
#    0.000   16.875    0.000    0.000    0.000    0.000 
#    0.000    0.000    0.000    0.000    0.000    0.000 
#
# Total GULP energy -89431.149334 kJ/mol
# GULP energy per Si atom -5589.446833 kJ/mol
# Density = 2.396819 g / cm^3
# Si number density = 24.022871 Si / 1000 Ang^3
#
#
#
# Elastic Constant Matrix: (Units=GPa)
#
#
# Indices 1 2 3 4 5 6 
#
# 1 50.9509 22.0979 17.8420 2.5396 -11.5818 8.4307
# 2 22.0979 127.2924 48.5665 -2.1310 -6.0041 2.8996
# 3 17.8420 48.5665 123.8317 -26.9889 9.2273 3.0063
# 4 2.5396 -2.1310 -26.9889 54.6446 -10.0895 -4.6299
# 5 -11.5818 -6.0041 9.2273 -10.0895 32.5187 -5.6291
# 6 8.4307 2.8996 3.0063 -4.6299 -5.6291 25.8074
#
#
#
# Elastic Compliance Matrix: (Units=1/GPa)
#
#
# Indices 1 2 3 4 5 6 
#
# 1 0.024780 -0.002519 -0.003453 -0.002062 0.007642 -0.006113
# 2 -0.002519 0.009821 -0.003857 -0.001052 0.001747 0.000361
# 3 -0.003453 -0.003857 0.011439 0.005032 -0.003566 0.000354
# 4 -0.002062 -0.001052 0.005032 0.022314 0.005503 0.005409
# 5 0.007642 0.001747 -0.003566 0.005503 0.037716 0.006936
# 6 -0.006113 0.000361 0.000354 0.005409 0.006936 0.043147
#
#
# Mechanical properties :
#
#
# Convention : Reuss Voigt Hill
#
# Bulk Modulus (GPa) = 37.90401 53.23197 45.56799
# Shear Modulus (GPa) = 28.14198 36.83206 32.48702
#
# Velocity S-wave (km/s) = 3.42638 3.91987 3.68140
# Velocity P-wave (km/s) = 5.60946 6.53407 6.08934
#
# Compressibility (1/GPa) = 0.02638243
#
# Stress axis : x y z
#
# Youngs Moduli (GPa) = 40.35537 101.81790 87.41667
#
# Poissons Ratio (x) = 0.25650 0.30183
# Poissons Ratio (y) = 0.10166 0.33718
# Poissons Ratio (z) = 0.13934 0.39273
#
# Static dielectric constant tensor:
#      x y z
#    x 1.926040 -0.037610 -0.000160 
#    y -0.037610 1.976660 -0.039460 
#    z -0.000160 -0.039460 1.983900 
# 
# From -- ./inp_files/349474.got.cif
#   From: 2010.05.17/outbox.cif.g08.bks.cpg/sg2_175_cif.got.tgz:349474.got - 2010.06.03 11:33:40.
