data_PCOD9108773
_publ_section_title
;
Structure prediction by ZEFSAII (Michael W. Deem and Ramdas Pophale) SiO2 
 PCOD9108773
Probable space group: P -1
;
_chemical_formula_sum "Si O2"
_cell_formula_units_Z 16
_cell_length_a 22.392874
_cell_length_b 8.335705
_cell_length_c 14.320767
_cell_angle_alpha 102.804477
_cell_angle_beta 160.481152
_cell_angle_gamma 88.222280
_cell_volume 729.691014
_symmetry_space_group_name_H-M "P -1"
_symmetry_group_IT_number 2
_symmetry_cell_setting 'triclinic'
loop_
_space_group_symop_operation_xyz
x,y,z
-x,-y,-z
loop_
_atom_site_type_symbol
_atom_site_label
_atom_site_fract_x
_atom_site_fract_y
_atom_site_fract_z
Si Si1 0.974982 0.184586 0.770275
Si Si2 0.695541 0.663548 0.876306
Si Si3 0.527263 0.923976 0.129920
Si Si4 0.828935 0.787096 0.759350
Si Si5 0.611790 0.541098 0.937667
Si Si6 0.005885 0.581833 0.882459
Si Si7 0.719637 0.526198 0.288758
Si Si8 0.474739 0.802029 0.682418
O O1 0.928347 0.354329 0.741376
O O2 0.769519 0.982579 0.477606
O O3 0.076618 0.225540 0.823794
O O4 0.163647 0.215629 0.118791
O O5 0.500000 0.500000 0.500000
O O6 0.701536 0.560403 0.968276
O O7 0.644572 0.822840 0.858568
O O8 0.511715 0.031911 0.211548
O O9 0.500000 0.000000 0.000000
O O10 0.349491 0.697816 0.847342
O O11 0.583794 0.680512 0.356043
O O12 0.912400 0.651458 0.832911
O O13 0.000000 0.000000 0.000000
O O14 0.502006 0.665063 0.778822
O O15 0.761039 0.613900 0.257071
O O16 0.917651 0.625932 0.664603
O O17 0.255959 0.697933 0.288162
O O18 0.500000 0.500000 0.000000
#
# Coordination Sequence:
#
# PCOD9108773 Si02
#       8
#     2   2   2   2   2   2   2   2
#     4  12  21  40  69  96 124 172 220 265 316 392
#     4  10  20  40  71  93 127 174 225 259 323 390
#     4  12  24  39  68 101 132 164 222 277 322 381
#     4  12  22  34  62 103 132 156 212 281 325 371
#     4  10  21  40  61  90 134 169 211 259 333 379
#     4  12  22  38  67  97 124 171 222 264 321 386
#     4  12  25  40  62  99 139 168 204 276 345 376
#     4  10  22  42  70  96 122 172 228 268 310 387
#
# _framework density 21.927091999999998
#
# number of rings (size 3 to 8) (size 9 to 14) (size 15 to 20)
#    0.750    0.000    7.500    2.625    0.000    0.000 
#    0.000    1.250    2.750    2.250    0.000    0.000 
#    0.000    0.000    0.000    0.000    0.000    0.000 
#
# Total GULP energy -89165.879217 kJ/mol
# GULP energy per Si atom -5572.867451 kJ/mol
# Density = 2.187718 g / cm^3
# Si number density = 21.927092 Si / 1000 Ang^3
#
#
#
# Elastic Constant Matrix: (Units=GPa)
#
#
# Indices 1 2 3 4 5 6 
#
# 1 129.9167 30.4464 29.5417 0.0004 -6.1075 6.2697
# 2 30.4464 47.3588 20.4721 -4.1200 -1.0028 1.6786
# 3 29.5417 20.4721 64.8276 -15.4247 -28.3858 2.9160
# 4 0.0004 -4.1200 -15.4247 27.7836 17.8173 -14.4312
# 5 -6.1075 -1.0028 -28.3858 17.8173 42.6613 -12.9891
# 6 6.2697 1.6786 2.9160 -14.4312 -12.9891 30.1977
#
#
#
# Elastic Compliance Matrix: (Units=1/GPa)
#
#
# Indices 1 2 3 4 5 6 
#
# 1 0.009956 -0.004825 -0.004293 -0.004627 -0.000813 -0.003945
# 2 -0.004825 0.028526 -0.009555 0.003412 -0.008289 -0.001596
# 3 -0.004293 -0.009555 0.030323 0.008951 0.018921 0.010910
# 4 -0.004627 0.003412 0.008951 0.062567 -0.013442 0.024025
# 5 -0.000813 -0.008289 0.018921 -0.013442 0.044891 0.011688
# 6 -0.003945 -0.001596 0.010910 0.024025 0.011688 0.049478
#
#
# Mechanical properties :
#
#
# Convention : Reuss Voigt Hill
#
# Bulk Modulus (GPa) = 31.78791 44.78038 38.28414
# Shear Modulus (GPa) = 18.27656 30.90471 24.59063
#
# Velocity S-wave (km/s) = 2.89020 3.75831 3.35247
# Velocity P-wave (km/s) = 5.06618 6.26897 5.69939
#
# Compressibility (1/GPa) = 0.03145850
#
# Stress axis : x y z
#
# Youngs Moduli (GPa) = 100.43885 35.05604 32.97824
#
# Poissons Ratio (x) = 0.16914 0.14157
# Poissons Ratio (y) = 0.48461 0.31512
# Poissons Ratio (z) = 0.43117 0.33498
#
# Static dielectric constant tensor:
#      x y z
#    x 1.845100 0.014800 -0.054930 
#    y 0.014800 1.847740 -0.009050 
#    z -0.054930 -0.009050 1.939570 
# 
# From -- ./inp_files/542556.got.cif
#   From: 2010.05.17/outbox.cif.g08.bks.cpg/sg2_272_cif.got.tgz:542556.got - 2010.06.03 11:33:40.
