data_PCOD9108176
_publ_section_title
;
Structure prediction by ZEFSAII (Michael W. Deem and Ramdas Pophale) SiO2 
 PCOD9108176
Probable space group: P -1
;
_chemical_formula_sum "Si O2"
_cell_formula_units_Z 16
_cell_length_a 11.489983
_cell_length_b 17.253785
_cell_length_c 17.469816
_cell_angle_alpha 157.380764
_cell_angle_beta 30.555218
_cell_angle_gamma 148.687456
_cell_volume 645.098068
_symmetry_space_group_name_H-M "P -1"
_symmetry_group_IT_number 2
_symmetry_cell_setting 'triclinic'
loop_
_space_group_symop_operation_xyz
x,y,z
-x,-y,-z
loop_
_atom_site_type_symbol
_atom_site_label
_atom_site_fract_x
_atom_site_fract_y
_atom_site_fract_z
Si Si1 0.695891 0.401002 0.902951
Si Si2 0.066770 0.207729 0.600400
Si Si3 0.055963 0.624080 0.774793
Si Si4 0.801559 0.800693 0.743067
Si Si5 0.316221 0.038161 0.704232
Si Si6 0.567200 0.514955 0.242131
Si Si7 0.825039 0.283889 0.367764
Si Si8 0.469301 0.250184 0.294980
O O1 0.854212 0.262365 0.724634
O O2 0.846439 0.550970 0.888574
O O3 0.462593 0.255100 0.859455
O O4 0.636789 0.518773 0.117809
O O5 0.211805 0.410110 0.755355
O O6 0.244917 0.161901 0.395882
O O7 0.000000 0.000000 0.500000
O O8 0.105554 0.400781 0.518122
O O9 0.045200 0.743248 0.809424
O O10 0.290015 0.756096 0.808005
O O11 0.631051 0.710747 0.831216
O O12 0.610420 0.830421 0.817246
O O13 0.048899 0.991052 0.777718
O O14 0.246708 0.876962 0.668691
O O15 0.500000 0.000000 0.500000
O O16 0.423871 0.683787 0.489059
O O17 0.000000 0.500000 0.500000
O O18 0.500000 0.500000 0.500000
#
# Coordination Sequence:
#
# PCOD9108176 Si02
#       8
#     2   2   2   2   2   2   2   2
#     4  12  24  38  63  97 131 160 206 274 324 355
#     4  12  22  38  65  97 125 163 216 260 306 381
#     4  10  18  37  63  89 116 172 211 248 309 383
#     4  10  18  37  63  87 117 170 214 241 306 377
#     4  12  22  39  66  93 124 165 221 256 300 383
#     4  11  23  40  63  95 128 163 206 269 326 361
#     4  11  20  40  66  87 119 167 221 247 299 391
#     4  10  16  35  66  87 111 162 219 248 288 382
#
# _framework density 24.802430999999999
#
# number of rings (size 3 to 8) (size 9 to 14) (size 15 to 20)
#    0.000    1.000   10.000    1.125    0.000    0.500 
#    0.000    2.500    2.750    1.500    0.000    0.000 
#    0.000    0.000    0.000    0.000    0.000    0.000 
#
# Total GULP energy -89472.781819 kJ/mol
# GULP energy per Si atom -5592.048864 kJ/mol
# Density = 2.474598 g / cm^3
# Si number density = 24.802431 Si / 1000 Ang^3
#
#
#
# Elastic Constant Matrix: (Units=GPa)
#
#
# Indices 1 2 3 4 5 6 
#
# 1 151.8843 46.1200 34.0888 -17.0380 4.1021 -1.3795
# 2 46.1200 133.1915 43.9729 -21.2128 8.0554 -30.1859
# 3 34.0888 43.9729 74.1049 -20.4841 17.1686 -3.2641
# 4 -17.0380 -21.2128 -20.4841 41.4361 -4.5152 13.3516
# 5 4.1021 8.0554 17.1686 -4.5152 45.3978 -11.3246
# 6 -1.3795 -30.1859 -3.2641 13.3516 -11.3246 62.0596
#
#
#
# Elastic Compliance Matrix: (Units=1/GPa)
#
#
# Indices 1 2 3 4 5 6 
#
# 1 0.007834 -0.002080 -0.002057 0.001567 0.000288 -0.001231
# 2 -0.002080 0.011337 -0.005790 0.000549 0.001759 0.005367
# 3 -0.002057 -0.005790 0.021438 0.007500 -0.007317 -0.004683
# 4 0.001567 0.000549 0.007500 0.030583 -0.001573 -0.006171
# 5 0.000288 0.001759 -0.007317 -0.001573 0.025672 0.005500
# 6 -0.001231 0.005367 -0.004683 -0.006171 0.005500 0.020781
#
#
# Mechanical properties :
#
#
# Convention : Reuss Voigt Hill
#
# Bulk Modulus (GPa) = 48.18099 67.50490 57.84294
# Shear Modulus (GPa) = 34.62150 45.44530 40.03340
#
# Velocity S-wave (km/s) = 3.74022 4.28517 4.02193
# Velocity P-wave (km/s) = 6.17417 7.19442 6.70373
#
# Compressibility (1/GPa) = 0.02075508
#
# Stress axis : x y z
#
# Youngs Moduli (GPa) = 127.64563 88.20624 46.64570
#
# Poissons Ratio (x) = 0.18349 0.09595
# Poissons Ratio (y) = 0.26554 0.27007
# Poissons Ratio (z) = 0.26258 0.51070
#
# Static dielectric constant tensor:
#      x y z
#    x 1.980400 -0.016400 -0.065980 
#    y -0.016400 1.961390 0.082700 
#    z -0.065980 0.082700 2.149340 
# 
# From -- ./inp_files/570361.got.cif
#   From: 2010.05.17/outbox.cif.g08.bks.cpg/sg2_286_cif.got.tgz:570361.got - 2010.06.03 11:33:40.
