data_PCOD9108298
_publ_section_title
;
Structure prediction by ZEFSAII (Michael W. Deem and Ramdas Pophale) SiO2 
 PCOD9108298
Probable space group: P -1
;
_chemical_formula_sum "Si O2"
_cell_formula_units_Z 16
_cell_length_a 22.110800
_cell_length_b 14.515085
_cell_length_c 15.370924
_cell_angle_alpha 150.253646
_cell_angle_beta 157.523623
_cell_angle_gamma 20.205433
_cell_volume 651.363495
_symmetry_space_group_name_H-M "P -1"
_symmetry_group_IT_number 2
_symmetry_cell_setting 'triclinic'
loop_
_space_group_symop_operation_xyz
x,y,z
-x,-y,-z
loop_
_atom_site_type_symbol
_atom_site_label
_atom_site_fract_x
_atom_site_fract_y
_atom_site_fract_z
Si Si1 0.093260 0.717162 0.419790
Si Si2 0.974026 0.339840 0.516395
Si Si3 0.389687 0.260751 0.980879
Si Si4 0.903524 0.011958 0.062626
Si Si5 0.401930 0.587549 0.147271
Si Si6 0.347198 0.449539 0.251279
Si Si7 0.490147 0.799334 0.180543
Si Si8 0.735663 0.773725 0.908347
O O1 0.025118 0.721303 0.431402
O O2 0.364816 0.500831 0.599288
O O3 0.000000 0.000000 0.500000
O O4 0.983575 0.654257 0.159473
O O5 0.992721 0.136110 0.317313
O O6 0.727428 0.635408 0.409254
O O7 0.167939 0.319736 0.730786
O O8 0.584913 0.021314 0.981333
O O9 0.342744 0.507686 0.084123
O O10 0.462541 0.222602 0.146354
O O11 0.804449 0.115348 0.919090
O O12 0.689450 0.135644 0.938736
O O13 0.100184 0.701348 0.089974
O O14 0.458298 0.398866 0.987265
O O15 0.500000 0.500000 0.500000
O O16 0.310694 0.388077 0.245380
O O17 0.373650 0.070725 0.199995
#
# Coordination Sequence:
#
# PCOD9108298 Si02
#       8
#     2   2   2   2   2   2   2   2
#     4  12  19  36  69 102 118 165 221 272 308 366
#     4  11  21  39  71  93 126 167 222 266 319 385
#     4  11  24  42  65  94 126 170 225 269 316 384
#     4  11  22  41  64  94 137 168 210 269 330 387
#     4  10  21  39  68  98 127 168 220 268 322 379
#     4  12  28  41  61  94 136 177 209 265 338 386
#     4  10  20  40  67  98 126 164 219 274 322 372
#     4  11  24  41  68  96 129 168 226 270 313 386
#
# _framework density 24.563859000000001
#
# number of rings (size 3 to 8) (size 9 to 14) (size 15 to 20)
#    0.000    1.000    6.250    1.875    1.750    7.500 
#    0.000    2.500    0.000    0.000    0.000    0.000 
#    0.000    0.000    0.000    0.000    0.000    0.000 
#
# Total GULP energy -89681.665502 kJ/mol
# GULP energy per Si atom -5605.104094 kJ/mol
# Density = 2.450795 g / cm^3
# Si number density = 24.563859 Si / 1000 Ang^3
#
#
#
# Elastic Constant Matrix: (Units=GPa)
#
#
# Indices 1 2 3 4 5 6 
#
# 1 98.9223 -6.6986 22.9637 -3.1156 17.2501 34.5612
# 2 -6.6986 68.4282 9.2750 -15.2665 -0.1946 39.4653
# 3 22.9637 9.2750 142.6915 -5.6139 16.3223 18.9285
# 4 -3.1156 -15.2665 -5.6139 35.9710 4.8036 -2.1381
# 5 17.2501 -0.1946 16.3223 4.8036 41.5789 0.8003
# 6 34.5612 39.4653 18.9285 -2.1381 0.8003 46.9684
#
#
#
# Elastic Compliance Matrix: (Units=1/GPa)
#
#
# Indices 1 2 3 4 5 6 
#
# 1 0.047128 0.058270 0.003290 0.027326 -0.022124 -0.083345
# 2 0.058270 0.105850 0.006398 0.047022 -0.029087 -0.131760
# 3 0.003290 0.006398 0.008223 0.004287 -0.004850 -0.010833
# 4 0.027326 0.047022 0.004287 0.049622 -0.017401 -0.058790
# 5 -0.022124 -0.029087 -0.004850 -0.017401 0.036213 0.041265
# 6 -0.083345 -0.131760 -0.010833 -0.058790 0.041265 0.194317
#
#
# Mechanical properties :
#
#
# Convention : Reuss Voigt Hill
#
# Bulk Modulus (GPa) = 3.36569 40.12468 21.74518
# Shear Modulus (GPa) = 12.36160 43.87046 28.11603
#
# Velocity S-wave (km/s) = 2.24574 4.23067 3.38688
# Velocity P-wave (km/s) = 2.84563 6.34311 4.91593
#
# Compressibility (1/GPa) = 0.29711614
#
# Stress axis : x y z
#
# Youngs Moduli (GPa) = 21.21861 9.44732 121.60602
#
# Poissons Ratio (x) = -0.55049 -0.40005
# Poissons Ratio (y) = -1.23640 -0.77801
# Poissons Ratio (z) = -0.06980 -0.06044
#
# Static dielectric constant tensor:
#      x y z
#    x 1.959270 -0.052550 -0.021300 
#    y -0.052550 2.172660 0.016000 
#    z -0.021300 0.016000 1.904360 
# 
# From -- ./inp_files/308441.got.cif
#   From: 2010.05.17/outbox.cif.g08.bks.cpg/sg2_155_cif.got.tgz:308441.got - 2010.06.03 11:33:40.
