data_PCOD9108421
_publ_section_title
;
Structure prediction by ZEFSAII (Michael W. Deem and Ramdas Pophale) SiO2 
 PCOD9108421
Probable space group: P -1
;
_chemical_formula_sum "Si O2"
_cell_formula_units_Z 16
_cell_length_a 8.044125
_cell_length_b 14.729600
_cell_length_c 15.833926
_cell_angle_alpha 143.858950
_cell_angle_beta 92.280917
_cell_angle_gamma 113.924394
_cell_volume 740.357087
_symmetry_space_group_name_H-M "P -1"
_symmetry_group_IT_number 2
_symmetry_cell_setting 'triclinic'
loop_
_space_group_symop_operation_xyz
x,y,z
-x,-y,-z
loop_
_atom_site_type_symbol
_atom_site_label
_atom_site_fract_x
_atom_site_fract_y
_atom_site_fract_z
Si Si1 0.610587 0.836939 0.372447
Si Si2 0.154005 0.327191 0.719640
Si Si3 0.036962 0.173131 0.236163
Si Si4 0.237871 0.326864 0.529486
Si Si5 0.364730 0.153791 0.143620
Si Si6 0.737472 0.310350 0.898679
Si Si7 0.515610 0.836238 0.554600
Si Si8 0.253083 0.632683 0.558201
O O1 0.670029 0.695583 0.267885
O O2 0.469651 0.789406 0.250053
O O3 0.461511 0.781381 0.412537
O O4 0.880092 0.103938 0.583134
O O5 0.138491 0.309036 0.604690
O O6 0.257797 0.558431 0.929798
O O7 0.030782 0.179626 0.341483
O O8 0.151572 0.090457 0.147276
O O9 0.238743 0.437367 0.409574
O O10 0.783529 0.027040 0.071276
O O11 0.448144 0.592806 0.703712
O O12 0.350660 0.232541 0.469988
O O13 0.523924 0.168275 0.225381
O O14 0.688897 0.103319 0.771206
O O15 0.000000 0.500000 0.000000
O O16 0.291686 0.707785 0.519314
O O17 0.000000 0.500000 0.500000
#
# Coordination Sequence:
#
# PCOD9108421 Si02
#       8
#     2   2   2   2   2   2   2   2
#     4  10  23  46  67  89 130 168 218 270 323 384
#     4  10  23  42  69  97 120 171 218 270 319 387
#     4  10  20  41  68  91 130 170 218 264 310 385
#     4  10  20  41  68  96 130 168 220 261 323 384
#     4  10  20  40  68  95 126 170 221 258 315 382
#     4  12  25  44  65  98 132 168 217 273 327 385
#     4  11  22  43  67  93 133 176 209 265 335 381
#     4  11  23  41  62  97 137 170 206 267 319 384
#
# _framework density 21.611194000000001
#
# number of rings (size 3 to 8) (size 9 to 14) (size 15 to 20)
#    0.000    1.500    3.750    1.500    0.000    4.500 
#    6.750    0.000    0.000    0.000    0.000    0.000 
#    0.000    0.000    0.000    0.000    0.000    0.000 
#
# Total GULP energy -89379.893719 kJ/mol
# GULP energy per Si atom -5586.243357 kJ/mol
# Density = 2.156201 g / cm^3
# Si number density = 21.611194 Si / 1000 Ang^3
#
#
#
# Elastic Constant Matrix: (Units=GPa)
#
#
# Indices 1 2 3 4 5 6 
#
# 1 54.2189 25.7622 23.6061 -16.8457 -5.8425 17.4641
# 2 25.7622 120.8485 33.4385 -20.4609 -11.7850 18.6307
# 3 23.6061 33.4385 97.9536 -28.0394 -6.5560 -1.4729
# 4 -16.8457 -20.4609 -28.0394 35.3474 -6.4071 -3.1468
# 5 -5.8425 -11.7850 -6.5560 -6.4071 35.7221 1.2867
# 6 17.4641 18.6307 -1.4729 -3.1468 1.2867 25.8317
#
#
#
# Elastic Compliance Matrix: (Units=1/GPa)
#
#
# Indices 1 2 3 4 5 6 
#
# 1 0.030876 0.000269 -0.004217 0.010998 0.007069 -0.020322
# 2 0.000269 0.011415 -0.002358 0.004965 0.004562 -0.008172
# 3 -0.004217 -0.002358 0.015084 0.009673 0.002803 0.006451
# 4 0.010998 0.004965 0.009673 0.046064 0.013673 -0.005534
# 5 0.007069 0.004562 0.002803 0.013673 0.033908 -0.007933
# 6 -0.020322 -0.008172 0.006451 -0.005534 -0.007933 0.058434
#
#
# Mechanical properties :
#
#
# Convention : Reuss Voigt Hill
#
# Bulk Modulus (GPa) = 22.33992 48.73716 35.53854
# Shear Modulus (GPa) = 22.38998 32.06118 27.22558
#
# Velocity S-wave (km/s) = 3.22224 3.85586 3.55320
# Velocity P-wave (km/s) = 4.91970 6.51339 5.77182
#
# Compressibility (1/GPa) = 0.04476292
#
# Stress axis : x y z
#
# Youngs Moduli (GPa) = 32.38726 87.60215 66.29714
#
# Poissons Ratio (x) = -0.02357 0.27958
# Poissons Ratio (y) = -0.00871 0.15633
# Poissons Ratio (z) = 0.13658 0.20657
#
# Static dielectric constant tensor:
#      x y z
#    x 1.850360 -0.006780 -0.027010 
#    y -0.006780 1.792040 -0.012150 
#    z -0.027010 -0.012150 1.777950 
# 
# From -- ./inp_files/504452.got.cif
#   From: 2010.05.17/outbox.cif.g08.bks.cpg/sg2_253_cif.got.tgz:504452.got - 2010.06.03 11:33:40.
