data_PCOD9108896
_publ_section_title
;
Structure prediction by ZEFSAII (Michael W. Deem and Ramdas Pophale) SiO2 
 PCOD9108896
Probable space group: P -1
;
_chemical_formula_sum "Si O2"
_cell_formula_units_Z 13
_cell_length_a 14.048919
_cell_length_b 8.109692
_cell_length_c 9.033370
_cell_angle_alpha 107.343206
_cell_angle_beta 42.511579
_cell_angle_gamma 122.105704
_cell_volume 581.164265
_symmetry_space_group_name_H-M "P -1"
_symmetry_group_IT_number 2
_symmetry_cell_setting 'triclinic'
loop_
_space_group_symop_operation_xyz
x,y,z
-x,-y,-z
loop_
_atom_site_type_symbol
_atom_site_label
_atom_site_fract_x
_atom_site_fract_y
_atom_site_fract_z
Si Si1 0.985225 0.834805 0.587591
Si Si2 0.764576 0.148628 0.890015
Si Si3 0.171961 0.685017 0.829402
Si Si4 0.623080 0.700102 0.993572
Si Si5 0.253250 0.943520 0.529036
Si Si6 0.495405 0.318260 0.541452
Si Si7 0.500000 0.000000 0.000000
O O1 0.076253 0.742567 0.362080
O O2 0.101808 0.941839 0.620261
O O3 0.000000 0.000000 0.500000
O O4 0.798487 0.715028 0.805879
O O5 0.806323 0.169731 0.019230
O O6 0.652619 0.904123 0.925471
O O7 0.627841 0.197564 0.008628
O O8 0.179028 0.763900 0.679135
O O9 0.326334 0.654702 0.659226
O O10 0.000000 0.500000 0.000000
O O11 0.557491 0.700341 0.231596
O O12 0.500000 0.500000 0.000000
O O13 0.363145 0.927475 0.271339
O O14 0.365650 0.125978 0.552507
O O15 0.500000 0.500000 0.500000
#
# Coordination Sequence:
#
# PCOD9108896 Si02
#       7
#     2   2   2   2   2   2   1
#     4   9  23  42  68 105 137 187 234 297 360 429
#     4  10  21  45  69  97 139 186 235 293 357 432
#     4  12  27  47  73 108 147 191 248 305 362 435
#     4  11  25  42  68 100 147 183 235 289 366 428
#     4  11  23  48  75 101 143 195 241 303 364 431
#     4  12  28  44  71 107 145 191 243 300 365 433
#     4  10  20  40  76  94 130 180 242 284 358 420
#
# _framework density 22.368891999999999
#
# number of rings (size 3 to 8) (size 9 to 14) (size 15 to 20)
#    0.000    1.231    3.077    1.385   10.769    1.846 
#    0.000    1.538    0.000    0.000    0.000    0.000 
#    0.000    0.000    0.000    0.000    0.000    0.000 
#
# Total GULP energy -72392.738709 kJ/mol
# GULP energy per Si atom -5568.672208 kJ/mol
# Density = 2.231798 g / cm^3
# Si number density = 22.368892 Si / 1000 Ang^3
#
#
#
# Elastic Constant Matrix: (Units=GPa)
#
#
# Indices 1 2 3 4 5 6 
#
# 1 140.0813 45.1634 60.3777 -16.7464 -2.8772 32.6681
# 2 45.1634 85.1034 60.1112 -23.1446 8.5160 23.0149
# 3 60.3777 60.1112 181.7240 -23.5033 -4.4045 29.7764
# 4 -16.7464 -23.1446 -23.5033 31.0340 8.2152 4.2410
# 5 -2.8772 8.5160 -4.4045 8.2152 61.6867 -5.6102
# 6 32.6681 23.0149 29.7764 4.2410 -5.6102 38.9646
#
#
#
# Elastic Compliance Matrix: (Units=1/GPa)
#
#
# Indices 1 2 3 4 5 6 
#
# 1 0.010447 -0.001042 -0.001156 0.005306 -0.000882 -0.007964
# 2 -0.001042 0.024287 -0.003043 0.019180 -0.007474 -0.014310
# 3 -0.001156 -0.003043 0.007971 0.003618 0.000117 -0.003701
# 4 0.005306 0.019180 0.003618 0.059082 -0.012444 -0.026765
# 5 -0.000882 -0.007474 0.000117 -0.012444 0.019709 0.009258
# 6 -0.007964 -0.014310 -0.003701 -0.026765 0.009258 0.047868
#
#
# Mechanical properties :
#
#
# Convention : Reuss Voigt Hill
#
# Bulk Modulus (GPa) = 31.03573 82.02372 56.52973
# Shear Modulus (GPa) = 26.23474 42.42081 34.32778
#
# Velocity S-wave (km/s) = 3.42836 4.35951 3.92167
# Velocity P-wave (km/s) = 5.43840 7.87964 6.76997
#
# Compressibility (1/GPa) = 0.03222093
#
# Stress axis : x y z
#
# Youngs Moduli (GPa) = 95.72564 41.17453 125.45552
#
# Poissons Ratio (x) = 0.04291 0.14507
# Poissons Ratio (y) = 0.09975 0.38180
# Poissons Ratio (z) = 0.11069 0.12531
#
# Static dielectric constant tensor:
#      x y z
#    x 1.455700 0.114110 0.081450 
#    y 0.114110 1.818620 0.037480 
#    z 0.081450 0.037480 1.789340 
# 
# From -- ./inp_files/235439.got.cif
#   From: 2010.05.17/outbox.cif.g08.bks.cpg/sg2_118_cif.got.tgz:235439.got - 2010.06.03 11:33:40.
