data_PCOD9108923
_publ_section_title
;
Structure prediction by ZEFSAII (Michael W. Deem and Ramdas Pophale) SiO2 
 PCOD9108923
Probable space group: P -1
;
_chemical_formula_sum "Si O2"
_cell_formula_units_Z 16
_cell_length_a 23.001984
_cell_length_b 10.666326
_cell_length_c 5.440091
_cell_angle_alpha 109.262468
_cell_angle_beta 53.051824
_cell_angle_gamma 140.768062
_cell_volume 649.858681
_symmetry_space_group_name_H-M "P -1"
_symmetry_group_IT_number 2
_symmetry_cell_setting 'triclinic'
loop_
_space_group_symop_operation_xyz
x,y,z
-x,-y,-z
loop_
_atom_site_type_symbol
_atom_site_label
_atom_site_fract_x
_atom_site_fract_y
_atom_site_fract_z
Si Si1 0.094435 0.235955 0.729534
Si Si2 0.706693 0.457570 0.246868
Si Si3 0.961551 0.614953 0.383010
Si Si4 0.438886 0.502493 0.357150
Si Si5 0.887268 0.018504 0.391925
Si Si6 0.406889 0.187800 0.470118
Si Si7 0.171042 0.821874 0.634222
Si Si8 0.585146 0.237320 0.898664
O O1 0.165089 0.372725 0.881683
O O2 0.105131 0.364670 0.583339
O O3 0.137152 0.147325 0.491866
O O4 0.960884 0.054366 0.009691
O O5 0.668780 0.557308 0.454535
O O6 0.664903 0.362766 0.018893
O O7 0.644546 0.297042 0.526107
O O8 0.876798 0.376170 0.504975
O O9 0.026479 0.767464 0.543839
O O10 0.066114 0.713332 0.007028
O O11 0.397922 0.333338 0.544980
O O12 0.535447 0.737970 0.362564
O O13 0.500000 0.500000 0.000000
O O14 0.804106 0.014031 0.493267
O O15 0.505320 0.256766 0.103558
O O16 0.286029 0.956099 0.576935
O O17 0.500000 0.000000 0.000000
#
# Coordination Sequence:
#
# PCOD9108923 Si02
#       8
#     2   2   2   2   2   2   2   2
#     4  10  23  38  63  92 122 165 213 260 324 382
#     4  11  24  42  66  95 129 171 214 268 320 383
#     4  10  22  41  60  91 125 157 208 271 312 394
#     4  10  20  41  59  90 124 160 216 264 314 378
#     4  10  21  42  60  90 124 162 213 263 319 388
#     4  10  22  38  63  88 126 167 208 266 319 385
#     4  10  22  39  61  92 121 160 211 254 330 378
#     4  11  25  44  62  95 133 169 217 264 317 392
#
# _framework density 24.620737999999999
#
# number of rings (size 3 to 8) (size 9 to 14) (size 15 to 20)
#    0.000    1.750    1.250    1.875    3.500    2.000 
#    0.000    0.000    0.000    0.000    0.000    0.000 
#    0.000    0.000    0.000    0.000    0.000    0.000 
#
# Total GULP energy -89268.676564 kJ/mol
# GULP energy per Si atom -5579.292285 kJ/mol
# Density = 2.456470 g / cm^3
# Si number density = 24.620738 Si / 1000 Ang^3
#
#
#
# Elastic Constant Matrix: (Units=GPa)
#
#
# Indices 1 2 3 4 5 6 
#
# 1 93.3024 24.5230 8.2435 -3.8785 2.7848 14.1100
# 2 24.5230 102.0140 -3.0101 3.6236 -4.7679 17.0917
# 3 8.2435 -3.0101 43.4660 -4.2481 -4.6962 8.8564
# 4 -3.8785 3.6236 -4.2481 24.0876 2.3256 -1.8488
# 5 2.7848 -4.7679 -4.6962 2.3256 17.6182 -4.5659
# 6 14.1100 17.0917 8.8564 -1.8488 -4.5659 43.5858
#
#
#
# Elastic Compliance Matrix: (Units=1/GPa)
#
#
# Indices 1 2 3 4 5 6 
#
# 1 0.012300 -0.002837 -0.002212 0.002221 -0.004315 -0.002778
# 2 -0.002837 0.011428 0.002235 -0.002406 0.003482 -0.003754
# 3 -0.002212 0.002235 0.025457 0.002850 0.006181 -0.004565
# 4 0.002221 -0.002406 0.002850 0.043359 -0.005737 0.000884
# 5 -0.004315 0.003482 0.006181 -0.005737 0.062094 0.005037
# 6 -0.002778 -0.003754 -0.004565 0.000884 0.005037 0.026807
#
#
# Mechanical properties :
#
#
# Convention : Reuss Voigt Hill
#
# Bulk Modulus (GPa) = 22.95851 33.14390 28.05120
# Shear Modulus (GPa) = 24.80243 30.99340 27.89792
#
# Velocity S-wave (km/s) = 3.17737 3.55185 3.36982
# Velocity P-wave (km/s) = 4.77556 5.50562 5.15354
#
# Compressibility (1/GPa) = 0.04355683
#
# Stress axis : x y z
#
# Youngs Moduli (GPa) = 81.29966 87.50598 39.28133
#
# Poissons Ratio (x) = 0.24828 0.08691
# Poissons Ratio (y) = 0.23067 -0.08781
# Poissons Ratio (z) = 0.17987 -0.19562
#
# Static dielectric constant tensor:
#      x y z
#    x 2.058470 -0.020640 0.010700 
#    y -0.020640 1.981720 -0.010920 
#    z 0.010700 -0.010920 1.996800 
# 
# From -- ./inp_files/77019.got.cif
#   From: 2010.05.17/outbox.cif.g08.bks.cpg/sg2_39_cif.got.tgz:77019.got - 2010.06.03 11:33:40.
