data_PCOD9108154
_publ_section_title
;
Structure prediction by ZEFSAII (Michael W. Deem and Ramdas Pophale) SiO2 
 PCOD9108154
Probable space group: P -1
;
_chemical_formula_sum "Si O2"
_cell_formula_units_Z 16
_cell_length_a 18.289325
_cell_length_b 7.560716
_cell_length_c 8.980519
_cell_angle_alpha 98.987037
_cell_angle_beta 44.952496
_cell_angle_gamma 76.659072
_cell_volume 755.894325
_symmetry_space_group_name_H-M "P -1"
_symmetry_group_IT_number 2
_symmetry_cell_setting 'triclinic'
loop_
_space_group_symop_operation_xyz
x,y,z
-x,-y,-z
loop_
_atom_site_type_symbol
_atom_site_label
_atom_site_fract_x
_atom_site_fract_y
_atom_site_fract_z
Si Si1 0.152708 0.581192 0.946434
Si Si2 0.901459 0.713378 0.855933
Si Si3 0.777475 0.038898 0.830137
Si Si4 0.748663 0.048759 0.369232
Si Si5 0.075303 0.055778 0.659864
Si Si6 0.636375 0.374088 0.326815
Si Si7 0.637931 0.924427 0.781991
Si Si8 0.134232 0.437412 0.628109
O O1 0.125076 0.474046 0.109173
O O2 0.291505 0.504475 0.737986
O O3 0.121467 0.517695 0.825075
O O4 0.066619 0.828917 0.112554
O O5 0.824369 0.868869 0.119336
O O6 0.040168 0.616854 0.682675
O O7 0.856887 0.831934 0.782317
O O8 0.865889 0.062735 0.591432
O O9 0.681223 0.017608 0.864420
O O10 0.706802 0.219776 0.070609
O O11 0.661889 0.243349 0.423342
O O12 0.846487 0.073164 0.330075
O O13 0.673005 0.992188 0.585122
O O14 0.100319 0.252807 0.649823
O O15 0.500000 0.500000 0.500000
O O16 0.727741 0.678962 0.630152
O O17 0.500000 0.000000 0.000000
#
# Coordination Sequence:
#
# PCOD9108154 Si02
#       8
#     2   2   2   2   2   2   2   2
#     4  11  19  33  62  86 114 145 191 226 275 347
#     4  10  16  35  64  89 110 138 186 245 287 315
#     4   9  22  38  56  84 120 143 179 241 290 322
#     4   9  18  39  59  79 111 148 185 233 283 323
#     4   9  17  36  63  84 113 139 185 244 286 317
#     4  11  26  39  53  79 119 160 185 225 276 339
#     4  10  21  36  63  84 110 151 195 227 273 334
#     4   9  17  32  59  92 110 136 186 242 272 322
#
# _framework density 21.166979999999999
#
# number of rings (size 3 to 8) (size 9 to 14) (size 15 to 20)
#    0.000    2.500    3.750    0.750    1.750    6.500 
#    0.000    5.000   11.000    0.000    0.000    0.000 
#    0.000    0.000    0.000    0.000    0.000    0.000 
#
# Total GULP energy -89308.454547 kJ/mol
# GULP energy per Si atom -5581.778409 kJ/mol
# Density = 2.111880 g / cm^3
# Si number density = 21.166980 Si / 1000 Ang^3
#
#
#
# Elastic Constant Matrix: (Units=GPa)
#
#
# Indices 1 2 3 4 5 6 
#
# 1 100.3844 33.3603 47.5874 -1.4724 -20.7939 -25.5734
# 2 33.3603 59.6749 24.5628 1.1907 -9.4247 -30.3521
# 3 47.5874 24.5628 100.9996 2.7044 -22.3013 -14.3777
# 4 -1.4724 1.1907 2.7044 23.2028 -10.8988 -3.9563
# 5 -20.7939 -9.4247 -22.3013 -10.8988 50.5213 5.3093
# 6 -25.5734 -30.3521 -14.3777 -3.9563 5.3093 31.8143
#
#
#
# Elastic Compliance Matrix: (Units=1/GPa)
#
#
# Indices 1 2 3 4 5 6 
#
# 1 0.016242 -0.001881 -0.005129 0.005244 0.004268 0.008883
# 2 -0.001881 0.034827 -0.002849 0.004711 0.002262 0.030635
# 3 -0.005129 -0.002849 0.013586 -0.000386 0.003410 -0.001318
# 4 0.005244 0.004711 -0.000386 0.051336 0.012595 0.012818
# 5 0.004268 0.002262 0.003410 0.012595 0.025732 0.004402
# 6 0.008883 0.030635 -0.001318 0.012818 0.004402 0.068064
#
#
# Mechanical properties :
#
#
# Convention : Reuss Voigt Hill
#
# Bulk Modulus (GPa) = 22.25343 52.45334 37.35338
# Shear Modulus (GPa) = 20.45128 31.47758 25.96443
#
# Velocity S-wave (km/s) = 3.11173 3.86049 3.50615
# Velocity P-wave (km/s) = 4.84217 6.68623 5.83748
#
# Compressibility (1/GPa) = 0.04493690
#
# Stress axis : x y z
#
# Youngs Moduli (GPa) = 61.56781 28.71368 73.60485
#
# Poissons Ratio (x) = 0.05402 0.37750
# Poissons Ratio (y) = 0.11582 0.20971
# Poissons Ratio (z) = 0.31576 0.08181
#
# Static dielectric constant tensor:
#      x y z
#    x 1.802100 0.043510 -0.009150 
#    y 0.043510 1.830290 0.003770 
#    z -0.009150 0.003770 1.785320 
# 
# From -- ./inp_files/251713.got.cif
#   From: 2010.05.17/outbox.cif.g08.bks.cpg/sg2_126_cif.got.tgz:251713.got - 2010.06.03 11:33:40.
