data_PCOD9108587
_publ_section_title
;
Structure prediction by ZEFSAII (Michael W. Deem and Ramdas Pophale) SiO2 
 PCOD9108587
Probable space group: P -1
;
_chemical_formula_sum "Si O2"
_cell_formula_units_Z 16
_cell_length_a 24.637477
_cell_length_b 9.489546
_cell_length_c 8.953008
_cell_angle_alpha 106.708065
_cell_angle_beta 132.478349
_cell_angle_gamma 36.123862
_cell_volume 732.605181
_symmetry_space_group_name_H-M "P -1"
_symmetry_group_IT_number 2
_symmetry_cell_setting 'triclinic'
loop_
_space_group_symop_operation_xyz
x,y,z
-x,-y,-z
loop_
_atom_site_type_symbol
_atom_site_label
_atom_site_fract_x
_atom_site_fract_y
_atom_site_fract_z
Si Si1 0.560577 0.799802 0.915993
Si Si2 0.116726 0.003055 0.075091
Si Si3 0.318296 0.723005 0.912796
Si Si4 0.809703 0.442855 0.038323
Si Si5 0.541037 0.515544 0.427130
Si Si6 0.902730 0.725091 0.102723
Si Si7 0.927807 0.832285 0.635572
Si Si8 0.663011 0.892136 0.660233
O O1 0.419457 0.007226 0.612939
O O2 0.636738 0.518066 0.029503
O O3 0.687224 0.654651 0.004933
O O4 0.500000 0.000000 0.000000
O O5 0.056399 0.104839 0.161359
O O6 0.284644 0.769491 0.336333
O O7 0.039889 0.261451 0.910441
O O8 0.127222 0.829453 0.958842
O O9 0.198606 0.004139 0.889818
O O10 0.233957 0.872215 0.645125
O O11 0.466244 0.561443 0.164714
O O12 0.946717 0.315124 0.282810
O O13 0.728953 0.643220 0.800199
O O14 0.500000 0.500000 0.500000
O O15 0.464088 0.807420 0.386214
O O16 0.028947 0.410832 0.322528
O O17 0.790571 0.794709 0.851375
#
# Coordination Sequence:
#
# PCOD9108587 Si02
#       8
#     2   2   2   2   2   2   2   2
#     4  12  24  40  67  99 132 168 215 274 335 382
#     4  12  21  41  71  94 128 176 224 263 317 391
#     4  11  22  44  66  94 136 167 215 275 337 371
#     4  11  24  44  63  93 138 179 210 264 324 397
#     4  11  18  39  73  91 120 172 218 272 323 375
#     4  10  20  45  71  90 127 179 220 265 316 393
#     4  11  27  39  63 102 135 172 218 264 326 388
#     4  10  20  40  69  96 125 167 222 267 328 382
#
# _framework density 21.839869
#
# number of rings (size 3 to 8) (size 9 to 14) (size 15 to 20)
#    0.000    1.000    6.250    1.500    1.750    1.000 
#    0.000    8.750    0.000    0.000    0.000    0.000 
#    0.000    0.000    0.000    0.000    0.000    0.000 
#
# Total GULP energy -89481.123944 kJ/mol
# GULP energy per Si atom -5592.570247 kJ/mol
# Density = 2.179016 g / cm^3
# Si number density = 21.839869 Si / 1000 Ang^3
#
#
#
# Elastic Constant Matrix: (Units=GPa)
#
#
# Indices 1 2 3 4 5 6 
#
# 1 81.2984 51.1834 42.5094 2.6595 -8.6171 11.9676
# 2 51.1834 103.1604 28.8449 0.7956 -10.2621 7.5876
# 3 42.5094 28.8449 98.6831 -10.0564 -12.6186 23.1885
# 4 2.6595 0.7956 -10.0564 30.7890 0.0094 -6.2945
# 5 -8.6171 -10.2621 -12.6186 0.0094 15.0381 -8.3461
# 6 11.9676 7.5876 23.1885 -6.2945 -8.3461 34.2838
#
#
#
# Elastic Compliance Matrix: (Units=1/GPa)
#
#
# Indices 1 2 3 4 5 6 
#
# 1 0.021777 -0.008745 -0.006854 -0.004279 -0.000284 -0.001885
# 2 -0.008745 0.014487 0.000005 0.000653 0.005617 0.001331
# 3 -0.006854 0.000005 0.015703 0.004501 0.005944 -0.005956
# 4 -0.004279 0.000653 0.004501 0.035543 0.005121 0.006077
# 5 -0.000284 0.005617 0.005944 0.005121 0.084181 0.016269
# 6 -0.001885 0.001331 -0.005956 0.006077 0.016269 0.038637
#
#
# Mechanical properties :
#
#
# Convention : Reuss Voigt Hill
#
# Bulk Modulus (GPa) = 48.12725 58.69080 53.40903
# Shear Modulus (GPa) = 20.12531 26.72913 23.42722
#
# Velocity S-wave (km/s) = 3.03891 3.50218 3.27873
# Velocity P-wave (km/s) = 5.86494 6.57915 6.23229
#
# Compressibility (1/GPa) = 0.02077825
#
# Stress axis : x y z
#
# Youngs Moduli (GPa) = 45.91942 69.02728 63.68254
#
# Poissons Ratio (x) = 0.60364 0.43649
# Poissons Ratio (y) = 0.40156 -0.00029
# Poissons Ratio (z) = 0.31474 -0.00032
#
# Static dielectric constant tensor:
#      x y z
#    x 1.825780 -0.017060 -0.019720 
#    y -0.017060 1.795450 0.002980 
#    z -0.019720 0.002980 1.805480 
# 
# From -- ./inp_files/352264.got.cif
#   From: 2010.05.17/outbox.cif.g08.bks.cpg/sg2_177_cif.got.tgz:352264.got - 2010.06.03 11:33:40.
