data_PCOD9108270
_publ_section_title
;
Structure prediction by ZEFSAII (Michael W. Deem and Ramdas Pophale) SiO2 
 PCOD9108270
Probable space group: P -1
;
_chemical_formula_sum "Si O2"
_cell_formula_units_Z 16
_cell_length_a 10.934034
_cell_length_b 9.825743
_cell_length_c 10.991713
_cell_angle_alpha 41.719507
_cell_angle_beta 98.754783
_cell_angle_gamma 78.247827
_cell_volume 680.362169
_symmetry_space_group_name_H-M "P -1"
_symmetry_group_IT_number 2
_symmetry_cell_setting 'triclinic'
loop_
_space_group_symop_operation_xyz
x,y,z
-x,-y,-z
loop_
_atom_site_type_symbol
_atom_site_label
_atom_site_fract_x
_atom_site_fract_y
_atom_site_fract_z
Si Si1 0.854161 0.806452 0.768591
Si Si2 0.194744 0.472967 0.269296
Si Si3 0.365802 0.709988 0.091205
Si Si4 0.582480 0.002080 0.285547
Si Si5 0.360026 0.729250 0.674507
Si Si6 0.878367 0.382039 0.203105
Si Si7 0.626580 0.971736 0.948861
Si Si8 0.060536 0.440220 0.684389
O O1 0.825559 0.682814 0.731460
O O2 0.005393 0.781068 0.769331
O O3 0.566853 0.948483 0.825601
O O4 0.736823 0.073772 0.568485
O O5 0.322660 0.274018 0.498872
O O6 0.247943 0.635426 0.109335
O O7 0.052407 0.614902 0.228096
O O8 0.342170 0.912926 0.858442
O O9 0.363572 0.797859 0.169496
O O10 0.500000 0.000000 0.000000
O O11 0.515876 0.494893 0.220175
O O12 0.574360 0.150886 0.305035
O O13 0.257971 0.653884 0.782991
O O14 0.855350 0.639032 0.987664
O O15 0.941051 0.354146 0.368310
O O16 0.776553 0.757556 0.151654
O O17 0.000000 0.500000 0.500000
#
# Coordination Sequence:
#
# PCOD9108270 Si02
#       8
#     2   2   2   2   2   2   2   2
#     4   9  21  39  62  98 135 167 214 274 331 384
#     4  10  23  41  65  95 130 171 217 271 324 387
#     4  11  23  38  61  93 128 171 219 263 319 388
#     4  10  22  42  66  96 134 171 214 271 327 382
#     4  11  22  37  67 100 129 172 219 267 326 392
#     4  10  20  40  67  96 133 172 217 273 327 386
#     4  10  22  41  63  91 129 169 212 266 322 382
#     4  11  23  43  68  92 128 177 220 267 328 388
#
# _framework density 23.516888000000002
#
# number of rings (size 3 to 8) (size 9 to 14) (size 15 to 20)
#    0.000    1.750    0.000    4.500    0.000    6.000 
#    0.000    5.000    0.000    0.000    0.000    0.000 
#    0.000    0.000    0.000    0.000    0.000    0.000 
#
# Total GULP energy -89375.232575 kJ/mol
# GULP energy per Si atom -5585.952036 kJ/mol
# Density = 2.346336 g / cm^3
# Si number density = 23.516888 Si / 1000 Ang^3
#
#
#
# Elastic Constant Matrix: (Units=GPa)
#
#
# Indices 1 2 3 4 5 6 
#
# 1 87.2857 29.6017 20.1098 5.0253 18.5899 -12.5952
# 2 29.6017 57.8404 28.5032 4.6637 9.0932 1.0363
# 3 20.1098 28.5032 105.3702 12.4161 23.3353 -2.0536
# 4 5.0253 4.6637 12.4161 14.4180 -0.7504 -0.5829
# 5 18.5899 9.0932 23.3353 -0.7504 40.3550 1.3842
# 6 -12.5952 1.0363 -2.0536 -0.5829 1.3842 34.1767
#
#
#
# Elastic Compliance Matrix: (Units=1/GPa)
#
#
# Indices 1 2 3 4 5 6 
#
# 1 0.016437 -0.007644 0.001058 -0.004255 -0.006765 0.006554
# 2 -0.007644 0.023697 -0.005260 -0.000559 0.001347 -0.003916
# 3 0.001058 -0.005260 0.013658 -0.010756 -0.007451 0.001488
# 4 -0.004255 -0.000559 -0.010756 0.080748 0.009849 -0.001219
# 5 -0.006765 0.001347 -0.007451 0.009849 0.032226 -0.004119
# 6 0.006554 -0.003916 0.001488 -0.001219 -0.004119 0.032029
#
#
# Mechanical properties :
#
#
# Convention : Reuss Voigt Hill
#
# Bulk Modulus (GPa) = 33.22368 45.21397 39.21883
# Shear Modulus (GPa) = 21.50358 29.27540 25.38949
#
# Velocity S-wave (km/s) = 3.02717 3.53209 3.28933
# Velocity P-wave (km/s) = 5.13581 5.99184 5.58027
#
# Compressibility (1/GPa) = 0.03009901
#
# Stress axis : x y z
#
# Youngs Moduli (GPa) = 60.83888 42.20001 73.21819
#
# Poissons Ratio (x) = 0.32259 -0.07748
# Poissons Ratio (y) = 0.46507 0.38513
# Poissons Ratio (z) = -0.06438 0.22197
#
# Static dielectric constant tensor:
#      x y z
#    x 1.929080 0.037630 0.030030 
#    y 0.037630 1.962740 0.032370 
#    z 0.030030 0.032370 1.978110 
# 
# From -- ./inp_files/265019.got.cif
#   From: 2010.05.17/outbox.cif.g08.bks.cpg/sg2_133_cif.got.tgz:265019.got - 2010.06.03 11:33:40.
