data_PCOD9108779
_publ_section_title
;
Structure prediction by ZEFSAII (Michael W. Deem and Ramdas Pophale) SiO2 
 PCOD9108779
Probable space group: P -1
;
_chemical_formula_sum "Si O2"
_cell_formula_units_Z 14
_cell_length_a 11.437795
_cell_length_b 8.837841
_cell_length_c 8.755638
_cell_angle_alpha 49.939101
_cell_angle_beta 74.886498
_cell_angle_gamma 92.427617
_cell_volume 626.953898
_symmetry_space_group_name_H-M "P -1"
_symmetry_group_IT_number 2
_symmetry_cell_setting 'triclinic'
loop_
_space_group_symop_operation_xyz
x,y,z
-x,-y,-z
loop_
_atom_site_type_symbol
_atom_site_label
_atom_site_fract_x
_atom_site_fract_y
_atom_site_fract_z
Si Si1 0.177430 0.605501 0.930172
Si Si2 0.630540 0.658567 0.408299
Si Si3 0.322740 0.174833 0.308936
Si Si4 0.060126 0.951698 0.668256
Si Si5 0.808224 0.808240 0.966634
Si Si6 0.578270 0.072583 0.255372
Si Si7 0.701074 0.435941 0.802867
O O1 0.082896 0.727143 0.822297
O O2 0.314545 0.774717 0.775638
O O3 0.181526 0.412877 0.953337
O O4 0.170939 0.547552 0.152409
O O5 0.500000 0.500000 0.500000
O O6 0.699108 0.527623 0.577209
O O7 0.591404 0.845034 0.382577
O O8 0.726550 0.767533 0.172186
O O9 0.265578 0.121873 0.193194
O O10 0.441461 0.087574 0.335739
O O11 0.363104 0.419742 0.166981
O O12 0.202196 0.099086 0.513813
O O13 0.952886 0.954336 0.827695
O O14 0.000000 0.000000 0.500000
O O15 0.618049 0.199388 0.999081
#
# Coordination Sequence:
#
# PCOD9108779 Si02
#       7
#     2   2   2   2   2   2   2
#     4   9  21  42  67  89 127 170 218 263 312 383
#     4  12  26  40  63  99 139 167 210 268 334 383
#     4  10  20  40  71  96 126 173 221 266 313 387
#     4  10  21  39  66  99 127 163 220 271 317 371
#     4  10  23  41  63  96 133 168 214 271 317 379
#     4  10  23  41  69  94 133 168 217 262 331 375
#     4   9  22  41  63  95 132 170 214 263 319 386
#
# _framework density 22.330190999999999
#
# number of rings (size 3 to 8) (size 9 to 14) (size 15 to 20)
#    0.857    1.143    0.000    2.571    4.000    3.429 
#    2.571    3.571    0.000    0.000    0.000    0.000 
#    0.000    0.000    0.000    0.000    0.000    0.000 
#
# Total GULP energy -77982.548351 kJ/mol
# GULP energy per Si atom -5570.182025 kJ/mol
# Density = 2.227937 g / cm^3
# Si number density = 22.330191 Si / 1000 Ang^3
#
#
#
# Elastic Constant Matrix: (Units=GPa)
#
#
# Indices 1 2 3 4 5 6 
#
# 1 150.9149 32.9386 44.9790 1.3502 3.3210 -14.4137
# 2 32.9386 52.5267 22.8216 -11.5976 -4.2063 -1.2057
# 3 44.9790 22.8216 122.0722 11.1909 -6.3801 -3.4239
# 4 1.3502 -11.5976 11.1909 36.9802 -5.7333 3.8234
# 5 3.3210 -4.2063 -6.3801 -5.7333 45.3008 -1.8106
# 6 -14.4137 -1.2057 -3.4239 3.8234 -1.8106 13.1947
#
#
#
# Elastic Compliance Matrix: (Units=1/GPa)
#
#
# Indices 1 2 3 4 5 6 
#
# 1 0.009425 -0.005537 -0.001986 -0.002722 -0.001435 0.009866
# 2 -0.005537 0.026820 -0.004022 0.011129 0.003443 -0.007393
# 3 -0.001986 -0.004022 0.010147 -0.004297 0.000715 0.001439
# 4 -0.002722 0.011129 -0.004297 0.033888 0.004425 -0.012284
# 5 -0.001435 0.003443 0.000715 0.004425 0.023194 0.000833
# 6 0.009866 -0.007393 0.001439 -0.012284 0.000833 0.089937
#
#
# Mechanical properties :
#
#
# Convention : Reuss Voigt Hill
#
# Bulk Modulus (GPa) = 42.91259 58.55469 50.73364
# Shear Modulus (GPa) = 22.29481 34.08011 28.18746
#
# Velocity S-wave (km/s) = 3.16320 3.91089 3.55674
# Velocity P-wave (km/s) = 5.70965 6.83173 6.29574
#
# Compressibility (1/GPa) = 0.02330318
#
# Stress axis : x y z
#
# Youngs Moduli (GPa) = 106.10193 37.28526 98.54782
#
# Poissons Ratio (x) = 0.20643 0.19576
# Poissons Ratio (y) = 0.58744 0.39633
# Poissons Ratio (z) = 0.21076 0.14995
#
# Static dielectric constant tensor:
#      x y z
#    x 1.876340 0.054940 0.053540 
#    y 0.054940 1.797340 -0.003610 
#    z 0.053540 -0.003610 2.016240 
# 
# From -- ./inp_files/237062.got.cif
#   From: 2010.05.17/outbox.cif.g08.bks.cpg/sg2_119_cif.got.tgz:237062.got - 2010.06.03 11:33:40.
