data_PCOD9108902
_publ_section_title
;
Structure prediction by ZEFSAII (Michael W. Deem and Ramdas Pophale) SiO2 
 PCOD9108902
Probable space group: P -1
;
_chemical_formula_sum "Si O2"
_cell_formula_units_Z 16
_cell_length_a 7.894818
_cell_length_b 16.948494
_cell_length_c 7.714371
_cell_angle_alpha 95.352379
_cell_angle_beta 59.459863
_cell_angle_gamma 126.069349
_cell_volume 686.457512
_symmetry_space_group_name_H-M "P -1"
_symmetry_group_IT_number 2
_symmetry_cell_setting 'triclinic'
loop_
_space_group_symop_operation_xyz
x,y,z
-x,-y,-z
loop_
_atom_site_type_symbol
_atom_site_label
_atom_site_fract_x
_atom_site_fract_y
_atom_site_fract_z
Si Si1 0.184657 0.495630 0.794149
Si Si2 0.267794 0.299552 0.480716
Si Si3 0.186741 0.216551 0.880086
Si Si4 0.751208 0.115325 0.678767
Si Si5 0.365303 0.877929 0.868706
Si Si6 0.962572 0.595379 0.504102
Si Si7 0.588929 0.205386 0.514925
Si Si8 0.449938 0.425814 0.859637
O O1 0.431754 0.614614 0.667025
O O2 0.009638 0.425778 0.709842
O O3 0.293673 0.443259 0.813183
O O4 0.000000 0.500000 0.000000
O O5 0.224302 0.281002 0.704431
O O6 0.165888 0.351417 0.449631
O O7 0.055025 0.181271 0.509748
O O8 0.333753 0.176020 0.731184
O O9 0.320583 0.310822 0.964029
O O10 0.889547 0.137928 0.056139
O O11 0.652449 0.142091 0.575933
O O12 0.606644 0.996036 0.746556
O O13 0.683272 0.145372 0.902322
O O14 0.400223 0.814770 0.699494
O O15 0.736002 0.480882 0.660356
O O16 0.195334 0.674927 0.523034
O O17 0.500000 0.500000 0.000000
#
# Coordination Sequence:
#
# PCOD9108902 Si02
#       8
#     2   2   2   2   2   2   2   2
#     4  11  22  37  63  90 124 168 213 255 317 378
#     4   9  18  41  61  81 123 166 199 260 313 368
#     4  11  22  39  62  94 131 162 215 268 310 385
#     4   9  21  44  71  91 126 165 216 265 322 389
#     4  10  22  45  69  93 125 173 210 266 332 377
#     4  10  20  41  57  84 125 165 211 252 309 379
#     4  11  24  40  64  96 130 165 216 267 320 381
#     4  11  22  38  58  86 125 171 207 258 317 372
#
# _framework density 23.308071000000002
#
# number of rings (size 3 to 8) (size 9 to 14) (size 15 to 20)
#    0.000    1.750    2.500    1.875    1.750    3.000 
#    0.000    6.875    0.000    0.000    0.000    0.000 
#    0.000    0.000    0.000    0.000    0.000    0.000 
#
# Total GULP energy -89092.835708 kJ/mol
# GULP energy per Si atom -5568.302232 kJ/mol
# Density = 2.325502 g / cm^3
# Si number density = 23.308071 Si / 1000 Ang^3
#
#
#
# Elastic Constant Matrix: (Units=GPa)
#
#
# Indices 1 2 3 4 5 6 
#
# 1 62.4337 13.3635 2.0584 0.9861 3.9701 2.5711
# 2 13.3635 93.1329 39.5652 -0.2226 -12.8832 21.1103
# 3 2.0584 39.5652 68.0827 17.5838 -6.8835 12.6331
# 4 0.9861 -0.2226 17.5838 44.0621 11.3296 4.2994
# 5 3.9701 -12.8832 -6.8835 11.3296 32.6434 -5.8737
# 6 2.5711 21.1103 12.6331 4.2994 -5.8737 18.6475
#
#
#
# Elastic Compliance Matrix: (Units=1/GPa)
#
#
# Indices 1 2 3 4 5 6 
#
# 1 0.016894 -0.003249 0.001131 0.000013 -0.003179 -0.000422
# 2 -0.003249 0.018736 -0.009078 0.004919 0.001415 -0.015301
# 3 0.001131 -0.009078 0.023423 -0.010378 0.004471 -0.001946
# 4 0.000013 0.004919 -0.010378 0.031102 -0.012796 -0.009741
# 5 -0.003179 0.001415 0.004471 -0.012796 0.038947 0.011026
# 6 -0.000422 -0.015301 -0.001946 -0.009741 0.011026 0.078044
#
#
# Mechanical properties :
#
#
# Convention : Reuss Voigt Hill
#
# Bulk Modulus (GPa) = 27.27690 37.06928 32.17309
# Shear Modulus (GPa) = 20.68184 30.31475 25.49829
#
# Velocity S-wave (km/s) = 2.98203 3.61031 3.31111
# Velocity P-wave (km/s) = 4.85642 5.77215 5.33397
#
# Compressibility (1/GPa) = 0.03666106
#
# Stress axis : x y z
#
# Youngs Moduli (GPa) = 59.19137 53.37410 42.69323
#
# Poissons Ratio (x) = 0.17339 -0.04827
# Poissons Ratio (y) = 0.19228 0.38757
# Poissons Ratio (z) = -0.06693 0.48454
#
# Static dielectric constant tensor:
#      x y z
#    x 1.957720 0.109540 0.059730 
#    y 0.109540 2.179620 0.057760 
#    z 0.059730 0.057760 2.064790 
# 
# From -- ./inp_files/215338.got.cif
#   From: 2010.05.17/outbox.cif.g08.bks.cpg/sg2_108_cif.got.tgz:215338.got - 2010.06.03 11:33:40.
