data_PCOD9108584
_publ_section_title
;
Structure prediction by ZEFSAII (Michael W. Deem and Ramdas Pophale) SiO2 
 PCOD9108584
Probable space group: P -1
;
_chemical_formula_sum "Si O2"
_cell_formula_units_Z 16
_cell_length_a 9.484579
_cell_length_b 11.263061
_cell_length_c 14.649767
_cell_angle_alpha 112.135512
_cell_angle_beta 63.838106
_cell_angle_gamma 57.112763
_cell_volume 679.220398
_symmetry_space_group_name_H-M "P -1"
_symmetry_group_IT_number 2
_symmetry_cell_setting 'triclinic'
loop_
_space_group_symop_operation_xyz
x,y,z
-x,-y,-z
loop_
_atom_site_type_symbol
_atom_site_label
_atom_site_fract_x
_atom_site_fract_y
_atom_site_fract_z
Si Si1 0.452254 0.207850 0.555824
Si Si2 0.856445 0.066997 0.158236
Si Si3 0.935746 0.758837 0.390607
Si Si4 0.704214 0.948669 0.063030
Si Si5 0.449801 0.536256 0.918659
Si Si6 0.776139 0.556932 0.127693
Si Si7 0.899488 0.720224 0.600497
Si Si8 0.145236 0.663391 0.692117
O O1 0.210740 0.279362 0.601241
O O2 0.406849 0.235987 0.686253
O O3 0.370983 0.400843 0.594049
O O4 0.798722 0.925572 0.384818
O O5 0.625458 0.122794 0.203253
O O6 0.125734 0.821005 0.069151
O O7 0.743461 0.272027 0.298754
O O8 0.000000 0.000000 0.000000
O O9 0.887180 0.793364 0.525293
O O10 0.285442 0.560117 0.227797
O O11 0.426887 0.050509 0.190354
O O12 0.002334 0.685738 0.947404
O O13 0.824622 0.883689 0.906531
O O14 0.434339 0.397747 0.850839
O O15 0.500000 0.500000 0.000000
O O16 0.000000 0.500000 0.000000
O O17 0.000000 0.500000 0.500000
O O18 0.092165 0.664168 0.603174
#
# Coordination Sequence:
#
# PCOD9108584 Si02
#       8
#     2   2   2   2   2   2   2   2
#     4  10  22  42  63  96 131 187 219 265 344 396
#     4   9  21  41  70  94 129 175 232 278 332 388
#     4  11  25  43  66  91 146 174 221 282 338 400
#     4   9  21  40  67  93 130 175 225 272 328 405
#     4  11  25  44  68 101 128 176 229 282 337 396
#     4  10  20  40  69  95 125 169 229 271 331 409
#     4  12  24  39  63 107 135 173 221 280 343 390
#     4  10  21  42  68  99 130 179 231 275 325 409
#
# _framework density 23.556418000000001
#
# number of rings (size 3 to 8) (size 9 to 14) (size 15 to 20)
#    0.000    1.750    1.250    2.625    3.500    7.500 
#    0.000    1.875    0.000    0.000    0.000    0.000 
#    0.000    0.000    0.000    0.000    0.000    0.000 
#
# Total GULP energy -89118.716725 kJ/mol
# GULP energy per Si atom -5569.919795 kJ/mol
# Density = 2.350280 g / cm^3
# Si number density = 23.556418 Si / 1000 Ang^3
#
#
#
# Elastic Constant Matrix: (Units=GPa)
#
#
# Indices 1 2 3 4 5 6 
#
# 1 150.6518 63.3583 55.7838 -12.4081 15.7291 -19.3089
# 2 63.3583 122.5353 35.1522 -15.5000 15.5549 -17.3399
# 3 55.7838 35.1522 49.2256 -19.0675 -11.7471 -6.9851
# 4 -12.4081 -15.5000 -19.0675 33.5442 1.9873 9.9901
# 5 15.7291 15.5549 -11.7471 1.9873 49.3039 -5.9211
# 6 -19.3089 -17.3399 -6.9851 9.9901 -5.9211 32.5191
#
#
#
# Elastic Compliance Matrix: (Units=1/GPa)
#
#
# Indices 1 2 3 4 5 6 
#
# 1 0.016339 -0.001193 -0.022296 -0.008156 -0.009207 0.005106
# 2 -0.001193 0.012183 -0.008126 -0.000072 -0.005018 0.003151
# 3 -0.022296 -0.008126 0.066193 0.026366 0.023524 -0.007170
# 4 -0.008156 -0.000072 0.026366 0.044990 0.005651 -0.012011
# 5 -0.009207 -0.005018 0.023524 0.005651 0.030262 0.000685
# 6 0.005106 0.003151 -0.007170 -0.012011 0.000685 0.037737
#
#
# Mechanical properties :
#
#
# Convention : Reuss Voigt Hill
#
# Bulk Modulus (GPa) = 31.76155 70.11127 50.93641
# Shear Modulus (GPa) = 17.76643 34.28132 26.02388
#
# Velocity S-wave (km/s) = 2.74926 3.81896 3.32738
# Velocity P-wave (km/s) = 4.85699 7.01952 6.03590
#
# Compressibility (1/GPa) = 0.03148461
#
# Stress axis : x y z
#
# Youngs Moduli (GPa) = 61.20271 82.08460 15.10729
#
# Poissons Ratio (x) = 0.09790 0.33683
# Poissons Ratio (y) = 0.07299 0.12277
# Poissons Ratio (z) = 1.36458 0.66705
#
# Static dielectric constant tensor:
#      x y z
#    x 1.885440 0.235710 0.241270 
#    y 0.235710 1.549760 -0.488620 
#    z 0.241270 -0.488620 1.282500 
# 
# From -- ./inp_files/500688.got.cif
#   From: 2010.05.17/outbox.cif.g08.bks.cpg/sg2_251_cif.got.tgz:500688.got - 2010.06.03 11:33:40.
