data_PCOD9108496
_publ_section_title
;
Structure prediction by ZEFSAII (Michael W. Deem and Ramdas Pophale) SiO2 
 PCOD9108496
Probable space group: P -1
;
_chemical_formula_sum "Si O2"
_cell_formula_units_Z 15
_cell_length_a 17.893462
_cell_length_b 14.485495
_cell_length_c 11.483742
_cell_angle_alpha 32.593133
_cell_angle_beta 149.219852
_cell_angle_gamma 157.019663
_cell_volume 574.546016
_symmetry_space_group_name_H-M "P -1"
_symmetry_group_IT_number 2
_symmetry_cell_setting 'triclinic'
loop_
_space_group_symop_operation_xyz
x,y,z
-x,-y,-z
loop_
_atom_site_type_symbol
_atom_site_label
_atom_site_fract_x
_atom_site_fract_y
_atom_site_fract_z
Si Si1 0.385844 0.092419 0.881042
Si Si2 0.079542 0.977940 0.874921
Si Si3 0.479791 0.781050 0.725862
Si Si4 0.536491 0.723161 0.601288
Si Si5 0.000000 0.000000 0.500000
Si Si6 0.256767 0.468219 0.969435
Si Si7 0.142821 0.840419 0.586001
Si Si8 0.162067 0.604031 0.207617
O O1 0.311026 0.973944 0.777032
O O2 0.238666 0.132715 0.657739
O O3 0.620989 0.334852 0.971460
O O4 0.319131 0.892525 0.098821
O O5 0.990075 0.870220 0.742024
O O6 0.976076 0.770089 0.052948
O O7 0.001607 0.108468 0.652201
O O8 0.323106 0.146907 0.026518
O O9 0.483023 0.698943 0.690571
O O10 0.500000 0.000000 0.500000
O O11 0.287962 0.585755 0.763013
O O12 0.633104 0.624474 0.800578
O O13 0.307348 0.564213 0.409810
O O14 0.711039 0.007399 0.491226
O O15 0.973573 0.550686 0.695070
O O16 0.000000 0.500000 0.000000
#
# Coordination Sequence:
#
# PCOD9108496 Si02
#       8
#     2   2   2   2   1   2   2   2
#     4  10  21  40  65 101 140 175 227 283 340 412
#     4  10  23  43  72 101 132 184 228 287 342 412
#     4  12  26  47  66  98 145 182 234 281 342 414
#     4  11  25  42  69  98 138 180 226 293 335 414
#     4  10  20  40  68  98 136 174 222 278 338 400
#     4  11  24  45  70 103 133 183 237 279 347 406
#     4   9  22  43  66 102 134 178 231 280 348 402
#     4  10  22  41  63  98 137 182 221 283 346 397
#
# _framework density 26.107571
#
# number of rings (size 3 to 8) (size 9 to 14) (size 15 to 20)
#    0.000    1.600    1.333    2.000    3.733   10.667 
#    4.800    0.000    0.000    0.000    0.000    0.000 
#    0.000    0.000    0.000    0.000    0.000    0.000 
#
# Total GULP energy -83654.071173 kJ/mol
# GULP energy per Si atom -5576.938078 kJ/mol
# Density = 2.604815 g / cm^3
# Si number density = 26.107571 Si / 1000 Ang^3
#
#
#
# Elastic Constant Matrix: (Units=GPa)
#
#
# Indices 1 2 3 4 5 6 
#
# 1 56.7414 14.2041 22.0473 -5.1212 -8.7314 -1.2733
# 2 14.2041 73.6870 21.3678 -28.3401 -16.3266 22.7540
# 3 22.0473 21.3678 110.8349 -15.9926 -12.9045 6.2562
# 4 -5.1212 -28.3401 -15.9926 39.4324 14.8065 -13.6899
# 5 -8.7314 -16.3266 -12.9045 14.8065 52.6249 -8.6872
# 6 -1.2733 22.7540 6.2562 -13.6899 -8.6872 39.7031
#
#
#
# Elastic Compliance Matrix: (Units=1/GPa)
#
#
# Indices 1 2 3 4 5 6 
#
# 1 0.020245 -0.003991 -0.003374 -0.001213 0.002218 0.003535
# 2 -0.003991 0.021903 -0.001169 0.011394 0.001272 -0.008289
# 3 -0.003374 -0.001169 0.010399 0.002609 0.000897 0.000019
# 4 -0.001213 0.011394 0.002609 0.038430 -0.006022 0.004954
# 5 0.002218 0.001272 0.000897 -0.006022 0.021999 0.001938
# 6 0.003535 -0.008289 0.000019 0.004954 0.001938 0.032180
#
#
# Mechanical properties :
#
#
# Convention : Reuss Voigt Hill
#
# Bulk Modulus (GPa) = 28.18530 39.61129 33.89829
# Shear Modulus (GPa) = 28.72753 38.59502 33.66128
#
# Velocity S-wave (km/s) = 3.32075 3.84905 3.59462
# Velocity P-wave (km/s) = 5.05198 5.91260 5.49915
#
# Compressibility (1/GPa) = 0.03547949
#
# Stress axis : x y z
#
# Youngs Moduli (GPa) = 49.39475 45.65654 96.16572
#
# Poissons Ratio (x) = 0.18220 0.32447
# Poissons Ratio (y) = 0.19712 0.11239
# Poissons Ratio (z) = 0.16666 0.05336
#
# Static dielectric constant tensor:
#      x y z
#    x 2.124450 -0.090290 0.030580 
#    y -0.090290 2.089630 -0.050100 
#    z 0.030580 -0.050100 2.046350 
# 
# From -- ./inp_files/472369.got.cif
#   From: 2010.05.17/outbox.cif.g08.bks.cpg/sg2_237_cif.got.tgz:472369.got - 2010.06.03 11:33:40.
