data_PCOD9108365
_publ_section_title
;
Structure prediction by ZEFSAII (Michael W. Deem and Ramdas Pophale) SiO2 
 PCOD9108365
Probable space group: P -1
;
_chemical_formula_sum "Si O2"
_cell_formula_units_Z 16
_cell_length_a 9.207069
_cell_length_b 9.317734
_cell_length_c 11.158950
_cell_angle_alpha 139.406910
_cell_angle_beta 90.893367
_cell_angle_gamma 84.621513
_cell_volume 617.878802
_symmetry_space_group_name_H-M "P -1"
_symmetry_group_IT_number 2
_symmetry_cell_setting 'triclinic'
loop_
_space_group_symop_operation_xyz
x,y,z
-x,-y,-z
loop_
_atom_site_type_symbol
_atom_site_label
_atom_site_fract_x
_atom_site_fract_y
_atom_site_fract_z
Si Si1 0.295403 0.136931 0.765809
Si Si2 0.306799 0.442293 0.419902
Si Si3 0.729601 0.403519 0.220925
Si Si4 0.041153 0.493415 0.286352
Si Si5 0.547462 0.041060 0.893302
Si Si6 0.229361 0.605867 0.127302
Si Si7 0.988520 0.984853 0.635011
Si Si8 0.544552 0.286494 0.616736
O O1 0.143453 0.036938 0.720906
O O2 0.403692 0.132854 0.876787
O O3 0.388590 0.966336 0.569426
O O4 0.247730 0.397161 0.907349
O O5 0.284927 0.601668 0.636340
O O6 0.387154 0.201578 0.306139
O O7 0.391462 0.564819 0.394762
O O8 0.158577 0.393644 0.321384
O O9 0.901837 0.374124 0.182001
O O10 0.627585 0.635997 0.338732
O O11 0.656014 0.223392 0.029607
O O12 0.129245 0.535808 0.192989
O O13 0.972594 0.729785 0.492578
O O14 0.500000 0.000000 0.000000
O O15 0.143134 0.830476 0.216714
O O16 0.380987 0.652764 0.219213
O O17 0.000000 0.000000 0.500000
#
# Coordination Sequence:
#
# PCOD9108365 Si02
#       8
#     2   2   2   2   2   2   2   2
#     4  12  20  37  67  93 115 154 210 253 290 355
#     4  11  21  39  59  87 120 171 203 236 298 365
#     4  12  23  39  59  89 133 156 199 253 302 360
#     4  10  23  41  59  91 126 160 196 255 309 352
#     4  12  23  35  62  93 121 163 204 244 295 357
#     4  10  21  41  65  91 115 155 210 250 300 359
#     4  10  20  40  68  88 116 158 208 254 300 355
#     4  11  20  37  64  87 120 160 207 245 291 364
#
# _framework density 25.895043000000001
#
# number of rings (size 3 to 8) (size 9 to 14) (size 15 to 20)
#    0.000    1.000    7.500    2.625    0.000    0.500 
#    2.250    0.625    0.000    3.750    0.000    0.000 
#    0.000    0.000    0.000    0.000    0.000    0.000 
#
# Total GULP energy -89672.262224 kJ/mol
# GULP energy per Si atom -5604.516389 kJ/mol
# Density = 2.583611 g / cm^3
# Si number density = 25.895043 Si / 1000 Ang^3
#
#
#
# Elastic Constant Matrix: (Units=GPa)
#
#
# Indices 1 2 3 4 5 6 
#
# 1 107.6502 40.0070 19.5875 -25.1055 14.2692 -34.6586
# 2 40.0070 62.6654 22.9351 1.8966 -6.9686 -19.0209
# 3 19.5875 22.9351 135.2034 2.6212 2.0791 -2.9523
# 4 -25.1055 1.8966 2.6212 44.9916 -14.3990 -6.5173
# 5 14.2692 -6.9686 2.0791 -14.3990 54.0535 -14.7560
# 6 -34.6586 -19.0209 -2.9523 -6.5173 -14.7560 37.4232
#
#
#
# Elastic Compliance Matrix: (Units=1/GPa)
#
#
# Indices 1 2 3 4 5 6 
#
# 1 0.023206 -0.007489 -0.002011 0.017787 0.003759 0.022106
# 2 -0.007489 0.025192 -0.003089 -0.001590 0.007149 0.008166
# 3 -0.002011 -0.003089 0.008206 -0.002699 -0.002006 -0.004047
# 4 0.017787 -0.001590 -0.002699 0.040814 0.013710 0.027966
# 5 0.003759 0.007149 -0.002006 0.013710 0.027690 0.020262
# 6 0.022106 0.008166 -0.004047 0.027966 0.020262 0.063885
#
#
# Mechanical properties :
#
#
# Convention : Reuss Voigt Hill
#
# Bulk Modulus (GPa) = 31.82283 52.28644 42.05464
# Shear Modulus (GPa) = 22.25700 42.15963 32.20832
#
# Velocity S-wave (km/s) = 2.93492 4.03935 3.53058
# Velocity P-wave (km/s) = 4.87861 6.48002 5.73548
#
# Compressibility (1/GPa) = 0.03142398
#
# Stress axis : x y z
#
# Youngs Moduli (GPa) = 43.09284 39.69572 121.85477
#
# Poissons Ratio (x) = 0.29730 0.24510
# Poissons Ratio (y) = 0.32274 0.37642
# Poissons Ratio (z) = 0.08668 0.12262
#
# Static dielectric constant tensor:
#      x y z
#    x 5.295170 1.477820 -0.953580 
#    y 1.477820 2.652810 -0.390140 
#    z -0.953580 -0.390140 2.326660 
# 
# From -- ./inp_files/346436.got.cif
#   From: 2010.05.17/outbox.cif.g08.bks.cpg/sg2_174_cif.got.tgz:346436.got - 2010.06.03 11:33:40.
