data_PCOD9108279
_publ_section_title
;
Structure prediction by ZEFSAII (Michael W. Deem and Ramdas Pophale) SiO2 
 PCOD9108279
Probable space group: P -1
;
_chemical_formula_sum "Si O2"
_cell_formula_units_Z 12
_cell_length_a 7.868702
_cell_length_b 7.116519
_cell_length_c 9.052005
_cell_angle_alpha 101.498057
_cell_angle_beta 95.925964
_cell_angle_gamma 105.520893
_cell_volume 471.978377
_symmetry_space_group_name_H-M "P -1"
_symmetry_group_IT_number 2
_symmetry_cell_setting 'triclinic'
loop_
_space_group_symop_operation_xyz
x,y,z
-x,-y,-z
loop_
_atom_site_type_symbol
_atom_site_label
_atom_site_fract_x
_atom_site_fract_y
_atom_site_fract_z
Si Si1 0.127517 0.979488 0.140613
Si Si2 0.050314 0.435163 0.834567
Si Si3 0.340525 0.382976 0.672185
Si Si4 0.865308 0.647280 0.618545
Si Si5 0.235842 0.917071 0.557936
Si Si6 0.577316 0.138573 0.742226
O O1 0.295662 0.892910 0.120496
O O2 0.001604 0.805083 0.201472
O O3 0.191558 0.188929 0.263606
O O4 0.000000 0.000000 0.000000
O O5 0.252054 0.489143 0.803237
O O6 0.933392 0.512777 0.719611
O O7 0.000000 0.500000 0.000000
O O8 0.518216 0.341239 0.747530
O O9 0.295404 0.468357 0.523889
O O10 0.231735 0.148087 0.587428
O O11 0.050935 0.763629 0.568067
O O12 0.320640 0.880103 0.404362
O O13 0.395596 0.953433 0.698051
#
# Coordination Sequence:
#
# PCOD9108279 Si02
#       6
#     2   2   2   2   2   2
#     4  12  22  42  68  86 129 175 210 263 317 384
#     4  12  26  41  62  97 130 171 219 252 320 389
#     4  10  20  40  67  97 126 162 216 267 307 377
#     4  12  21  40  70  97 123 170 217 263 314 373
#     4   9  17  35  68  95 123 155 212 266 313 367
#     4   9  19  37  68  98 122 165 214 262 326 368
#
# _framework density 25.424892
#
# number of rings (size 3 to 8) (size 9 to 14) (size 15 to 20)
#    1.000    0.333    5.000    2.000    0.000    0.000 
#    0.000    9.167    0.000    0.000    0.000    0.000 
#    0.000    0.000    0.000    0.000    0.000    0.000 
#
# Total GULP energy -66920.156306 kJ/mol
# GULP energy per Si atom -5576.679692 kJ/mol
# Density = 2.536702 g / cm^3
# Si number density = 25.424892 Si / 1000 Ang^3
#
#
#
# Elastic Constant Matrix: (Units=GPa)
#
#
# Indices 1 2 3 4 5 6 
#
# 1 127.3087 19.2982 44.7007 -18.5689 26.6102 -47.2708
# 2 19.2982 94.4266 25.2597 -23.5746 -1.3844 -30.7158
# 3 44.7007 25.2597 87.5734 -13.3677 11.1785 -42.7004
# 4 -18.5689 -23.5746 -13.3677 49.6256 -21.4202 7.2341
# 5 26.6102 -1.3844 11.1785 -21.4202 40.6514 -3.5781
# 6 -47.2708 -30.7158 -42.7004 7.2341 -3.5781 59.2882
#
#
#
# Elastic Compliance Matrix: (Units=1/GPa)
#
#
# Indices 1 2 3 4 5 6 
#
# 1 0.013355 0.000756 -0.001382 0.000461 -0.007253 0.009550
# 2 0.000756 0.015199 -0.000558 0.008590 0.005350 0.007350
# 3 -0.001382 -0.000558 0.018463 0.001468 -0.002398 0.011583
# 4 0.000461 0.008590 0.001468 0.031447 0.016424 0.003029
# 5 -0.007253 0.005350 -0.002398 0.016424 0.038454 -0.004422
# 6 0.009550 0.007350 0.011583 0.003029 -0.004422 0.035995
#
#
# Mechanical properties :
#
#
# Convention : Reuss Voigt Hill
#
# Bulk Modulus (GPa) = 22.39682 54.20285 38.29983
# Shear Modulus (GPa) = 29.38351 44.58307 36.98329
#
# Velocity S-wave (km/s) = 3.40324 4.19205 3.81807
# Velocity P-wave (km/s) = 4.92655 6.69299 5.87652
#
# Compressibility (1/GPa) = 0.04464920
#
# Stress axis : x y z
#
# Youngs Moduli (GPa) = 74.87898 65.79432 54.16160
#
# Poissons Ratio (x) = -0.04972 0.07485
# Poissons Ratio (y) = -0.05658 0.03020
# Poissons Ratio (z) = 0.10349 0.03668
#
# Static dielectric constant tensor:
#      x y z
#    x 2.134170 0.010060 0.060190 
#    y 0.010060 2.107150 -0.016340 
#    z 0.060190 -0.016340 2.060550 
# 
# From -- ./inp_files/155511.got.cif
#   From: 2010.05.17/outbox.cif.g08.bks.cpg/sg2_78_cif.got.tgz:155511.got - 2010.06.03 11:33:40.
