data_PCOD9108900
_publ_section_title
;
Structure prediction by ZEFSAII (Michael W. Deem and Ramdas Pophale) SiO2 
 PCOD9108900
Probable space group: P -1
;
_chemical_formula_sum "Si O2"
_cell_formula_units_Z 13
_cell_length_a 8.155019
_cell_length_b 13.521749
_cell_length_c 7.841532
_cell_angle_alpha 67.531255
_cell_angle_beta 104.414782
_cell_angle_gamma 143.778573
_cell_volume 469.362624
_symmetry_space_group_name_H-M "P -1"
_symmetry_group_IT_number 2
_symmetry_cell_setting 'triclinic'
loop_
_space_group_symop_operation_xyz
x,y,z
-x,-y,-z
loop_
_atom_site_type_symbol
_atom_site_label
_atom_site_fract_x
_atom_site_fract_y
_atom_site_fract_z
Si Si1 0.189080 0.886437 0.495416
Si Si2 0.707972 0.442069 0.893612
Si Si3 0.701743 0.795716 0.608530
Si Si4 0.764281 0.966049 0.924993
Si Si5 0.967154 0.766242 0.901208
Si Si6 0.500000 0.500000 0.500000
Si Si7 0.867589 0.365610 0.407999
O O1 0.546087 0.241900 0.418713
O O2 0.500000 0.000000 0.500000
O O3 0.118457 0.850551 0.700009
O O4 0.028369 0.705021 0.486040
O O5 0.525045 0.242484 0.994927
O O6 0.538556 0.440285 0.725492
O O7 0.821531 0.577544 0.985475
O O8 0.985692 0.544611 0.793817
O O9 0.618509 0.665027 0.531530
O O10 0.743869 0.749740 0.824278
O O11 0.822428 0.032530 0.705668
O O12 0.000000 0.000000 0.500000
O O13 0.823845 0.094239 0.986833
O O14 0.000000 0.000000 0.000000
O O15 0.000000 0.500000 0.500000
#
# Coordination Sequence:
#
# PCOD9108900 Si02
#       7
#     2   2   2   2   2   1   2
#     4  11  28  52  80 121 165 220 276 343 426 502
#     4  10  24  48  75 117 166 214 273 351 416 502
#     4  11  22  40  80 115 158 213 277 334 410 497
#     4  12  30  50  85 126 161 216 290 346 413 508
#     4  10  26  50  82 117 162 217 275 343 417 508
#     4  10  20  40  78 114 160 216 274 330 422 502
#     4  11  24  45  78 119 161 221 273 340 429 492
#
# _framework density 27.697134999999999
#
# number of rings (size 3 to 8) (size 9 to 14) (size 15 to 20)
#    0.000    1.231    1.538    1.846   12.923    1.231 
#    2.769    1.538    0.000    0.000    0.000    0.000 
#    0.000    0.000    0.000    0.000    0.000    0.000 
#
# Total GULP energy -72526.236402 kJ/mol
# GULP energy per Si atom -5578.941262 kJ/mol
# Density = 2.763409 g / cm^3
# Si number density = 27.697135 Si / 1000 Ang^3
#
#
#
# Elastic Constant Matrix: (Units=GPa)
#
#
# Indices 1 2 3 4 5 6 
#
# 1 100.1888 32.6663 51.7228 -12.4066 -7.7861 -11.8208
# 2 32.6663 254.3794 96.1363 16.7462 -20.8043 -26.0363
# 3 51.7228 96.1363 139.5307 -5.4322 -5.3539 -6.8673
# 4 -12.4066 16.7462 -5.4322 71.3729 -0.8617 -8.0050
# 5 -7.7861 -20.8043 -5.3539 -0.8617 47.3376 -1.1332
# 6 -11.8208 -26.0363 -6.8673 -8.0050 -1.1332 56.4229
#
#
#
# Elastic Compliance Matrix: (Units=1/GPa)
#
#
# Indices 1 2 3 4 5 6 
#
# 1 0.013077 0.000454 -0.004872 0.002121 0.001902 0.002695
# 2 0.000454 0.005920 -0.004106 -0.001351 0.002240 0.002180
# 3 -0.004872 -0.004106 0.011716 0.000836 -0.001299 -0.001397
# 4 0.002121 -0.001351 0.000836 0.014993 0.000172 0.002053
# 5 0.001902 0.002240 -0.001299 0.000172 0.022320 0.001747
# 6 0.002695 0.002180 -0.001397 0.002053 0.001747 0.019450
#
#
# Mechanical properties :
#
#
# Convention : Reuss Voigt Hill
#
# Bulk Modulus (GPa) = 73.18590 95.01665 84.10127
# Shear Modulus (GPa) = 45.83795 55.93158 50.88476
#
# Velocity S-wave (km/s) = 4.07255 4.49865 4.29089
# Velocity P-wave (km/s) = 6.97102 7.83351 7.41482
#
# Compressibility (1/GPa) = 0.01366383
#
# Stress axis : x y z
#
# Youngs Moduli (GPa) = 76.47110 168.91652 85.35250
#
# Poissons Ratio (x) = -0.07664 0.41583
# Poissons Ratio (y) = -0.03470 0.35050
# Poissons Ratio (z) = 0.37256 0.69365
#
# Static dielectric constant tensor:
#      x y z
#    x 2.526560 -0.028540 -0.122680 
#    y -0.028540 1.945810 -0.021930 
#    z -0.122680 -0.021930 2.152740 
# 
# From -- ./inp_files/265051.got.cif
#   From: 2010.05.17/outbox.cif.g08.bks.cpg/sg2_133_cif.got.tgz:265051.got - 2010.06.03 11:33:40.
