data_PCOD9108524
_publ_section_title
;
Structure prediction by ZEFSAII (Michael W. Deem and Ramdas Pophale) SiO2 
 PCOD9108524
Probable space group: P -1
;
_chemical_formula_sum "Si O2"
_cell_formula_units_Z 16
_cell_length_a 12.056511
_cell_length_b 15.960622
_cell_length_c 8.655933
_cell_angle_alpha 71.889099
_cell_angle_beta 107.983422
_cell_angle_gamma 46.177208
_cell_volume 736.806064
_symmetry_space_group_name_H-M "P -1"
_symmetry_group_IT_number 2
_symmetry_cell_setting 'triclinic'
loop_
_space_group_symop_operation_xyz
x,y,z
-x,-y,-z
loop_
_atom_site_type_symbol
_atom_site_label
_atom_site_fract_x
_atom_site_fract_y
_atom_site_fract_z
Si Si1 0.184748 0.054991 0.683665
Si Si2 0.785459 0.196067 0.373179
Si Si3 0.269046 0.486871 0.453858
Si Si4 0.422144 0.057492 0.613465
Si Si5 0.230068 0.882462 0.256605
Si Si6 0.149924 0.128030 0.981912
Si Si7 0.597733 0.638007 0.073518
Si Si8 0.952361 0.550988 0.636460
O O1 0.288856 0.057374 0.609328
O O2 0.178116 0.092577 0.833519
O O3 0.916374 0.203262 0.440436
O O4 0.376505 0.849187 0.891728
O O5 0.760174 0.166437 0.544023
O O6 0.535322 0.349249 0.090192
O O7 0.000000 0.000000 0.500000
O O8 0.538217 0.303678 0.623736
O O9 0.282741 0.476105 0.652542
O O10 0.135732 0.487643 0.331497
O O11 0.122196 0.666161 0.226262
O O12 0.254934 0.246116 0.506397
O O13 0.500000 0.000000 0.500000
O O14 0.675461 0.906309 0.889801
O O15 0.223031 0.993320 0.185503
O O16 0.000000 0.000000 0.000000
O O17 0.804539 0.563699 0.132634
O O18 0.000000 0.500000 0.500000
#
# Coordination Sequence:
#
# PCOD9108524 Si02
#       8
#     2   2   2   2   2   2   2   2
#     4  11  21  44  68 100 139 191 237 282 358 429
#     4  10  23  40  70  97 137 191 223 288 364 419
#     4  11  23  43  71 104 132 186 240 288 349 422
#     4  12  27  43  69 111 146 180 237 309 364 414
#     4  12  23  46  71 101 141 182 239 290 349 424
#     4  12  24  45  74 103 139 188 240 290 351 437
#     4  10  20  40  69 102 136 185 235 292 350 424
#     4  10  20  42  70 100 140 187 238 293 348 430
#
# _framework density 21.715349
#
# number of rings (size 3 to 8) (size 9 to 14) (size 15 to 20)
#    0.000    1.000    3.750    4.125    3.500    1.500 
#    0.000    4.375    0.000    0.000    0.000    0.000 
#    0.000    0.000    0.000    0.000    0.000    0.000 
#
# Total GULP energy -89272.775273 kJ/mol
# GULP energy per Si atom -5579.548455 kJ/mol
# Density = 2.166592 g / cm^3
# Si number density = 21.715349 Si / 1000 Ang^3
#
#
#
# Elastic Constant Matrix: (Units=GPa)
#
#
# Indices 1 2 3 4 5 6 
#
# 1 129.9003 23.8403 47.0264 17.5693 22.9947 -6.7396
# 2 23.8403 116.8325 66.5965 31.4803 -14.9287 -42.8699
# 3 47.0264 66.5965 128.8446 24.8486 23.7234 -25.9319
# 4 17.5693 31.4803 24.8486 86.4475 -7.5839 -33.8933
# 5 22.9947 -14.9287 23.7234 -7.5839 51.8295 16.1459
# 6 -6.7396 -42.8699 -25.9319 -33.8933 16.1459 64.6284
#
#
#
# Elastic Compliance Matrix: (Units=1/GPa)
#
#
# Indices 1 2 3 4 5 6 
#
# 1 0.009440 -0.000928 -0.002090 -0.001419 -0.003609 -0.000313
# 2 -0.000928 0.016602 -0.008355 -0.000710 0.007237 0.005383
# 3 -0.002090 -0.008355 0.015137 -0.000839 -0.009208 0.002174
# 4 -0.001419 -0.000710 -0.000839 0.015070 0.000922 0.006717
# 5 -0.003609 0.007237 -0.009208 0.000922 0.029226 -0.006088
# 6 -0.000313 0.005383 0.002174 0.006717 -0.006088 0.024928
#
#
# Mechanical properties :
#
#
# Convention : Reuss Voigt Hill
#
# Bulk Modulus (GPa) = 54.25040 72.27820 63.26430
# Shear Modulus (GPa) = 35.89520 56.45535 46.17528
#
# Velocity S-wave (km/s) = 4.07011 5.10435 4.61628
# Velocity P-wave (km/s) = 6.86472 8.25202 7.59013
#
# Compressibility (1/GPa) = 0.01843304
#
# Stress axis : x y z
#
# Youngs Moduli (GPa) = 105.93387 60.23233 66.06163
#
# Poissons Ratio (x) = 0.05591 0.13810
# Poissons Ratio (y) = 0.09832 0.55192
# Poissons Ratio (z) = 0.22145 0.50322
#
# Static dielectric constant tensor:
#      x y z
#    x 1.822400 0.037660 0.003420 
#    y 0.037660 1.997770 0.017490 
#    z 0.003420 0.017490 1.795710 
# 
# From -- ./inp_files/272597.got.cif
#   From: 2010.05.17/outbox.cif.g08.bks.cpg/sg2_137_cif.got.tgz:272597.got - 2010.06.03 11:33:40.
