data_PCOD9108252
_publ_section_title
;
Structure prediction by ZEFSAII (Michael W. Deem and Ramdas Pophale) SiO2 
 PCOD9108252
Probable space group: P -1
;
_chemical_formula_sum "Si O2"
_cell_formula_units_Z 16
_cell_length_a 10.339466
_cell_length_b 9.490484
_cell_length_c 10.799436
_cell_angle_alpha 121.593165
_cell_angle_beta 123.990343
_cell_angle_gamma 82.951573
_cell_volume 726.366056
_symmetry_space_group_name_H-M "P -1"
_symmetry_group_IT_number 2
_symmetry_cell_setting 'triclinic'
loop_
_space_group_symop_operation_xyz
x,y,z
-x,-y,-z
loop_
_atom_site_type_symbol
_atom_site_label
_atom_site_fract_x
_atom_site_fract_y
_atom_site_fract_z
Si Si1 0.333466 0.868379 0.378847
Si Si2 0.139188 0.239913 0.204315
Si Si3 0.554966 0.641004 0.912305
Si Si4 0.725662 0.964853 0.023289
Si Si5 0.747808 0.591081 0.234402
Si Si6 0.915310 0.906279 0.624476
Si Si7 0.790367 0.249519 0.006741
Si Si8 0.356911 0.539886 0.361355
O O1 0.362853 0.735463 0.434848
O O2 0.500000 0.000000 0.500000
O O3 0.189519 0.953842 0.382517
O O4 0.292284 0.776827 0.181890
O O5 0.153220 0.188732 0.328458
O O6 0.199391 0.439099 0.301318
O O7 0.952861 0.187515 0.047867
O O8 0.237610 0.147353 0.124227
O O9 0.378805 0.516935 0.782936
O O10 0.636196 0.543156 0.808121
O O11 0.588522 0.834106 0.966307
O O12 0.643837 0.646681 0.094300
O O13 0.698534 0.132439 0.015870
O O14 0.893294 0.018673 0.216853
O O15 0.868716 0.757941 0.429365
O O16 0.827025 0.445504 0.155746
O O17 0.500000 0.500000 0.500000
#
# Coordination Sequence:
#
# PCOD9108252 Si02
#       8
#     2   2   2   2   2   2   2   2
#     4  12  23  37  64  98 123 163 216 259 311 368
#     4  10  20  40  67  95 126 162 210 268 319 359
#     4  10  23  41  61  87 129 176 198 259 326 371
#     4  10  21  40  68  93 126 164 216 268 310 364
#     4  11  24  41  61  90 136 172 208 249 323 387
#     4  11  22  42  65  94 129 166 209 263 315 377
#     4  11  22  41  65  95 125 169 209 257 319 381
#     4  11  23  40  66  98 125 158 214 270 312 371
#
# _framework density 22.027460999999999
#
# number of rings (size 3 to 8) (size 9 to 14) (size 15 to 20)
#    0.000    1.250    3.750    3.000    3.500    4.500 
#    0.000    2.500    0.000    0.000    0.000    0.000 
#    0.000    0.000    0.000    0.000    0.000    0.000 
#
# Total GULP energy -89365.841109 kJ/mol
# GULP energy per Si atom -5585.365069 kJ/mol
# Density = 2.197733 g / cm^3
# Si number density = 22.027461 Si / 1000 Ang^3
#
#
#
# Elastic Constant Matrix: (Units=GPa)
#
#
# Indices 1 2 3 4 5 6 
#
# 1 48.0502 7.0521 -1.5278 1.7989 1.8531 9.8183
# 2 7.0521 141.5012 23.9222 5.8660 1.2312 11.2984
# 3 -1.5278 23.9222 90.0831 4.5252 -11.0481 -4.9043
# 4 1.7989 5.8660 4.5252 30.2870 -0.9192 1.2730
# 5 1.8531 1.2312 -11.0481 -0.9192 20.5089 9.9567
# 6 9.8183 11.2984 -4.9043 1.2730 9.9567 29.4814
#
#
#
# Elastic Compliance Matrix: (Units=1/GPa)
#
#
# Indices 1 2 3 4 5 6 
#
# 1 0.022462 -0.000539 0.000385 -0.000898 0.001975 -0.007839
# 2 -0.000539 0.007754 -0.002204 -0.001017 -0.000164 -0.003060
# 3 0.000385 -0.002204 0.012592 -0.001309 0.006495 0.000674
# 4 -0.000898 -0.001017 -0.001309 0.033580 0.001695 -0.001551
# 5 0.001975 -0.000164 0.006495 0.001695 0.062156 -0.020580
# 6 -0.007839 -0.003060 0.000674 -0.001551 -0.020580 0.044832
#
#
# Mechanical properties :
#
#
# Convention : Reuss Voigt Hill
#
# Bulk Modulus (GPa) = 26.25225 37.61419 31.93322
# Shear Modulus (GPa) = 24.90164 32.73465 28.81815
#
# Velocity S-wave (km/s) = 3.36591 3.85916 3.62094
# Velocity P-wave (km/s) = 5.20093 6.08034 5.65775
#
# Compressibility (1/GPa) = 0.03809197
#
# Stress axis : x y z
#
# Youngs Moduli (GPa) = 44.51976 128.95861 79.41769
#
# Poissons Ratio (x) = 0.06945 -0.03054
# Poissons Ratio (y) = 0.02398 0.17504
# Poissons Ratio (z) = -0.01712 0.28423
#
# Static dielectric constant tensor:
#      x y z
#    x 1.886990 -0.011830 0.091880 
#    y -0.011830 1.887670 -0.027640 
#    z 0.091880 -0.027640 1.927900 
# 
# From -- ./inp_files/320280.got.cif
#   From: 2010.05.17/outbox.cif.g08.bks.cpg/sg2_161_cif.got.tgz:320280.got - 2010.06.03 11:33:40.
