data_PCOD9108278
_publ_section_title
;
Structure prediction by ZEFSAII (Michael W. Deem and Ramdas Pophale) SiO2 
 PCOD9108278
Probable space group: P -1
;
_chemical_formula_sum "Si O2"
_cell_formula_units_Z 16
_cell_length_a 8.322399
_cell_length_b 11.575200
_cell_length_c 14.752384
_cell_angle_alpha 41.147185
_cell_angle_beta 104.079769
_cell_angle_gamma 127.943653
_cell_volume 668.049895
_symmetry_space_group_name_H-M "P -1"
_symmetry_group_IT_number 2
_symmetry_cell_setting 'triclinic'
loop_
_space_group_symop_operation_xyz
x,y,z
-x,-y,-z
loop_
_atom_site_type_symbol
_atom_site_label
_atom_site_fract_x
_atom_site_fract_y
_atom_site_fract_z
Si Si1 0.246876 0.787244 0.118388
Si Si2 0.802697 0.608673 0.751508
Si Si3 0.217064 0.395574 0.579395
Si Si4 0.436387 0.104049 0.355996
Si Si5 0.406815 0.414124 0.938525
Si Si6 0.062073 0.080368 0.577951
Si Si7 0.933853 0.990829 0.097381
Si Si8 0.283398 0.824525 0.320442
O O1 0.161370 0.539464 0.215508
O O2 0.250628 0.815759 0.211249
O O3 0.129116 0.853389 0.004704
O O4 0.500000 0.000000 0.000000
O O5 0.575165 0.432687 0.883062
O O6 0.805680 0.764943 0.584725
O O7 0.996747 0.827140 0.715340
O O8 0.211394 0.263273 0.571329
O O9 0.356678 0.672745 0.431867
O O10 0.966390 0.299678 0.607658
O O11 0.242710 0.278215 0.734507
O O12 0.598519 0.390855 0.216753
O O13 0.500000 0.000000 0.500000
O O14 0.437142 0.035147 0.292101
O O15 0.181916 0.994819 0.404073
O O16 0.500000 0.500000 0.000000
O O17 0.174349 0.149537 0.083220
O O18 0.000000 0.000000 0.000000
#
# Coordination Sequence:
#
# PCOD9108278 Si02
#       8
#     2   2   2   2   2   2   2   2
#     4  12  26  44  67 102 141 180 220 289 351 402
#     4  10  21  40  67  93 131 176 222 274 342 402
#     4  10  20  40  67  97 125 173 230 273 331 406
#     4  10  23  38  66 100 129 173 233 279 329 406
#     4  11  25  45  68  97 138 183 227 279 345 413
#     4   9  19  40  68  93 128 177 222 275 342 392
#     4  12  25  41  71 100 136 178 233 279 337 415
#     4  10  21  41  68  94 134 177 223 280 339 407
#
# _framework density 23.950308
#
# number of rings (size 3 to 8) (size 9 to 14) (size 15 to 20)
#    0.000    1.500    2.500    3.000    5.250    0.000 
#    0.000    8.125    0.000    0.000    0.000    0.000 
#    0.000    0.000    0.000    0.000    0.000    0.000 
#
# Total GULP energy -89224.564987 kJ/mol
# GULP energy per Si atom -5576.535312 kJ/mol
# Density = 2.389580 g / cm^3
# Si number density = 23.950308 Si / 1000 Ang^3
#
#
#
# Elastic Constant Matrix: (Units=GPa)
#
#
# Indices 1 2 3 4 5 6 
#
# 1 52.7595 20.0926 11.8448 -2.5273 1.3838 -16.0211
# 2 20.0926 96.6183 -0.0721 -3.8822 11.8659 -35.7781
# 3 11.8448 -0.0721 83.7274 -3.2619 23.7661 -12.1039
# 4 -2.5273 -3.8822 -3.2619 43.9354 -11.0684 1.5364
# 5 1.3838 11.8659 23.7661 -11.0684 39.1240 -4.6084
# 6 -16.0211 -35.7781 -12.1039 1.5364 -4.6084 35.0261
#
#
#
# Elastic Compliance Matrix: (Units=1/GPa)
#
#
# Indices 1 2 3 4 5 6 
#
# 1 0.022710 -0.002313 -0.002933 0.001366 0.002930 0.007337
# 2 -0.002313 0.018541 0.004851 -0.000401 -0.006395 0.018734
# 3 -0.002933 0.004851 0.016554 -0.001541 -0.010921 0.007965
# 4 0.001366 -0.000401 -0.001541 0.024706 0.007957 -0.000354
# 5 0.002930 -0.006395 -0.010921 0.007957 0.035737 -0.004613
# 6 0.007337 0.018734 0.007965 -0.000354 -0.004613 0.053203
#
#
# Mechanical properties :
#
#
# Convention : Reuss Voigt Hill
#
# Bulk Modulus (GPa) = 17.53897 32.98178 25.26037
# Shear Modulus (GPa) = 26.14430 37.03307 31.58869
#
# Velocity S-wave (km/s) = 3.30753 3.93650 3.63564
# Velocity P-wave (km/s) = 4.68245 5.87045 5.30978
#
# Compressibility (1/GPa) = 0.05701588
#
# Stress axis : x y z
#
# Youngs Moduli (GPa) = 44.03396 53.93425 60.40865
#
# Poissons Ratio (x) = 0.12474 0.17715
# Poissons Ratio (y) = 0.10184 -0.29304
# Poissons Ratio (z) = 0.12913 -0.26163
#
# Static dielectric constant tensor:
#      x y z
#    x 1.974860 -0.074900 0.008620 
#    y -0.074900 2.007000 -0.048730 
#    z 0.008620 -0.048730 1.950230 
# 
# From -- ./inp_files/499898.got.cif
#   From: 2010.05.17/outbox.cif.g08.bks.cpg/sg2_250_cif.got.tgz:499898.got - 2010.06.03 11:33:40.
