data_PCOD9108596
_publ_section_title
;
Structure prediction by ZEFSAII (Michael W. Deem and Ramdas Pophale) SiO2 
 PCOD9108596
Probable space group: P -1
;
_chemical_formula_sum "Si O2"
_cell_formula_units_Z 13
_cell_length_a 10.193560
_cell_length_b 8.426251
_cell_length_c 7.698704
_cell_angle_alpha 94.300978
_cell_angle_beta 96.851146
_cell_angle_gamma 45.664162
_cell_volume 469.566201
_symmetry_space_group_name_H-M "P -1"
_symmetry_group_IT_number 2
_symmetry_cell_setting 'triclinic'
loop_
_space_group_symop_operation_xyz
x,y,z
-x,-y,-z
loop_
_atom_site_type_symbol
_atom_site_label
_atom_site_fract_x
_atom_site_fract_y
_atom_site_fract_z
Si Si1 0.889423 0.776316 0.661409
Si Si2 0.468665 0.438222 0.169418
Si Si3 0.905862 0.083993 0.302837
Si Si4 0.328912 0.253900 0.954774
Si Si5 0.031227 0.316962 0.744431
Si Si6 0.500000 0.500000 0.500000
Si Si7 0.508355 0.827567 0.383769
O O1 0.887550 0.775834 0.448024
O O2 0.037267 0.787756 0.743620
O O3 0.907542 0.577194 0.705323
O O4 0.694961 0.002203 0.714261
O O5 0.676745 0.263595 0.285099
O O6 0.372254 0.622119 0.315234
O O7 0.500000 0.500000 0.000000
O O8 0.355985 0.376886 0.098815
O O9 0.980061 0.858812 0.211101
O O10 0.000000 0.000000 0.500000
O O11 0.156296 0.285471 0.913809
O O12 0.351776 0.292912 0.763057
O O13 0.500000 0.000000 0.000000
O O14 0.558168 0.641690 0.501631
O O15 0.500000 0.000000 0.500000
#
# Coordination Sequence:
#
# PCOD9108596 Si02
#       7
#     2   2   2   2   2   1   2
#     4  10  22  39  66 102 137 185 241 290 361 437
#     4  12  24  44  73 108 144 192 247 305 364 435
#     4  10  21  40  70  99 141 193 241 286 372 441
#     4  12  23  44  73 102 146 189 244 306 366 429
#     4  10  20  40  69  96 140 186 230 296 359 433
#     4  12  26  44  74 106 150 188 248 302 362 434
#     4  12  25  44  71 110 145 188 251 301 361 446
#
# _framework density 27.685124999999999
#
# number of rings (size 3 to 8) (size 9 to 14) (size 15 to 20)
#    0.000    0.923    4.615    3.692    0.000    2.462 
#    0.000    1.538    3.385    0.000    0.000    0.000 
#    0.000    0.000    0.000    0.000    0.000    0.000 
#
# Total GULP energy -72437.490634 kJ/mol
# GULP energy per Si atom -5572.114664 kJ/mol
# Density = 2.762211 g / cm^3
# Si number density = 27.685125 Si / 1000 Ang^3
#
#
#
# Elastic Constant Matrix: (Units=GPa)
#
#
# Indices 1 2 3 4 5 6 
#
# 1 130.4934 53.1946 45.5900 18.3186 30.7574 31.0701
# 2 53.1946 154.8431 10.3708 2.3728 21.7949 42.1723
# 3 45.5900 10.3708 177.2624 21.2478 35.1238 25.1884
# 4 18.3186 2.3728 21.2478 50.7696 13.5051 16.3914
# 5 30.7574 21.7949 35.1238 13.5051 58.8010 5.1439
# 6 31.0701 42.1723 25.1884 16.3914 5.1439 49.5194
#
#
#
# Elastic Compliance Matrix: (Units=1/GPa)
#
#
# Indices 1 2 3 4 5 6 
#
# 1 0.010838 -0.002164 -0.001325 -0.001186 -0.003495 -0.003528
# 2 -0.002164 0.009863 0.001469 0.003378 -0.003429 -0.008551
# 3 -0.001325 0.001469 0.007194 -0.000467 -0.003732 -0.003537
# 4 -0.001186 0.003378 -0.000467 0.024606 -0.005173 -0.009503
# 5 -0.003495 -0.003429 -0.003732 -0.005173 0.022969 0.006338
# 6 -0.003528 -0.008551 -0.003537 -0.009503 0.006338 0.033977
#
#
# Mechanical properties :
#
#
# Convention : Reuss Voigt Hill
#
# Bulk Modulus (GPa) = 41.91700 75.65664 58.78682
# Shear Modulus (GPa) = 41.17315 55.38089 48.27702
#
# Velocity S-wave (km/s) = 3.86060 4.47742 4.18040
# Velocity P-wave (km/s) = 5.91995 7.35640 6.67691
#
# Compressibility (1/GPa) = 0.02385667
#
# Stress axis : x y z
#
# Youngs Moduli (GPa) = 92.26445 101.38918 139.00010
#
# Poissons Ratio (x) = 0.21938 0.18417
# Poissons Ratio (y) = 0.19963 -0.20421
# Poissons Ratio (z) = 0.12224 -0.14896
#
# Static dielectric constant tensor:
#      x y z
#    x 2.287440 0.135330 0.085700 
#    y 0.135330 1.940090 -0.196700 
#    z 0.085700 -0.196700 2.005490 
# 
# From -- ./inp_files/235724.got.cif
#   From: 2010.05.17/outbox.cif.g08.bks.cpg/sg2_118_cif.got.tgz:235724.got - 2010.06.03 11:33:40.
