data_PCOD9108273
_publ_section_title
;
Structure prediction by ZEFSAII (Michael W. Deem and Ramdas Pophale) SiO2 
 PCOD9108273
Probable space group: P -1
;
_chemical_formula_sum "Si O2"
_cell_formula_units_Z 16
_cell_length_a 11.762550
_cell_length_b 8.909009
_cell_length_c 19.727080
_cell_angle_alpha 130.029655
_cell_angle_beta 149.590784
_cell_angle_gamma 41.913071
_cell_volume 698.982821
_symmetry_space_group_name_H-M "P -1"
_symmetry_group_IT_number 2
_symmetry_cell_setting 'triclinic'
loop_
_space_group_symop_operation_xyz
x,y,z
-x,-y,-z
loop_
_atom_site_type_symbol
_atom_site_label
_atom_site_fract_x
_atom_site_fract_y
_atom_site_fract_z
Si Si1 0.643681 0.927946 0.125169
Si Si2 0.759682 0.251843 0.448163
Si Si3 0.043379 0.808139 0.604655
Si Si4 0.516120 0.929715 0.670897
Si Si5 0.846595 0.013137 0.037103
Si Si6 0.703407 0.281099 0.906675
Si Si7 0.187074 0.660365 0.775279
Si Si8 0.965526 0.486408 0.718651
O O1 0.859669 0.668703 0.175482
O O2 0.805229 0.056400 0.259417
O O3 0.415850 0.987690 0.079991
O O4 0.500000 0.000000 0.000000
O O5 0.792353 0.340660 0.418164
O O6 0.523213 0.208716 0.328077
O O7 0.803671 0.381758 0.569706
O O8 0.000000 0.000000 0.500000
O O9 0.045741 0.686289 0.639564
O O10 0.748924 0.965319 0.476928
O O11 0.760161 0.739874 0.703141
O O12 0.569079 0.130966 0.775056
O O13 0.904656 0.108721 0.163727
O O14 0.803781 0.194106 0.008677
O O15 0.071980 0.787772 0.053389
O O16 0.488099 0.538335 0.875377
O O17 0.151899 0.493862 0.759229
#
# Coordination Sequence:
#
# PCOD9108273 Si02
#       8
#     2   2   2   2   2   2   2   2
#     4  12  24  44  71  98 143 183 226 286 349 416
#     4  10  20  40  67  96 135 178 226 281 337 410
#     4  11  25  44  68 103 140 182 229 289 348 402
#     4  11  23  44  71 104 137 179 239 288 342 418
#     4  11  24  44  69  98 139 183 235 280 341 416
#     4  11  24  43  72 101 134 186 236 283 344 413
#     4  12  24  45  69 102 141 184 231 286 349 407
#     4  12  24  42  75 101 134 192 229 282 357 409
#
# _framework density 22.890407
#
# number of rings (size 3 to 8) (size 9 to 14) (size 15 to 20)
#    0.000    0.750    6.250    3.000    0.000    2.500 
#    4.500    0.625    0.000    0.000    0.000    0.000 
#    0.000    0.000    0.000    0.000    0.000    0.000 
#
# Total GULP energy -89392.463451 kJ/mol
# GULP energy per Si atom -5587.028966 kJ/mol
# Density = 2.283831 g / cm^3
# Si number density = 22.890407 Si / 1000 Ang^3
#
#
#
# Elastic Constant Matrix: (Units=GPa)
#
#
# Indices 1 2 3 4 5 6 
#
# 1 104.2704 33.9905 37.9911 -18.7291 -8.1913 -18.8301
# 2 33.9905 36.5718 10.6349 -9.9462 -1.4535 -7.9546
# 3 37.9911 10.6349 120.1201 1.1449 -8.3242 0.9885
# 4 -18.7291 -9.9462 1.1449 37.1536 4.1658 6.7588
# 5 -8.1913 -1.4535 -8.3242 4.1658 49.1314 -6.5689
# 6 -18.8301 -7.9546 0.9885 6.7588 -6.5689 36.1984
#
#
#
# Elastic Compliance Matrix: (Units=1/GPa)
#
#
# Indices 1 2 3 4 5 6 
#
# 1 0.017103 -0.012133 -0.004270 0.004171 0.002214 0.005970
# 2 -0.012133 0.040063 0.000167 0.004446 -0.000989 0.001478
# 3 -0.004270 0.000167 0.009758 -0.002164 0.000877 -0.001888
# 4 0.004171 0.004446 -0.002164 0.031124 -0.002590 -0.003076
# 5 0.002214 -0.000989 0.000877 -0.002590 0.021776 0.005346
# 6 0.005970 0.001478 -0.001888 -0.003076 0.005346 0.032652
#
#
# Mechanical properties :
#
#
# Convention : Reuss Voigt Hill
#
# Bulk Modulus (GPa) = 29.02670 47.35503 38.19086
# Shear Modulus (GPa) = 25.45413 36.38640 30.92027
#
# Velocity S-wave (km/s) = 3.33828 3.99129 3.67930
# Velocity P-wave (km/s) = 5.25044 6.47867 5.89662
#
# Compressibility (1/GPa) = 0.03445104
#
# Stress axis : x y z
#
# Youngs Moduli (GPa) = 58.47019 24.96086 102.48229
#
# Poissons Ratio (x) = 0.30285 0.43765
# Poissons Ratio (y) = 0.70942 -0.01715
# Poissons Ratio (z) = 0.24970 -0.00418
#
# Static dielectric constant tensor:
#      x y z
#    x 1.956170 0.023550 0.020820 
#    y 0.023550 1.847050 0.017760 
#    z 0.020820 0.017760 1.921940 
# 
# From -- ./inp_files/333761.got.cif
#   From: 2010.05.17/outbox.cif.g08.bks.cpg/sg2_167_cif.got.tgz:333761.got - 2010.06.03 11:33:40.
