data_PCOD9108313
_publ_section_title
;
Structure prediction by ZEFSAII (Michael W. Deem and Ramdas Pophale) SiO2 
 PCOD9108313
Probable space group: P -1
;
_chemical_formula_sum "Si O2"
_cell_formula_units_Z 12
_cell_length_a 7.690646
_cell_length_b 10.724376
_cell_length_c 13.012411
_cell_angle_alpha 146.912277
_cell_angle_beta 108.110305
_cell_angle_gamma 89.501697
_cell_volume 486.943094
_symmetry_space_group_name_H-M "P -1"
_symmetry_group_IT_number 2
_symmetry_cell_setting 'triclinic'
loop_
_space_group_symop_operation_xyz
x,y,z
-x,-y,-z
loop_
_atom_site_type_symbol
_atom_site_label
_atom_site_fract_x
_atom_site_fract_y
_atom_site_fract_z
Si Si1 0.123763 0.015661 0.872118
Si Si2 0.810275 0.548033 0.967646
Si Si3 0.501918 0.081384 0.879986
Si Si4 0.750366 0.132339 0.522822
Si Si5 0.765252 0.641108 0.252408
Si Si6 0.721805 0.754356 0.727124
O O1 0.312035 0.957552 0.840744
O O2 0.113559 0.177838 0.885167
O O3 0.190088 0.207441 0.115186
O O4 0.899444 0.779671 0.698345
O O5 0.689926 0.316674 0.705113
O O6 0.714752 0.552295 0.062269
O O7 0.000000 0.500000 0.000000
O O8 0.398148 0.981546 0.680677
O O9 0.675800 0.994574 0.866485
O O10 0.608698 0.395230 0.120703
O O11 0.993635 0.289985 0.638951
O O12 0.749954 0.904269 0.435495
O O13 0.500000 0.500000 0.500000
#
# Coordination Sequence:
#
# PCOD9108313 Si02
#       6
#     2   2   2   2   2   2
#     4  11  25  46  68  97 141 174 226 296 330 400
#     4  10  20  40  67  98 142 178 213 280 336 402
#     4  12  24  44  72 100 137 182 226 284 342 406
#     4  10  21  38  65 100 142 182 220 270 337 410
#     4  10  22  41  62 104 144 175 222 275 340 412
#     4  11  26  47  69  98 128 182 239 279 346 402
#
# _framework density 24.643535
#
# number of rings (size 3 to 8) (size 9 to 14) (size 15 to 20)
#    0.000    1.333    1.667    4.000    0.000    4.000 
#    3.000    0.000    0.000    0.000    0.000    0.000 
#    0.000    0.000    0.000    0.000    0.000    0.000 
#
# Total GULP energy -67216.539583 kJ/mol
# GULP energy per Si atom -5601.378299 kJ/mol
# Density = 2.458744 g / cm^3
# Si number density = 24.643535 Si / 1000 Ang^3
#
#
#
# Elastic Constant Matrix: (Units=GPa)
#
#
# Indices 1 2 3 4 5 6 
#
# 1 102.8808 23.3856 12.9119 9.1250 30.8047 7.2362
# 2 23.3856 60.1462 4.7239 -1.5101 15.1628 -1.4316
# 3 12.9119 4.7239 92.9995 8.8332 17.8449 13.9832
# 4 9.1250 -1.5101 8.8332 26.8829 -0.7483 9.0219
# 5 30.8047 15.1628 17.8449 -0.7483 45.8166 10.1841
# 6 7.2362 -1.4316 13.9832 9.0219 10.1841 27.6399
#
#
#
# Elastic Compliance Matrix: (Units=1/GPa)
#
#
# Indices 1 2 3 4 5 6 
#
# 1 0.013306 -0.003212 0.000263 -0.005358 -0.008301 0.001024
# 2 -0.003212 0.019224 -0.000201 0.000952 -0.004869 0.003422
# 3 0.000263 -0.000201 0.012381 -0.002993 -0.004127 -0.003845
# 4 -0.005358 0.000952 -0.002993 0.045313 0.008519 -0.014963
# 5 -0.008301 -0.004869 -0.004127 0.008519 0.033212 -0.011009
# 6 0.001024 0.003422 -0.003845 -0.014963 -0.011009 0.046975
#
#
# Mechanical properties :
#
#
# Convention : Reuss Voigt Hill
#
# Bulk Modulus (GPa) = 25.89903 37.56326 31.73115
# Shear Modulus (GPa) = 26.37425 34.40154 30.38789
#
# Velocity S-wave (km/s) = 3.27499 3.74032 3.51536
# Velocity P-wave (km/s) = 4.98327 5.82486 5.42042
#
# Compressibility (1/GPa) = 0.03861149
#
# Stress axis : x y z
#
# Youngs Moduli (GPa) = 75.15620 52.01954 80.77075
#
# Poissons Ratio (x) = 0.16706 -0.02128
# Poissons Ratio (y) = 0.24137 0.01625
# Poissons Ratio (z) = -0.01980 0.01046
#
# Static dielectric constant tensor:
#      x y z
#    x 1.978330 0.011250 0.012840 
#    y 0.011250 1.946220 -0.004250 
#    z 0.012840 -0.004250 2.005360 
# 
# From -- ./inp_files/499580.got.cif
#   From: 2010.05.17/outbox.cif.g08.bks.cpg/sg2_250_cif.got.tgz:499580.got - 2010.06.03 11:33:40.
