data_PCOD9108609
_publ_section_title
;
Structure prediction by ZEFSAII (Michael W. Deem and Ramdas Pophale) SiO2 
 PCOD9108609
Probable space group: P -1
;
_chemical_formula_sum "Si O2"
_cell_formula_units_Z 16
_cell_length_a 9.457907
_cell_length_b 11.163364
_cell_length_c 13.657383
_cell_angle_alpha 142.800041
_cell_angle_beta 135.103607
_cell_angle_gamma 61.045560
_cell_volume 604.404121
_symmetry_space_group_name_H-M "P -1"
_symmetry_group_IT_number 2
_symmetry_cell_setting 'triclinic'
loop_
_space_group_symop_operation_xyz
x,y,z
-x,-y,-z
loop_
_atom_site_type_symbol
_atom_site_label
_atom_site_fract_x
_atom_site_fract_y
_atom_site_fract_z
Si Si1 0.149700 0.697651 0.156324
Si Si2 0.744906 0.763405 0.946161
Si Si3 0.031299 0.367239 0.567723
Si Si4 0.604609 0.279841 0.527473
Si Si5 0.327300 0.630793 0.008095
Si Si6 0.188280 0.930907 0.988608
Si Si7 0.198019 0.353113 0.449391
Si Si8 0.832061 0.008262 0.335901
O O1 0.273983 0.797294 0.373554
O O2 0.989348 0.791982 0.077624
O O3 0.318420 0.678692 0.148098
O O4 0.000000 0.500000 0.000000
O O5 0.698293 0.912844 0.934954
O O6 0.718094 0.822604 0.088043
O O7 0.657671 0.528108 0.721386
O O8 0.114392 0.482121 0.781737
O O9 0.219058 0.402401 0.605950
O O10 0.827133 0.448491 0.492346
O O11 0.974510 0.135072 0.408030
O O12 0.363811 0.244169 0.410250
O O13 0.685187 0.156428 0.399740
O O14 0.323765 0.817673 0.053952
O O15 0.500000 0.500000 0.000000
O O16 0.038897 0.757287 0.741257
O O17 0.000000 0.000000 0.000000
O O18 0.000000 0.000000 0.500000
#
# Coordination Sequence:
#
# PCOD9108609 Si02
#       8
#     2   2   2   2   2   2   2   2
#     4  10  20  40  69  98 143 196 233 294 379 437
#     4  11  23  47  76 105 148 202 252 301 377 453
#     4  10  22  44  70  96 147 195 237 300 386 441
#     4  11  25  45  76 108 149 193 251 316 370 438
#     4  11  23  41  72 109 142 188 252 310 366 447
#     4  11  23  46  75 103 149 204 245 303 384 452
#     4  10  23  46  71 101 145 196 244 309 375 441
#     4  12  25  45  72 107 149 198 249 306 378 449
#
# _framework density 26.472355
#
# number of rings (size 3 to 8) (size 9 to 14) (size 15 to 20)
#    0.000    1.250    3.750    2.250    3.500    0.500 
#    2.250    4.375    0.000    0.000    0.000    0.000 
#    0.000    0.000    0.000    0.000    0.000    0.000 
#
# Total GULP energy -89195.583140 kJ/mol
# GULP energy per Si atom -5574.723946 kJ/mol
# Density = 2.641210 g / cm^3
# Si number density = 26.472355 Si / 1000 Ang^3
#
#
#
# Elastic Constant Matrix: (Units=GPa)
#
#
# Indices 1 2 3 4 5 6 
#
# 1 130.0975 69.0945 47.1822 -6.7288 -30.8777 -25.1046
# 2 69.0945 169.7956 38.7856 -11.2887 1.8773 -10.4442
# 3 47.1822 38.7856 90.7389 6.5572 -13.7280 -9.3965
# 4 -6.7288 -11.2887 6.5572 40.3759 -5.0536 -6.4800
# 5 -30.8777 1.8773 -13.7280 -5.0536 43.1082 5.3184
# 6 -25.1046 -10.4442 -9.3965 -6.4800 5.3184 45.5581
#
#
#
# Elastic Compliance Matrix: (Units=1/GPa)
#
#
# Indices 1 2 3 4 5 6 
#
# 1 0.015392 -0.004777 -0.004178 0.004074 0.009642 0.005979
# 2 -0.004777 0.008360 -0.001857 0.001251 -0.004177 -0.000433
# 3 -0.004178 -0.001857 0.014394 -0.003453 0.001317 -0.000404
# 4 0.004074 0.001251 -0.003453 0.027747 0.004369 0.005256
# 5 0.009642 -0.004177 0.001317 0.004369 0.031017 0.001628
# 6 0.005979 -0.000433 -0.000404 0.005256 0.001628 0.025619
#
#
# Mechanical properties :
#
#
# Convention : Reuss Voigt Hill
#
# Bulk Modulus (GPa) = 60.52463 77.86185 69.19324
# Shear Modulus (GPa) = 33.40915 41.51308 37.46111
#
# Velocity S-wave (km/s) = 3.55637 3.96431 3.76587
# Velocity P-wave (km/s) = 6.30688 7.10145 6.71593
#
# Compressibility (1/GPa) = 0.01652220
#
# Stress axis : x y z
#
# Youngs Moduli (GPa) = 64.96967 119.61585 69.47495
#
# Poissons Ratio (x) = 0.57140 0.29027
# Poissons Ratio (y) = 0.31036 0.12899
# Poissons Ratio (z) = 0.27144 0.22209
#
# Static dielectric constant tensor:
#      x y z
#    x 2.111980 -0.012930 0.006700 
#    y -0.012930 2.124160 0.036440 
#    z 0.006700 0.036440 2.384300 
# 
# From -- ./inp_files/498565.got.cif
#   From: 2010.05.17/outbox.cif.g08.bks.cpg/sg2_250_cif.got.tgz:498565.got - 2010.06.03 11:33:40.
