data_PCOD9108875
_publ_section_title
;
Structure prediction by ZEFSAII (Michael W. Deem and Ramdas Pophale) SiO2 
 PCOD9108875
Probable space group: P -1
;
_chemical_formula_sum "Si O2"
_cell_formula_units_Z 14
_cell_length_a 12.632865
_cell_length_b 7.555043
_cell_length_c 12.353235
_cell_angle_alpha 51.906992
_cell_angle_beta 145.475323
_cell_angle_gamma 109.585982
_cell_volume 484.697863
_symmetry_space_group_name_H-M "P -1"
_symmetry_group_IT_number 2
_symmetry_cell_setting 'triclinic'
loop_
_space_group_symop_operation_xyz
x,y,z
-x,-y,-z
loop_
_atom_site_type_symbol
_atom_site_label
_atom_site_fract_x
_atom_site_fract_y
_atom_site_fract_z
Si Si1 0.974294 0.155256 0.184735
Si Si2 0.210830 0.168711 0.581692
Si Si3 0.630520 0.729774 0.916547
Si Si4 0.172782 0.174087 0.140249
Si Si5 0.438004 0.689902 0.087452
Si Si6 0.119565 0.650314 0.587277
Si Si7 0.509585 0.249740 0.546326
O O1 0.111818 0.234537 0.354386
O O2 0.096455 0.864646 0.406361
O O3 0.987331 0.221939 0.046020
O O4 0.749108 0.225653 0.015211
O O5 0.357867 0.300116 0.695015
O O6 0.011387 0.223718 0.465898
O O7 0.347584 0.887544 0.838941
O O8 0.832554 0.700665 0.027643
O O9 0.527492 0.583331 0.814600
O O10 0.529483 0.021411 0.730479
O O11 0.680119 0.569135 0.125110
O O12 0.321619 0.259148 0.308458
O O13 0.294514 0.891856 0.312818
O O14 0.000000 0.500000 0.500000
O O15 0.500000 0.500000 0.500000
#
# Coordination Sequence:
#
# PCOD9108875 Si02
#       7
#     2   2   2   2   2   2   2
#     4  11  21  46  73 107 165 192 247 330 373 452
#     4  10  21  42  72 107 159 212 239 311 391 452
#     4  10  20  45  75 105 153 204 255 312 382 467
#     4   9  23  43  75 109 143 208 247 322 389 447
#     4  10  20  40  74 112 154 201 263 299 384 463
#     4  11  23  45  69 108 156 205 258 310 377 466
#     4   9  21  48  71 107 154 198 261 316 384 464
#
# _framework density 28.883973999999998
#
# number of rings (size 3 to 8) (size 9 to 14) (size 15 to 20)
#    0.857    1.143    2.857    0.857    0.000    2.857 
#   15.429    2.143    0.000    0.857    0.000    0.000 
#    0.000    0.000    0.000    0.000    0.000    0.000 
#
# Total GULP energy -78273.081881 kJ/mol
# GULP energy per Si atom -5590.934420 kJ/mol
# Density = 2.881823 g / cm^3
# Si number density = 28.883974 Si / 1000 Ang^3
#
#
#
# Elastic Constant Matrix: (Units=GPa)
#
#
# Indices 1 2 3 4 5 6 
#
# 1 137.5956 32.8111 30.4570 1.1314 32.2989 2.9152
# 2 32.8111 207.1779 38.8769 -26.8755 -0.9427 -2.5112
# 3 30.4570 38.8769 76.4495 -10.8319 -0.7571 15.6182
# 4 1.1314 -26.8755 -10.8319 67.3237 0.5246 6.0711
# 5 32.2989 -0.9427 -0.7571 0.5246 54.7368 -9.6189
# 6 2.9152 -2.5112 15.6182 6.0711 -9.6189 35.3370
#
#
#
# Elastic Compliance Matrix: (Units=1/GPa)
#
#
# Indices 1 2 3 4 5 6 
#
# 1 0.009677 -0.001073 -0.003340 -0.001007 -0.005912 -0.000834
# 2 -0.001073 0.005725 -0.002551 0.001743 0.000958 0.001584
# 3 -0.003340 -0.002551 0.017715 0.002602 0.000745 -0.007979
# 4 -0.001007 0.001743 0.002602 0.016328 -0.000163 -0.003792
# 5 -0.005912 0.000958 0.000745 -0.000163 0.022927 0.006496
# 6 -0.000834 0.001584 -0.007979 -0.003792 0.006496 0.034427
#
#
# Mechanical properties :
#
#
# Convention : Reuss Voigt Hill
#
# Bulk Modulus (GPa) = 52.11741 69.50143 60.80942
# Shear Modulus (GPa) = 39.33195 52.75139 46.04167
#
# Velocity S-wave (km/s) = 3.69416 4.27818 3.99685
# Velocity P-wave (km/s) = 6.02317 6.96551 6.51141
#
# Compressibility (1/GPa) = 0.01918745
#
# Stress axis : x y z
#
# Youngs Moduli (GPa) = 103.34222 174.66954 56.45061
#
# Poissons Ratio (x) = 0.18749 0.18854
# Poissons Ratio (y) = 0.11093 0.14401
# Poissons Ratio (z) = 0.34516 0.44558
#
# Static dielectric constant tensor:
#      x y z
#    x 2.350340 -0.020910 0.036020 
#    y -0.020910 2.190470 0.014120 
#    z 0.036020 0.014120 2.105690 
# 
# From -- ./inp_files/601778.got.cif
#   From: 2010.05.17/outbox.cif.g08.bks.cpg/sg2_301_cif.got.tgz:601778.got - 2010.06.03 11:33:40.
