data_PCOD9108077
_publ_section_title
;
Structure prediction by ZEFSAII (Michael W. Deem and Ramdas Pophale) SiO2 
 PCOD9108077
Probable space group: P -1
;
_chemical_formula_sum "Si O2"
_cell_formula_units_Z 16
_cell_length_a 10.333050
_cell_length_b 8.800374
_cell_length_c 14.075902
_cell_angle_alpha 77.655605
_cell_angle_beta 107.621561
_cell_angle_gamma 48.225202
_cell_volume 738.175888
_symmetry_space_group_name_H-M "P -1"
_symmetry_group_IT_number 2
_symmetry_cell_setting 'triclinic'
loop_
_space_group_symop_operation_xyz
x,y,z
-x,-y,-z
loop_
_atom_site_type_symbol
_atom_site_label
_atom_site_fract_x
_atom_site_fract_y
_atom_site_fract_z
Si Si1 0.111996 0.411114 0.637681
Si Si2 0.477304 0.770344 0.224714
Si Si3 0.450455 0.308769 0.970031
Si Si4 0.707126 0.926235 0.550932
Si Si5 0.811688 0.158143 0.193684
Si Si6 0.376822 0.882049 0.705264
Si Si7 0.741206 0.713011 0.907934
Si Si8 0.687272 0.243372 0.635669
O O1 0.274504 0.410438 0.670308
O O2 0.000000 0.500000 0.500000
O O3 0.247963 0.128540 0.708454
O O4 0.924224 0.623217 0.642061
O O5 0.474193 0.768011 0.111174
O O6 0.388956 0.713806 0.278569
O O7 0.343884 0.046536 0.181665
O O8 0.249839 0.612668 0.882362
O O9 0.659671 0.191003 0.086933
O O10 0.358786 0.243757 0.016536
O O11 0.682640 0.030761 0.428166
O O12 0.709659 0.055915 0.613788
O O13 0.500000 0.000000 0.500000
O O14 0.710904 0.204889 0.267845
O O15 0.071056 0.898541 0.289586
O O16 0.630455 0.684147 0.816798
O O17 0.000000 0.500000 0.000000
O O18 0.500000 0.500000 0.500000
#
# Coordination Sequence:
#
# PCOD9108077 Si02
#       8
#     2   2   2   2   2   2   2   2
#     4   9  19  37  64  87 123 166 214 268 319 379
#     4  11  23  41  62  94 127 167 225 267 325 388
#     4  10  22  42  68  92 121 177 219 271 334 390
#     4  11  23  40  64  93 125 172 221 261 323 381
#     4  10  23  43  63  90 131 165 220 267 337 399
#     4   9  21  38  64  92 125 169 211 270 328 387
#     4  10  20  40  66  97 127 159 218 280 326 380
#     4  12  28  41  61  98 140 175 218 267 328 400
#
# _framework density 21.675052000000001
#
# number of rings (size 3 to 8) (size 9 to 14) (size 15 to 20)
#    0.000    1.750    0.000    4.125    7.000    2.000 
#    2.250    0.000    0.000    0.000    0.000    0.000 
#    0.000    0.000    0.000    0.000    0.000    0.000 
#
# Total GULP energy -89279.515038 kJ/mol
# GULP energy per Si atom -5579.969690 kJ/mol
# Density = 2.162572 g / cm^3
# Si number density = 21.675052 Si / 1000 Ang^3
#
#
#
# Elastic Constant Matrix: (Units=GPa)
#
#
# Indices 1 2 3 4 5 6 
#
# 1 97.9059 15.8376 49.7767 -7.4082 0.1326 -27.6947
# 2 15.8376 59.6164 18.7355 1.6630 8.4189 -11.9786
# 3 49.7767 18.7355 111.4699 -4.1151 -6.0973 -18.8907
# 4 -7.4082 1.6630 -4.1151 40.9747 -15.4572 0.6203
# 5 0.1326 8.4189 -6.0973 -15.4572 47.2159 -5.6042
# 6 -27.6947 -11.9786 -18.8907 0.6203 -5.6042 25.2282
#
#
#
# Elastic Compliance Matrix: (Units=1/GPa)
#
#
# Indices 1 2 3 4 5 6 
#
# 1 0.017433 -0.000376 -0.004788 0.003341 0.002371 0.015818
# 2 -0.000376 0.019503 -0.002358 -0.002666 -0.003908 0.006279
# 3 -0.004788 -0.002358 0.012307 0.001519 0.002930 0.003454
# 4 0.003341 -0.002666 0.001519 0.029293 0.010873 0.005235
# 5 0.002371 -0.003908 0.002930 0.010873 0.026832 0.008635
# 6 0.015818 0.006279 0.003454 0.005235 0.008635 0.064360
#
#
# Mechanical properties :
#
#
# Convention : Reuss Voigt Hill
#
# Bulk Modulus (GPa) = 29.24095 48.63240 38.93667
# Shear Modulus (GPa) = 25.48794 34.99327 30.24061
#
# Velocity S-wave (km/s) = 3.43288 4.02238 3.73926
# Velocity P-wave (km/s) = 5.40673 6.63766 6.05356
#
# Compressibility (1/GPa) = 0.03419862
#
# Stress axis : x y z
#
# Youngs Moduli (GPa) = 57.36233 51.27468 81.25488
#
# Poissons Ratio (x) = 0.01930 0.38902
# Poissons Ratio (y) = 0.02159 0.19161
# Poissons Ratio (z) = 0.27463 0.12091
#
# Static dielectric constant tensor:
#      x y z
#    x 1.780460 0.003300 0.008550 
#    y 0.003300 1.857940 -0.004030 
#    z 0.008550 -0.004030 1.786270 
# 
# From -- ./inp_files/494690.got.cif
#   From: 2010.05.17/outbox.cif.g08.bks.cpg/sg2_248_cif.got.tgz:494690.got - 2010.06.03 11:33:40.
