data_PCOD9108751
_publ_section_title
;
Structure prediction by ZEFSAII (Michael W. Deem and Ramdas Pophale) SiO2 
 PCOD9108751
Probable space group: P -1
;
_chemical_formula_sum "Si O2"
_cell_formula_units_Z 16
_cell_length_a 14.753185
_cell_length_b 8.748606
_cell_length_c 8.845857
_cell_angle_alpha 91.235896
_cell_angle_beta 139.712086
_cell_angle_gamma 99.751174
_cell_volume 706.957185
_symmetry_space_group_name_H-M "P -1"
_symmetry_group_IT_number 2
_symmetry_cell_setting 'triclinic'
loop_
_space_group_symop_operation_xyz
x,y,z
-x,-y,-z
loop_
_atom_site_type_symbol
_atom_site_label
_atom_site_fract_x
_atom_site_fract_y
_atom_site_fract_z
Si Si1 0.045614 0.888363 0.431730
Si Si2 0.454148 0.372788 0.806576
Si Si3 0.625223 0.929428 0.099451
Si Si4 0.260255 0.537929 0.363332
Si Si5 0.054442 0.537415 0.372203
Si Si6 0.213798 0.262002 0.075181
Si Si7 0.236242 0.524854 0.884200
Si Si8 0.480391 0.150448 0.384280
O O1 0.028610 0.698896 0.410458
O O2 0.218717 0.951331 0.662207
O O3 0.000000 0.000000 0.500000
O O4 0.931969 0.880965 0.147971
O O5 0.374292 0.216528 0.793435
O O6 0.362635 0.450233 0.581085
O O7 0.500000 0.500000 0.000000
O O8 0.602506 0.353777 0.918095
O O9 0.586169 0.893120 0.871734
O O10 0.500000 0.000000 0.000000
O O11 0.136660 0.565303 0.318360
O O12 0.184742 0.398540 0.146695
O O13 0.370196 0.702003 0.440636
O O14 0.167904 0.493751 0.629576
O O15 0.888634 0.422278 0.178181
O O16 0.351779 0.207747 0.302373
O O17 0.262468 0.365248 0.985207
O O18 0.500000 0.000000 0.500000
#
# Coordination Sequence:
#
# PCOD9108751 Si02
#       8
#     2   2   2   2   2   2   2   2
#     4  11  24  46  72 100 153 198 247 299 369 452
#     4  12  22  41  76 107 141 186 253 308 364 439
#     4  12  26  45  76 111 147 193 251 310 366 445
#     4  12  25  45  75 112 151 190 254 319 368 448
#     4  10  23  41  71 109 140 190 248 307 377 437
#     4  11  25  47  73 108 149 203 253 305 380 444
#     4  10  20  40  71 102 141 182 247 305 360 444
#     4  12  26  45  73 114 157 198 247 309 389 450
#
# _framework density 22.632206
#
# number of rings (size 3 to 8) (size 9 to 14) (size 15 to 20)
#    0.000    0.750    5.000    1.875    3.500    3.000 
#    0.000    0.625    2.750    0.000    0.000    0.000 
#    0.000    0.000    0.000    0.000    0.000    0.000 
#
# Total GULP energy -89201.894859 kJ/mol
# GULP energy per Si atom -5575.118429 kJ/mol
# Density = 2.258069 g / cm^3
# Si number density = 22.632206 Si / 1000 Ang^3
#
#
#
# Elastic Constant Matrix: (Units=GPa)
#
#
# Indices 1 2 3 4 5 6 
#
# 1 116.7575 34.3354 47.5118 7.9229 13.9652 -7.8814
# 2 34.3354 86.7092 28.1532 -10.1636 -18.3297 -3.6589
# 3 47.5118 28.1532 111.1604 9.4535 7.3614 4.8112
# 4 7.9229 -10.1636 9.4535 51.0509 -2.1239 1.1107
# 5 13.9652 -18.3297 7.3614 -2.1239 29.3049 0.2542
# 6 -7.8814 -3.6589 4.8112 1.1107 0.2542 27.3832
#
#
#
# Elastic Compliance Matrix: (Units=1/GPa)
#
#
# Indices 1 2 3 4 5 6 
#
# 1 0.013557 -0.006637 -0.003333 -0.003310 -0.010048 0.003828
# 2 -0.006637 0.019803 -0.003889 0.006377 0.016980 0.001003
# 3 -0.003333 -0.003889 0.012041 -0.002579 -0.004026 -0.003452
# 4 -0.003310 0.006377 -0.002579 0.022188 0.007827 -0.000620
# 5 -0.010048 0.016980 -0.004026 0.007827 0.051118 -0.000708
# 6 0.003828 0.001003 -0.003452 -0.000620 -0.000708 0.038393
#
#
# Mechanical properties :
#
#
# Convention : Reuss Voigt Hill
#
# Bulk Modulus (GPa) = 56.54776 59.40311 57.97544
# Shear Modulus (GPa) = 26.21768 35.18958 30.70363
#
# Velocity S-wave (km/s) = 3.40725 3.94743 3.68725
# Velocity P-wave (km/s) = 6.36545 6.86152 6.61813
#
# Compressibility (1/GPa) = 0.01768417
#
# Stress axis : x y z
#
# Youngs Moduli (GPa) = 73.76001 50.49804 83.05176
#
# Poissons Ratio (x) = 0.33515 0.27678
# Poissons Ratio (y) = 0.48954 0.32297
# Poissons Ratio (z) = 0.24581 0.19638
#
# Static dielectric constant tensor:
#      x y z
#    x 1.915890 -0.038760 0.016410 
#    y -0.038760 1.730300 0.026850 
#    z 0.016410 0.026850 1.975130 
# 
# From -- ./inp_files/298636.got.cif
#   From: 2010.05.17/outbox.cif.g08.bks.cpg/sg2_150_cif.got.tgz:298636.got - 2010.06.03 11:33:40.
