data_PCOD9108196
_publ_section_title
;
Structure prediction by ZEFSAII (Michael W. Deem and Ramdas Pophale) SiO2 
 PCOD9108196
Probable space group: P -1
;
_chemical_formula_sum "Si O2"
_cell_formula_units_Z 16
_cell_length_a 4.930700
_cell_length_b 18.281117
_cell_length_c 22.083280
_cell_angle_alpha 162.116668
_cell_angle_beta 85.806036
_cell_angle_gamma 93.378618
_cell_volume 609.253527
_symmetry_space_group_name_H-M "P -1"
_symmetry_group_IT_number 2
_symmetry_cell_setting 'triclinic'
loop_
_space_group_symop_operation_xyz
x,y,z
-x,-y,-z
loop_
_atom_site_type_symbol
_atom_site_label
_atom_site_fract_x
_atom_site_fract_y
_atom_site_fract_z
Si Si1 0.975475 0.028211 0.807207
Si Si2 0.394270 0.268415 0.194696
Si Si3 0.840472 0.357597 0.339476
Si Si4 0.113533 0.163926 0.463045
Si Si5 0.389342 0.131540 0.733989
Si Si6 0.447857 0.053880 0.906020
Si Si7 0.323608 0.646482 0.205013
Si Si8 0.191502 0.448253 0.797987
O O1 0.976332 0.823250 0.595278
O O2 0.756554 0.985339 0.829661
O O3 0.268310 0.083957 0.872743
O O4 0.865341 0.272481 0.970699
O O5 0.583412 0.440763 0.366720
O O6 0.081685 0.285936 0.232775
O O7 0.434730 0.275063 0.127146
O O8 0.500000 0.000000 0.000000
O O9 0.000000 0.500000 0.500000
O O10 0.704908 0.152511 0.219313
O O11 0.411007 0.038346 0.363609
O O12 0.898937 0.989134 0.359691
O O13 0.124169 0.392200 0.685511
O O14 0.543195 0.171601 0.699775
O O15 0.348024 0.390109 0.969020
O O16 0.013581 0.687261 0.261656
O O17 0.505094 0.622872 0.243746
#
# Coordination Sequence:
#
# PCOD9108196 Si02
#       8
#     2   2   2   2   2   2   2   2
#     4  12  24  45  63  91 133 177 218 256 314 381
#     4  10  20  40  67  92 124 166 205 245 317 374
#     4  11  22  41  68 103 134 156 201 273 323 357
#     4  12  25  43  66  91 131 169 216 272 325 376
#     4  11  22  41  68  95 125 167 212 277 335 387
#     4  11  23  42  69  89 126 175 212 250 313 384
#     4  11  22  41  68  95 125 166 218 267 340 390
#     4  12  25  43  66  92 127 173 216 270 323 383
#
# _framework density 26.261642999999999
#
# number of rings (size 3 to 8) (size 9 to 14) (size 15 to 20)
#    0.000    0.750    2.500    7.125    0.000    5.000 
#    6.750    0.000    0.000    0.000    0.000    0.000 
#    0.000    0.000    0.000    0.000    0.000    0.000 
#
# Total GULP energy -89659.985581 kJ/mol
# GULP energy per Si atom -5603.749099 kJ/mol
# Density = 2.620187 g / cm^3
# Si number density = 26.261643 Si / 1000 Ang^3
#
#
#
# Elastic Constant Matrix: (Units=GPa)
#
#
# Indices 1 2 3 4 5 6 
#
# 1 129.7010 28.0590 5.7697 -7.9151 14.6268 15.4204
# 2 28.0590 86.0458 21.5340 -23.4880 11.9631 20.3881
# 3 5.7697 21.5340 78.3496 -23.5780 18.8854 7.2548
# 4 -7.9151 -23.4880 -23.5780 46.8795 -2.3124 6.9993
# 5 14.6268 11.9631 18.8854 -2.3124 36.6827 -8.1660
# 6 15.4204 20.3881 7.2548 6.9993 -8.1660 56.9386
#
#
#
# Elastic Compliance Matrix: (Units=1/GPa)
#
#
# Indices 1 2 3 4 5 6 
#
# 1 0.008927 -0.001516 0.001646 0.001795 -0.004455 -0.002944
# 2 -0.001516 0.017410 0.000532 0.009609 -0.006525 -0.008008
# 3 0.001646 0.000532 0.018864 0.010363 -0.011206 -0.005921
# 4 0.001795 0.009609 0.010363 0.032781 -0.009486 -0.010637
# 5 -0.004455 -0.006525 -0.011206 -0.009486 0.038946 0.011722
# 6 -0.002944 -0.008008 -0.005921 -0.010637 0.011722 0.024971
#
#
# Mechanical properties :
#
#
# Convention : Reuss Voigt Hill
#
# Bulk Modulus (GPa) = 21.49352 44.98021 33.23687
# Shear Modulus (GPa) = 32.03425 44.01574 38.02500
#
# Velocity S-wave (km/s) = 3.49637 4.09840 3.80929
# Velocity P-wave (km/s) = 4.94991 6.28973 5.65961
#
# Compressibility (1/GPa) = 0.04652565
#
# Stress axis : x y z
#
# Youngs Moduli (GPa) = 112.02333 57.43699 53.01108
#
# Poissons Ratio (x) = 0.08707 -0.08725
# Poissons Ratio (y) = 0.16981 -0.02822
# Poissons Ratio (z) = -0.18438 -0.03057
#
# Static dielectric constant tensor:
#      x y z
#    x 1.961880 -0.040240 0.034070 
#    y -0.040240 2.139360 -0.010290 
#    z 0.034070 -0.010290 2.098940 
# 
# From -- ./inp_files/584085.got.cif
#   From: 2010.05.17/outbox.cif.g08.bks.cpg/sg2_293_cif.got.tgz:584085.got - 2010.06.03 11:33:40.
