data_PCOD9108663
_publ_section_title
;
Structure prediction by ZEFSAII (Michael W. Deem and Ramdas Pophale) SiO2 
 PCOD9108663
Probable space group: P -1
;
_chemical_formula_sum "Si O2"
_cell_formula_units_Z 14
_cell_length_a 10.594973
_cell_length_b 19.195154
_cell_length_c 14.320102
_cell_angle_alpha 18.622019
_cell_angle_beta 138.967851
_cell_angle_gamma 146.915604
_cell_volume 494.331160
_symmetry_space_group_name_H-M "P -1"
_symmetry_group_IT_number 2
_symmetry_cell_setting 'triclinic'
loop_
_space_group_symop_operation_xyz
x,y,z
-x,-y,-z
loop_
_atom_site_type_symbol
_atom_site_label
_atom_site_fract_x
_atom_site_fract_y
_atom_site_fract_z
Si Si1 0.058226 0.207419 0.394261
Si Si2 0.561893 0.464562 0.343567
Si Si3 0.106433 0.647269 0.592217
Si Si4 0.713136 0.899990 0.023379
Si Si5 0.429545 0.263795 0.188294
Si Si6 0.797941 0.329607 0.981482
Si Si7 0.237371 0.828114 0.121195
O O1 0.285628 0.205180 0.521651
O O2 0.181530 0.508174 0.121770
O O3 0.825855 0.995317 0.592959
O O4 0.955219 0.219286 0.222821
O O5 0.625974 0.621108 0.279715
O O6 0.737209 0.378103 0.541623
O O7 0.577400 0.640774 0.040832
O O8 0.355072 0.762907 0.636610
O O9 0.908047 0.547859 0.685390
O O10 0.987750 0.370021 0.819330
O O11 0.128914 0.871504 0.254678
O O12 0.474844 0.891074 0.905902
O O13 0.801682 0.991158 0.062336
O O14 0.500000 0.500000 0.000000
O O15 0.500000 0.000000 0.000000
#
# Coordination Sequence:
#
# PCOD9108663 Si02
#       7
#     2   2   2   2   2   2   2
#     4  10  22  41  70 105 145 176 236 291 355 415
#     4  11  27  48  74 107 140 187 240 295 350 423
#     4  12  24  44  71 102 147 189 230 293 356 418
#     4  11  24  47  74 102 144 188 238 291 354 420
#     4  12  26  41  72 111 143 184 237 293 354 419
#     4  10  20  40  70 107 136 185 229 295 354 413
#     4  12  28  50  72 102 145 192 237 289 361 424
#
# _framework density 28.321096000000001
#
# number of rings (size 3 to 8) (size 9 to 14) (size 15 to 20)
#    0.000    0.857    4.286    2.143    2.000    2.857 
#    0.000    0.000    0.000    0.000    0.000    0.000 
#    0.000    0.000    0.000    0.000    0.000    0.000 
#
# Total GULP energy -78479.160874 kJ/mol
# GULP energy per Si atom -5605.654348 kJ/mol
# Density = 2.825664 g / cm^3
# Si number density = 28.321096 Si / 1000 Ang^3
#
#
#
# Elastic Constant Matrix: (Units=GPa)
#
#
# Indices 1 2 3 4 5 6 
#
# 1 93.9076 45.3631 26.6180 1.3163 -7.4318 -17.0782
# 2 45.3631 191.7453 45.3583 -11.7436 6.1065 15.6619
# 3 26.6180 45.3583 96.0433 1.5945 -16.7138 1.8846
# 4 1.3163 -11.7436 1.5945 46.7121 2.6463 14.7714
# 5 -7.4318 6.1065 -16.7138 2.6463 63.0986 -16.6180
# 6 -17.0782 15.6619 1.8846 14.7714 -16.6180 62.2448
#
#
#
# Elastic Compliance Matrix: (Units=1/GPa)
#
#
# Indices 1 2 3 4 5 6 
#
# 1 0.014643 -0.004000 -0.001603 -0.003769 0.003675 0.006948
# 2 -0.004000 0.007615 -0.003055 0.003826 -0.003427 -0.004744
# 3 -0.001603 -0.003055 0.012999 -0.001850 0.004008 0.001444
# 4 -0.003769 0.003826 -0.001850 0.025770 -0.004848 -0.009351
# 5 0.003675 -0.003427 0.004008 -0.004848 0.020051 0.008253
# 6 0.006948 -0.004744 0.001444 -0.009351 0.008253 0.023544
#
#
# Mechanical properties :
#
#
# Convention : Reuss Voigt Hill
#
# Bulk Modulus (GPa) = 55.73954 68.48610 62.11282
# Shear Modulus (GPa) = 39.08715 52.03488 45.56101
#
# Velocity S-wave (km/s) = 3.71906 4.29105 4.01525
# Velocity P-wave (km/s) = 6.17785 6.98465 6.59360
#
# Compressibility (1/GPa) = 0.01794059
#
# Stress axis : x y z
#
# Youngs Moduli (GPa) = 68.29234 131.31628 76.93076
#
# Poissons Ratio (x) = 0.52532 0.12333
# Poissons Ratio (y) = 0.27320 0.23499
# Poissons Ratio (z) = 0.10948 0.40111
#
# Static dielectric constant tensor:
#      x y z
#    x 2.172760 0.031810 0.023930 
#    y 0.031810 2.225510 0.093690 
#    z 0.023930 0.093690 2.242350 
# 
# From -- ./inp_files/186869.got.cif
#   From: 2010.05.17/outbox.cif.g08.bks.cpg/sg2_94_cif.got.tgz:186869.got - 2010.06.03 11:33:40.
