data_PCOD9108848
_publ_section_title
;
Structure prediction by ZEFSAII (Michael W. Deem and Ramdas Pophale) SiO2 
 PCOD9108848
Probable space group: P -1
;
_chemical_formula_sum "Si O2"
_cell_formula_units_Z 10
_cell_length_a 7.261815
_cell_length_b 11.986001
_cell_length_c 6.480693
_cell_angle_alpha 132.569318
_cell_angle_beta 85.023362
_cell_angle_gamma 75.139623
_cell_volume 373.731224
_symmetry_space_group_name_H-M "P -1"
_symmetry_group_IT_number 2
_symmetry_cell_setting 'triclinic'
loop_
_space_group_symop_operation_xyz
x,y,z
-x,-y,-z
loop_
_atom_site_type_symbol
_atom_site_label
_atom_site_fract_x
_atom_site_fract_y
_atom_site_fract_z
Si Si1 0.432445 0.685569 0.656792
Si Si2 0.304722 0.471290 0.909256
Si Si3 0.786120 0.008184 0.628554
Si Si4 0.112197 0.288470 0.969808
Si Si5 0.997717 0.818104 0.737229
O O1 0.500000 0.500000 0.500000
O O2 0.607662 0.668752 0.457659
O O3 0.500000 0.500000 0.000000
O O4 0.237944 0.718482 0.572856
O O5 0.218138 0.401645 0.018172
O O6 0.113353 0.627372 0.015979
O O7 0.732516 0.908884 0.331107
O O8 0.854345 0.863277 0.613530
O O9 0.000000 0.000000 0.500000
O O10 0.643087 0.178258 0.976889
O O11 0.064784 0.276080 0.197589
O O12 0.000000 0.000000 0.000000
#
# Coordination Sequence:
#
# PCOD9108848 Si02
#       5
#     2   2   2   2   2
#     4  11  21  40  70 105 143 188 242 298 358 430
#     4  11  25  47  73 109 150 190 247 310 358 436
#     4  11  21  41  74 104 147 191 238 302 364 436
#     4  11  23  47  76 104 148 201 237 296 385 426
#     4  10  20  40  73 104 142 192 240 290 370 441
#
# _framework density 26.757199
#
# number of rings (size 3 to 8) (size 9 to 14) (size 15 to 20)
#    0.000    1.200    6.000    1.200    0.000    0.800 
#    3.600    7.000    0.000    1.200    0.000    0.000 
#    0.000    0.000    0.000    0.000    0.000    0.000 
#
# Total GULP energy -55764.387389 kJ/mol
# GULP energy per Si atom -5576.438739 kJ/mol
# Density = 2.669630 g / cm^3
# Si number density = 26.757199 Si / 1000 Ang^3
#
#
#
# Elastic Constant Matrix: (Units=GPa)
#
#
# Indices 1 2 3 4 5 6 
#
# 1 120.5357 59.0829 40.3440 10.5614 -15.4416 11.3604
# 2 59.0829 164.7733 55.8584 -20.0024 -33.4125 6.5083
# 3 40.3440 55.8584 170.4739 29.3356 -51.6323 7.1333
# 4 10.5614 -20.0024 29.3356 57.1800 -3.1387 -15.0419
# 5 -15.4416 -33.4125 -51.6323 -3.1387 36.8180 1.9047
# 6 11.3604 6.5083 7.1333 -15.0419 1.9047 49.2710
#
#
#
# Elastic Compliance Matrix: (Units=1/GPa)
#
#
# Indices 1 2 3 4 5 6 
#
# 1 0.011193 -0.004248 -0.000341 -0.004228 0.000169 -0.003268
# 2 -0.004248 0.009870 -0.001720 0.005797 0.005181 0.001494
# 3 -0.000341 -0.001720 0.012731 -0.007361 0.015749 -0.004393
# 4 -0.004228 0.005797 -0.007361 0.026294 -0.005086 0.009499
# 5 0.000169 0.005181 0.015749 -0.005086 0.053930 -0.006641
# 6 -0.003268 0.001494 -0.004393 0.009499 -0.006641 0.024645
#
#
# Mechanical properties :
#
#
# Convention : Reuss Voigt Hill
#
# Bulk Modulus (GPa) = 47.22226 85.15038 66.18632
# Shear Modulus (GPa) = 31.57790 48.68698 40.13244
#
# Velocity S-wave (km/s) = 3.43908 4.27029 3.87702
# Velocity P-wave (km/s) = 5.78415 7.49708 6.69562
#
# Compressibility (1/GPa) = 0.02117645
#
# Stress axis : x y z
#
# Youngs Moduli (GPa) = 89.34366 101.31383 78.54842
#
# Poissons Ratio (x) = 0.43033 0.02682
# Poissons Ratio (y) = 0.37949 0.13509
# Poissons Ratio (z) = 0.03050 0.17425
#
# Static dielectric constant tensor:
#      x y z
#    x 2.098990 -0.142790 -0.002420 
#    y -0.142790 2.187500 -0.102150 
#    z -0.002420 -0.102150 2.185060 
# 
# From -- ./inp_files/24041.got.cif
#   From: 2010.05.17/outbox.cif.g08.bks.cpg/sg2_13_cif.got.tgz:24041.got - 2010.06.03 11:33:40.
