data_PCOD9108727
_publ_section_title
;
Structure prediction by ZEFSAII (Michael W. Deem and Ramdas Pophale) SiO2 
 PCOD9108727
Probable space group: P -1
;
_chemical_formula_sum "Si O2"
_cell_formula_units_Z 14
_cell_length_a 13.892257
_cell_length_b 9.236020
_cell_length_c 7.837101
_cell_angle_alpha 49.216782
_cell_angle_beta 53.160864
_cell_angle_gamma 83.879728
_cell_volume 537.759545
_symmetry_space_group_name_H-M "P -1"
_symmetry_group_IT_number 2
_symmetry_cell_setting 'triclinic'
loop_
_space_group_symop_operation_xyz
x,y,z
-x,-y,-z
loop_
_atom_site_type_symbol
_atom_site_label
_atom_site_fract_x
_atom_site_fract_y
_atom_site_fract_z
Si Si1 0.336314 0.760867 0.174149
Si Si2 0.583156 0.367872 0.488407
Si Si3 0.814601 0.033414 0.225088
Si Si4 0.171530 0.920460 0.435517
Si Si5 0.897699 0.650214 0.443570
Si Si6 0.128462 0.344587 0.141886
Si Si7 0.489671 0.275483 0.273573
O O1 0.437081 0.763453 0.215517
O O2 0.274540 0.912278 0.193952
O O3 0.202274 0.536291 0.433835
O O4 0.430028 0.804363 0.876063
O O5 0.500000 0.500000 0.500000
O O6 0.552901 0.307113 0.369604
O O7 0.747620 0.488035 0.227784
O O8 0.791714 0.087091 0.401378
O O9 0.863755 0.849941 0.313388
O O10 0.666516 0.903672 0.402880
O O11 0.940018 0.241426 0.847106
O O12 0.020693 0.726239 0.714717
O O13 0.154819 0.135648 0.270345
O O14 0.865439 0.582349 0.726509
O O15 0.500000 0.500000 0.000000
#
# Coordination Sequence:
#
# PCOD9108727 Si02
#       7
#     2   2   2   2   2   2   2
#     4  12  25  44  74 105 140 179 235 295 338 405
#     4  12  24  41  75 103 135 191 234 272 351 426
#     4  10  21  40  65  96 141 180 226 279 348 405
#     4  10  24  43  70 101 139 179 234 294 343 404
#     4  10  20  40  70  98 132 184 229 287 334 407
#     4  10  22  46  71  99 139 188 232 281 356 414
#     4  12  22  45  68 100 143 187 226 282 348 420
#
# _framework density 26.033940000000001
#
# number of rings (size 3 to 8) (size 9 to 14) (size 15 to 20)
#    0.000    1.143    4.286    1.714    0.000    8.000 
#    2.571    0.714    0.000    0.000    0.000    0.000 
#    0.000    0.000    0.000    0.000    0.000    0.000 
#
# Total GULP energy -78406.256671 kJ/mol
# GULP energy per Si atom -5600.446905 kJ/mol
# Density = 2.597469 g / cm^3
# Si number density = 26.033940 Si / 1000 Ang^3
#
#
#
# Elastic Constant Matrix: (Units=GPa)
#
#
# Indices 1 2 3 4 5 6 
#
# 1 113.4059 60.6352 15.7428 1.5498 -0.5528 26.5748
# 2 60.6352 161.1628 57.7732 32.7044 7.8754 -9.2405
# 3 15.7428 57.7732 112.8115 24.3457 -20.1529 20.5240
# 4 1.5498 32.7044 24.3457 45.4462 7.6890 -4.6334
# 5 -0.5528 7.8754 -20.1529 7.6890 41.1346 10.2349
# 6 26.5748 -9.2405 20.5240 -4.6334 10.2349 56.9133
#
#
#
# Elastic Compliance Matrix: (Units=1/GPa)
#
#
# Indices 1 2 3 4 5 6 
#
# 1 0.016079 -0.009538 0.006456 0.000124 0.008387 -0.012883
# 2 -0.009538 0.015033 -0.010039 -0.002075 -0.010584 0.012249
# 3 0.006456 -0.010039 0.021317 -0.009168 0.018236 -0.016358
# 4 0.000124 -0.002075 -0.009168 0.031174 -0.011804 0.007572
# 5 0.008387 -0.010584 0.018236 -0.011804 0.042782 -0.020866
# 6 -0.012883 0.012249 -0.016358 0.007572 -0.020866 0.035842
#
#
# Mechanical properties :
#
#
# Convention : Reuss Voigt Hill
#
# Bulk Modulus (GPa) = 38.18650 72.85363 55.52007
# Shear Modulus (GPa) = 25.35524 45.58075 35.46799
#
# Velocity S-wave (km/s) = 3.12417 4.18882 3.69504
# Velocity P-wave (km/s) = 5.26438 7.17215 6.29101
#
# Compressibility (1/GPa) = 0.02618726
#
# Stress axis : x y z
#
# Youngs Moduli (GPa) = 62.19213 66.52182 46.91083
#
# Poissons Ratio (x) = 0.63445 -0.30284
# Poissons Ratio (y) = 0.59316 0.47094
# Poissons Ratio (z) = -0.40150 0.66782
#
# Static dielectric constant tensor:
#      x y z
#    x 2.046520 -0.042690 0.052550 
#    y -0.042690 2.054440 -0.104480 
#    z 0.052550 -0.104480 2.081950 
# 
# From -- ./inp_files/297564.got.cif
#   From: 2010.05.17/outbox.cif.g08.bks.cpg/sg2_149_cif.got.tgz:297564.got - 2010.06.03 11:33:40.
