data_PCOD9108420
_publ_section_title
;
Structure prediction by ZEFSAII (Michael W. Deem and Ramdas Pophale) SiO2 
 PCOD9108420
Probable space group: P -1
;
_chemical_formula_sum "Si O2"
_cell_formula_units_Z 16
_cell_length_a 8.865925
_cell_length_b 12.372577
_cell_length_c 7.712515
_cell_angle_alpha 105.954718
_cell_angle_beta 52.390242
_cell_angle_gamma 86.430008
_cell_volume 614.300927
_symmetry_space_group_name_H-M "P -1"
_symmetry_group_IT_number 2
_symmetry_cell_setting 'triclinic'
loop_
_space_group_symop_operation_xyz
x,y,z
-x,-y,-z
loop_
_atom_site_type_symbol
_atom_site_label
_atom_site_fract_x
_atom_site_fract_y
_atom_site_fract_z
Si Si1 0.023253 0.105735 0.186752
Si Si2 0.634123 0.051118 0.556473
Si Si3 0.833288 0.168069 0.017076
Si Si4 0.561637 0.382453 0.526283
Si Si5 0.842071 0.614919 0.235520
Si Si6 0.484674 0.768443 0.991383
Si Si7 0.771381 0.525047 0.619614
Si Si8 0.808418 0.825875 0.561647
O O1 0.797678 0.100516 0.371827
O O2 0.023823 0.152673 0.010446
O O3 0.074536 0.177185 0.342233
O O4 0.162067 0.970091 0.044308
O O5 0.500000 0.000000 0.500000
O O6 0.762043 0.948747 0.549880
O O7 0.504358 0.152636 0.817357
O O8 0.682101 0.277108 0.273967
O O9 0.744213 0.204648 0.900765
O O10 0.500000 0.500000 0.500000
O O11 0.360805 0.357133 0.718311
O O12 0.694288 0.412192 0.599012
O O13 0.783691 0.575097 0.443054
O O14 0.901835 0.728575 0.303966
O O15 0.000000 0.500000 0.000000
O O16 0.605970 0.631503 0.875265
O O17 0.599498 0.811493 0.771361
O O18 0.000000 0.500000 0.500000
#
# Coordination Sequence:
#
# PCOD9108420 Si02
#       8
#     2   2   2   2   2   2   2   2
#     4  11  27  40  66 100 127 174 217 276 323 393
#     4  12  27  41  64  97 132 170 220 267 330 383
#     4  11  22  43  70  92 132 170 224 255 340 388
#     4  10  20  40  68  95 125 174 216 263 325 392
#     4  10  23  41  65  95 128 169 213 270 331 381
#     4  11  23  43  68  92 133 175 211 272 327 394
#     4  10  23  42  65  97 127 171 224 265 324 391
#     4  11  23  43  64  93 132 170 214 266 328 391
#
# _framework density 26.045864999999999
#
# number of rings (size 3 to 8) (size 9 to 14) (size 15 to 20)
#    0.000    1.250    5.000    1.500    7.000    4.000 
#    0.000    0.625    0.000    0.000    0.000    0.000 
#    0.000    0.000    0.000    0.000    0.000    0.000 
#
# Total GULP energy -89341.447748 kJ/mol
# GULP energy per Si atom -5583.840484 kJ/mol
# Density = 2.598658 g / cm^3
# Si number density = 26.045865 Si / 1000 Ang^3
#
#
#
# Elastic Constant Matrix: (Units=GPa)
#
#
# Indices 1 2 3 4 5 6 
#
# 1 214.0048 36.1368 28.4970 25.6508 27.9296 12.0613
# 2 36.1368 53.1681 27.0266 17.5520 16.1511 -4.9081
# 3 28.4970 27.0266 128.5824 50.0604 34.6568 -2.4300
# 4 25.6508 17.5520 50.0604 59.0501 2.3676 3.1495
# 5 27.9296 16.1511 34.6568 2.3676 38.9648 10.0669
# 6 12.0613 -4.9081 -2.4300 3.1495 10.0669 38.3599
#
#
#
# Elastic Compliance Matrix: (Units=1/GPa)
#
#
# Indices 1 2 3 4 5 6 
#
# 1 0.005817 -0.002651 0.001339 -0.002673 -0.003880 -0.000845
# 2 -0.002651 0.027022 0.001567 -0.008157 -0.012343 0.008299
# 3 0.001339 0.001567 0.019133 -0.016884 -0.019540 0.007506
# 4 -0.002673 -0.008157 -0.016884 0.034514 0.020681 -0.009534
# 5 -0.003880 -0.012343 -0.019540 0.020681 0.054212 -0.017522
# 6 -0.000845 0.008299 0.007506 -0.009534 -0.017522 0.033253
#
#
# Mechanical properties :
#
#
# Convention : Reuss Voigt Hill
#
# Bulk Modulus (GPa) = 19.05457 64.34180 41.69819
# Shear Modulus (GPa) = 26.18709 47.54792 36.86751
#
# Velocity S-wave (km/s) = 3.17428 4.27728 3.76637
# Velocity P-wave (km/s) = 4.55702 7.01073 5.91256
#
# Compressibility (1/GPa) = 0.05248085
#
# Stress axis : x y z
#
# Youngs Moduli (GPa) = 171.92237 37.00744 52.26545
#
# Poissons Ratio (x) = 0.09810 -0.06996
# Poissons Ratio (y) = 0.45572 -0.08190
# Poissons Ratio (z) = -0.23012 -0.05799
#
# Static dielectric constant tensor:
#      x y z
#    x 2.467160 0.714470 -0.234430 
#    y 0.714470 2.800560 -0.393340 
#    z -0.234430 -0.393340 2.278030 
# 
# From -- ./inp_files/208635.got.cif
#   From: 2010.05.17/outbox.cif.g08.bks.cpg/sg2_105_cif.got.tgz:208635.got - 2010.06.03 11:33:40.
