data_PCOD9108188
_publ_section_title
;
Structure prediction by ZEFSAII (Michael W. Deem and Ramdas Pophale) SiO2 
 PCOD9108188
Probable space group: P -1
;
_chemical_formula_sum "Si O2"
_cell_formula_units_Z 14
_cell_length_a 21.360091
_cell_length_b 21.615273
_cell_length_c 8.202841
_cell_angle_alpha 49.096183
_cell_angle_beta 48.607340
_cell_angle_gamma 13.388829
_cell_volume 656.449717
_symmetry_space_group_name_H-M "P -1"
_symmetry_group_IT_number 2
_symmetry_cell_setting 'triclinic'
loop_
_space_group_symop_operation_xyz
x,y,z
-x,-y,-z
loop_
_atom_site_type_symbol
_atom_site_label
_atom_site_fract_x
_atom_site_fract_y
_atom_site_fract_z
Si Si1 0.250799 0.896649 0.120031
Si Si2 0.437903 0.884421 0.658808
Si Si3 0.316207 0.594613 0.592966
Si Si4 0.287353 0.321115 0.765530
Si Si5 0.013964 0.389642 0.662906
Si Si6 0.774545 0.807182 0.011193
Si Si7 0.747205 0.252671 0.880431
O O1 0.487040 0.664187 0.250884
O O2 0.291445 0.790744 0.092213
O O3 0.274550 0.960960 0.879858
O O4 0.959675 0.153793 0.262016
O O5 0.551521 0.771229 0.475513
O O6 0.713310 0.638729 0.712588
O O7 0.235497 0.150680 0.564038
O O8 0.500000 0.500000 0.500000
O O9 0.238585 0.686417 0.381165
O O10 0.001045 0.619569 0.811076
O O11 0.482450 0.115447 0.934518
O O12 0.240409 0.278188 0.826735
O O13 0.000000 0.500000 0.500000
O O14 0.126965 0.256933 0.872229
O O15 0.500000 0.500000 0.000000
O O16 0.000000 0.000000 0.000000
#
# Coordination Sequence:
#
# PCOD9108188 Si02
#       7
#     2   2   2   2   2   2   2
#     4  11  23  42  62  92 130 169 204 251 318 381
#     4  12  25  41  62  90 127 166 208 266 325 360
#     4  10  20  40  67  91 125 167 206 242 299 385
#     4  10  21  37  60  84 116 158 197 257 318 371
#     4  12  24  40  63  91 117 163 220 271 301 369
#     4  10  21  37  59  85 113 151 212 259 306 365
#     4  11  21  38  67  99 121 159 207 253 293 368
#
# _framework density 21.326844000000001
#
# number of rings (size 3 to 8) (size 9 to 14) (size 15 to 20)
#    0.000    1.143    1.429    7.286    4.000    0.000 
#    0.000    8.571    0.000    0.000    0.000    0.000 
#    0.000    0.000    0.000    0.000    0.000    0.000 
#
# Total GULP energy -78273.537798 kJ/mol
# GULP energy per Si atom -5590.966986 kJ/mol
# Density = 2.127830 g / cm^3
# Si number density = 21.326844 Si / 1000 Ang^3
#
#
#
# Elastic Constant Matrix: (Units=GPa)
#
#
# Indices 1 2 3 4 5 6 
#
# 1 32.7518 21.7689 19.2366 1.4068 18.2085 -12.7821
# 2 21.7689 139.9045 29.1789 18.4950 9.3001 -6.6807
# 3 19.2366 29.1789 112.0236 18.3935 15.2205 -3.8731
# 4 1.4068 18.4950 18.3935 48.0675 -3.8685 10.7717
# 5 18.2085 9.3001 15.2205 -3.8685 24.5432 -5.7611
# 6 -12.7821 -6.6807 -3.8731 10.7717 -5.7611 22.8418
#
#
#
# Elastic Compliance Matrix: (Units=1/GPa)
#
#
# Indices 1 2 3 4 5 6 
#
# 1 0.073616 -0.005032 -0.002371 -0.010293 -0.045166 0.032784
# 2 -0.005032 0.008513 -0.000953 -0.002944 0.000899 0.001127
# 3 -0.002371 -0.000953 0.011054 -0.004448 -0.005188 0.001058
# 4 -0.010293 -0.002944 -0.004448 0.028934 0.011838 -0.018034
# 5 -0.045166 0.000899 -0.005188 0.011838 0.076113 -0.012276
# 6 0.032784 0.001127 0.001058 -0.018034 -0.012276 0.068042
#
#
# Mechanical properties :
#
#
# Convention : Reuss Voigt Hill
#
# Bulk Modulus (GPa) = 13.07668 47.22763 30.15215
# Shear Modulus (GPa) = 16.20884 33.39022 24.79953
#
# Velocity S-wave (km/s) = 2.75984 3.96111 3.41373
# Velocity P-wave (km/s) = 4.03738 6.56607 5.45040
#
# Compressibility (1/GPa) = 0.07647203
#
# Stress axis : x y z
#
# Youngs Moduli (GPa) = 13.58400 117.47227 90.46581
#
# Poissons Ratio (x) = 0.59107 0.21446
# Poissons Ratio (y) = 0.06835 0.08622
# Poissons Ratio (z) = 0.03220 0.11196
#
# Static dielectric constant tensor:
#      x y z
#    x 1.775440 -0.002410 0.001570 
#    y -0.002410 1.746340 -0.026490 
#    z 0.001570 -0.026490 1.813050 
# 
# From -- ./inp_files/343956.got.cif
#   From: 2010.05.17/outbox.cif.g08.bks.cpg/sg2_172_cif.got.tgz:343956.got - 2010.06.03 11:33:40.
