data_PCOD9108381
_publ_section_title
;
Structure prediction by ZEFSAII (Michael W. Deem and Ramdas Pophale) SiO2 
 PCOD9108381
Probable space group: P -1
;
_chemical_formula_sum "Si O2"
_cell_formula_units_Z 16
_cell_length_a 9.491500
_cell_length_b 14.457338
_cell_length_c 11.433350
_cell_angle_alpha 147.191566
_cell_angle_beta 88.335190
_cell_angle_gamma 74.902846
_cell_volume 722.685608
_symmetry_space_group_name_H-M "P -1"
_symmetry_group_IT_number 2
_symmetry_cell_setting 'triclinic'
loop_
_space_group_symop_operation_xyz
x,y,z
-x,-y,-z
loop_
_atom_site_type_symbol
_atom_site_label
_atom_site_fract_x
_atom_site_fract_y
_atom_site_fract_z
Si Si1 0.611379 0.211898 0.383623
Si Si2 0.595859 0.934518 0.645928
Si Si3 0.022071 0.383340 0.756729
Si Si4 0.248038 0.707664 0.327034
Si Si5 0.703414 0.389280 0.215798
Si Si6 0.577391 0.271819 0.866513
Si Si7 0.742793 0.017923 0.940269
Si Si8 0.050813 0.447028 0.578374
O O1 0.508848 0.164876 0.429043
O O2 0.744993 0.223062 0.469403
O O3 0.481776 0.425396 0.554906
O O4 0.688850 0.049931 0.108969
O O5 0.782418 0.763864 0.426161
O O6 0.539377 0.106685 0.735830
O O7 0.602075 0.036612 0.876133
O O8 0.927350 0.267521 0.658511
O O9 0.949121 0.511762 0.773292
O O10 0.000000 0.500000 0.000000
O O11 0.302491 0.804711 0.329149
O O12 0.399962 0.474613 0.065926
O O13 0.817042 0.484587 0.327365
O O14 0.675124 0.320821 0.015740
O O15 0.772079 0.193739 0.087387
O O16 0.885084 0.789533 0.675364
O O17 0.000000 0.500000 0.500000
#
# Coordination Sequence:
#
# PCOD9108381 Si02
#       8
#     2   2   2   2   2   2   2   2
#     4  11  21  40  66  99 128 171 220 278 328 397
#     4  10  22  41  67  92 130 173 225 265 334 401
#     4  11  24  45  67  93 132 182 216 273 336 405
#     4  10  23  39  66  92 134 164 227 271 334 386
#     4  10  20  40  68  91 128 173 216 271 332 390
#     4   9  21  42  65  95 124 174 218 280 324 395
#     4  10  22  40  65  94 129 175 219 268 328 399
#     4  11  25  43  65  98 138 173 224 276 336 393
#
# _framework density 22.139641000000001
#
# number of rings (size 3 to 8) (size 9 to 14) (size 15 to 20)
#    0.000    1.750    2.500    1.500    5.250    2.500 
#    6.750    0.000    0.000    0.000    0.000    0.000 
#    0.000    0.000    0.000    0.000    0.000    0.000 
#
# Total GULP energy -89235.413796 kJ/mol
# GULP energy per Si atom -5577.213362 kJ/mol
# Density = 2.208925 g / cm^3
# Si number density = 22.139641 Si / 1000 Ang^3
#
#
#
# Elastic Constant Matrix: (Units=GPa)
#
#
# Indices 1 2 3 4 5 6 
#
# 1 58.6009 4.7991 32.0351 -4.2786 13.1911 14.4617
# 2 4.7991 95.2273 33.3153 -2.4783 -0.6574 9.4038
# 3 32.0351 33.3153 92.4537 -18.9710 10.9774 8.1574
# 4 -4.2786 -2.4783 -18.9710 38.3732 10.1161 4.1161
# 5 13.1911 -0.6574 10.9774 10.1161 14.8607 -1.9573
# 6 14.4617 9.4038 8.1574 4.1161 -1.9573 18.5595
#
#
#
# Elastic Compliance Matrix: (Units=1/GPa)
#
#
# Indices 1 2 3 4 5 6 
#
# 1 0.047380 0.002355 0.002574 0.031589 -0.072456 -0.053891
# 2 0.002355 0.012921 -0.006001 -0.002383 0.003903 -0.004805
# 3 0.002574 -0.006001 0.022854 0.023017 -0.037480 -0.018067
# 4 0.031589 -0.002383 0.023017 0.074809 -0.104119 -0.061095
# 5 -0.072456 0.003903 -0.037480 -0.104119 0.246149 0.120004
# 6 -0.053891 -0.004805 -0.018067 -0.061095 0.120004 0.132453
#
#
# Mechanical properties :
#
#
# Convention : Reuss Voigt Hill
#
# Bulk Modulus (GPa) = 12.34376 42.95342 27.64859
# Shear Modulus (GPa) = 8.83839 26.10083 17.46961
#
# Velocity S-wave (km/s) = 2.00019 3.43726 2.81208
# Velocity P-wave (km/s) = 3.30483 5.93265 4.80199
#
# Compressibility (1/GPa) = 0.08101260
#
# Stress axis : x y z
#
# Youngs Moduli (GPa) = 21.10579 77.39196 43.75640
#
# Poissons Ratio (x) = -0.18229 -0.11263
# Poissons Ratio (y) = -0.04971 0.26257
# Poissons Ratio (z) = -0.05433 0.46441
#
# Static dielectric constant tensor:
#      x y z
#    x 1.798880 -0.017530 0.000240 
#    y -0.017530 1.889480 0.007000 
#    z 0.000240 0.007000 1.828380 
# 
# From -- ./inp_files/400000.got.cif
#   From: 2010.05.17/outbox.cif.g08.bks.cpg/sg2_200_cif.got.tgz:400000.got - 2010.06.03 11:33:40.
