data_PCOD9108111
_publ_section_title
;
Structure prediction by ZEFSAII (Michael W. Deem and Ramdas Pophale) SiO2 
 PCOD9108111
Probable space group: P -1
;
_chemical_formula_sum "Si O2"
_cell_formula_units_Z 16
_cell_length_a 15.682923
_cell_length_b 9.313799
_cell_length_c 9.372524
_cell_angle_alpha 77.221552
_cell_angle_beta 64.515841
_cell_angle_gamma 125.970068
_cell_volume 761.212049
_symmetry_space_group_name_H-M "P -1"
_symmetry_group_IT_number 2
_symmetry_cell_setting 'triclinic'
loop_
_space_group_symop_operation_xyz
x,y,z
-x,-y,-z
loop_
_atom_site_type_symbol
_atom_site_label
_atom_site_fract_x
_atom_site_fract_y
_atom_site_fract_z
Si Si1 0.714525 0.958514 0.891159
Si Si2 0.650165 0.207222 0.934167
Si Si3 0.628524 0.461782 0.742953
Si Si4 0.053321 0.260706 0.067162
Si Si5 0.888567 0.993105 0.518895
Si Si6 0.401044 0.523430 0.555522
Si Si7 0.142683 0.054401 0.966402
Si Si8 0.388328 0.760279 0.720076
O O1 0.825512 0.025550 0.679194
O O2 0.736711 0.158539 0.865091
O O3 0.538608 0.720199 0.031241
O O4 0.751478 0.913556 0.018071
O O5 0.714149 0.430243 0.764478
O O6 0.602129 0.191633 0.131479
O O7 0.500000 0.000000 0.000000
O O8 0.739449 0.732426 0.621585
O O9 0.590320 0.383214 0.621455
O O10 0.076567 0.109954 0.092194
O O11 0.207873 0.536288 0.879394
O O12 0.967614 0.182574 0.294090
O O13 0.965567 0.174465 0.000936
O O14 0.000000 0.000000 0.500000
O O15 0.500000 0.500000 0.500000
O O16 0.234688 0.260071 0.740444
O O17 0.431403 0.654355 0.646290
O O18 0.500000 0.000000 0.500000
#
# Coordination Sequence:
#
# PCOD9108111 Si02
#       8
#     2   2   2   2   2   2   2   2
#     4  11  23  41  68  97 138 185 235 278 332 416
#     4  10  24  45  63  95 141 184 229 275 337 405
#     4  11  23  42  66 102 140 183 227 286 341 404
#     4  10  22  41  65 101 135 174 223 282 355 405
#     4  12  23  39  67 103 137 179 229 289 347 399
#     4  11  22  38  72 103 130 173 231 289 337 399
#     4  10  20  40  66  99 136 173 225 285 344 403
#     4  11  24  44  69  95 133 183 227 279 343 412
#
# _framework density 21.019110000000001
#
# number of rings (size 3 to 8) (size 9 to 14) (size 15 to 20)
#    0.000    1.250    3.750    2.625    1.750    2.000 
#    0.000    4.375    0.000    0.000    0.000    0.000 
#    0.000    0.000    0.000    0.000    0.000    0.000 
#
# Total GULP energy -89159.873020 kJ/mol
# GULP energy per Si atom -5572.492064 kJ/mol
# Density = 2.097127 g / cm^3
# Si number density = 21.019110 Si / 1000 Ang^3
#
#
#
# Elastic Constant Matrix: (Units=GPa)
#
#
# Indices 1 2 3 4 5 6 
#
# 1 84.3571 31.9546 34.7644 12.2102 -2.0385 -8.7124
# 2 31.9546 114.8044 56.8154 11.7145 -0.5649 9.0735
# 3 34.7644 56.8154 133.8950 16.5761 -1.2966 -8.3143
# 4 12.2102 11.7145 16.5761 45.0722 0.4022 -4.9507
# 5 -2.0385 -0.5649 -1.2966 0.4022 27.5684 0.7015
# 6 -8.7124 9.0735 -8.3143 -4.9507 0.7015 30.1820
#
#
#
# Elastic Compliance Matrix: (Units=1/GPa)
#
#
# Indices 1 2 3 4 5 6 
#
# 1 0.014625 -0.003278 -0.001887 -0.001946 0.000843 0.004348
# 2 -0.003278 0.012584 -0.004712 -0.001336 -0.000028 -0.006246
# 3 -0.001887 -0.004712 0.010385 -0.001706 0.000189 0.003448
# 4 -0.001946 -0.001336 -0.001706 0.024061 -0.000687 0.003332
# 5 0.000843 -0.000028 0.000189 -0.000687 0.036371 -0.000654
# 6 0.004348 -0.006246 0.003448 0.003332 -0.000654 0.037777
#
#
# Mechanical properties :
#
#
# Convention : Reuss Voigt Hill
#
# Bulk Modulus (GPa) = 56.05047 64.45835 60.25441
# Shear Modulus (GPa) = 30.95929 34.53266 32.74597
#
# Velocity S-wave (km/s) = 3.84202 4.05769 3.95132
# Velocity P-wave (km/s) = 6.81218 7.25853 7.03889
#
# Compressibility (1/GPa) = 0.01784106
#
# Stress axis : x y z
#
# Youngs Moduli (GPa) = 68.37685 79.46436 96.29259
#
# Poissons Ratio (x) = 0.26045 0.18174
# Poissons Ratio (y) = 0.22411 0.45369
# Poissons Ratio (z) = 0.12905 0.37440
#
# Static dielectric constant tensor:
#      x y z
#    x 1.863440 -0.001160 0.002760 
#    y -0.001160 1.846680 0.058090 
#    z 0.002760 0.058090 2.066300 
# 
# From -- ./inp_files/298179.got.cif
#   From: 2010.05.17/outbox.cif.g08.bks.cpg/sg2_150_cif.got.tgz:298179.got - 2010.06.03 11:33:40.
