data_PCOD9108406
_publ_section_title
;
Structure prediction by ZEFSAII (Michael W. Deem and Ramdas Pophale) SiO2 
 PCOD9108406
Probable space group: P -1
;
_chemical_formula_sum "Si O2"
_cell_formula_units_Z 14
_cell_length_a 9.374424
_cell_length_b 15.055128
_cell_length_c 13.797763
_cell_angle_alpha 134.123504
_cell_angle_beta 38.610067
_cell_angle_gamma 104.608826
_cell_volume 661.814567
_symmetry_space_group_name_H-M "P -1"
_symmetry_group_IT_number 2
_symmetry_cell_setting 'triclinic'
loop_
_space_group_symop_operation_xyz
x,y,z
-x,-y,-z
loop_
_atom_site_type_symbol
_atom_site_label
_atom_site_fract_x
_atom_site_fract_y
_atom_site_fract_z
Si Si1 0.421738 0.143776 0.719983
Si Si2 0.831030 0.304526 0.252483
Si Si3 0.665701 0.755513 0.805043
Si Si4 0.656385 0.503644 0.684314
Si Si5 0.407021 0.023161 0.828470
Si Si6 0.376275 0.442840 0.943812
Si Si7 0.667728 0.704104 0.545237
O O1 0.540013 0.061085 0.700612
O O2 0.507995 0.255644 0.736363
O O3 0.500000 0.000000 0.500000
O O4 0.058178 0.270306 0.023220
O O5 0.742388 0.438111 0.479248
O O6 0.538060 0.341949 0.398167
O O7 0.058000 0.134326 0.063923
O O8 0.529869 0.686187 0.882509
O O9 0.588581 0.781364 0.753318
O O10 0.027663 0.609127 0.511077
O O11 0.586451 0.904602 0.020042
O O12 0.447926 0.478245 0.828548
O O13 0.570497 0.837820 0.617762
O O14 0.500000 0.500000 0.000000
O O15 0.021430 0.558733 0.238674
#
# Coordination Sequence:
#
# PCOD9108406 Si02
#       7
#     2   2   2   2   2   2   2
#     4  10  24  46  72  93 137 180 223 274 348 392
#     4   9  23  43  68  91 137 175 223 272 337 398
#     4  10  20  40  68  93 131 176 221 273 333 405
#     4  10  21  41  67  93 134 177 220 274 337 391
#     4   9  22  43  65  96 133 172 224 278 333 396
#     4  12  25  42  68 100 137 176 226 280 334 397
#     4  12  23  41  71 100 134 174 233 270 339 397
#
# _framework density 21.153962
#
# number of rings (size 3 to 8) (size 9 to 14) (size 15 to 20)
#    0.857    0.857    1.429    2.571    2.000    4.000 
#    5.143    1.429    0.000    0.000    0.000    0.000 
#    0.000    0.000    0.000    0.000    0.000    0.000 
#
# Total GULP energy -78074.199159 kJ/mol
# GULP energy per Si atom -5576.728511 kJ/mol
# Density = 2.110581 g / cm^3
# Si number density = 21.153962 Si / 1000 Ang^3
#
#
#
# Elastic Constant Matrix: (Units=GPa)
#
#
# Indices 1 2 3 4 5 6 
#
# 1 99.7801 20.0727 41.4168 -1.7372 -6.9647 8.4218
# 2 20.0727 119.5301 27.6140 -2.8685 -2.1673 20.7215
# 3 41.4168 27.6140 54.4136 -8.3738 13.0559 17.2878
# 4 -1.7372 -2.8685 -8.3738 31.2791 -2.0860 -2.1770
# 5 -6.9647 -2.1673 13.0559 -2.0860 22.9430 -4.5275
# 6 8.4218 20.7215 17.2878 -2.1770 -4.5275 25.4463
#
#
#
# Elastic Compliance Matrix: (Units=1/GPa)
#
#
# Indices 1 2 3 4 5 6 
#
# 1 0.022808 0.000596 -0.030134 -0.003757 0.027130 0.016944
# 2 0.000596 0.010271 -0.004973 -0.000482 0.003012 -0.004687
# 3 -0.030134 -0.004973 0.074776 0.010616 -0.060404 -0.046617
# 4 -0.003757 -0.000482 0.010616 0.033992 -0.004833 -0.003528
# 5 0.027130 0.003012 -0.060404 -0.004833 0.095142 0.046119
# 6 0.016944 -0.004687 -0.046617 -0.003528 0.046119 0.077082
#
#
# Mechanical properties :
#
#
# Convention : Reuss Voigt Hill
#
# Bulk Modulus (GPa) = 25.75254 50.21454 37.98354
# Shear Modulus (GPa) = 12.62506 28.24169 20.43338
#
# Velocity S-wave (km/s) = 2.44564 3.65780 3.11132
# Velocity P-wave (km/s) = 4.49167 6.45202 5.55894
#
# Compressibility (1/GPa) = 0.03883112
#
# Stress axis : x y z
#
# Youngs Moduli (GPa) = 43.84333 97.36500 13.37330
#
# Poissons Ratio (x) = -0.05800 0.40299
# Poissons Ratio (y) = -0.02612 0.06651
# Poissons Ratio (z) = 1.32119 0.48423
#
# Static dielectric constant tensor:
#      x y z
#    x 1.754480 0.012210 -0.000570 
#    y 0.012210 1.819760 -0.010350 
#    z -0.000570 -0.010350 1.749660 
# 
# From -- ./inp_files/396154.got.cif
#   From: 2010.05.17/outbox.cif.g08.bks.cpg/sg2_199_cif.got.tgz:396154.got - 2010.06.03 11:33:40.
