data_PCOD9108459
_publ_section_title
;
Structure prediction by ZEFSAII (Michael W. Deem and Ramdas Pophale) SiO2 
 PCOD9108459
Probable space group: P -1
;
_chemical_formula_sum "Si O2"
_cell_formula_units_Z 16
_cell_length_a 9.694865
_cell_length_b 9.692506
_cell_length_c 9.891568
_cell_angle_alpha 85.761656
_cell_angle_beta 113.568439
_cell_angle_gamma 120.358152
_cell_volume 725.416145
_symmetry_space_group_name_H-M "P -1"
_symmetry_group_IT_number 2
_symmetry_cell_setting 'triclinic'
loop_
_space_group_symop_operation_xyz
x,y,z
-x,-y,-z
loop_
_atom_site_type_symbol
_atom_site_label
_atom_site_fract_x
_atom_site_fract_y
_atom_site_fract_z
Si Si1 0.897171 0.388230 0.840938
Si Si2 0.854484 0.054391 0.404481
Si Si3 0.164768 0.133514 0.142036
Si Si4 0.891817 0.666496 0.683444
Si Si5 0.517936 0.243496 0.805648
Si Si6 0.032549 0.832741 0.290348
Si Si7 0.692396 0.605376 0.328155
Si Si8 0.505306 0.347922 0.081523
O O1 0.906600 0.512056 0.724191
O O2 0.694856 0.268884 0.811119
O O3 0.973243 0.284099 0.819079
O O4 0.000000 0.500000 0.000000
O O5 0.658168 0.913373 0.306524
O O6 0.867646 0.158937 0.533100
O O7 0.000000 0.000000 0.500000
O O8 0.926852 0.172432 0.297587
O O9 0.160968 0.280036 0.203785
O O10 0.330550 0.216950 0.101210
O O11 0.145407 0.016188 0.267093
O O12 0.000000 0.000000 0.000000
O O13 0.769536 0.631892 0.506432
O O14 0.482383 0.384812 0.733817
O O15 0.537235 0.261922 0.974299
O O16 0.830773 0.749985 0.270511
O O17 0.650303 0.441409 0.248882
O O18 0.500000 0.500000 0.000000
#
# Coordination Sequence:
#
# PCOD9108459 Si02
#       8
#     2   2   2   2   2   2   2   2
#     4  12  28  45  62  97 147 181 215 273 340 404
#     4  11  20  42  70 101 129 166 221 288 329 389
#     4  12  21  35  64  94 123 171 229 273 323 384
#     4  11  22  41  70  97 133 175 222 280 339 389
#     4  11  21  42  66  94 134 175 218 281 332 387
#     4  11  23  42  65  95 138 170 215 276 333 397
#     4  10  20  40  68  97 126 170 229 278 328 389
#     4  10  21  34  59  94 129 163 214 272 323 386
#
# _framework density 22.056304000000001
#
# number of rings (size 3 to 8) (size 9 to 14) (size 15 to 20)
#    0.000    1.000    3.750    5.250    0.000    5.500 
#    0.000    3.750    0.000    0.000    0.000    0.000 
#    0.000    0.000    0.000    0.000    0.000    0.000 
#
# Total GULP energy -89266.694189 kJ/mol
# GULP energy per Si atom -5579.168387 kJ/mol
# Density = 2.200610 g / cm^3
# Si number density = 22.056304 Si / 1000 Ang^3
#
#
#
# Elastic Constant Matrix: (Units=GPa)
#
#
# Indices 1 2 3 4 5 6 
#
# 1 47.8458 12.4222 13.0168 2.3755 -10.1694 13.7551
# 2 12.4222 97.0212 8.5657 7.0192 -9.6403 26.7355
# 3 13.0168 8.5657 88.2541 21.4522 -10.4166 6.1821
# 4 2.3755 7.0192 21.4522 51.7188 1.9444 -3.0340
# 5 -10.1694 -9.6403 -10.4166 1.9444 12.6311 4.1910
# 6 13.7551 26.7355 6.1821 -3.0340 4.1910 34.1581
#
#
#
# Elastic Compliance Matrix: (Units=1/GPa)
#
#
# Indices 1 2 3 4 5 6 
#
# 1 0.037202 0.008553 0.003616 -0.007978 0.050384 -0.029220
# 2 0.008553 0.019620 0.004557 -0.007704 0.034968 -0.024601
# 3 0.003616 0.004557 0.016427 -0.009250 0.025316 -0.011924
# 4 -0.007978 -0.007704 -0.009250 0.026692 -0.029655 0.016926
# 5 0.050384 0.034968 0.025316 -0.029655 0.198139 -0.079185
# 6 -0.029220 -0.024601 -0.011924 0.016926 -0.079185 0.073674
#
#
# Mechanical properties :
#
#
# Convention : Reuss Voigt Hill
#
# Bulk Modulus (GPa) = 9.37196 33.45892 21.41544
# Shear Modulus (GPa) = 13.37367 32.97603 23.17485
#
# Velocity S-wave (km/s) = 2.46507 3.87083 3.24499
# Velocity P-wave (km/s) = 3.51574 5.93131 4.87549
#
# Compressibility (1/GPa) = 0.10670129
#
# Stress axis : x y z
#
# Youngs Moduli (GPa) = 26.88059 50.96729 60.87554
#
# Poissons Ratio (x) = -0.43593 -0.22011
# Poissons Ratio (y) = -0.22991 -0.27742
# Poissons Ratio (z) = -0.09719 -0.23227
#
# Static dielectric constant tensor:
#      x y z
#    x 1.830870 -0.013760 -0.013810 
#    y -0.013760 1.844710 0.003720 
#    z -0.013810 0.003720 1.879230 
# 
# From -- ./inp_files/187823.got.cif
#   From: 2010.05.17/outbox.cif.g08.bks.cpg/sg2_94_cif.got.tgz:187823.got - 2010.06.03 11:33:40.
