data_PCOD9108827
_publ_section_title
;
Structure prediction by ZEFSAII (Michael W. Deem and Ramdas Pophale) SiO2 
 PCOD9108827
Probable space group: P -1
;
_chemical_formula_sum "Si O2"
_cell_formula_units_Z 14
_cell_length_a 8.766264
_cell_length_b 9.372549
_cell_length_c 8.683500
_cell_angle_alpha 97.878296
_cell_angle_beta 77.929987
_cell_angle_gamma 84.315529
_cell_volume 685.065249
_symmetry_space_group_name_H-M "P -1"
_symmetry_group_IT_number 2
_symmetry_cell_setting 'triclinic'
loop_
_space_group_symop_operation_xyz
x,y,z
-x,-y,-z
loop_
_atom_site_type_symbol
_atom_site_label
_atom_site_fract_x
_atom_site_fract_y
_atom_site_fract_z
Si Si1 0.053533 0.174678 0.212417
Si Si2 0.932439 0.712257 0.438955
Si Si3 0.183902 0.565220 0.726416
Si Si4 0.709689 0.276714 0.565915
Si Si5 0.639436 0.911819 0.053536
Si Si6 0.223110 0.004711 0.654034
Si Si7 0.564083 0.600537 0.128781
O O1 0.108151 0.247267 0.368764
O O2 0.949818 0.308560 0.167815
O O3 0.933226 0.063780 0.271016
O O4 0.197384 0.097732 0.075005
O O5 0.891821 0.558059 0.369304
O O6 0.120015 0.716733 0.391193
O O7 0.834699 0.837265 0.377178
O O8 0.281951 0.643822 0.589583
O O9 0.290221 0.489243 0.826818
O O10 0.698439 0.108270 0.506393
O O11 0.570417 0.350690 0.709910
O O12 0.608515 0.747206 0.065447
O O13 0.665417 0.984944 0.222742
O O14 0.500000 0.000000 0.000000
O O15 0.500000 0.500000 0.000000
#
# Coordination Sequence:
#
# PCOD9108827 Si02
#       7
#     2   2   2   2   2   2   2
#     4  10  23  42  70  94 131 167 216 272 321 386
#     4  10  20  40  72  96 124 168 228 268 314 378
#     4  10  22  45  68  95 124 178 220 266 318 380
#     4  10  23  42  70  94 131 167 216 272 321 386
#     4  12  29  43  63  98 137 175 211 267 328 384
#     4  10  22  45  68  95 124 178 220 266 318 380
#     4  12  29  43  63  98 137 175 211 267 328 384
#
# _framework density 20.43601
#
# number of rings (size 3 to 8) (size 9 to 14) (size 15 to 20)
#    0.000    1.714    1.429    4.286   12.000    3.429 
#    0.000    0.000    0.000    0.000    0.000    0.000 
#    0.000    0.000    0.000    0.000    0.000    0.000 
#
# Total GULP energy -78296.225730 kJ/mol
# GULP energy per Si atom -5592.587552 kJ/mol
# Density = 2.038950 g / cm^3
# Si number density = 20.436010 Si / 1000 Ang^3
#
#
#
# Elastic Constant Matrix: (Units=GPa)
#
#
# Indices 1 2 3 4 5 6 
#
# 1 48.8477 1.9048 37.0444 -3.1945 5.8232 -27.1955
# 2 1.9048 76.1764 4.9671 -8.7686 -9.3708 -19.6407
# 3 37.0444 4.9671 42.9119 5.7334 -1.0127 -15.7755
# 4 -3.1945 -8.7686 5.7334 28.9982 -9.8832 12.2830
# 5 5.8232 -9.3708 -1.0127 -9.8832 30.6704 2.7816
# 6 -27.1955 -19.6407 -15.7755 12.2830 2.7816 45.2730
#
#
#
# Elastic Compliance Matrix: (Units=1/GPa)
#
#
# Indices 1 2 3 4 5 6 
#
# 1 0.103884 0.010883 -0.077720 0.006345 -0.020510 0.039581
# 2 0.010883 0.016853 -0.008608 0.005377 0.003700 0.009163
# 3 -0.077720 -0.008608 0.088590 -0.018745 0.010381 -0.015103
# 4 0.006345 0.005377 -0.018745 0.053659 0.018569 -0.016086
# 5 -0.020510 0.003700 0.010381 0.018569 0.045309 -0.014919
# 6 0.039581 0.009163 -0.015103 -0.016086 -0.014919 0.049858
#
#
# Mechanical properties :
#
#
# Convention : Reuss Voigt Hill
#
# Bulk Modulus (GPa) = 17.11258 28.41875 22.76566
# Shear Modulus (GPa) = 9.46033 29.25630 19.35832
#
# Velocity S-wave (km/s) = 2.15390 3.78776 3.08111
# Velocity P-wave (km/s) = 3.81807 5.75030 4.88076
#
# Compressibility (1/GPa) = 0.05843656
#
# Stress axis : x y z
#
# Youngs Moduli (GPa) = 9.62612 59.33584 11.28792
#
# Poissons Ratio (x) = -0.64573 0.87730
# Poissons Ratio (y) = -0.10476 0.09717
# Poissons Ratio (z) = 0.74814 0.51076
#
# Static dielectric constant tensor:
#      x y z
#    x 1.711760 0.002120 -0.002690 
#    y 0.002120 1.714030 -0.010950 
#    z -0.002690 -0.010950 1.716190 
# 
# From -- ./inp_files/154249.got.cif
#   From: 2010.05.17/outbox.cif.g08.bks.cpg/sg2_78_cif.got.tgz:154249.got - 2010.06.03 11:33:40.
