data_PCOD9108018
_publ_section_title
;
Structure prediction by ZEFSAII (Michael W. Deem and Ramdas Pophale) SiO2 
 PCOD9108018
Probable space group: P -1
;
_chemical_formula_sum "Si O2"
_cell_formula_units_Z 13
_cell_length_a 8.059554
_cell_length_b 6.729449
_cell_length_c 14.946883
_cell_angle_alpha 81.232733
_cell_angle_beta 61.118269
_cell_angle_gamma 125.174253
_cell_volume 463.431410
_symmetry_space_group_name_H-M "P -1"
_symmetry_group_IT_number 2
_symmetry_cell_setting 'triclinic'
loop_
_space_group_symop_operation_xyz
x,y,z
-x,-y,-z
loop_
_atom_site_type_symbol
_atom_site_label
_atom_site_fract_x
_atom_site_fract_y
_atom_site_fract_z
Si Si1 0.500000 0.500000 0.000000
Si Si2 0.409627 0.315095 0.648061
Si Si3 0.769480 0.298622 0.465564
Si Si4 0.400644 0.747372 0.916483
Si Si5 0.871591 0.078967 0.081890
Si Si6 0.373955 0.167218 0.342179
Si Si7 0.876237 0.705408 0.721561
O O1 0.357374 0.154746 0.092043
O O2 0.391038 0.502236 0.128128
O O3 0.685406 0.449272 0.514212
O O4 0.437006 0.570043 0.649322
O O5 0.356799 0.166942 0.768148
O O6 0.144652 0.019903 0.680709
O O7 0.040651 0.452009 0.324040
O O8 0.500000 0.000000 0.500000
O O9 0.766354 0.144251 0.561460
O O10 0.248244 0.837598 0.953116
O O11 0.452444 0.756300 0.797212
O O12 0.164372 0.389375 0.035624
O O13 0.000000 0.000000 0.000000
O O14 0.175370 0.188290 0.356084
#
# Coordination Sequence:
#
# PCOD9108018 Si02
#       7
#     1   2   2   2   2   2   2
#     4  10  20  40  66  94 132 170 212 270 332 380
#     4  11  22  41  67  94 131 170 221 268 324 397
#     4  10  23  42  67  94 129 172 216 272 329 388
#     4  10  21  36  66  90 132 174 210 274 327 381
#     4  11  20  36  62  96 126 176 221 262 326 389
#     4  11  22  41  68  95 126 175 215 267 335 389
#     4  10  23  41  65  95 134 166 215 275 320 391
#
# _framework density 28.051614000000001
#
# number of rings (size 3 to 8) (size 9 to 14) (size 15 to 20)
#    0.000    1.538    4.615    0.462    0.000    3.077 
#    0.000    3.846    3.385    0.000    0.000    0.000 
#    0.000    0.000    0.000    0.000    0.000    0.000 
#
# Total GULP energy -72629.448488 kJ/mol
# GULP energy per Si atom -5586.880653 kJ/mol
# Density = 2.798777 g / cm^3
# Si number density = 28.051614 Si / 1000 Ang^3
#
#
#
# Elastic Constant Matrix: (Units=GPa)
#
#
# Indices 1 2 3 4 5 6 
#
# 1 97.3821 22.4087 47.4620 15.7360 4.3598 -9.8932
# 2 22.4087 112.5321 39.4583 19.2377 -1.6591 -7.6901
# 3 47.4620 39.4583 186.8611 36.7728 -0.5578 -24.8652
# 4 15.7360 19.2377 36.7728 48.5574 -9.9222 -9.8030
# 5 4.3598 -1.6591 -0.5578 -9.9222 53.6873 1.0541
# 6 -9.8932 -7.6901 -24.8652 -9.8030 1.0541 48.6171
#
#
#
# Elastic Compliance Matrix: (Units=1/GPa)
#
#
# Indices 1 2 3 4 5 6 
#
# 1 0.012138 -0.001251 -0.002377 -0.001775 -0.001391 0.000729
# 2 -0.001251 0.010034 -0.001269 -0.002593 -0.000084 0.000162
# 3 -0.002377 -0.001269 0.007291 -0.003900 -0.000536 0.002270
# 4 -0.001775 -0.002593 -0.003900 0.026657 0.004901 0.002503
# 5 -0.001391 -0.000084 -0.000536 0.004901 0.019637 -0.000008
# 6 0.000729 0.000162 0.002270 0.002503 -0.000008 0.022409
#
#
# Mechanical properties :
#
#
# Convention : Reuss Voigt Hill
#
# Bulk Modulus (GPa) = 50.84148 68.38145 59.61146
# Shear Modulus (GPa) = 43.66193 49.33545 46.49869
#
# Velocity S-wave (km/s) = 3.94951 4.19828 4.07580
# Velocity P-wave (km/s) = 6.24194 6.92320 6.59138
#
# Compressibility (1/GPa) = 0.01966898
#
# Stress axis : x y z
#
# Youngs Moduli (GPa) = 82.38413 99.66436 137.15180
#
# Poissons Ratio (x) = 0.12467 0.32597
# Poissons Ratio (y) = 0.10306 0.17410
# Poissons Ratio (z) = 0.19580 0.12652
#
# Static dielectric constant tensor:
#      x y z
#    x 0.000340 -0.297990 0.411950 
#    y -0.297990 2.222770 0.089540 
#    z 0.411950 0.089540 2.035080 
# 
# From -- ./inp_files/87451.got.cif
#   From: 2010.05.17/outbox.cif.g08.bks.cpg/sg2_44_cif.got.tgz:87451.got - 2010.06.03 11:33:40.
