data_PCOD9108134
_publ_section_title
;
Structure prediction by ZEFSAII (Michael W. Deem and Ramdas Pophale) SiO2 
 PCOD9108134
Probable space group: P -1
;
_chemical_formula_sum "Si O2"
_cell_formula_units_Z 16
_cell_length_a 8.904706
_cell_length_b 14.838648
_cell_length_c 20.232027
_cell_angle_alpha 160.504766
_cell_angle_beta 131.077277
_cell_angle_gamma 45.054660
_cell_volume 631.015542
_symmetry_space_group_name_H-M "P -1"
_symmetry_group_IT_number 2
_symmetry_cell_setting 'triclinic'
loop_
_space_group_symop_operation_xyz
x,y,z
-x,-y,-z
loop_
_atom_site_type_symbol
_atom_site_label
_atom_site_fract_x
_atom_site_fract_y
_atom_site_fract_z
Si Si1 0.758666 0.343891 0.498191
Si Si2 0.947110 0.087234 0.619871
Si Si3 0.467789 0.964852 0.889712
Si Si4 0.498950 0.637924 0.257561
Si Si5 0.345090 0.148935 0.813318
Si Si6 0.575728 0.163974 0.768583
Si Si7 0.071672 0.851353 0.720451
Si Si8 0.181864 0.766341 0.848157
O O1 0.597662 0.630806 0.680197
O O2 0.905999 0.725178 0.187610
O O3 0.840478 0.382450 0.475186
O O4 0.956960 0.193827 0.499949
O O5 0.703451 0.238982 0.668764
O O6 0.000000 0.000000 0.500000
O O7 0.360445 0.894274 0.693172
O O8 0.211652 0.046930 0.874895
O O9 0.611862 0.137456 0.023586
O O10 0.500000 0.000000 0.000000
O O11 0.486978 0.834745 0.325312
O O12 0.719990 0.528031 0.285393
O O13 0.446319 0.372022 0.023540
O O14 0.459306 0.025739 0.692024
O O15 0.825651 0.018868 0.752836
O O16 0.500000 0.500000 0.000000
O O17 0.116889 0.755421 0.744281
O O18 0.000000 0.000000 0.000000
#
# Coordination Sequence:
#
# PCOD9108134 Si02
#       8
#     2   2   2   2   2   2   2   2
#     4  10  22  45  65 101 133 174 237 283 341 409
#     4  10  23  40  67  98 139 172 231 282 342 400
#     4  10  24  44  69  94 132 177 231 282 346 405
#     4  11  21  42  67  97 141 178 227 276 343 409
#     4   9  21  39  70 100 137 174 226 282 343 395
#     4  10  20  40  67 102 135 179 223 277 336 412
#     4  11  22  42  69  99 133 182 229 276 341 405
#     4  11  25  43  65 106 138 181 227 284 340 409
#
# _framework density 25.355951999999998
#
# number of rings (size 3 to 8) (size 9 to 14) (size 15 to 20)
#    0.750    1.000    1.250    3.000    3.500    2.000 
#    6.750    5.625    0.000    0.000    0.000    0.000 
#    0.000    0.000    0.000    0.250    0.000    0.000 
#
# Total GULP energy -89319.479767 kJ/mol
# GULP energy per Si atom -5582.467485 kJ/mol
# Density = 2.529824 g / cm^3
# Si number density = 25.355952 Si / 1000 Ang^3
#
#
#
# Elastic Constant Matrix: (Units=GPa)
#
#
# Indices 1 2 3 4 5 6 
#
# 1 153.4113 75.1439 44.5520 -10.2898 -41.8202 8.1737
# 2 75.1439 199.0386 60.1394 -5.4488 -42.9465 0.1533
# 3 44.5520 60.1394 88.8549 -7.0859 -43.3642 9.5244
# 4 -10.2898 -5.4488 -7.0859 38.4910 2.9929 -10.9513
# 5 -41.8202 -42.9465 -43.3642 2.9929 62.6254 -7.5277
# 6 8.1737 0.1533 9.5244 -10.9513 -7.5277 46.6771
#
#
#
# Elastic Compliance Matrix: (Units=1/GPa)
#
#
# Indices 1 2 3 4 5 6 
#
# 1 0.009053 -0.002271 -0.001067 0.001500 0.003626 -0.000423
# 2 -0.002271 0.007125 -0.003165 0.000071 0.001324 0.001251
# 3 -0.001067 -0.003165 0.019174 0.001518 0.010113 -0.001728
# 4 0.001500 0.000071 0.001518 0.028352 0.001507 0.006322
# 5 0.003626 0.001324 0.010113 0.001507 0.026459 0.001918
# 6 -0.000423 0.001251 -0.001728 0.006322 0.001918 0.023639
#
#
# Mechanical properties :
#
#
# Convention : Reuss Voigt Hill
#
# Bulk Modulus (GPa) = 44.75660 88.99726 66.87693
# Shear Modulus (GPa) = 37.24223 46.98999 42.11611
#
# Velocity S-wave (km/s) = 3.83662 4.30957 4.07995
# Velocity P-wave (km/s) = 6.10867 7.74200 6.97332
#
# Compressibility (1/GPa) = 0.02234307
#
# Stress axis : x y z
#
# Youngs Moduli (GPa) = 110.46669 140.35338 52.15529
#
# Poissons Ratio (x) = 0.31881 0.05565
# Poissons Ratio (y) = 0.25092 0.16510
# Poissons Ratio (z) = 0.11786 0.44429
#
# Static dielectric constant tensor:
#      x y z
#    x 2.121780 0.075060 0.154380 
#    y 0.075060 2.021260 -0.109950 
#    z 0.154380 -0.109950 2.244980 
# 
# From -- ./inp_files/561184.got.cif
#   From: 2010.05.17/outbox.cif.g08.bks.cpg/sg2_281_cif.got.tgz:561184.got - 2010.06.03 11:33:40.
