data_PCOD9108276
_publ_section_title
;
Structure prediction by ZEFSAII (Michael W. Deem and Ramdas Pophale) SiO2 
 PCOD9108276
Probable space group: P -1
;
_chemical_formula_sum "Si O2"
_cell_formula_units_Z 14
_cell_length_a 5.526200
_cell_length_b 19.431513
_cell_length_c 10.556414
_cell_angle_alpha 32.604362
_cell_angle_beta 68.191977
_cell_angle_gamma 73.404845
_cell_volume 566.247742
_symmetry_space_group_name_H-M "P -1"
_symmetry_group_IT_number 2
_symmetry_cell_setting 'triclinic'
loop_
_space_group_symop_operation_xyz
x,y,z
-x,-y,-z
loop_
_atom_site_type_symbol
_atom_site_label
_atom_site_fract_x
_atom_site_fract_y
_atom_site_fract_z
Si Si1 0.976876 0.718808 0.259650
Si Si2 0.701304 0.498855 0.789740
Si Si3 0.825808 0.226934 0.136696
Si Si4 0.232956 0.903112 0.096617
Si Si5 0.206694 0.395175 0.125180
Si Si6 0.222258 0.135652 0.395522
Si Si7 0.251599 0.021586 0.160769
O O1 0.841467 0.582287 0.525661
O O2 0.148461 0.764978 0.275379
O O3 0.133621 0.728106 0.084697
O O4 0.781091 0.834405 0.106879
O O5 0.686949 0.589614 0.775230
O O6 0.815831 0.360952 0.008034
O O7 0.408984 0.448361 0.896201
O O8 0.542588 0.144919 0.323673
O O9 0.083865 0.166297 0.239661
O O10 0.309259 0.913335 0.212715
O O11 0.456810 0.960359 0.867649
O O12 0.000000 0.000000 0.000000
O O13 0.150822 0.249022 0.329391
O O14 0.000000 0.500000 0.000000
O O15 0.024920 0.017774 0.660748
#
# Coordination Sequence:
#
# PCOD9108276 Si02
#       7
#     2   2   2   2   2   2   2
#     4  11  24  41  66  93 134 175 219 270 331 399
#     4  10  22  42  65  96 133 169 221 276 329 391
#     4  11  26  45  65  99 132 182 221 267 329 390
#     4   9  21  41  62  97 125 164 222 266 335 384
#     4  10  20  40  67  97 123 171 220 273 334 381
#     4  11  25  44  69  94 138 171 226 275 320 397
#     4  10  23  42  67  96 128 173 220 278 332 385
#
# _framework density 24.724157999999999
#
# number of rings (size 3 to 8) (size 9 to 14) (size 15 to 20)
#    0.000    1.714    1.429    1.286    6.000    5.714 
#    0.000    2.143    0.000    0.000    0.000    0.000 
#    0.000    0.000    0.000    0.000    0.000    0.000 
#
# Total GULP energy -77959.321237 kJ/mol
# GULP energy per Si atom -5568.522945 kJ/mol
# Density = 2.466788 g / cm^3
# Si number density = 24.724158 Si / 1000 Ang^3
#
#
#
# Elastic Constant Matrix: (Units=GPa)
#
#
# Indices 1 2 3 4 5 6 
#
# 1 69.8406 -2.8115 28.9619 4.4779 -29.0072 -12.1269
# 2 -2.8115 67.9206 -2.9045 -5.4883 -15.1064 12.4488
# 3 28.9619 -2.9045 130.1305 12.4299 -40.6009 -1.4253
# 4 4.4779 -5.4883 12.4299 36.4368 -3.1123 -15.2289
# 5 -29.0072 -15.1064 -40.6009 -3.1123 29.6581 4.5777
# 6 -12.1269 12.4488 -1.4253 -15.2289 4.5777 30.6562
#
#
#
# Elastic Compliance Matrix: (Units=1/GPa)
#
#
# Indices 1 2 3 4 5 6 
#
# 1 0.031693 0.012480 0.008576 -0.000663 0.048990 0.000223
# 2 0.012480 0.028050 0.011998 -0.003579 0.044759 -0.014357
# 3 0.008576 0.011998 0.019838 -0.006649 0.042534 -0.010212
# 4 -0.000663 -0.003579 -0.006649 0.037069 -0.010914 0.020927
# 5 0.048990 0.044759 0.042534 -0.010914 0.165678 -0.026980
# 6 0.000223 -0.014357 -0.010212 0.020927 -0.026980 0.052488
#
#
# Mechanical properties :
#
#
# Convention : Reuss Voigt Hill
#
# Bulk Modulus (GPa) = 6.86398 34.93148 20.89773
# Shear Modulus (GPa) = 15.75940 35.65993 25.70966
#
# Velocity S-wave (km/s) = 2.52743 3.80190 3.22818
# Velocity P-wave (km/s) = 3.36147 5.78202 4.72923
#
# Compressibility (1/GPa) = 0.14568807
#
# Stress axis : x y z
#
# Youngs Moduli (GPa) = 31.55265 35.65082 50.40876
#
# Poissons Ratio (x) = -0.44493 -0.43229
# Poissons Ratio (y) = -0.39378 -0.60480
# Poissons Ratio (z) = -0.27059 -0.42773
#
# Static dielectric constant tensor:
#      x y z
#    x 2.211270 -0.052120 0.065450 
#    y -0.052120 2.138730 -0.015590 
#    z 0.065450 -0.015590 2.093840 
# 
# From -- ./inp_files/53470.got.cif
#   From: 2010.05.17/outbox.cif.g08.bks.cpg/sg2_27_cif.got.tgz:53470.got - 2010.06.03 11:33:40.
