data_PCOD9108444
_publ_section_title
;
Structure prediction by ZEFSAII (Michael W. Deem and Ramdas Pophale) SiO2 
 PCOD9108444
Probable space group: P -1
;
_chemical_formula_sum "Si O2"
_cell_formula_units_Z 15
_cell_length_a 11.516096
_cell_length_b 10.178949
_cell_length_c 17.029407
_cell_angle_alpha 43.004479
_cell_angle_beta 122.807450
_cell_angle_gamma 89.010162
_cell_volume 792.589293
_symmetry_space_group_name_H-M "P -1"
_symmetry_group_IT_number 2
_symmetry_cell_setting 'triclinic'
loop_
_space_group_symop_operation_xyz
x,y,z
-x,-y,-z
loop_
_atom_site_type_symbol
_atom_site_label
_atom_site_fract_x
_atom_site_fract_y
_atom_site_fract_z
Si Si1 0.522348 0.205022 0.426652
Si Si2 0.265426 0.226112 0.045215
Si Si3 0.572905 0.632756 0.500136
Si Si4 0.971825 0.843578 0.115314
Si Si5 0.986356 0.820810 0.745988
Si Si6 0.000000 0.000000 0.500000
Si Si7 0.253413 0.765001 0.989460
Si Si8 0.564358 0.573984 0.063625
O O1 0.446567 0.343764 0.423669
O O2 0.392675 0.451318 0.208296
O O3 0.500000 0.000000 0.500000
O O4 0.754714 0.016956 0.586529
O O5 0.425652 0.939806 0.276148
O O6 0.133197 0.220381 0.944208
O O7 0.382211 0.269703 0.018641
O O8 0.113992 0.495515 0.927877
O O9 0.500000 0.500000 0.500000
O O10 0.805406 0.434837 0.653110
O O11 0.834781 0.036642 0.054551
O O12 0.000000 0.000000 0.000000
O O13 0.020471 0.893552 0.644028
O O14 0.074049 0.856597 0.833320
O O15 0.761773 0.287592 0.300575
O O16 0.387945 0.754044 0.984087
O O17 0.500000 0.500000 0.000000
#
# Coordination Sequence:
#
# PCOD9108444 Si02
#       8
#     2   2   2   2   2   1   2   2
#     4  12  25  37  65 101 131 169 222 277 330 398
#     4  11  25  43  67  99 132 177 220 278 333 395
#     4  12  24  44  66  91 136 181 217 269 332 394
#     4  12  25  45  65  95 137 179 223 272 330 397
#     4  11  24  40  69 100 129 173 224 276 334 396
#     4  10  20  40  68  96 130 170 212 270 342 386
#     4  12  24  44  67  96 135 176 221 277 330 394
#     4  11  23  44  69  99 134 170 220 282 333 390
#
# _framework density 18.925312999999999
#
# number of rings (size 3 to 8) (size 9 to 14) (size 15 to 20)
#    0.000    0.533    6.667    2.400    0.000    3.733 
#    0.000    0.667    0.000    0.000    0.000    0.000 
#    0.000    0.000    0.000    0.000    0.000    0.000 
#
# Total GULP energy -83608.853102 kJ/mol
# GULP energy per Si atom -5573.923540 kJ/mol
# Density = 1.888224 g / cm^3
# Si number density = 18.925313 Si / 1000 Ang^3
#
#
#
# Elastic Constant Matrix: (Units=GPa)
#
#
# Indices 1 2 3 4 5 6 
#
# 1 92.0960 21.6737 3.9372 7.3639 12.4802 -0.0216
# 2 21.6737 68.4324 -18.9064 2.4194 -1.5028 -0.4574
# 3 3.9372 -18.9064 109.9994 9.6846 0.5736 4.3177
# 4 7.3639 2.4194 9.6846 22.8534 -1.1713 11.9230
# 5 12.4802 -1.5028 0.5736 -1.1713 37.3109 -6.5452
# 6 -0.0216 -0.4574 4.3177 11.9230 -6.5452 36.8333
#
#
#
# Elastic Compliance Matrix: (Units=1/GPa)
#
#
# Indices 1 2 3 4 5 6 
#
# 1 0.012805 -0.004251 -0.000850 -0.003801 -0.004475 0.000489
# 2 -0.004251 0.016976 0.003213 -0.002154 0.002149 0.000911
# 3 -0.000850 0.003213 0.010055 -0.004500 0.000179 0.000349
# 4 -0.003801 -0.002154 -0.004500 0.056382 -0.000093 -0.017769
# 5 -0.004475 0.002149 0.000179 -0.000093 0.029299 0.005240
# 6 0.000489 0.000911 0.000349 -0.017769 0.005240 0.033803
#
#
# Mechanical properties :
#
#
# Convention : Reuss Voigt Hill
#
# Bulk Modulus (GPa) = 27.73211 31.54855 29.64033
# Shear Modulus (GPa) = 28.55208 36.98775 32.76991
#
# Velocity S-wave (km/s) = 3.88838 4.42566 4.16569
# Velocity P-wave (km/s) = 5.90293 6.54382 6.23162
#
# Compressibility (1/GPa) = 0.03605928
#
# Stress axis : x y z
#
# Youngs Moduli (GPa) = 78.09152 58.90517 99.45154
#
# Poissons Ratio (x) = 0.25042 0.08457
# Poissons Ratio (y) = 0.33199 -0.31951
# Poissons Ratio (z) = 0.06640 -0.18924
#
# Static dielectric constant tensor:
#      x y z
#    x 1.669230 -0.012650 0.018680 
#    y -0.012650 1.635150 -0.014110 
#    z 0.018680 -0.014110 1.662610 
# 
# From -- ./inp_files/236652.got.cif
#   From: 2010.05.17/outbox.cif.g08.bks.cpg/sg2_119_cif.got.tgz:236652.got - 2010.06.03 11:33:40.
