data_PCOD9108402
_publ_section_title
;
Structure prediction by ZEFSAII (Michael W. Deem and Ramdas Pophale) SiO2 
 PCOD9108402
Probable space group: P -1
;
_chemical_formula_sum "Si O2"
_cell_formula_units_Z 16
_cell_length_a 9.871610
_cell_length_b 8.470805
_cell_length_c 12.592817
_cell_angle_alpha 89.589890
_cell_angle_beta 96.857558
_cell_angle_gamma 129.448503
_cell_volume 804.070179
_symmetry_space_group_name_H-M "P -1"
_symmetry_group_IT_number 2
_symmetry_cell_setting 'triclinic'
loop_
_space_group_symop_operation_xyz
x,y,z
-x,-y,-z
loop_
_atom_site_type_symbol
_atom_site_label
_atom_site_fract_x
_atom_site_fract_y
_atom_site_fract_z
Si Si1 0.642937 0.478526 0.839941
Si Si2 0.387140 0.544717 0.552700
Si Si3 0.219558 0.729631 0.750925
Si Si4 0.815584 0.807373 0.029451
Si Si5 0.605206 0.942164 0.070199
Si Si6 0.185344 0.558144 0.340691
Si Si7 0.461644 0.026247 0.377256
Si Si8 0.300747 0.428481 0.771099
O O1 0.530296 0.241798 0.861606
O O2 0.755958 0.516910 0.747704
O O3 0.499139 0.508860 0.804854
O O4 0.750350 0.614867 0.951892
O O5 0.500000 0.500000 0.500000
O O6 0.260170 0.541650 0.457789
O O7 0.524971 0.774085 0.615338
O O8 0.274547 0.392861 0.641780
O O9 0.371169 0.893907 0.681247
O O10 0.272091 0.591480 0.791770
O O11 0.025754 0.581896 0.682294
O O12 0.235519 0.859355 0.850589
O O13 0.680822 0.855326 0.007856
O O14 0.813733 0.754253 0.153238
O O15 0.000000 0.000000 0.000000
O O16 0.500000 0.000000 0.000000
O O17 0.285298 0.800343 0.329774
O O18 0.500000 0.000000 0.500000
#
# Coordination Sequence:
#
# PCOD9108402 Si02
#       8
#     2   2   2   2   2   2   2   2
#     4  11  21  41  65  88 130 172 210 264 328 384
#     4  10  20  40  68  93 127 171 216 263 322 394
#     4  11  22  40  65  99 127 166 220 271 314 388
#     4  11  24  41  61  93 129 168 216 271 318 387
#     4  11  22  40  67  90 126 171 216 261 326 385
#     4  11  22  40  67  96 130 170 217 266 324 382
#     4   9  21  38  62  88 128 169 206 259 323 375
#     4  10  22  41  64  89 129 168 216 259 326 385
#
# _framework density 19.898761
#
# number of rings (size 3 to 8) (size 9 to 14) (size 15 to 20)
#    0.000    1.500    2.500    3.750    0.000    5.500 
#    4.500    3.750    0.000    8.250    0.000    0.000 
#    0.000    0.000    0.000    0.000    0.000    0.000 
#
# Total GULP energy -89255.888095 kJ/mol
# GULP energy per Si atom -5578.493006 kJ/mol
# Density = 1.985347 g / cm^3
# Si number density = 19.898761 Si / 1000 Ang^3
#
#
#
# Elastic Constant Matrix: (Units=GPa)
#
#
# Indices 1 2 3 4 5 6 
#
# 1 53.2979 50.2217 42.9126 -2.9443 -1.8405 -8.2596
# 2 50.2217 108.9677 56.8132 3.6169 5.3203 9.8484
# 3 42.9126 56.8132 100.5997 -8.7243 -7.1338 -1.4803
# 4 -2.9443 3.6169 -8.7243 41.9766 -4.3517 -2.4883
# 5 -1.8405 5.3203 -7.1338 -4.3517 37.4630 0.0249
# 6 -8.2596 9.8484 -1.4803 -2.4883 0.0249 28.2837
#
#
#
# Elastic Compliance Matrix: (Units=1/GPa)
#
#
# Indices 1 2 3 4 5 6 
#
# 1 0.047925 -0.020220 -0.007963 0.005143 0.004293 0.021068
# 2 -0.020220 0.023330 -0.005734 -0.006134 -0.006101 -0.014863
# 3 -0.007963 -0.005734 0.017232 0.004004 0.004169 0.000921
# 4 0.005143 -0.006134 0.004004 0.026423 0.004951 0.006167
# 5 0.004293 -0.006101 0.004169 0.004951 0.029137 0.004006
# 6 0.021068 -0.014863 0.000921 0.006167 0.004006 0.047271
#
#
# Mechanical properties :
#
#
# Convention : Reuss Voigt Hill
#
# Bulk Modulus (GPa) = 48.42122 62.52892 55.47507
# Shear Modulus (GPa) = 18.79443 29.07252 23.93347
#
# Velocity S-wave (km/s) = 3.07661 3.82648 3.47185
# Velocity P-wave (km/s) = 6.08336 7.14243 6.63406
#
# Compressibility (1/GPa) = 0.02065210
#
# Stress axis : x y z
#
# Youngs Moduli (GPa) = 20.86611 42.86240 58.03216
#
# Poissons Ratio (x) = 0.86669 0.46213
# Poissons Ratio (y) = 0.42192 0.33274
# Poissons Ratio (z) = 0.16617 0.24576
#
# Static dielectric constant tensor:
#      x y z
#    x 1.690420 -0.013140 -0.017200 
#    y -0.013140 1.740570 0.000060 
#    z -0.017200 0.000060 1.736940 
# 
# From -- ./inp_files/357305.got.cif
#   From: 2010.05.17/outbox.cif.g08.bks.cpg/sg2_179_cif.got.tgz:357305.got - 2010.06.03 11:33:40.
