data_PCOD9108509
_publ_section_title
;
Structure prediction by ZEFSAII (Michael W. Deem and Ramdas Pophale) SiO2 
 PCOD9108509
Probable space group: P -1
;
_chemical_formula_sum "Si O2"
_cell_formula_units_Z 15
_cell_length_a 7.854262
_cell_length_b 12.212945
_cell_length_c 11.538506
_cell_angle_alpha 48.285006
_cell_angle_beta 123.762964
_cell_angle_gamma 97.584999
_cell_volume 634.416153
_symmetry_space_group_name_H-M "P -1"
_symmetry_group_IT_number 2
_symmetry_cell_setting 'triclinic'
loop_
_space_group_symop_operation_xyz
x,y,z
-x,-y,-z
loop_
_atom_site_type_symbol
_atom_site_label
_atom_site_fract_x
_atom_site_fract_y
_atom_site_fract_z
Si Si1 0.494228 0.531402 0.340654
Si Si2 0.110089 0.992559 0.368497
Si Si3 0.500000 0.000000 0.500000
Si Si4 0.276110 0.332877 0.256981
Si Si5 0.927288 0.325446 0.511685
Si Si6 0.823633 0.431570 0.140673
Si Si7 0.347564 0.831153 0.789639
Si Si8 0.419026 0.177446 0.895975
O O1 0.500000 0.500000 0.500000
O O2 0.333743 0.462137 0.263611
O O3 0.734716 0.429529 0.449949
O O4 0.442778 0.716878 0.167423
O O5 0.229978 0.090908 0.281097
O O6 0.091302 0.841972 0.407471
O O7 0.319769 0.925164 0.590995
O O8 0.881705 0.075586 0.291905
O O9 0.539557 0.840574 0.544361
O O10 0.050278 0.334766 0.225356
O O11 0.260708 0.402140 0.072965
O O12 0.885312 0.418653 0.307779
O O13 0.170295 0.275962 0.691077
O O14 0.660086 0.338964 0.121609
O O15 0.541981 0.830516 0.945780
O O16 0.500000 0.000000 0.000000
#
# Coordination Sequence:
#
# PCOD9108509 Si02
#       8
#     2   2   1   2   2   2   2   2
#     4  12  27  47  69 100 146 188 229 290 358 423
#     4  10  21  38  67 101 135 173 225 293 349 400
#     4  12  22  38  66 110 140 170 226 298 350 402
#     4  11  23  40  69 106 139 177 232 291 353 405
#     4  11  24  46  71  97 138 187 236 282 350 418
#     4  10  22  43  71 100 133 181 233 288 344 419
#     4  10  20  40  68  99 134 177 228 286 342 417
#     4  12  25  44  70 101 137 189 237 280 345 429
#
# _framework density 23.643785999999999
#
# number of rings (size 3 to 8) (size 9 to 14) (size 15 to 20)
#    0.000    1.067    5.333    1.200    0.000    2.667 
#    0.000    3.333    0.000    0.000    0.000    0.000 
#    0.000    0.000    0.000    0.000    0.000    0.000 
#
# Total GULP energy -83757.550738 kJ/mol
# GULP energy per Si atom -5583.836716 kJ/mol
# Density = 2.358997 g / cm^3
# Si number density = 23.643786 Si / 1000 Ang^3
#
#
#
# Elastic Constant Matrix: (Units=GPa)
#
#
# Indices 1 2 3 4 5 6 
#
# 1 111.7232 41.1784 22.9288 4.5634 -5.8854 -15.8202
# 2 41.1784 144.2130 55.9642 -3.2697 -12.2687 10.8857
# 3 22.9288 55.9642 94.6381 24.4586 -17.9814 -10.8679
# 4 4.5634 -3.2697 24.4586 57.7206 2.8222 7.7271
# 5 -5.8854 -12.2687 -17.9814 2.8222 36.3225 0.8284
# 6 -15.8202 10.8857 -10.8679 7.7271 0.8284 41.2741
#
#
#
# Elastic Compliance Matrix: (Units=1/GPa)
#
#
# Indices 1 2 3 4 5 6 
#
# 1 0.011258 -0.004163 0.001331 -0.002578 0.001135 0.006223
# 2 -0.004163 0.012267 -0.008989 0.006005 -0.001259 -0.008297
# 3 0.001331 -0.008989 0.021317 -0.011459 0.008384 0.010471
# 4 -0.002578 0.006005 -0.011459 0.024347 -0.005725 -0.010033
# 5 0.001135 -0.001259 0.008384 -0.005725 0.031807 0.003408
# 6 0.006223 -0.008297 0.010471 -0.010033 0.003408 0.033369
#
#
# Mechanical properties :
#
#
# Convention : Reuss Voigt Hill
#
# Bulk Modulus (GPa) = 47.17168 65.63524 56.40346
# Shear Modulus (GPa) = 30.28943 42.43031 36.35987
#
# Velocity S-wave (km/s) = 3.58309 4.24083 3.92576
# Velocity P-wave (km/s) = 6.09199 7.19721 6.66754
#
# Compressibility (1/GPa) = 0.02119916
#
# Stress axis : x y z
#
# Youngs Moduli (GPa) = 88.82372 81.52226 46.91145
#
# Poissons Ratio (x) = 0.33936 -0.06243
# Poissons Ratio (y) = 0.36975 0.42170
# Poissons Ratio (z) = -0.11821 0.73282
#
# Static dielectric constant tensor:
#      x y z
#    x 2.454080 0.221380 -0.140610 
#    y 0.221380 2.019360 -0.069030 
#    z -0.140610 -0.069030 1.992020 
# 
# From -- ./inp_files/294713.got.cif
#   From: 2010.05.17/outbox.cif.g08.bks.cpg/sg2_148_cif.got.tgz:294713.got - 2010.06.03 11:33:40.
