data_PCOD9108395
_publ_section_title
;
Structure prediction by ZEFSAII (Michael W. Deem and Ramdas Pophale) SiO2 
 PCOD9108395
Probable space group: P -1
;
_chemical_formula_sum "Si O2"
_cell_formula_units_Z 15
_cell_length_a 14.728449
_cell_length_b 10.030882
_cell_length_c 8.626476
_cell_angle_alpha 135.209435
_cell_angle_beta 93.787480
_cell_angle_gamma 112.836121
_cell_volume 703.820283
_symmetry_space_group_name_H-M "P -1"
_symmetry_group_IT_number 2
_symmetry_cell_setting 'triclinic'
loop_
_space_group_symop_operation_xyz
x,y,z
-x,-y,-z
loop_
_atom_site_type_symbol
_atom_site_label
_atom_site_fract_x
_atom_site_fract_y
_atom_site_fract_z
Si Si1 0.212712 0.258774 0.439094
Si Si2 0.176659 0.606346 0.651295
Si Si3 0.604064 0.546006 0.649610
Si Si4 0.638473 0.955948 0.187225
Si Si5 0.525479 0.976698 0.660624
Si Si6 0.000000 0.500000 0.000000
Si Si7 0.022256 0.731814 0.887600
Si Si8 0.733434 0.030480 0.608272
O O1 0.205805 0.470190 0.656779
O O2 0.290261 0.351932 0.370317
O O3 0.268333 0.190021 0.516067
O O4 0.088370 0.005860 0.174064
O O5 0.119053 0.713108 0.814178
O O6 0.076791 0.385788 0.349858
O O7 0.281225 0.814990 0.728280
O O8 0.500000 0.500000 0.500000
O O9 0.560358 0.299533 0.521928
O O10 0.634696 0.742928 0.941186
O O11 0.511745 0.891342 0.131776
O O12 0.687848 0.001757 0.404849
O O13 0.500000 0.000000 0.500000
O O14 0.652417 0.048017 0.729507
O O15 0.865768 0.262523 0.821847
O O16 0.961806 0.557952 0.883803
#
# Coordination Sequence:
#
# PCOD9108395 Si02
#       8
#     2   2   2   2   2   1   2   2
#     4  11  22  41  63  97 131 165 216 275 324 381
#     4  11  21  40  67  96 126 173 221 259 329 388
#     4  12  24  43  63  97 132 165 220 281 321 386
#     4  11  23  43  69  92 132 182 214 267 337 391
#     4  10  23  43  66  97 131 174 220 263 332 393
#     4  10  20  40  68  92 134 166 204 276 322 380
#     4  10  22  40  66  94 133 170 215 269 320 390
#     4  10  22  43  64  96 135 171 215 271 328 389
#
# _framework density 21.312258
#
# number of rings (size 3 to 8) (size 9 to 14) (size 15 to 20)
#    0.000    1.333    5.333    0.400    0.000    2.667 
#    4.800    6.667    0.000    0.000    0.000    0.000 
#    0.000    0.000    0.000    0.000    0.000    0.000 
#
# Total GULP energy -83554.058603 kJ/mol
# GULP energy per Si atom -5570.270574 kJ/mol
# Density = 2.126375 g / cm^3
# Si number density = 21.312258 Si / 1000 Ang^3
#
#
#
# Elastic Constant Matrix: (Units=GPa)
#
#
# Indices 1 2 3 4 5 6 
#
# 1 62.6927 23.6835 5.6722 17.6671 0.4558 -5.9340
# 2 23.6835 146.7715 4.6597 21.5193 -2.2244 -1.2366
# 3 5.6722 4.6597 39.4994 2.5457 -0.3991 3.8005
# 4 17.6671 21.5193 2.5457 18.4839 -4.0849 6.1723
# 5 0.4558 -2.2244 -0.3991 -4.0849 26.5835 3.2629
# 6 -5.9340 -1.2366 3.8005 6.1723 3.2629 34.5418
#
#
#
# Elastic Compliance Matrix: (Units=1/GPa)
#
#
# Indices 1 2 3 4 5 6 
#
# 1 0.025297 0.000242 -0.002863 -0.028911 -0.006178 0.010419
# 2 0.000242 0.008419 -0.000568 -0.011084 -0.001320 0.002511
# 3 -0.002863 -0.000568 0.026080 0.001275 0.001044 -0.003708
# 4 -0.028911 -0.011084 0.001275 0.107618 0.019385 -0.026565
# 5 -0.006178 -0.001320 0.001044 0.019385 0.041666 -0.008623
# 6 0.010419 0.002511 -0.003708 -0.026565 -0.008623 0.036800
#
#
# Mechanical properties :
#
#
# Convention : Reuss Voigt Hill
#
# Bulk Modulus (GPa) = 18.72069 35.22161 26.97115
# Shear Modulus (GPa) = 18.51419 30.25171 24.38295
#
# Velocity S-wave (km/s) = 2.95059 3.77165 3.38610
# Velocity P-wave (km/s) = 4.51786 5.96066 5.28869
#
# Compressibility (1/GPa) = 0.05341683
#
# Stress axis : x y z
#
# Youngs Moduli (GPa) = 39.53080 118.78455 38.34335
#
# Poissons Ratio (x) = -0.02874 0.10977
# Poissons Ratio (y) = -0.00956 0.02179
# Poissons Ratio (z) = 0.11317 0.06752
#
# Static dielectric constant tensor:
#      x y z
#    x 1.803450 -0.028670 0.005340 
#    y -0.028670 1.741130 -0.043600 
#    z 0.005340 -0.043600 1.772330 
# 
# From -- ./inp_files/70956.got.cif
#   From: 2010.05.17/outbox.cif.g08.bks.cpg/sg2_36_cif.got.tgz:70956.got - 2010.06.03 11:33:40.
