data_PCOD9108915
_publ_section_title
;
Structure prediction by ZEFSAII (Michael W. Deem and Ramdas Pophale) SiO2 
 PCOD9108915
Probable space group: P -1
;
_chemical_formula_sum "Si O2"
_cell_formula_units_Z 14
_cell_length_a 5.437708
_cell_length_b 13.128472
_cell_length_c 8.888853
_cell_angle_alpha 80.017367
_cell_angle_beta 83.130267
_cell_angle_gamma 61.583354
_cell_volume 549.151621
_symmetry_space_group_name_H-M "P -1"
_symmetry_group_IT_number 2
_symmetry_cell_setting 'triclinic'
loop_
_space_group_symop_operation_xyz
x,y,z
-x,-y,-z
loop_
_atom_site_type_symbol
_atom_site_label
_atom_site_fract_x
_atom_site_fract_y
_atom_site_fract_z
Si Si1 0.129328 0.851730 0.187129
Si Si2 0.349498 0.732130 0.925685
Si Si3 0.743018 0.028395 0.620921
Si Si4 0.646913 0.363777 0.365602
Si Si5 0.790619 0.825251 0.489085
Si Si6 0.629069 0.605427 0.320563
Si Si7 0.044872 0.380152 0.954629
O O1 0.132795 0.844227 0.009097
O O2 0.211618 0.947739 0.218984
O O3 0.366111 0.720631 0.246918
O O4 0.882062 0.866479 0.315811
O O5 0.658228 0.707717 0.965720
O O6 0.212897 0.645833 0.996274
O O7 0.366389 0.715015 0.749533
O O8 0.508439 0.154919 0.548631
O O9 0.697486 0.918322 0.610838
O O10 0.000000 0.000000 0.500000
O O11 0.630887 0.487455 0.289699
O O12 0.403558 0.396605 0.498238
O O13 0.948273 0.290002 0.443519
O O14 0.892048 0.614216 0.228164
O O15 0.000000 0.500000 0.000000
#
# Coordination Sequence:
#
# PCOD9108915 Si02
#       7
#     2   2   2   2   2   2   2
#     4   9  20  35  61  88 120 167 215 252 306 387
#     4  11  24  40  62  94 131 170 217 263 319 377
#     4   9  18  38  62  89 113 161 218 263 306 384
#     4  10  20  41  59 100 132 168 201 275 323 376
#     4   9  19  37  65  87 121 160 215 260 320 375
#     4   9  20  38  61  91 133 169 214 251 316 377
#     4  11  22  41  62  86 128 185 223 250 301 392
#
# _framework density 25.493867000000002
#
# number of rings (size 3 to 8) (size 9 to 14) (size 15 to 20)
#    0.000    2.286    1.429    0.429    6.000    0.000 
#    7.714    2.143    0.000    7.714    0.000    0.000 
#    0.000    0.000    0.000    0.000    0.000    0.000 
#
# Total GULP energy -78053.822081 kJ/mol
# GULP energy per Si atom -5575.273006 kJ/mol
# Density = 2.543584 g / cm^3
# Si number density = 25.493867 Si / 1000 Ang^3
#
#
#
# Elastic Constant Matrix: (Units=GPa)
#
#
# Indices 1 2 3 4 5 6 
#
# 1 44.4946 17.9733 20.8398 -2.0867 10.4547 -5.2153
# 2 17.9733 92.9663 40.0327 17.5770 18.3122 -6.2715
# 3 20.8398 40.0327 158.3541 39.0126 2.7708 -1.0751
# 4 -2.0867 17.5770 39.0126 54.0013 4.3434 9.3162
# 5 10.4547 18.3122 2.7708 4.3434 34.1196 11.3860
# 6 -5.2153 -6.2715 -1.0751 9.3162 11.3860 31.4719
#
#
#
# Elastic Compliance Matrix: (Units=1/GPa)
#
#
# Indices 1 2 3 4 5 6 
#
# 1 0.028586 -0.002218 -0.004084 0.004468 -0.009953 0.006434
# 2 -0.002218 0.015213 -0.002420 -0.003762 -0.009147 0.007004
# 3 -0.004084 -0.002420 0.008898 -0.006004 0.002598 -0.000017
# 4 0.004468 -0.003762 -0.006004 0.025587 0.000546 -0.007986
# 5 -0.009953 -0.009147 0.002598 0.000546 0.043411 -0.019250
# 6 0.006434 0.007004 -0.000017 -0.007986 -0.019250 0.043564
#
#
# Mechanical properties :
#
#
# Convention : Reuss Voigt Hill
#
# Bulk Modulus (GPa) = 28.36647 50.38962 39.37804
# Shear Modulus (GPa) = 25.71327 38.38320 32.04824
#
# Velocity S-wave (km/s) = 3.17930 3.88440 3.54940
# Velocity P-wave (km/s) = 4.96268 6.31873 5.68131
#
# Compressibility (1/GPa) = 0.03525289
#
# Stress axis : x y z
#
# Youngs Moduli (GPa) = 34.98273 65.73387 112.38779
#
# Poissons Ratio (x) = 0.14580 0.45899
# Poissons Ratio (y) = 0.07759 0.27193
# Poissons Ratio (z) = 0.14287 0.15905
#
# Static dielectric constant tensor:
#      x y z
#    x 2.165670 0.044390 0.044650 
#    y 0.044390 2.082870 -0.014520 
#    z 0.044650 -0.014520 2.130330 
# 
# From -- ./inp_files/110306.got.cif
#   From: 2010.05.17/outbox.cif.g08.bks.cpg/sg2_56_cif.got.tgz:110306.got - 2010.06.03 11:33:40.
