data_PCOD9108033
_publ_section_title
;
Structure prediction by ZEFSAII (Michael W. Deem and Ramdas Pophale) SiO2 
 PCOD9108033
Probable space group: P -1
;
_chemical_formula_sum "Si O2"
_cell_formula_units_Z 16
_cell_length_a 17.439606
_cell_length_b 9.012569
_cell_length_c 5.438714
_cell_angle_alpha 106.737272
_cell_angle_beta 63.614421
_cell_angle_gamma 80.454630
_cell_volume 688.987256
_symmetry_space_group_name_H-M "P -1"
_symmetry_group_IT_number 2
_symmetry_cell_setting 'triclinic'
loop_
_space_group_symop_operation_xyz
x,y,z
-x,-y,-z
loop_
_atom_site_type_symbol
_atom_site_label
_atom_site_fract_x
_atom_site_fract_y
_atom_site_fract_z
Si Si1 0.748026 0.586122 0.499901
Si Si2 0.548796 0.354956 0.057704
Si Si3 0.202786 0.896760 0.060358
Si Si4 0.024975 0.893929 0.157283
Si Si5 0.142494 0.196232 0.613189
Si Si6 0.678177 0.025930 0.440081
Si Si7 0.428699 0.162034 0.296801
Si Si8 0.277896 0.584480 0.047875
O O1 0.836026 0.639976 0.390624
O O2 0.658564 0.751878 0.710312
O O3 0.741142 0.488668 0.706053
O O4 0.742315 0.501952 0.207590
O O5 0.614193 0.184557 0.756240
O O6 0.618829 0.423187 0.125405
O O7 0.500000 0.500000 0.000000
O O8 0.481210 0.293049 0.290795
O O9 0.134191 0.833051 0.972207
O O10 0.219949 0.778005 0.212391
O O11 0.160216 0.084853 0.290677
O O12 0.294753 0.891527 0.795982
O O13 0.962001 0.780975 0.169688
O O14 0.000000 0.000000 0.500000
O O15 0.000000 0.000000 0.000000
O O16 0.223347 0.084835 0.631285
O O17 0.618681 0.904248 0.443208
O O18 0.500000 0.000000 0.000000
#
# Coordination Sequence:
#
# PCOD9108033 Si02
#       8
#     2   2   2   2   2   2   2   2
#     4  11  26  44  66  95 136 179 219 273 339 399
#     4  11  21  42  64  94 134 176 227 275 336 394
#     4  11  23  41  72  99 133 174 227 273 338 398
#     4  10  21  38  68 107 134 166 221 280 327 394
#     4  10  22  42  69  97 135 172 223 273 335 396
#     4  10  20  40  66  95 127 172 220 279 329 393
#     4   9  21  41  64  93 128 170 226 280 332 386
#     4  12  26  44  66  97 134 179 222 272 337 399
#
# _framework density 23.222488999999999
#
# number of rings (size 3 to 8) (size 9 to 14) (size 15 to 20)
#    0.000    1.500    3.750    0.750    3.500    0.500 
#    0.000    2.500    0.000    0.000    0.000    0.000 
#    0.000    0.000    0.000    0.000    0.000    0.000 
#
# Total GULP energy -89224.203579 kJ/mol
# GULP energy per Si atom -5576.512724 kJ/mol
# Density = 2.316963 g / cm^3
# Si number density = 23.222489 Si / 1000 Ang^3
#
#
#
# Elastic Constant Matrix: (Units=GPa)
#
#
# Indices 1 2 3 4 5 6 
#
# 1 105.7041 56.4334 17.9105 -28.7891 -5.8016 46.8676
# 2 56.4334 131.0876 47.8179 -39.5131 -3.5177 35.8155
# 3 17.9105 47.8179 85.5577 -24.3189 3.8800 23.4890
# 4 -28.7891 -39.5131 -24.3189 38.2997 8.8237 -13.1281
# 5 -5.8016 -3.5177 3.8800 8.8237 24.5285 -14.8104
# 6 46.8676 35.8155 23.4890 -13.1281 -14.8104 56.5297
#
#
#
# Elastic Compliance Matrix: (Units=1/GPa)
#
#
# Indices 1 2 3 4 5 6 
#
# 1 0.021141 -0.002512 0.006736 0.014084 -0.012864 -0.018834
# 2 -0.002512 0.013890 -0.003011 0.010065 -0.004319 -0.004261
# 3 0.006736 -0.003011 0.019961 0.013656 -0.014519 -0.012603
# 4 0.014084 0.010065 0.013656 0.056096 -0.028541 -0.018178
# 5 -0.012864 -0.004319 -0.014519 -0.028541 0.068190 0.030672
# 6 -0.018834 -0.004261 -0.012603 -0.018178 0.030672 0.045055
#
#
# Mechanical properties :
#
#
# Convention : Reuss Voigt Hill
#
# Bulk Modulus (GPa) = 17.41627 62.96367 40.18997
# Shear Modulus (GPa) = 20.74279 37.21741 28.98010
#
# Velocity S-wave (km/s) = 2.99192 4.00765 3.53644
# Velocity P-wave (km/s) = 4.41038 6.97044 5.83260
#
# Compressibility (1/GPa) = 0.05741756
#
# Stress axis : x y z
#
# Youngs Moduli (GPa) = 47.30136 71.99251 50.09782
#
# Poissons Ratio (x) = 0.18087 -0.33746
# Poissons Ratio (y) = 0.11884 0.15084
# Poissons Ratio (z) = -0.31862 0.21677
#
# Static dielectric constant tensor:
#      x y z
#    x 1.961380 -0.004260 -0.068530 
#    y -0.004260 1.895930 0.013140 
#    z -0.068530 0.013140 2.140640 
# 
# From -- ./inp_files/53935.got.cif
#   From: 2010.05.17/outbox.cif.g08.bks.cpg/sg2_27_cif.got.tgz:53935.got - 2010.06.03 11:33:40.
