data_PCOD9108890
_publ_section_title
;
Structure prediction by ZEFSAII (Michael W. Deem and Ramdas Pophale) SiO2 
 PCOD9108890
Probable space group: P -1
;
_chemical_formula_sum "Si O2"
_cell_formula_units_Z 15
_cell_length_a 5.289433
_cell_length_b 19.897824
_cell_length_c 9.561599
_cell_angle_alpha 138.906325
_cell_angle_beta 104.557059
_cell_angle_gamma 82.922089
_cell_volume 636.749862
_symmetry_space_group_name_H-M "P -1"
_symmetry_group_IT_number 2
_symmetry_cell_setting 'triclinic'
loop_
_space_group_symop_operation_xyz
x,y,z
-x,-y,-z
loop_
_atom_site_type_symbol
_atom_site_label
_atom_site_fract_x
_atom_site_fract_y
_atom_site_fract_z
Si Si1 0.878468 0.360637 0.149064
Si Si2 0.711562 0.627267 0.537147
Si Si3 0.821682 0.937346 0.492922
Si Si4 0.139848 0.954709 0.813046
Si Si5 0.460542 0.157772 0.141518
Si Si6 0.797712 0.494270 0.089827
Si Si7 0.648172 0.152842 0.868206
Si Si8 0.500000 0.500000 0.500000
O O1 0.843942 0.397654 0.044975
O O2 0.658712 0.410000 0.288475
O O3 0.155547 0.396475 0.326739
O O4 0.851021 0.237021 0.956704
O O5 0.688632 0.745375 0.694547
O O6 0.840955 0.584378 0.353378
O O7 0.445229 0.558519 0.432520
O O8 0.624106 0.851154 0.258867
O O9 0.963022 0.894753 0.578620
O O10 0.686037 0.032761 0.689649
O O11 0.000000 0.000000 0.500000
O O12 0.362464 0.885621 0.783489
O O13 0.264514 0.058616 0.917693
O O14 0.000000 0.000000 0.000000
O O15 0.635883 0.188580 0.080764
O O16 0.500000 0.500000 0.000000
O O17 0.000000 0.500000 0.000000
#
# Coordination Sequence:
#
# PCOD9108890 Si02
#       8
#     2   2   2   2   2   2   2   1
#     4  11  25  44  77 102 138 190 250 301 362 454
#     4  11  25  44  77 102 138 190 250 301 362 454
#     4  11  23  43  67  96 143 186 229 290 363 427
#     4  11  23  43  67  96 143 186 229 290 363 427
#     4  11  23  41  70 103 135 181 245 295 355 435
#     4  11  28  51  74 110 161 193 236 316 397 446
#     4  11  23  41  70 103 135 181 245 295 355 435
#     4  10  20  40  76 100 126 168 248 294 352 422
#
# _framework density 23.557130000000001
#
# number of rings (size 3 to 8) (size 9 to 14) (size 15 to 20)
#    0.000    1.067    4.000    2.400    7.467    0.000 
#    4.800    0.000    0.000    0.000    0.000    0.000 
#    0.000    0.000    0.000    0.000    0.000    0.000 
#
# Total GULP energy -83569.889263 kJ/mol
# GULP energy per Si atom -5571.325951 kJ/mol
# Density = 2.350351 g / cm^3
# Si number density = 23.557130 Si / 1000 Ang^3
#
#
#
# Elastic Constant Matrix: (Units=GPa)
#
#
# Indices 1 2 3 4 5 6 
#
# 1 82.8549 25.7792 19.7706 -21.9293 -16.8592 -0.5416
# 2 25.7792 126.1143 43.4838 -5.0161 -4.3406 -4.3582
# 3 19.7706 43.4838 56.8645 -8.3547 -1.8749 -4.7141
# 4 -21.9293 -5.0161 -8.3547 45.2674 1.8947 -5.5305
# 5 -16.8592 -4.3406 -1.8749 1.8947 32.7248 -18.0721
# 6 -0.5416 -4.3582 -4.7141 -5.5305 -18.0721 33.8834
#
#
#
# Elastic Compliance Matrix: (Units=1/GPa)
#
#
# Indices 1 2 3 4 5 6 
#
# 1 0.018185 -0.001746 -0.002643 0.008563 0.012892 0.007972
# 2 -0.001746 0.010997 -0.007926 -0.001069 0.000322 0.000281
# 3 -0.002643 -0.007926 0.025284 0.002881 0.000687 0.003293
# 4 0.008563 -0.001069 0.002881 0.027431 0.007853 0.009066
# 5 0.012892 0.000322 0.000687 0.007853 0.053476 0.030147
# 6 0.007972 0.000281 0.003293 0.009066 0.030147 0.047694
#
#
# Mechanical properties :
#
#
# Convention : Reuss Voigt Hill
#
# Bulk Modulus (GPa) = 33.51582 49.32232 41.41907
# Shear Modulus (GPa) = 22.97347 34.16179 28.56763
#
# Velocity S-wave (km/s) = 3.12625 3.81224 3.48616
# Velocity P-wave (km/s) = 5.22394 6.35298 5.81592
#
# Compressibility (1/GPa) = 0.02983666
#
# Stress axis : x y z
#
# Youngs Moduli (GPa) = 54.99041 90.93205 39.55025
#
# Poissons Ratio (x) = 0.15877 0.10455
# Poissons Ratio (y) = 0.09601 0.31346
# Poissons Ratio (z) = 0.14536 0.72069
#
# Static dielectric constant tensor:
#      x y z
#    x 1.862940 -0.208150 -0.111070 
#    y -0.208150 1.817920 -0.037610 
#    z -0.111070 -0.037610 1.900000 
# 
# From -- ./inp_files/140937.got.cif
#   From: 2010.05.17/outbox.cif.g08.bks.cpg/sg2_71_cif.got.tgz:140937.got - 2010.06.03 11:33:40.
