data_PCOD9108261
_publ_section_title
;
Structure prediction by ZEFSAII (Michael W. Deem and Ramdas Pophale) SiO2 
 PCOD9108261
Probable space group: P -1
;
_chemical_formula_sum "Si O2"
_cell_formula_units_Z 16
_cell_length_a 11.528004
_cell_length_b 9.403133
_cell_length_c 15.072855
_cell_angle_alpha 96.370636
_cell_angle_beta 31.186421
_cell_angle_gamma 110.143577
_cell_volume 735.459396
_symmetry_space_group_name_H-M "P -1"
_symmetry_group_IT_number 2
_symmetry_cell_setting 'triclinic'
loop_
_space_group_symop_operation_xyz
x,y,z
-x,-y,-z
loop_
_atom_site_type_symbol
_atom_site_label
_atom_site_fract_x
_atom_site_fract_y
_atom_site_fract_z
Si Si1 0.294737 0.528950 0.082464
Si Si2 0.899092 0.805307 0.059542
Si Si3 0.626540 0.256549 0.262166
Si Si4 0.140667 0.826993 0.643244
Si Si5 0.465531 0.525738 0.782066
Si Si6 0.948228 0.361887 0.599051
Si Si7 0.356335 0.152158 0.618690
Si Si8 0.822518 0.049737 0.562175
O O1 0.048213 0.353559 0.214964
O O2 0.191528 0.620139 0.221438
O O3 0.500000 0.500000 0.000000
O O4 0.421314 0.593388 0.908674
O O5 0.665157 0.671822 0.143916
O O6 0.785399 0.767745 0.231203
O O7 0.130417 0.769290 0.890623
O O8 0.000000 0.000000 0.000000
O O9 0.672253 0.422643 0.198795
O O10 0.497660 0.235813 0.441199
O O11 0.426617 0.111613 0.318988
O O12 0.428201 0.850644 0.457972
O O13 0.059367 0.857170 0.601795
O O14 0.159694 0.966688 0.706183
O O15 0.764275 0.605589 0.568325
O O16 0.000000 0.500000 0.500000
O O17 0.785394 0.181962 0.652130
O O18 0.000000 0.000000 0.500000
#
# Coordination Sequence:
#
# PCOD9108261 Si02
#       8
#     2   2   2   2   2   2   2   2
#     4  12  24  39  67  98 135 173 226 273 327 399
#     4  12  25  41  71 101 130 174 232 275 332 401
#     4  11  26  45  67  96 141 174 216 285 340 395
#     4  10  20  40  67  95 134 170 218 277 327 396
#     4  12  26  45  66  98 140 174 221 287 336 393
#     4  12  24  43  70  99 131 184 228 267 339 405
#     4  10  22  41  68  98 126 178 223 270 337 391
#     4  11  22  43  69  98 138 174 219 280 338 395
#
# _framework density 21.755109999999998
#
# number of rings (size 3 to 8) (size 9 to 14) (size 15 to 20)
#    0.000    0.750    3.750    4.875    1.750    2.500 
#    0.000    0.625    0.000    0.000    0.000    0.000 
#    0.000    0.000    0.000    0.000    0.000    0.000 
#
# Total GULP energy -89441.650299 kJ/mol
# GULP energy per Si atom -5590.103144 kJ/mol
# Density = 2.170559 g / cm^3
# Si number density = 21.755110 Si / 1000 Ang^3
#
#
#
# Elastic Constant Matrix: (Units=GPa)
#
#
# Indices 1 2 3 4 5 6 
#
# 1 97.8188 20.3392 36.5170 11.1016 16.1744 -1.3411
# 2 20.3392 88.3372 39.7209 11.7870 16.2672 9.3228
# 3 36.5170 39.7209 116.5820 32.1803 20.0764 18.3322
# 4 11.1016 11.7870 32.1803 33.7068 14.7168 3.5751
# 5 16.1744 16.2672 20.0764 14.7168 32.6830 -2.9154
# 6 -1.3411 9.3228 18.3322 3.5751 -2.9154 36.7614
#
#
#
# Elastic Compliance Matrix: (Units=1/GPa)
#
#
# Indices 1 2 3 4 5 6 
#
# 1 0.012243 -0.000914 -0.003480 0.001034 -0.003752 0.002015
# 2 -0.000914 0.014200 -0.003660 0.001341 -0.005180 -0.002350
# 3 -0.003480 -0.003660 0.015007 -0.010692 -0.001373 -0.005751
# 4 0.001034 0.001341 -0.010692 0.045812 -0.015297 -0.000639
# 5 -0.003752 -0.005180 -0.001373 -0.015297 0.043370 0.006789
# 6 0.002015 -0.002350 -0.005751 -0.000639 0.006789 0.031341
#
#
# Mechanical properties :
#
#
# Convention : Reuss Voigt Hill
#
# Bulk Modulus (GPa) = 39.46065 55.09912 47.27989
# Shear Modulus (GPa) = 26.80591 34.37431 30.59011
#
# Velocity S-wave (km/s) = 3.51403 3.97931 3.75388
# Velocity P-wave (km/s) = 5.88579 6.81873 6.36936
#
# Compressibility (1/GPa) = 0.02534170
#
# Stress axis : x y z
#
# Youngs Moduli (GPa) = 81.68136 70.42470 66.63701
#
# Poissons Ratio (x) = 0.06436 0.23186
# Poissons Ratio (y) = 0.07465 0.24390
# Poissons Ratio (z) = 0.28421 0.25777
#
# Static dielectric constant tensor:
#      x y z
#    x 1.806930 0.006240 0.021150 
#    y 0.006240 1.818970 -0.034030 
#    z 0.021150 -0.034030 1.824690 
# 
# From -- ./inp_files/428873.got.cif
#   From: 2010.05.17/outbox.cif.g08.bks.cpg/sg2_215_cif.got.tgz:428873.got - 2010.06.03 11:33:40.
