data_PCOD9108060
_publ_section_title
;
Structure prediction by ZEFSAII (Michael W. Deem and Ramdas Pophale) SiO2 
 PCOD9108060
Probable space group: P -1
;
_chemical_formula_sum "Si O2"
_cell_formula_units_Z 16
_cell_length_a 20.832696
_cell_length_b 14.291815
_cell_length_c 11.635591
_cell_angle_alpha 45.645720
_cell_angle_beta 148.979631
_cell_angle_gamma 153.227473
_cell_volume 770.985541
_symmetry_space_group_name_H-M "P -1"
_symmetry_group_IT_number 2
_symmetry_cell_setting 'triclinic'
loop_
_space_group_symop_operation_xyz
x,y,z
-x,-y,-z
loop_
_atom_site_type_symbol
_atom_site_label
_atom_site_fract_x
_atom_site_fract_y
_atom_site_fract_z
Si Si1 0.325024 0.261084 0.991778
Si Si2 0.610138 0.441834 0.473963
Si Si3 0.363474 0.095566 0.997845
Si Si4 0.182536 0.821970 0.467616
Si Si5 0.728947 0.397742 0.137251
Si Si6 0.146000 0.107892 0.481027
Si Si7 0.459714 0.903270 0.396251
Si Si8 0.569496 0.760766 0.380123
O O1 0.500000 0.500000 0.000000
O O2 0.406541 0.316433 0.198826
O O3 0.343004 0.140019 0.053881
O O4 0.088660 0.102051 0.741649
O O5 0.789918 0.702158 0.520016
O O6 0.656070 0.333933 0.587548
O O7 0.546175 0.377231 0.563735
O O8 0.590471 0.318456 0.103155
O O9 0.350766 0.927969 0.133414
O O10 0.210502 0.043586 0.721104
O O11 0.216353 0.707828 0.671986
O O12 0.943211 0.649686 0.232662
O O13 0.319900 0.938602 0.463159
O O14 0.270222 0.997746 0.539783
O O15 0.590459 0.307520 0.892745
O O16 0.298214 0.228782 0.501116
O O17 0.500000 0.000000 0.500000
#
# Coordination Sequence:
#
# PCOD9108060 Si02
#       8
#     2   2   2   2   2   2   2   2
#     4  12  25  42  68  91 131 170 220 263 308 382
#     4  11  24  42  67  94 131 169 204 269 321 378
#     4  10  21  41  67  91 127 165 214 265 307 380
#     4   9  19  35  63  91 124 171 206 256 318 376
#     4   9  19  37  61  92 127 161 214 258 315 372
#     4  11  25  43  67  95 126 172 219 258 318 378
#     4  10  20  40  66  96 130 164 209 262 321 380
#     4  10  22  38  62  93 129 160 211 263 317 376
#
# _framework density 20.752658
#
# number of rings (size 3 to 8) (size 9 to 14) (size 15 to 20)
#    0.000    1.750    2.500    1.125    1.750    3.500 
#    0.000    0.625    8.250    0.000    0.000    0.000 
#    0.000    0.000    0.000    0.000    0.000    0.000 
#
# Total GULP energy -89254.057283 kJ/mol
# GULP energy per Si atom -5578.378580 kJ/mol
# Density = 2.070542 g / cm^3
# Si number density = 20.752658 Si / 1000 Ang^3
#
#
#
# Elastic Constant Matrix: (Units=GPa)
#
#
# Indices 1 2 3 4 5 6 
#
# 1 86.3877 7.8479 25.9059 -1.1336 -8.4501 -9.7512
# 2 7.8479 68.5795 42.0693 7.9467 4.5295 -18.8393
# 3 25.9059 42.0693 120.4097 26.5722 2.4400 8.6811
# 4 -1.1336 7.9467 26.5722 34.1633 -1.0180 -5.2149
# 5 -8.4501 4.5295 2.4400 -1.0180 27.8330 -5.0927
# 6 -9.7512 -18.8393 8.6811 -5.2149 -5.0927 24.0890
#
#
#
# Elastic Compliance Matrix: (Units=1/GPa)
#
#
# Indices 1 2 3 4 5 6 
#
# 1 0.017838 0.009410 -0.011438 0.011113 0.009524 0.023121
# 2 0.009410 0.037360 -0.022110 0.016089 0.007741 0.046115
# 3 -0.011438 -0.022110 0.026255 -0.021787 -0.009964 -0.038206
# 4 0.011113 0.016089 -0.021787 0.048975 0.011400 0.037945
# 5 0.009524 0.007741 -0.009964 0.011400 0.043453 0.025155
# 6 0.023121 0.046115 -0.038206 0.037945 0.025155 0.114238
#
#
# Mechanical properties :
#
#
# Convention : Reuss Voigt Hill
#
# Bulk Modulus (GPa) = 30.14041 47.44701 38.79371
# Shear Modulus (GPa) = 14.39039 30.52065 22.45552
#
# Velocity S-wave (km/s) = 2.63615 3.83911 3.29303
# Velocity P-wave (km/s) = 4.88066 6.52414 5.76131
#
# Compressibility (1/GPa) = 0.03317805
#
# Stress axis : x y z
#
# Youngs Moduli (GPa) = 56.05981 26.76647 38.08821
#
# Poissons Ratio (x) = -0.25187 0.43564
# Poissons Ratio (y) = -0.52752 0.84212
# Poissons Ratio (z) = 0.64120 0.59180
#
# Static dielectric constant tensor:
#      x y z
#    x 1.760550 0.012750 0.012210 
#    y 0.012750 1.778370 -0.039680 
#    z 0.012210 -0.039680 1.735390 
# 
# From -- ./inp_files/471930.got.cif
#   From: 2010.05.17/outbox.cif.g08.bks.cpg/sg2_236_cif.got.tgz:471930.got - 2010.06.03 11:33:40.
