data_PCOD9108847
_publ_section_title
;
Structure prediction by ZEFSAII (Michael W. Deem and Ramdas Pophale) SiO2 
 PCOD9108847
Probable space group: P -1
;
_chemical_formula_sum "Si O2"
_cell_formula_units_Z 12
_cell_length_a 28.564281
_cell_length_b 15.208110
_cell_length_c 9.577203
_cell_angle_alpha 144.535110
_cell_angle_beta 150.616967
_cell_angle_gamma 14.020636
_cell_volume 477.512997
_symmetry_space_group_name_H-M "P -1"
_symmetry_group_IT_number 2
_symmetry_cell_setting 'triclinic'
loop_
_space_group_symop_operation_xyz
x,y,z
-x,-y,-z
loop_
_atom_site_type_symbol
_atom_site_label
_atom_site_fract_x
_atom_site_fract_y
_atom_site_fract_z
Si Si1 0.131674 0.089085 0.709844
Si Si2 0.806821 0.840406 0.324651
Si Si3 0.685843 0.682065 0.769014
Si Si4 0.559191 0.230704 0.655348
Si Si5 0.756127 0.137088 0.801818
Si Si6 0.218724 0.602977 0.636850
O O1 0.323350 0.676184 0.643583
O O2 0.094459 0.242227 0.672913
O O3 0.260069 0.001504 0.048932
O O4 0.898561 0.351297 0.507963
O O5 0.000000 0.500000 0.500000
O O6 0.702136 0.144288 0.519689
O O7 0.659559 0.900339 0.990321
O O8 0.522753 0.822704 0.629533
O O9 0.648827 0.664266 0.495960
O O10 0.958945 0.255915 0.967408
O O11 0.683885 0.110851 0.687397
O O12 0.676023 0.409487 0.019373
O O13 0.000000 0.000000 0.500000
#
# Coordination Sequence:
#
# PCOD9108847 Si02
#       6
#     2   2   2   2   2   2
#     4  11  21  37  68  96 119 167 208 254 316 357
#     4  10  25  43  59  90 137 166 198 254 316 376
#     4  10  20  40  63  92 126 159 206 255 309 367
#     4  11  20  37  70  92 120 158 216 264 294 366
#     4  10  20  40  63  92 126 159 206 255 309 367
#     4  10  16  36  64  96 115 151 219 250 297 364
#
# _framework density 25.130206000000001
#
# number of rings (size 3 to 8) (size 9 to 14) (size 15 to 20)
#    0.000    1.667    6.667    1.000    0.000    3.333 
#    0.000    0.000    0.000    0.000    0.000    0.000 
#    0.000    0.000    0.000    0.000    0.000    0.000 
#
# Total GULP energy -67160.160196 kJ/mol
# GULP energy per Si atom -5596.680016 kJ/mol
# Density = 2.507301 g / cm^3
# Si number density = 25.130206 Si / 1000 Ang^3
#
#
#
# Elastic Constant Matrix: (Units=GPa)
#
#
# Indices 1 2 3 4 5 6 
#
# 1 206.5888 0.0949 76.4759 -8.6626 37.4797 3.3002
# 2 0.0949 55.5394 14.7558 20.5757 3.5464 21.4650
# 3 76.4759 14.7558 210.4719 16.8187 14.5402 0.0581
# 4 -8.6626 20.5757 16.8187 33.0305 1.7296 5.9492
# 5 37.4797 3.5464 14.5402 1.7296 59.5273 -2.9742
# 6 3.3002 21.4650 0.0581 5.9492 -2.9742 33.2834
#
#
#
# Elastic Compliance Matrix: (Units=1/GPa)
#
#
# Indices 1 2 3 4 5 6 
#
# 1 0.006582 0.000361 -0.002417 0.003253 -0.003760 -0.001799
# 2 0.000361 0.030791 -0.000899 -0.015386 -0.002262 -0.017344
# 3 -0.002417 -0.000899 0.005941 -0.003373 0.000294 0.001438
# 4 0.003253 -0.015386 -0.003373 0.042155 -0.001435 0.001943
# 5 -0.003760 -0.002262 0.000294 -0.001435 0.019462 0.003827
# 6 -0.001799 -0.017344 0.001438 0.001943 0.003827 0.041401
#
#
# Mechanical properties :
#
#
# Convention : Reuss Voigt Hill
#
# Bulk Modulus (GPa) = 26.73476 72.80591 49.77034
# Shear Modulus (GPa) = 30.35612 50.58645 40.47129
#
# Velocity S-wave (km/s) = 3.47933 4.49149 4.01741
# Velocity P-wave (km/s) = 5.17712 7.47879 6.43175
#
# Compressibility (1/GPa) = 0.03740448
#
# Stress axis : x y z
#
# Youngs Moduli (GPa) = 151.92397 32.47690 168.31471
#
# Poissons Ratio (x) = -0.01172 0.40676
# Poissons Ratio (y) = -0.05484 0.15138
# Poissons Ratio (z) = 0.36715 0.02921
#
# Static dielectric constant tensor:
#      x y z
#    x 1.880100 0.039960 -0.018970 
#    y 0.039960 1.893220 0.032410 
#    z -0.018970 0.032410 1.944870 
# 
# From -- ./inp_files/159187.got.cif
#   From: 2010.05.17/outbox.cif.g08.bks.cpg/sg2_80_cif.got.tgz:159187.got - 2010.06.03 11:33:40.
