data_PCOD9108198
_publ_section_title
;
Structure prediction by ZEFSAII (Michael W. Deem and Ramdas Pophale) SiO2 
 PCOD9108198
Probable space group: P -1
;
_chemical_formula_sum "Si O2"
_cell_formula_units_Z 14
_cell_length_a 7.616745
_cell_length_b 9.856342
_cell_length_c 9.993680
_cell_angle_alpha 46.158432
_cell_angle_beta 95.404644
_cell_angle_gamma 94.616651
_cell_volume 538.602338
_symmetry_space_group_name_H-M "P -1"
_symmetry_group_IT_number 2
_symmetry_cell_setting 'triclinic'
loop_
_space_group_symop_operation_xyz
x,y,z
-x,-y,-z
loop_
_atom_site_type_symbol
_atom_site_label
_atom_site_fract_x
_atom_site_fract_y
_atom_site_fract_z
Si Si1 0.933182 0.591218 0.722821
Si Si2 0.490890 0.717256 0.898468
Si Si3 0.982869 0.186608 0.693410
Si Si4 0.625086 0.360168 0.524307
Si Si5 0.124840 0.866307 0.757379
Si Si6 0.372157 0.177245 0.439297
Si Si7 0.799761 0.681994 0.138634
O O1 0.959152 0.667542 0.520110
O O2 0.033219 0.717667 0.754288
O O3 0.028432 0.393679 0.873625
O O4 0.728664 0.621987 0.711511
O O5 0.298444 0.774149 0.896062
O O6 0.530047 0.834933 0.685359
O O7 0.500000 0.500000 0.000000
O O8 0.647813 0.761675 0.982060
O O9 0.790723 0.258181 0.674265
O O10 0.123912 0.197871 0.814932
O O11 0.996733 0.983388 0.764188
O O12 0.500000 0.500000 0.500000
O O13 0.502930 0.201360 0.556107
O O14 0.708755 0.492154 0.323933
O O15 0.215606 0.028673 0.558137
#
# Coordination Sequence:
#
# PCOD9108198 Si02
#       7
#     2   2   2   2   2   2   2
#     4  10  20  40  67  92 125 164 210 261 307 371
#     4  12  23  42  61  93 130 167 207 258 311 376
#     4  10  21  38  61  93 125 163 205 261 314 361
#     4  11  20  37  66  94 125 161 216 258 306 377
#     4  11  23  42  66  92 127 167 209 262 312 367
#     4  11  22  37  67  96 118 164 218 257 304 371
#     4  11  22  40  61  90 132 167 202 259 316 370
#
# _framework density 25.993200000000002
#
# number of rings (size 3 to 8) (size 9 to 14) (size 15 to 20)
#    0.000    1.143    2.857    7.286    0.000    2.286 
#    0.000    0.000    0.000    6.857    0.000    0.000 
#    0.000    0.000    0.000    0.000    0.000    0.000 
#
# Total GULP energy -78440.227874 kJ/mol
# GULP energy per Si atom -5602.873420 kJ/mol
# Density = 2.593404 g / cm^3
# Si number density = 25.993200 Si / 1000 Ang^3
#
#
#
# Elastic Constant Matrix: (Units=GPa)
#
#
# Indices 1 2 3 4 5 6 
#
# 1 139.7033 37.8508 26.8523 19.7475 39.0623 -27.2027
# 2 37.8508 137.3105 34.1304 18.4989 16.1744 -6.2131
# 3 26.8523 34.1304 87.5368 3.5237 30.7345 9.6620
# 4 19.7475 18.4989 3.5237 47.2037 12.8938 13.4636
# 5 39.0623 16.1744 30.7345 12.8938 52.8174 -2.0083
# 6 -27.2027 -6.2131 9.6620 13.4636 -2.0083 53.8619
#
#
#
# Elastic Compliance Matrix: (Units=1/GPa)
#
#
# Indices 1 2 3 4 5 6 
#
# 1 0.011349 -0.001134 -0.001588 -0.004556 -0.005750 0.006810
# 2 -0.001134 0.008950 -0.003642 -0.003680 0.001195 0.002077
# 3 -0.001588 -0.003642 0.016933 0.004948 -0.008993 -0.005832
# 4 -0.004556 -0.003680 0.004948 0.028920 -0.005863 -0.011061
# 5 -0.005750 0.001195 -0.008993 -0.005863 0.029538 0.001414
# 6 0.006810 0.002077 -0.005832 -0.011061 0.001414 0.026109
#
#
# Mechanical properties :
#
#
# Convention : Reuss Voigt Hill
#
# Bulk Modulus (GPa) = 40.81325 62.46861 51.64093
# Shear Modulus (GPa) = 35.03986 48.49108 41.76547
#
# Velocity S-wave (km/s) = 3.67555 4.32386 4.01282
# Velocity P-wave (km/s) = 5.80934 7.00090 6.43277
#
# Compressibility (1/GPa) = 0.02450184
#
# Stress axis : x y z
#
# Youngs Moduli (GPa) = 88.11726 111.73490 59.05602
#
# Poissons Ratio (x) = 0.12673 0.09380
# Poissons Ratio (y) = 0.09994 0.21510
# Poissons Ratio (z) = 0.13996 0.40697
#
# Static dielectric constant tensor:
#      x y z
#    x 2.051720 -0.078950 -0.045800 
#    y -0.078950 2.045000 -0.076310 
#    z -0.045800 -0.076310 2.138660 
# 
# From -- ./inp_files/156934.got.cif
#   From: 2010.05.17/outbox.cif.g08.bks.cpg/sg2_79_cif.got.tgz:156934.got - 2010.06.03 11:33:40.
