data_PCOD9108811
_publ_section_title
;
Structure prediction by ZEFSAII (Michael W. Deem and Ramdas Pophale) SiO2 
 PCOD9108811
Probable space group: P -1
;
_chemical_formula_sum "Si O2"
_cell_formula_units_Z 15
_cell_length_a 10.880720
_cell_length_b 6.988698
_cell_length_c 14.793973
_cell_angle_alpha 62.463470
_cell_angle_beta 47.175772
_cell_angle_gamma 44.700923
_cell_volume 579.904079
_symmetry_space_group_name_H-M "P -1"
_symmetry_group_IT_number 2
_symmetry_cell_setting 'triclinic'
loop_
_space_group_symop_operation_xyz
x,y,z
-x,-y,-z
loop_
_atom_site_type_symbol
_atom_site_label
_atom_site_fract_x
_atom_site_fract_y
_atom_site_fract_z
Si Si1 0.488790 0.433808 0.229131
Si Si2 0.307192 0.858381 0.637744
Si Si3 0.333706 0.327634 0.027543
Si Si4 0.825276 0.737075 0.708440
Si Si5 0.271737 0.374286 0.617415
Si Si6 0.000000 0.500000 0.000000
Si Si7 0.587825 0.892736 0.215024
Si Si8 0.999314 0.154867 0.555518
O O1 0.668912 0.306779 0.247556
O O2 0.553246 0.548209 0.093694
O O3 0.242553 0.640553 0.335561
O O4 0.511966 0.171092 0.238710
O O5 0.546468 0.659500 0.524140
O O6 0.263231 0.135243 0.636713
O O7 0.148911 0.971457 0.606129
O O8 0.258299 0.391625 0.156755
O O9 0.122684 0.461803 0.044087
O O10 0.500000 0.000000 0.000000
O O11 0.035074 0.642004 0.675441
O O12 0.905308 0.702376 0.572366
O O13 0.613935 0.045710 0.747943
O O14 0.347980 0.319255 0.692880
O O15 0.784463 0.784149 0.079194
O O16 0.000000 0.000000 0.500000
#
# Coordination Sequence:
#
# PCOD9108811 Si02
#       8
#     2   2   2   2   2   1   2   2
#     4  11  27  47  73 112 150 189 256 303 369 441
#     4  10  22  43  69 106 143 187 243 303 362 437
#     4  12  27  48  71 103 148 196 243 309 372 444
#     4  12  23  43  72 103 147 193 246 296 377 438
#     4  10  20  40  72 104 140 187 244 303 366 433
#     4  12  26  48  74  98 146 200 246 296 376 438
#     4  11  24  45  75 108 145 199 248 310 363 447
#     4  12  26  43  72 110 152 195 243 312 368 443
#
# _framework density 25.866347999999999
#
# number of rings (size 3 to 8) (size 9 to 14) (size 15 to 20)
#    0.000    0.800    5.333    1.600    0.000    4.800 
#    0.000    0.000    0.000    0.000    0.000    0.000 
#    0.000    0.000    0.000    0.000    0.000    0.000 
#
# Total GULP energy -83513.495554 kJ/mol
# GULP energy per Si atom -5567.566370 kJ/mol
# Density = 2.580747 g / cm^3
# Si number density = 25.866348 Si / 1000 Ang^3
#
#
#
# Elastic Constant Matrix: (Units=GPa)
#
#
# Indices 1 2 3 4 5 6 
#
# 1 123.1619 67.9287 53.1858 10.5653 3.7435 -34.3184
# 2 67.9287 111.4381 76.4780 2.4569 -18.3131 -50.2645
# 3 53.1858 76.4780 169.8143 -3.3972 -5.8915 -10.6208
# 4 10.5653 2.4569 -3.3972 68.0291 -5.0024 -1.0620
# 5 3.7435 -18.3131 -5.8915 -5.0024 25.5560 0.9613
# 6 -34.3184 -50.2645 -10.6208 -1.0620 0.9613 67.0452
#
#
#
# Elastic Compliance Matrix: (Units=1/GPa)
#
#
# Indices 1 2 3 4 5 6 
#
# 1 0.014362 -0.010291 -0.000283 -0.002616 -0.010044 -0.000306
# 2 -0.010291 0.034657 -0.010355 0.001859 0.023613 0.018765
# 3 -0.000283 -0.010355 0.010097 0.000478 -0.004723 -0.006233
# 4 -0.002616 0.001859 0.000478 0.015423 0.004833 0.000305
# 5 -0.010044 0.023613 -0.004723 0.004833 0.056962 0.011073
# 6 -0.000306 0.018765 -0.006233 0.000305 0.011073 0.027686
#
#
# Mechanical properties :
#
#
# Convention : Reuss Voigt Hill
#
# Bulk Modulus (GPa) = 57.94833 88.84437 73.39635
# Shear Modulus (GPa) = 24.17820 45.91419 35.04620
#
# Velocity S-wave (km/s) = 3.06066 4.21771 3.68488
# Velocity P-wave (km/s) = 5.91116 7.62501 6.82212
#
# Compressibility (1/GPa) = 0.01725675
#
# Stress axis : x y z
#
# Youngs Moduli (GPa) = 69.62700 28.85449 99.04135
#
# Poissons Ratio (x) = 0.29695 0.02807
# Poissons Ratio (y) = 0.71655 1.02555
# Poissons Ratio (z) = 0.01973 0.29878
#
# Static dielectric constant tensor:
#      x y z
#    x 2.138340 0.027800 0.014060 
#    y 0.027800 2.068630 -0.053240 
#    z 0.014060 -0.053240 2.020490 
# 
# From -- ./inp_files/515328.got.cif
#   From: 2010.05.17/outbox.cif.g08.bks.cpg/sg2_258_cif.got.tgz:515328.got - 2010.06.03 11:33:40.
