data_PCOD9108205
_publ_section_title
;
Structure prediction by ZEFSAII (Michael W. Deem and Ramdas Pophale) SiO2 
 PCOD9108205
Probable space group: P -1
;
_chemical_formula_sum "Si O2"
_cell_formula_units_Z 12
_cell_length_a 5.193512
_cell_length_b 7.249493
_cell_length_c 20.945055
_cell_angle_alpha 44.815722
_cell_angle_beta 76.945569
_cell_angle_gamma 63.837388
_cell_volume 494.144561
_symmetry_space_group_name_H-M "P -1"
_symmetry_group_IT_number 2
_symmetry_cell_setting 'triclinic'
loop_
_space_group_symop_operation_xyz
x,y,z
-x,-y,-z
loop_
_atom_site_type_symbol
_atom_site_label
_atom_site_fract_x
_atom_site_fract_y
_atom_site_fract_z
Si Si1 0.661976 0.590788 0.713882
Si Si2 0.757379 0.652302 0.920835
Si Si3 0.420286 0.235173 0.557637
Si Si4 0.104284 0.664996 0.366935
Si Si5 0.664145 0.122337 0.010626
Si Si6 0.019870 0.721083 0.760284
O O1 0.778229 0.381850 0.699183
O O2 0.886647 0.540382 0.770821
O O3 0.356925 0.611813 0.752113
O O4 0.616090 0.906970 0.613059
O O5 0.486077 0.909201 0.906209
O O6 0.940524 0.713388 0.839941
O O7 0.617992 0.452886 0.942979
O O8 0.000000 0.500000 0.000000
O O9 0.500000 0.500000 0.500000
O O10 0.227812 0.367265 0.472241
O O11 0.238138 0.232075 0.631648
O O12 0.134255 0.938145 0.331045
O O13 0.500000 0.000000 0.000000
O O14 0.000000 0.000000 0.000000
#
# Coordination Sequence:
#
# PCOD9108205 Si02
#       6
#     2   2   2   2   2   2
#     4  11  25  42  66  99 132 177 220 271 336 395
#     4  11  26  46  73 100 140 181 231 290 342 407
#     4  10  20  40  67  92 133 170 226 268 326 398
#     4  10  23  42  63  97 131 175 217 277 328 391
#     4  11  24  44  72 103 130 172 229 282 345 412
#     4  11  27  43  65  97 137 171 223 275 333 397
#
# _framework density 24.284393999999999
#
# number of rings (size 3 to 8) (size 9 to 14) (size 15 to 20)
#    0.000    1.333    3.333    0.500    7.000    3.333 
#    0.000    0.000    0.000    0.000    0.000    0.000 
#    0.000    0.000    0.000    0.000    0.000    0.000 
#
# Total GULP energy -66876.751590 kJ/mol
# GULP energy per Si atom -5573.062633 kJ/mol
# Density = 2.422912 g / cm^3
# Si number density = 24.284394 Si / 1000 Ang^3
#
#
#
# Elastic Constant Matrix: (Units=GPa)
#
#
# Indices 1 2 3 4 5 6 
#
# 1 162.8725 69.3206 23.5498 28.1592 -17.2472 2.3475
# 2 69.3206 171.0746 25.1109 33.9666 -22.2371 -4.0789
# 3 23.5498 25.1109 73.9160 20.5144 -19.9515 -13.5885
# 4 28.1592 33.9666 20.5144 47.7853 -15.9919 -16.7947
# 5 -17.2472 -22.2371 -19.9515 -15.9919 24.1452 7.2383
# 6 2.3475 -4.0789 -13.5885 -16.7947 7.2383 35.0918
#
#
#
# Elastic Compliance Matrix: (Units=1/GPa)
#
#
# Indices 1 2 3 4 5 6 
#
# 1 0.008046 -0.002349 -0.001026 -0.003189 0.001539 -0.003052
# 2 -0.002349 0.007953 -0.000301 -0.003455 0.003534 -0.001417
# 3 -0.001026 -0.000301 0.018347 -0.001737 0.011841 0.003864
# 4 -0.003189 -0.003455 -0.001737 0.034727 0.012131 0.013257
# 5 0.001539 0.003534 0.011841 0.012131 0.064362 -0.002577
# 6 -0.003052 -0.001417 0.003864 0.013257 -0.002577 0.036909
#
#
# Mechanical properties :
#
#
# Convention : Reuss Voigt Hill
#
# Bulk Modulus (GPa) = 37.04674 71.53620 54.29147
# Shear Modulus (GPa) = 26.78165 40.72989 33.75577
#
# Velocity S-wave (km/s) = 3.32450 4.09981 3.73234
# Velocity P-wave (km/s) = 5.47949 7.20645 6.40148
#
# Compressibility (1/GPa) = 0.02699293
#
# Stress axis : x y z
#
# Youngs Moduli (GPa) = 124.27982 125.73583 54.50575
#
# Poissons Ratio (x) = 0.29541 0.05593
# Poissons Ratio (y) = 0.29199 0.01641
# Poissons Ratio (z) = 0.12753 0.03785
#
# Static dielectric constant tensor:
#      x y z
#    x 2.145940 0.073000 0.053780 
#    y 0.073000 2.026140 -0.073070 
#    z 0.053780 -0.073070 2.073900 
# 
# From -- ./inp_files/101850.got.cif
#   From: 2010.05.17/outbox.cif.g08.bks.cpg/sg2_51_cif.got.tgz:101850.got - 2010.06.03 11:33:40.
