data_PCOD9108039
_publ_section_title
;
Structure prediction by ZEFSAII (Michael W. Deem and Ramdas Pophale) SiO2 
 PCOD9108039
Probable space group: P -1
;
_chemical_formula_sum "Si O2"
_cell_formula_units_Z 16
_cell_length_a 30.543592
_cell_length_b 7.090707
_cell_length_c 13.654503
_cell_angle_alpha 38.102498
_cell_angle_beta 24.048630
_cell_angle_gamma 43.838872
_cell_volume 743.593520
_symmetry_space_group_name_H-M "P -1"
_symmetry_group_IT_number 2
_symmetry_cell_setting 'triclinic'
loop_
_space_group_symop_operation_xyz
x,y,z
-x,-y,-z
loop_
_atom_site_type_symbol
_atom_site_label
_atom_site_fract_x
_atom_site_fract_y
_atom_site_fract_z
Si Si1 0.241932 0.247584 0.513647
Si Si2 0.905342 0.457022 0.629843
Si Si3 0.285475 0.561156 0.688353
Si Si4 0.376014 0.738506 0.941781
Si Si5 0.960040 0.413814 0.312261
Si Si6 0.170325 0.157691 0.224601
Si Si7 0.813493 0.789490 0.130926
Si Si8 0.492790 0.341826 0.474830
O O1 0.342283 0.460380 0.192989
O O2 0.131123 0.391556 0.637761
O O3 0.223719 0.222247 0.676975
O O4 0.267024 0.912544 0.558022
O O5 0.947156 0.494455 0.419556
O O6 0.827965 0.734505 0.710882
O O7 0.000000 0.500000 0.500000
O O8 0.844922 0.135752 0.896389
O O9 0.276591 0.345204 0.700890
O O10 0.394284 0.497892 0.551999
O O11 0.187851 0.454996 0.001537
O O12 0.269735 0.946690 0.076975
O O13 0.405706 0.631618 0.815473
O O14 0.467061 0.980425 0.687222
O O15 0.928760 0.055956 0.510754
O O16 0.079636 0.420839 0.021497
O O17 0.500000 0.500000 0.500000
#
# Coordination Sequence:
#
# PCOD9108039 Si02
#       8
#     2   2   2   2   2   2   2   2
#     4  11  26  42  64 100 143 180 212 270 349 397
#     4  12  22  38  69  96 127 187 243 277 320 376
#     4  11  24  41  65 100 134 176 219 278 341 402
#     4   9  23  44  67 102 129 165 222 271 335 407
#     4  11  24  41  65  96 138 183 237 277 311 392
#     4  10  20  40  66  95 131 175 227 277 319 387
#     4  12  24  41  64  96 143 182 228 277 328 391
#     4  10  23  47  78  99 128 169 222 281 340 407
#
# _framework density 21.517133999999999
#
# number of rings (size 3 to 8) (size 9 to 14) (size 15 to 20)
#    0.000    1.250    3.750    1.500    0.000   11.000 
#    0.000    1.250    0.000    0.000    0.000    0.000 
#    0.000    0.000    0.000    0.000    0.000    0.000 
#
# Total GULP energy -89380.275709 kJ/mol
# GULP energy per Si atom -5586.267232 kJ/mol
# Density = 2.146816 g / cm^3
# Si number density = 21.517134 Si / 1000 Ang^3
#
#
#
# Elastic Constant Matrix: (Units=GPa)
#
#
# Indices 1 2 3 4 5 6 
#
# 1 94.2998 48.5081 19.6225 6.3143 -8.0045 26.4218
# 2 48.5081 107.1528 36.0096 12.7586 0.1510 25.9739
# 3 19.6225 36.0096 97.3366 9.2492 10.6170 7.9316
# 4 6.3143 12.7586 9.2492 37.2477 2.3816 9.9643
# 5 -8.0045 0.1510 10.6170 2.3816 21.9992 8.6800
# 6 26.4218 25.9739 7.9316 9.9643 8.6800 42.9937
#
#
#
# Elastic Compliance Matrix: (Units=1/GPa)
#
#
# Indices 1 2 3 4 5 6 
#
# 1 0.017111 -0.004815 -0.002192 0.001184 0.011016 -0.009701
# 2 -0.004815 0.014264 -0.003965 -0.001907 0.002217 -0.004933
# 3 -0.002192 -0.003965 0.012974 -0.001889 -0.008184 0.003439
# 4 0.001184 -0.001907 -0.001889 0.029377 0.000604 -0.006157
# 5 0.011016 0.002217 -0.008184 0.000604 0.060839 -0.019022
# 6 -0.009701 -0.004933 0.003439 -0.006157 -0.019022 0.036834
#
#
# Mechanical properties :
#
#
# Convention : Reuss Voigt Hill
#
# Bulk Modulus (GPa) = 44.62955 56.34107 50.48531
# Shear Modulus (GPa) = 24.89890 33.42471 29.16181
#
# Velocity S-wave (km/s) = 3.40541 3.94560 3.68541
# Velocity P-wave (km/s) = 6.02070 6.85552 6.45162
#
# Compressibility (1/GPa) = 0.02240668
#
# Stress axis : x y z
#
# Youngs Moduli (GPa) = 58.44113 70.10591 77.07547
#
# Poissons Ratio (x) = 0.33753 0.16895
# Poissons Ratio (y) = 0.28137 0.30560
# Poissons Ratio (z) = 0.12810 0.27797
#
# Static dielectric constant tensor:
#      x y z
#    x 1.793370 -0.028970 -0.040200 
#    y -0.028970 1.856810 0.041290 
#    z -0.040200 0.041290 1.845770 
# 
# From -- ./inp_files/477339.got.cif
#   From: 2010.05.17/outbox.cif.g08.bks.cpg/sg2_239_cif.got.tgz:477339.got - 2010.06.03 11:33:40.
