data_PCOD9108096
_publ_section_title
;
Structure prediction by ZEFSAII (Michael W. Deem and Ramdas Pophale) SiO2 
 PCOD9108096
Probable space group: P -1
;
_chemical_formula_sum "Si O2"
_cell_formula_units_Z 14
_cell_length_a 16.460481
_cell_length_b 9.283726
_cell_length_c 15.738682
_cell_angle_alpha 151.092330
_cell_angle_beta 144.836082
_cell_angle_gamma 38.459142
_cell_volume 649.653586
_symmetry_space_group_name_H-M "P -1"
_symmetry_group_IT_number 2
_symmetry_cell_setting 'triclinic'
loop_
_space_group_symop_operation_xyz
x,y,z
-x,-y,-z
loop_
_atom_site_type_symbol
_atom_site_label
_atom_site_fract_x
_atom_site_fract_y
_atom_site_fract_z
Si Si1 0.080760 0.878045 0.726065
Si Si2 0.066072 0.244988 0.734443
Si Si3 0.822828 0.749666 0.855349
Si Si4 0.362602 0.605304 0.374923
Si Si5 0.386194 0.327008 0.061773
Si Si6 0.776973 0.702611 0.377396
Si Si7 0.614160 0.372662 0.955157
O O1 0.206606 0.563669 0.675441
O O2 0.931941 0.777852 0.539046
O O3 0.090701 0.104735 0.777148
O O4 0.089821 0.060190 0.914088
O O5 0.937160 0.554201 0.786307
O O6 0.226115 0.292259 0.878783
O O7 0.000000 0.000000 0.500000
O O8 0.761878 0.518600 0.745244
O O9 0.687245 0.009320 0.836919
O O10 0.500000 0.500000 0.500000
O O11 0.377858 0.475221 0.225186
O O12 0.329848 0.972279 0.529247
O O13 0.435277 0.519652 0.126234
O O14 0.500000 0.000000 0.000000
O O15 0.736566 0.548369 0.178475
O O16 0.500000 0.500000 0.000000
#
# Coordination Sequence:
#
# PCOD9108096 Si02
#       7
#     2   2   2   2   2   2   2
#     4  10  20  40  66  98 131 173 225 283 340 410
#     4  12  25  41  70 104 142 177 239 291 346 417
#     4  11  23  44  72  96 140 186 231 285 354 413
#     4  12  24  43  71 102 139 185 233 285 350 422
#     4  12  27  44  69 103 144 187 233 292 353 416
#     4  10  21  38  69  97 129 176 230 276 345 409
#     4  11  25  47  69 101 141 187 229 289 356 419
#
# _framework density 21.549945999999998
#
# number of rings (size 3 to 8) (size 9 to 14) (size 15 to 20)
#    0.000    0.857    2.857    4.714    4.000    1.714 
#    0.000    2.857    0.000    0.000    0.000    0.000 
#    0.000    0.000    0.000    0.000    0.000    0.000 
#
# Total GULP energy -78152.416304 kJ/mol
# GULP energy per Si atom -5582.315450 kJ/mol
# Density = 2.150090 g / cm^3
# Si number density = 21.549946 Si / 1000 Ang^3
#
#
#
# Elastic Constant Matrix: (Units=GPa)
#
#
# Indices 1 2 3 4 5 6 
#
# 1 77.6943 49.6078 14.5932 -8.3992 -3.1098 -6.6383
# 2 49.6078 159.2510 33.8406 24.6464 -21.1851 -11.3842
# 3 14.5932 33.8406 97.8857 -0.5213 -7.7566 -14.6006
# 4 -8.3992 24.6464 -0.5213 47.1134 -6.0638 -4.8509
# 5 -3.1098 -21.1851 -7.7566 -6.0638 26.3130 -3.5720
# 6 -6.6383 -11.3842 -14.6006 -4.8509 -3.5720 30.1109
#
#
#
# Elastic Compliance Matrix: (Units=1/GPa)
#
#
# Indices 1 2 3 4 5 6 
#
# 1 0.018010 -0.006649 -0.000114 0.006749 -0.001388 0.002324
# 2 -0.006649 0.010571 -0.002026 -0.005835 0.005962 0.001316
# 3 -0.000114 -0.002026 0.012062 0.002181 0.003200 0.005789
# 4 0.006749 -0.005835 0.002181 0.026476 0.003526 0.005023
# 5 -0.001388 0.005962 0.003200 0.003526 0.045684 0.009487
# 6 0.002324 0.001316 0.005789 0.005023 0.009487 0.038962
#
#
# Mechanical properties :
#
#
# Convention : Reuss Voigt Hill
#
# Bulk Modulus (GPa) = 43.35286 58.99045 51.17166
# Shear Modulus (GPa) = 28.24359 36.49344 32.36851
#
# Velocity S-wave (km/s) = 3.62416 4.11960 3.87980
# Velocity P-wave (km/s) = 6.13790 7.07541 6.62326
#
# Compressibility (1/GPa) = 0.02306653
#
# Stress axis : x y z
#
# Youngs Moduli (GPa) = 55.52355 94.59492 82.90582
#
# Poissons Ratio (x) = 0.62897 0.00943
# Poissons Ratio (y) = 0.36918 0.16795
# Poissons Ratio (z) = 0.00631 0.19163
#
# Static dielectric constant tensor:
#      x y z
#    x 1.848180 -0.046600 0.037840 
#    y -0.046600 1.846620 -0.020200 
#    z 0.037840 -0.020200 1.822410 
# 
# From -- ./inp_files/185558.got.cif
#   From: 2010.05.17/outbox.cif.g08.bks.cpg/sg2_93_cif.got.tgz:185558.got - 2010.06.03 11:33:40.
