data_PCOD9108295
_publ_section_title
;
Structure prediction by ZEFSAII (Michael W. Deem and Ramdas Pophale) SiO2 
 PCOD9108295
Probable space group: P -1
;
_chemical_formula_sum "Si O2"
_cell_formula_units_Z 14
_cell_length_a 5.584478
_cell_length_b 15.852773
_cell_length_c 8.401035
_cell_angle_alpha 75.679031
_cell_angle_beta 117.007804
_cell_angle_gamma 66.086696
_cell_volume 513.784921
_symmetry_space_group_name_H-M "P -1"
_symmetry_group_IT_number 2
_symmetry_cell_setting 'triclinic'
loop_
_space_group_symop_operation_xyz
x,y,z
-x,-y,-z
loop_
_atom_site_type_symbol
_atom_site_label
_atom_site_fract_x
_atom_site_fract_y
_atom_site_fract_z
Si Si1 0.642155 0.527059 0.282950
Si Si2 0.199310 0.288407 0.287314
Si Si3 0.311169 0.301342 0.672261
Si Si4 0.084841 0.083513 0.495235
Si Si5 0.203257 0.130561 0.837173
Si Si6 0.580974 0.586391 0.896710
Si Si7 0.185146 0.118562 0.187928
O O1 0.503271 0.642608 0.261304
O O2 0.382673 0.502070 0.170924
O O3 0.932454 0.418205 0.513470
O O4 0.772065 0.533342 0.144974
O O5 0.360025 0.263032 0.522774
O O6 0.309270 0.350942 0.192611
O O7 0.305974 0.189556 0.249151
O O8 0.809653 0.343651 0.195754
O O9 0.317494 0.209745 0.816444
O O10 0.003476 0.146195 0.607213
O O11 0.954833 0.139897 0.258352
O O12 0.495465 0.008642 0.654718
O O13 0.000000 0.000000 0.500000
O O14 0.039928 0.147326 0.953868
O O15 0.500000 0.000000 0.000000
#
# Coordination Sequence:
#
# PCOD9108295 Si02
#       7
#     2   2   2   2   2   2   2
#     4   9  21  40  67  98 136 181 229 292 344 418
#     4  11  23  41  70  99 141 181 231 285 351 419
#     4  10  20  40  67  97 138 180 233 286 346 413
#     4  10  22  40  66  95 130 174 237 290 342 410
#     4  10  21  41  66  97 138 181 230 285 346 417
#     4  10  23  42  66 102 134 182 229 285 352 418
#     4  10  22  40  65  94 132 182 223 288 351 410
#
# _framework density 27.248754000000002
#
# number of rings (size 3 to 8) (size 9 to 14) (size 15 to 20)
#    0.000    2.000    1.429    0.857    2.000    6.286 
#    0.000    7.143    0.000    0.000    0.000    0.000 
#    0.000    0.000    0.000    0.000    0.000    0.000 
#
# Total GULP energy -78162.937545 kJ/mol
# GULP energy per Si atom -5583.066967 kJ/mol
# Density = 2.718673 g / cm^3
# Si number density = 27.248754 Si / 1000 Ang^3
#
#
#
# Elastic Constant Matrix: (Units=GPa)
#
#
# Indices 1 2 3 4 5 6 
#
# 1 125.4398 47.8336 55.9058 -12.9726 -38.6736 8.8264
# 2 47.8336 162.0157 64.4816 6.9561 -7.1396 16.9601
# 3 55.9058 64.4816 142.6972 18.9837 -35.0202 4.1717
# 4 -12.9726 6.9561 18.9837 60.7440 -1.3976 -5.7014
# 5 -38.6736 -7.1396 -35.0202 -1.3976 54.1286 -20.4406
# 6 8.8264 16.9601 4.1717 -5.7014 -20.4406 61.5096
#
#
#
# Elastic Compliance Matrix: (Units=1/GPa)
#
#
# Indices 1 2 3 4 5 6 
#
# 1 0.012997 -0.002961 -0.002336 0.004251 0.008355 0.002280
# 2 -0.002961 0.008702 -0.003696 -0.000895 -0.004647 -0.003351
# 3 -0.002336 -0.003696 0.011443 -0.003300 0.006020 0.002273
# 4 0.004251 -0.000895 -0.003300 0.018770 0.002142 0.002312
# 5 0.008355 -0.004647 0.006020 0.002142 0.031713 0.010411
# 6 0.002280 -0.003351 0.002273 0.002312 0.010411 0.020374
#
#
# Mechanical properties :
#
#
# Convention : Reuss Voigt Hill
#
# Bulk Modulus (GPa) = 65.97371 85.17721 75.57546
# Shear Modulus (GPa) = 39.35889 52.73854 46.04872
#
# Velocity S-wave (km/s) = 3.80469 4.40415 4.11535
# Velocity P-wave (km/s) = 6.60038 7.56234 7.09768
#
# Compressibility (1/GPa) = 0.01515755
#
# Stress axis : x y z
#
# Youngs Moduli (GPa) = 76.94042 114.92135 87.39055
#
# Poissons Ratio (x) = 0.34024 0.20413
# Poissons Ratio (y) = 0.22779 0.32296
# Poissons Ratio (z) = 0.17972 0.42470
#
# Static dielectric constant tensor:
#      x y z
#    x 2.211880 -0.092370 0.155790 
#    y -0.092370 2.264300 -0.093290 
#    z 0.155790 -0.093290 2.302810 
# 
# From -- ./inp_files/137525.got.cif
#   From: 2010.05.17/outbox.cif.g08.bks.cpg/sg2_69_cif.got.tgz:137525.got - 2010.06.03 11:33:40.
