data_PCOD9108531
_publ_section_title
;
Structure prediction by ZEFSAII (Michael W. Deem and Ramdas Pophale) SiO2 
 PCOD9108531
Probable space group: P -1
;
_chemical_formula_sum "Si O2"
_cell_formula_units_Z 16
_cell_length_a 11.778287
_cell_length_b 10.898603
_cell_length_c 11.490482
_cell_angle_alpha 48.413295
_cell_angle_beta 99.520502
_cell_angle_gamma 60.735838
_cell_volume 635.755658
_symmetry_space_group_name_H-M "P -1"
_symmetry_group_IT_number 2
_symmetry_cell_setting 'triclinic'
loop_
_space_group_symop_operation_xyz
x,y,z
-x,-y,-z
loop_
_atom_site_type_symbol
_atom_site_label
_atom_site_fract_x
_atom_site_fract_y
_atom_site_fract_z
Si Si1 0.869245 0.333997 0.906045
Si Si2 0.659395 0.569944 0.498367
Si Si3 0.763286 0.780285 0.267741
Si Si4 0.153971 0.476688 0.793648
Si Si5 0.253202 0.151617 0.441102
Si Si6 0.242945 0.079969 0.218171
Si Si7 0.439734 0.452560 0.125551
Si Si8 0.416681 0.437144 0.773370
O O1 0.825674 0.322146 0.774942
O O2 0.757692 0.640366 0.693455
O O3 0.776129 0.330844 0.994485
O O4 0.088490 0.134318 0.099206
O O5 0.687637 0.730316 0.374589
O O6 0.646300 0.506335 0.407767
O O7 0.455893 0.784901 0.394829
O O8 0.740211 0.738505 0.159589
O O9 0.000000 0.500000 0.500000
O O10 0.624491 0.100563 0.044869
O O11 0.247059 0.547921 0.753906
O O12 0.917824 0.731929 0.581776
O O13 0.201410 0.310797 0.016155
O O14 0.212886 0.134734 0.314823
O O15 0.462848 0.834081 0.707649
O O16 0.548992 0.419130 0.270976
O O17 0.500000 0.500000 0.000000
#
# Coordination Sequence:
#
# PCOD9108531 Si02
#       8
#     2   2   2   2   2   2   2   2
#     4  11  25  46  73 106 136 191 247 290 344 433
#     4  11  22  43  74 101 139 185 239 291 352 416
#     4  11  21  38  72 106 136 183 240 291 348 417
#     4  10  20  40  69 104 132 185 237 295 341 413
#     4  11  25  45  74 103 141 195 242 289 350 424
#     4  11  21  42  75 105 137 181 249 290 347 412
#     4  12  30  45  67 106 150 193 228 296 367 422
#     4  11  25  44  67 102 155 182 230 299 365 417
#
# _framework density 25.166903000000001
#
# number of rings (size 3 to 8) (size 9 to 14) (size 15 to 20)
#    0.000    1.000    3.750    4.125    7.000    1.000 
#    0.000    0.625    0.000    0.000    0.000    0.000 
#    0.000    0.000    0.000    0.000    0.000    0.000 
#
# Total GULP energy -89542.841643 kJ/mol
# GULP energy per Si atom -5596.427603 kJ/mol
# Density = 2.510962 g / cm^3
# Si number density = 25.166903 Si / 1000 Ang^3
#
#
#
# Elastic Constant Matrix: (Units=GPa)
#
#
# Indices 1 2 3 4 5 6 
#
# 1 148.5698 43.7477 35.7341 -0.7436 17.9823 -30.5407
# 2 43.7477 92.7165 39.7436 22.9887 -1.0710 -21.2803
# 3 35.7341 39.7436 89.6000 16.4029 1.1647 -10.9326
# 4 -0.7436 22.9887 16.4029 32.3040 8.6807 -4.3691
# 5 17.9823 -1.0710 1.1647 8.6807 34.0465 2.6496
# 6 -30.5407 -21.2803 -10.9326 -4.3691 2.6496 47.3527
#
#
#
# Elastic Compliance Matrix: (Units=1/GPa)
#
#
# Indices 1 2 3 4 5 6 
#
# 1 0.011055 -0.004794 -0.003001 0.008194 -0.008405 0.005509
# 2 -0.004794 0.018512 -0.003709 -0.012697 0.006257 0.002849
# 3 -0.003001 -0.003709 0.014930 -0.005795 0.002500 -0.000830
# 4 0.008194 -0.012697 -0.005795 0.048212 -0.017105 0.003646
# 5 -0.008405 0.006257 0.002500 -0.017105 0.038733 -0.005777
# 6 0.005509 0.002849 -0.000830 0.003646 -0.005777 0.026420
#
#
# Mechanical properties :
#
#
# Convention : Reuss Voigt Hill
#
# Bulk Modulus (GPa) = 46.53496 63.25969 54.89732
# Shear Modulus (GPa) = 26.59131 36.85137 31.72134
#
# Velocity S-wave (km/s) = 3.25406 3.83074 3.55412
# Velocity P-wave (km/s) = 5.71395 6.69005 6.22117
#
# Compressibility (1/GPa) = 0.02148922
#
# Stress axis : x y z
#
# Youngs Moduli (GPa) = 90.45613 54.01988 66.98101
#
# Poissons Ratio (x) = 0.25898 0.20101
# Poissons Ratio (y) = 0.43365 0.24840
# Poissons Ratio (z) = 0.27146 0.20033
#
# Static dielectric constant tensor:
#      x y z
#    x 1.973910 0.007760 0.006500 
#    y 0.007760 1.972420 0.036260 
#    z 0.006500 0.036260 2.050770 
# 
# From -- ./inp_files/427596.got.cif
#   From: 2010.05.17/outbox.cif.g08.bks.cpg/sg2_214_cif.got.tgz:427596.got - 2010.06.03 11:33:40.
