data_PCOD9108555
_publ_section_title
;
Structure prediction by ZEFSAII (Michael W. Deem and Ramdas Pophale) SiO2 
 PCOD9108555
Probable space group: P -1
;
_chemical_formula_sum "Si O2"
_cell_formula_units_Z 14
_cell_length_a 8.221404
_cell_length_b 15.547978
_cell_length_c 8.004081
_cell_angle_alpha 41.959853
_cell_angle_beta 66.187636
_cell_angle_gamma 90.569426
_cell_volume 539.418805
_symmetry_space_group_name_H-M "P -1"
_symmetry_group_IT_number 2
_symmetry_cell_setting 'triclinic'
loop_
_space_group_symop_operation_xyz
x,y,z
-x,-y,-z
loop_
_atom_site_type_symbol
_atom_site_label
_atom_site_fract_x
_atom_site_fract_y
_atom_site_fract_z
Si Si1 0.538931 0.453506 0.371029
Si Si2 0.000387 0.299436 0.192750
Si Si3 0.473948 0.798330 0.420657
Si Si4 0.460015 0.675258 0.956034
Si Si5 0.852871 0.069192 0.997804
Si Si6 0.930706 0.325521 0.800453
Si Si7 0.131507 0.086972 0.475741
O O1 0.500000 0.500000 0.500000
O O2 0.475434 0.281561 0.633284
O O3 0.405671 0.505292 0.240413
O O4 0.782976 0.548744 0.077543
O O5 0.770435 0.263681 0.381914
O O6 0.008347 0.166371 0.481016
O O7 0.009875 0.299985 0.983190
O O8 0.517718 0.725002 0.670524
O O9 0.637417 0.973972 0.124517
O O10 0.655302 0.765633 0.862791
O O11 0.309151 0.732787 0.987453
O O12 0.809289 0.011173 0.294244
O O13 0.949264 0.243948 0.745761
O O14 0.000000 0.000000 0.000000
O O15 0.000000 0.500000 0.500000
O O16 0.000000 0.000000 0.500000
#
# Coordination Sequence:
#
# PCOD9108555 Si02
#       7
#     2   2   2   2   2   2   2
#     4  11  22  39  65  98 139 173 213 272 337 389
#     4  10  22  41  69  99 128 179 224 267 325 397
#     4  10  23  42  67  92 133 172 227 272 320 399
#     4   9  22  38  64  94 122 178 219 259 325 399
#     4  11  26  43  66  98 134 176 221 278 338 387
#     4  11  23  42  67  97 135 173 222 272 331 400
#     4  10  20  40  69  90 129 168 218 270 325 391
#
# _framework density 25.953859000000001
#
# number of rings (size 3 to 8) (size 9 to 14) (size 15 to 20)
#    0.000    1.714    1.429    1.714    6.000    1.714 
#   10.286    0.714    0.000    0.000    0.000    0.000 
#    0.000    0.000    0.000    0.000    0.000    0.000 
#
# Total GULP energy -78037.902527 kJ/mol
# GULP energy per Si atom -5574.135895 kJ/mol
# Density = 2.589479 g / cm^3
# Si number density = 25.953859 Si / 1000 Ang^3
#
#
#
# Elastic Constant Matrix: (Units=GPa)
#
#
# Indices 1 2 3 4 5 6 
#
# 1 123.1888 23.9112 10.8863 -15.9377 -15.9182 -5.2758
# 2 23.9112 143.9378 13.6479 -28.3991 -19.7396 -7.2167
# 3 10.8863 13.6479 54.0420 -16.2769 -5.1090 -3.5329
# 4 -15.9377 -28.3991 -16.2769 39.9283 2.6675 -2.2793
# 5 -15.9182 -19.7396 -5.1090 2.6675 29.9875 -2.3348
# 6 -5.2758 -7.2167 -3.5329 -2.2793 -2.3348 18.7126
#
#
#
# Elastic Compliance Matrix: (Units=1/GPa)
#
#
# Indices 1 2 3 4 5 6 
#
# 1 0.009385 0.000025 -0.000103 0.003602 0.004948 0.003693
# 2 0.000025 0.009321 0.000603 0.006783 0.006061 0.005298
# 3 -0.000103 0.000603 0.021953 0.009430 0.003708 0.005960
# 4 0.003602 0.006783 0.009430 0.035369 0.005650 0.010425
# 5 0.004948 0.006061 0.003708 0.005650 0.040889 0.010222
# 6 0.003693 0.005298 0.005960 0.010425 0.010222 0.060195
#
#
# Mechanical properties :
#
#
# Convention : Reuss Voigt Hill
#
# Bulk Modulus (GPa) = 23.97456 46.45103 35.21280
# Shear Modulus (GPa) = 26.32075 35.90723 31.11399
#
# Velocity S-wave (km/s) = 3.18801 3.72358 3.46615
# Velocity P-wave (km/s) = 4.77584 6.03516 5.44205
#
# Compressibility (1/GPa) = 0.04171087
#
# Stress axis : x y z
#
# Youngs Moduli (GPa) = 106.54815 107.28147 45.55242
#
# Poissons Ratio (x) = -0.00269 0.00468
# Poissons Ratio (y) = -0.00268 -0.02748
# Poissons Ratio (z) = 0.01095 -0.06473
#
# Static dielectric constant tensor:
#      x y z
#    x 2.108220 -0.054420 0.024640 
#    y -0.054420 2.332660 0.000780 
#    z 0.024640 0.000780 2.228460 
# 
# From -- ./inp_files/204980.got.cif
#   From: 2010.05.17/outbox.cif.g08.bks.cpg/sg2_103_cif.got.tgz:204980.got - 2010.06.03 11:33:40.
