data_PCOD9108162
_publ_section_title
;
Structure prediction by ZEFSAII (Michael W. Deem and Ramdas Pophale) SiO2 
 PCOD9108162
Probable space group: P -1
;
_chemical_formula_sum "Si O2"
_cell_formula_units_Z 16
_cell_length_a 14.293068
_cell_length_b 8.204690
_cell_length_c 14.676163
_cell_angle_alpha 121.106645
_cell_angle_beta 29.917027
_cell_angle_gamma 113.082878
_cell_volume 728.664835
_symmetry_space_group_name_H-M "P -1"
_symmetry_group_IT_number 2
_symmetry_cell_setting 'triclinic'
loop_
_space_group_symop_operation_xyz
x,y,z
-x,-y,-z
loop_
_atom_site_type_symbol
_atom_site_label
_atom_site_fract_x
_atom_site_fract_y
_atom_site_fract_z
Si Si1 0.331536 0.451148 0.866920
Si Si2 0.949971 0.693197 0.309786
Si Si3 0.203411 0.054668 0.816187
Si Si4 0.416457 0.445464 0.461266
Si Si5 0.638673 0.041772 0.158087
Si Si6 0.017450 0.539275 0.604519
Si Si7 0.080801 0.963603 0.699138
Si Si8 0.420530 0.364019 0.955710
O O1 0.215481 0.274172 0.895101
O O2 0.494084 0.423644 0.647157
O O3 0.454240 0.445252 0.852475
O O4 0.163011 0.625035 0.075131
O O5 0.805070 0.560352 0.349704
O O6 0.925648 0.638444 0.422896
O O7 0.896226 0.905494 0.372234
O O8 0.348475 0.953099 0.740334
O O9 0.208446 0.017557 0.692660
O O10 0.000000 0.000000 0.000000
O O11 0.500000 0.500000 0.500000
O O12 0.517756 0.236270 0.285352
O O13 0.537648 0.865296 0.153748
O O14 0.857739 0.015823 0.932034
O O15 0.000000 0.500000 0.500000
O O16 0.115378 0.733464 0.588997
O O17 0.804236 0.604639 0.834703
O O18 0.500000 0.500000 0.000000
#
# Coordination Sequence:
#
# PCOD9108162 Si02
#       8
#     2   2   2   2   2   2   2   2
#     4  10  22  43  62  92 134 166 211 271 318 392
#     4  11  24  42  66  93 132 173 214 262 336 384
#     4   9  18  35  68  89 118 177 209 254 329 383
#     4  12  26  37  62 102 130 173 216 261 325 388
#     4   9  20  40  59  93 133 158 226 263 309 409
#     4  10  24  42  65  97 126 165 225 276 318 391
#     4  10  20  40  67  88 126 181 206 263 339 373
#     4   9  20  41  70  88 118 179 212 265 344 371
#
# _framework density 21.95797
#
# number of rings (size 3 to 8) (size 9 to 14) (size 15 to 20)
#    0.000    2.000    1.250    3.000    7.000    2.500 
#    2.250    5.000    0.000    0.000    0.000    0.000 
#    0.000    0.000    0.000    0.000    0.000    0.000 
#
# Total GULP energy -89100.123787 kJ/mol
# GULP energy per Si atom -5568.757737 kJ/mol
# Density = 2.190799 g / cm^3
# Si number density = 21.957970 Si / 1000 Ang^3
#
#
#
# Elastic Constant Matrix: (Units=GPa)
#
#
# Indices 1 2 3 4 5 6 
#
# 1 131.1775 62.9009 21.4102 -8.2262 38.8520 14.3716
# 2 62.9009 82.9201 10.7996 -9.1062 7.4071 4.6824
# 3 21.4102 10.7996 60.9622 -9.9457 3.6427 -7.9822
# 4 -8.2262 -9.1062 -9.9457 27.1447 -0.1399 5.6726
# 5 38.8520 7.4071 3.6427 -0.1399 41.2332 -5.5289
# 6 14.3716 4.6824 -7.9822 5.6726 -5.5289 38.4203
#
#
#
# Elastic Compliance Matrix: (Units=1/GPa)
#
#
# Indices 1 2 3 4 5 6 
#
# 1 0.021879 -0.013335 -0.005191 0.002404 -0.019195 -0.010754
# 2 -0.013335 0.021310 0.001300 0.002890 0.009107 0.003545
# 3 -0.005191 0.001300 0.019289 0.004775 0.003723 0.005622
# 4 0.002404 0.002890 0.004775 0.041728 -0.004002 -0.006996
# 5 -0.019195 0.009107 0.003723 -0.004002 0.042171 0.013503
# 6 -0.010754 0.003545 0.005622 -0.006996 0.013503 0.033763
#
#
# Mechanical properties :
#
#
# Convention : Reuss Voigt Hill
#
# Bulk Modulus (GPa) = 35.68146 51.69792 43.68969
# Shear Modulus (GPa) = 22.32813 33.35624 27.84218
#
# Velocity S-wave (km/s) = 3.19228 3.90179 3.56473
# Velocity P-wave (km/s) = 5.46559 6.62523 6.07315
#
# Compressibility (1/GPa) = 0.02802576
#
# Stress axis : x y z
#
# Youngs Moduli (GPa) = 45.70656 46.92731 51.84320
#
# Poissons Ratio (x) = 0.62576 0.26910
# Poissons Ratio (y) = 0.60948 -0.06738
# Poissons Ratio (z) = 0.23725 -0.06099
#
# Static dielectric constant tensor:
#      x y z
#    x 1.716580 -0.212450 -0.326400 
#    y -0.212450 1.834420 -0.053380 
#    z -0.326400 -0.053380 1.754910 
# 
# From -- ./inp_files/530058.got.cif
#   From: 2010.05.17/outbox.cif.g08.bks.cpg/sg2_266_cif.got.tgz:530058.got - 2010.06.03 11:33:40.
