data_PCOD9108973
_publ_section_title
;
Structure prediction by ZEFSAII (Michael W. Deem and Ramdas Pophale) SiO2 
 PCOD9108973
Probable space group: P -1
;
_chemical_formula_sum "Si O2"
_cell_formula_units_Z 14
_cell_length_a 6.622218
_cell_length_b 25.691962
_cell_length_c 7.210219
_cell_angle_alpha 40.160076
_cell_angle_beta 119.503564
_cell_angle_gamma 122.266546
_cell_volume 660.899603
_symmetry_space_group_name_H-M "P -1"
_symmetry_group_IT_number 2
_symmetry_cell_setting 'triclinic'
loop_
_space_group_symop_operation_xyz
x,y,z
-x,-y,-z
loop_
_atom_site_type_symbol
_atom_site_label
_atom_site_fract_x
_atom_site_fract_y
_atom_site_fract_z
Si Si1 0.187220 0.802391 0.317191
Si Si2 0.985519 0.950858 0.818585
Si Si3 0.043302 0.226055 0.337321
Si Si4 0.457495 0.376450 0.267784
Si Si5 0.248586 0.475937 0.206527
Si Si6 0.712598 0.917190 0.144718
Si Si7 0.942207 0.338174 0.657186
O O1 0.446403 0.859309 0.216223
O O2 0.115673 0.715383 0.412844
O O3 0.167220 0.787835 0.567540
O O4 0.003103 0.857550 0.041587
O O5 0.210933 0.001737 0.909882
O O6 0.000000 0.000000 0.500000
O O7 0.762902 0.942507 0.882639
O O8 0.283690 0.287405 0.372185
O O9 0.105720 0.138871 0.567226
O O10 0.981314 0.274545 0.002408
O O11 0.312595 0.420776 0.219457
O O12 0.702046 0.368304 0.499569
O O13 0.546042 0.436426 0.965720
O O14 0.179414 0.415982 0.517143
O O15 0.000000 0.500000 0.000000
#
# Coordination Sequence:
#
# PCOD9108973 Si02
#       7
#     2   2   2   2   2   2   2
#     4  11  22  39  60  89 126 157 200 252 294 355
#     4  10  22  39  61  88 119 159 203 241 298 361
#     4  11  23  38  62  91 122 160 205 244 299 359
#     4  10  20  41  61  87 125 157 200 257 292 353
#     4   9  20  39  64  86 123 159 199 253 298 351
#     4  10  22  40  59  87 125 156 196 254 294 347
#     4  11  22  38  62  91 120 163 203 244 305 353
#
# _framework density 21.183249
#
# number of rings (size 3 to 8) (size 9 to 14) (size 15 to 20)
#    0.000    1.714    2.857    1.286    0.000    3.429 
#    0.000    6.429    0.000    0.000    0.000    0.000 
#    0.000    0.000    0.000    0.000    0.000    0.000 
#
# Total GULP energy -78125.132869 kJ/mol
# GULP energy per Si atom -5580.366633 kJ/mol
# Density = 2.113503 g / cm^3
# Si number density = 21.183249 Si / 1000 Ang^3
#
#
#
# Elastic Constant Matrix: (Units=GPa)
#
#
# Indices 1 2 3 4 5 6 
#
# 1 98.4368 17.4009 35.8758 3.2137 -22.8222 -5.4080
# 2 17.4009 -2.9763 35.6042 -11.6680 -0.5568 -1.7845
# 3 35.8758 35.6042 87.5427 -5.4954 -22.6760 -7.6030
# 4 3.2137 -11.6680 -5.4954 29.4703 1.5500 -3.5057
# 5 -22.8222 -0.5568 -22.6760 1.5500 38.1005 -17.6775
# 6 -5.4080 -1.7845 -7.6030 -3.5057 -17.6775 33.5650
#
#
#
# Elastic Compliance Matrix: (Units=1/GPa)
#
#
# Indices 1 2 3 4 5 6 
#
# 1 0.012969 0.005774 -0.005496 0.000053 0.006771 0.004723
# 2 0.005774 -0.038663 0.019089 -0.011937 0.020705 0.012857
# 3 -0.005496 0.019089 0.007856 0.010008 0.003475 0.004784
# 4 0.000053 -0.011937 0.010008 0.031747 0.009028 0.009712
# 5 0.006771 0.020705 0.003475 0.009028 0.045161 0.027706
# 6 0.004723 0.012857 0.004784 0.009712 0.027706 0.047928
#
#
# Mechanical properties :
#
#
# Convention : Reuss Voigt Hill
#
# Bulk Modulus (GPa) = 47.85670 40.08499 43.97085
# Shear Modulus (GPa) = 66.46520 26.50197 46.48358
#
# Velocity S-wave (km/s) = 5.60753 3.54090 4.68948
# Velocity P-wave (km/s) = 8.03534 5.97339 7.07983
#
# Compressibility (1/GPa) = 0.02089572
#
# Stress axis : x y z
#
# Youngs Moduli (GPa) = 77.10925 -25.86455 127.29923
#
# Poissons Ratio (x) = 0.14934 0.69958
# Poissons Ratio (y) = -0.44524 -2.42999
# Poissons Ratio (z) = 0.42376 0.49372
#
# Static dielectric constant tensor:
#      x y z
#    x 1.767270 0.000100 -0.014670 
#    y 0.000100 1.728600 -0.018280 
#    z -0.014670 -0.018280 1.787980 
# 
# From -- ./inp_files/7685.got.cif
#   From: 2010.05.17/outbox.cif.g08.bks.cpg/sg2_4_cif.got.tgz:7685.got - 2010.06.03 11:33:40.
