data_PCOD9108839
_publ_section_title
;
Structure prediction by ZEFSAII (Michael W. Deem and Ramdas Pophale) SiO2 
 PCOD9108839
Probable space group: P -1
;
_chemical_formula_sum "Si O2"
_cell_formula_units_Z 16
_cell_length_a 5.804604
_cell_length_b 6.513627
_cell_length_c 21.399517
_cell_angle_alpha 83.339755
_cell_angle_beta 61.570819
_cell_angle_gamma 77.562306
_cell_volume 694.739015
_symmetry_space_group_name_H-M "P -1"
_symmetry_group_IT_number 2
_symmetry_cell_setting 'triclinic'
loop_
_space_group_symop_operation_xyz
x,y,z
-x,-y,-z
loop_
_atom_site_type_symbol
_atom_site_label
_atom_site_fract_x
_atom_site_fract_y
_atom_site_fract_z
Si Si1 0.204967 0.485701 0.563762
Si Si2 0.289146 0.877587 0.995069
Si Si3 0.795605 0.058776 0.749145
Si Si4 0.402127 0.782476 0.845784
Si Si5 0.693492 0.233334 0.349867
Si Si6 0.398099 0.452166 0.760211
Si Si7 0.833735 0.819674 0.515809
Si Si8 0.959535 0.188485 0.851684
O O1 0.500000 0.500000 0.500000
O O2 0.196191 0.589714 0.629110
O O3 0.164199 0.257282 0.553575
O O4 0.985964 0.636301 0.546696
O O5 0.199149 0.737943 0.067292
O O6 0.425238 0.775773 0.917925
O O7 0.500000 0.000000 0.000000
O O8 0.000000 0.000000 0.000000
O O9 0.639791 0.258205 0.725202
O O10 0.782589 0.136511 0.819567
O O11 0.645425 0.863129 0.778085
O O12 0.087407 0.963646 0.691862
O O13 0.388479 0.560059 0.825459
O O14 0.153398 0.966730 0.852150
O O15 0.591941 0.364407 0.296711
O O16 0.465621 0.148422 0.420968
O O17 0.134763 0.349514 0.796605
O O18 0.000000 0.000000 0.500000
#
# Coordination Sequence:
#
# PCOD9108839 Si02
#       8
#     2   2   2   2   2   2   2   2
#     4   9  22  47  70 100 138 173 220 279 343 417
#     4  10  20  40  73 100 141 201 248 313 378 435
#     4  11  24  44  67 100 140 185 235 293 359 427
#     4  10  22  43  68  96 146 183 241 304 361 426
#     4  11  25  47  71 100 144 184 224 290 363 410
#     4  11  26  43  66 106 141 183 238 300 349 443
#     4  10  23  49  73 104 135 175 232 279 343 430
#     4  10  22  43  66 100 141 186 246 294 361 433
#
# _framework density 23.030232000000002
#
# number of rings (size 3 to 8) (size 9 to 14) (size 15 to 20)
#    0.000    1.750    2.500    0.000    3.500    2.500 
#   18.000    0.625    0.000    0.000    0.000    0.000 
#    0.000    0.000    0.000    0.000    0.000    0.000 
#
# Total GULP energy -89314.038900 kJ/mol
# GULP energy per Si atom -5582.127431 kJ/mol
# Density = 2.297781 g / cm^3
# Si number density = 23.030232 Si / 1000 Ang^3
#
#
#
# Elastic Constant Matrix: (Units=GPa)
#
#
# Indices 1 2 3 4 5 6 
#
# 1 65.4221 14.1841 17.5307 -0.0672 8.4494 13.3110
# 2 14.1841 71.2474 37.6484 -1.1043 -4.3225 19.8324
# 3 17.5307 37.6484 97.2662 7.3426 13.2414 -8.7283
# 4 -0.0672 -1.1043 7.3426 26.4108 9.8368 8.4140
# 5 8.4494 -4.3225 13.2414 9.8368 34.3568 13.8006
# 6 13.3110 19.8324 -8.7283 8.4140 13.8006 38.6149
#
#
#
# Elastic Compliance Matrix: (Units=1/GPa)
#
#
# Indices 1 2 3 4 5 6 
#
# 1 0.018181 0.001895 -0.005249 0.004497 0.000328 -0.009524
# 2 0.001895 0.036080 -0.021312 0.009722 0.023347 -0.034463
# 3 -0.005249 -0.021312 0.025309 -0.009443 -0.019486 0.027498
# 4 0.004497 0.009722 -0.009443 0.047653 -0.002604 -0.018130
# 5 0.000328 0.023347 -0.019486 -0.002604 0.054437 -0.035396
# 6 -0.009524 -0.034463 0.027498 -0.018130 -0.035396 0.069696
#
#
# Mechanical properties :
#
#
# Convention : Reuss Voigt Hill
#
# Bulk Modulus (GPa) = 33.07015 41.40690 37.23853
# Shear Modulus (GPa) = 16.08919 30.84801 23.46860
#
# Velocity S-wave (km/s) = 2.64599 3.66383 3.19570
# Velocity P-wave (km/s) = 4.87090 5.99305 5.46087
#
# Compressibility (1/GPa) = 0.03023875
#
# Stress axis : x y z
#
# Youngs Moduli (GPa) = 55.00216 27.71608 39.51103
#
# Poissons Ratio (x) = -0.05252 0.20740
# Poissons Ratio (y) = -0.10423 0.84205
# Poissons Ratio (z) = 0.28872 0.59068
#
# Static dielectric constant tensor:
#      x y z
#    x 1.822690 -0.081860 0.068820 
#    y -0.081860 1.796560 0.075200 
#    z 0.068820 0.075200 1.831950 
# 
# From -- ./inp_files/12557.got.cif
#   From: 2010.05.17/outbox.cif.g08.bks.cpg/sg2_7_cif.got.tgz:12557.got - 2010.06.03 11:33:40.
