data_PCOD9108160
_publ_section_title
;
Structure prediction by ZEFSAII (Michael W. Deem and Ramdas Pophale) SiO2 
 PCOD9108160
Probable space group: P -1
;
_chemical_formula_sum "Si O2"
_cell_formula_units_Z 12
_cell_length_a 10.669963
_cell_length_b 6.604368
_cell_length_c 8.436543
_cell_angle_alpha 97.673638
_cell_angle_beta 64.228824
_cell_angle_gamma 102.687744
_cell_volume 521.815197
_symmetry_space_group_name_H-M "P -1"
_symmetry_group_IT_number 2
_symmetry_cell_setting 'triclinic'
loop_
_space_group_symop_operation_xyz
x,y,z
-x,-y,-z
loop_
_atom_site_type_symbol
_atom_site_label
_atom_site_fract_x
_atom_site_fract_y
_atom_site_fract_z
Si Si1 0.713171 0.841659 0.551475
Si Si2 0.853970 0.195356 0.340987
Si Si3 0.551355 0.285872 0.499290
Si Si4 0.617749 0.479040 0.806123
Si Si5 0.885386 0.477467 0.853798
Si Si6 0.097614 0.227056 0.833698
O O1 0.569541 0.871459 0.542999
O O2 0.674780 0.701241 0.710984
O O3 0.797193 0.718610 0.368958
O O4 0.814610 0.066932 0.513329
O O5 0.710038 0.260616 0.364663
O O6 0.984296 0.381982 0.296633
O O7 0.897797 0.017414 0.184168
O O8 0.500000 0.500000 0.500000
O O9 0.554455 0.313804 0.689796
O O10 0.750531 0.415932 0.813780
O O11 0.500000 0.500000 0.000000
O O12 0.948784 0.288804 0.874312
O O13 0.850464 0.628671 0.030336
#
# Coordination Sequence:
#
# PCOD9108160 Si02
#       6
#     2   2   2   2   2   2
#     4   9  21  40  61  94 121 167 209 248 313 366
#     4  10  22  39  69  93 123 164 211 260 302 376
#     4  10  20  40  67  88 124 168 207 247 310 377
#     4  11  24  40  63  91 126 167 207 264 313 365
#     4  11  21  42  64  96 128 159 210 257 317 366
#     4   9  22  39  66  95 121 168 206 253 312 370
#
# _framework density 22.996648
#
# number of rings (size 3 to 8) (size 9 to 14) (size 15 to 20)
#    1.000    1.000    0.000    4.000    0.000    7.333 
#    3.000    0.833    0.000    0.000    0.000    0.000 
#    0.000    0.000    0.000    0.000    0.000    0.000 
#
# Total GULP energy -66937.966444 kJ/mol
# GULP energy per Si atom -5578.163870 kJ/mol
# Density = 2.294431 g / cm^3
# Si number density = 22.996648 Si / 1000 Ang^3
#
#
#
# Elastic Constant Matrix: (Units=GPa)
#
#
# Indices 1 2 3 4 5 6 
#
# 1 101.1744 16.0108 40.1577 18.5924 6.2959 -12.4852
# 2 16.0108 95.7071 34.4379 8.0284 -5.0822 -6.4436
# 3 40.1577 34.4379 118.6284 6.0142 -4.6423 -0.9335
# 4 18.5924 8.0284 6.0142 45.3253 -3.0825 -9.2522
# 5 6.2959 -5.0822 -4.6423 -3.0825 33.6568 -5.0492
# 6 -12.4852 -6.4436 -0.9335 -9.2522 -5.0492 21.9909
#
#
#
# Elastic Compliance Matrix: (Units=1/GPa)
#
#
# Indices 1 2 3 4 5 6 
#
# 1 0.013100 -0.000137 -0.004260 -0.003959 -0.002681 0.004935
# 2 -0.000137 0.012058 -0.003314 -0.000825 0.001822 0.003386
# 3 -0.004260 -0.003314 0.010847 0.000512 0.001483 -0.002374
# 4 -0.003959 -0.000825 0.000512 0.026012 0.004495 0.009508
# 5 -0.002681 0.001822 0.001483 0.004495 0.032364 0.008397
# 6 0.004935 0.003386 -0.002374 0.009508 0.008397 0.055095
#
#
# Mechanical properties :
#
#
# Convention : Reuss Voigt Hill
#
# Bulk Modulus (GPa) = 48.58426 55.19142 51.88784
# Shear Modulus (GPa) = 29.11047 35.18818 32.14932
#
# Velocity S-wave (km/s) = 3.56175 3.91595 3.74304
# Velocity P-wave (km/s) = 6.17149 6.67069 6.42594
#
# Compressibility (1/GPa) = 0.02058280
#
# Stress axis : x y z
#
# Youngs Moduli (GPa) = 76.33659 82.93315 92.18732
#
# Poissons Ratio (x) = 0.01132 0.39274
# Poissons Ratio (y) = 0.01042 0.30555
# Poissons Ratio (z) = 0.32521 0.27488
#
# Static dielectric constant tensor:
#      x y z
#    x 1.846870 0.034470 -0.009030 
#    y 0.034470 2.006350 -0.040260 
#    z -0.009030 -0.040260 1.893600 
# 
# From -- ./inp_files/158363.got.cif
#   From: 2010.05.17/outbox.cif.g08.bks.cpg/sg2_80_cif.got.tgz:158363.got - 2010.06.03 11:33:40.
