data_PCOD9108229
_publ_section_title
;
Structure prediction by ZEFSAII (Michael W. Deem and Ramdas Pophale) SiO2 
 PCOD9108229
Probable space group: P -1
;
_chemical_formula_sum "Si O2"
_cell_formula_units_Z 10
_cell_length_a 9.355973
_cell_length_b 12.444317
_cell_length_c 8.014538
_cell_angle_alpha 124.833203
_cell_angle_beta 50.253508
_cell_angle_gamma 145.866844
_cell_volume 400.672870
_symmetry_space_group_name_H-M "P -1"
_symmetry_group_IT_number 2
_symmetry_cell_setting 'triclinic'
loop_
_space_group_symop_operation_xyz
x,y,z
-x,-y,-z
loop_
_atom_site_type_symbol
_atom_site_label
_atom_site_fract_x
_atom_site_fract_y
_atom_site_fract_z
Si Si1 0.850995 0.732859 0.085464
Si Si2 0.021043 0.699381 0.595689
Si Si3 0.656635 0.951301 0.785232
Si Si4 0.588142 0.637099 0.708933
Si Si5 0.465480 0.758280 0.400052
O O1 0.618600 0.511792 0.122009
O O2 0.698318 0.783690 0.178005
O O3 0.025830 0.755534 0.831110
O O4 0.031462 0.864596 0.227265
O O5 0.893942 0.751160 0.630601
O O6 0.783831 0.466237 0.555886
O O7 0.311422 0.782169 0.417584
O O8 0.565310 0.775449 0.799562
O O9 0.588287 0.885975 0.587230
O O10 0.500000 0.000000 0.000000
O O11 0.500000 0.500000 0.500000
#
# Coordination Sequence:
#
# PCOD9108229 Si02
#       5
#     2   2   2   2   2
#     4  11  23  43  72  93 134 174 219 269 332 386
#     4  10  21  42  69  95 132 173 219 269 327 391
#     4  12  24  43  66 101 134 171 221 275 323 391
#     4  11  23  42  70  96 131 178 218 267 332 391
#     4  10  20  40  67  93 132 174 211 271 327 384
#
# _framework density 24.958016000000001
#
# number of rings (size 3 to 8) (size 9 to 14) (size 15 to 20)
#    0.000    1.200    6.000    3.000    0.000    1.600 
#    0.000    3.000    0.000    0.000    0.000    0.000 
#    0.000    0.000    0.000    0.000    0.000    0.000 
#
# Total GULP energy -56015.441101 kJ/mol
# GULP energy per Si atom -5601.544110 kJ/mol
# Density = 2.490121 g / cm^3
# Si number density = 24.958016 Si / 1000 Ang^3
#
#
#
# Elastic Constant Matrix: (Units=GPa)
#
#
# Indices 1 2 3 4 5 6 
#
# 1 146.5463 34.8518 42.0532 11.3421 -31.5168 15.9847
# 2 34.8518 103.2885 34.8803 25.9970 -14.8337 3.1288
# 3 42.0532 34.8803 101.1661 25.6522 -12.2650 5.2413
# 4 11.3421 25.9970 25.6522 36.9267 9.4308 0.2847
# 5 -31.5168 -14.8337 -12.2650 9.4308 60.6938 14.4418
# 6 15.9847 3.1288 5.2413 0.2847 14.4418 47.5721
#
#
#
# Elastic Compliance Matrix: (Units=1/GPa)
#
#
# Indices 1 2 3 4 5 6 
#
# 1 0.009590 -0.000993 -0.002153 -0.002184 0.005749 -0.004652
# 2 -0.000993 0.013495 -0.001217 -0.009464 0.004412 -0.001703
# 3 -0.002153 -0.001217 0.013946 -0.008972 0.003189 -0.001648
# 4 -0.002184 -0.009464 -0.008972 0.044068 -0.013584 0.006205
# 5 0.005749 0.004412 0.003189 -0.013584 0.025747 -0.010308
# 6 -0.004652 -0.001703 -0.001648 0.006205 -0.010308 0.025970
#
#
# Mechanical properties :
#
#
# Convention : Reuss Voigt Hill
#
# Bulk Modulus (GPa) = 35.32840 63.84128 49.58484
# Shear Modulus (GPa) = 33.11758 44.98624 39.05191
#
# Velocity S-wave (km/s) = 3.64666 4.25016 3.95993
# Velocity P-wave (km/s) = 5.64949 7.05125 6.38893
#
# Compressibility (1/GPa) = 0.02830584
#
# Stress axis : x y z
#
# Youngs Moduli (GPa) = 104.27113 74.10180 71.70456
#
# Poissons Ratio (x) = 0.07358 0.15435
# Poissons Ratio (y) = 0.10354 0.08728
# Poissons Ratio (z) = 0.22445 0.09020
#
# Static dielectric constant tensor:
#      x y z
#    x 2.012890 -0.035210 -0.012390 
#    y -0.035210 2.006440 -0.010330 
#    z -0.012390 -0.010330 1.934890 
# 
# From -- ./inp_files/144009.got.cif
#   From: 2010.05.17/outbox.cif.g08.bks.cpg/sg2_73_cif.got.tgz:144009.got - 2010.06.03 11:33:40.
