data_PCOD9108391
_publ_section_title
;
Structure prediction by ZEFSAII (Michael W. Deem and Ramdas Pophale) SiO2 
 PCOD9108391
Probable space group: P -1
;
_chemical_formula_sum "Si O2"
_cell_formula_units_Z 13
_cell_length_a 15.110915
_cell_length_b 12.086546
_cell_length_c 12.701687
_cell_angle_alpha 59.912092
_cell_angle_beta 37.168265
_cell_angle_gamma 28.934048
_cell_volume 502.882040
_symmetry_space_group_name_H-M "P -1"
_symmetry_group_IT_number 2
_symmetry_cell_setting 'triclinic'
loop_
_space_group_symop_operation_xyz
x,y,z
-x,-y,-z
loop_
_atom_site_type_symbol
_atom_site_label
_atom_site_fract_x
_atom_site_fract_y
_atom_site_fract_z
Si Si1 0.135766 0.630924 0.664066
Si Si2 0.432510 0.265457 0.358723
Si Si3 0.535829 0.484257 0.850419
Si Si4 0.880005 0.423558 0.898272
Si Si5 0.638123 0.793316 0.775881
Si Si6 0.627433 0.725204 0.215562
Si Si7 0.000000 0.000000 0.500000
O O1 0.177863 0.504078 0.583876
O O2 0.403783 0.360640 0.626111
O O3 0.163773 0.753192 0.538371
O O4 0.749763 0.928008 0.940546
O O5 0.606242 0.266937 0.170204
O O6 0.329065 0.299887 0.323664
O O7 0.731909 0.932100 0.274165
O O8 0.500000 0.500000 0.000000
O O9 0.353515 0.509251 0.953569
O O10 0.935227 0.145707 0.594577
O O11 0.878765 0.530834 0.758516
O O12 0.689830 0.623187 0.088311
O O13 0.645509 0.940654 0.685591
O O14 0.000000 0.500000 0.000000
#
# Coordination Sequence:
#
# PCOD9108391 Si02
#       7
#     2   2   2   2   2   2   1
#     4  10  21  42  66  94 134 171 214 273 324 378
#     4  11  23  41  65 100 128 172 216 274 325 381
#     4  11  22  41  65  93 134 167 214 269 323 384
#     4  12  22  42  71  95 127 180 219 261 333 386
#     4  11  22  46  67  92 134 175 218 268 323 385
#     4  10  22  43  69  91 133 179 213 269 324 381
#     4  10  20  40  68  92 128 176 208 266 324 386
#
# _framework density 25.850992999999999
#
# number of rings (size 3 to 8) (size 9 to 14) (size 15 to 20)
#    0.000    1.231    6.154    0.923    0.000    0.615 
#    5.538    2.308    0.000    0.000    0.000    0.000 
#    0.000    0.000    0.000    0.000    0.000    0.000 
#
# Total GULP energy -72601.156093 kJ/mol
# GULP energy per Si atom -5584.704315 kJ/mol
# Density = 2.579216 g / cm^3
# Si number density = 25.850993 Si / 1000 Ang^3
#
#
#
# Elastic Constant Matrix: (Units=GPa)
#
#
# Indices 1 2 3 4 5 6 
#
# 1 187.1541 84.3619 50.5283 -7.6734 52.8911 3.9190
# 2 84.3619 299.0266 62.8649 -15.2145 35.8231 -2.9593
# 3 50.5283 62.8649 128.6677 -4.8876 50.0650 2.9045
# 4 -7.6734 -15.2145 -4.8876 54.9845 1.2833 6.1269
# 5 52.8911 35.8231 50.0650 1.2833 52.4204 -1.2233
# 6 3.9190 -2.9593 2.9045 6.1269 -1.2233 39.9492
#
#
#
# Elastic Compliance Matrix: (Units=1/GPa)
#
#
# Indices 1 2 3 4 5 6 
#
# 1 0.008122 -0.001440 0.000663 0.001131 -0.007904 -0.001367
# 2 -0.001440 0.004091 -0.001414 0.000757 -0.000001 0.000431
# 3 0.000663 -0.001414 0.013056 0.001337 -0.012245 -0.001699
# 4 0.001131 0.000757 0.001337 0.019110 -0.003478 -0.003189
# 5 -0.007904 -0.000001 -0.012245 -0.003478 0.038910 0.003390
# 6 -0.001367 0.000431 -0.001699 -0.003189 0.003390 0.025914
#
#
# Mechanical properties :
#
#
# Convention : Reuss Voigt Hill
#
# Bulk Modulus (GPa) = 47.87600 112.26207 80.06903
# Shear Modulus (GPa) = 41.47797 57.27704 49.37751
#
# Velocity S-wave (km/s) = 4.00997 4.71219 4.37519
# Velocity P-wave (km/s) = 6.32455 8.55144 7.52088
#
# Compressibility (1/GPa) = 0.02088729
#
# Stress axis : x y z
#
# Youngs Moduli (GPa) = 123.12488 244.46775 76.59436
#
# Poissons Ratio (x) = 0.35201 -0.05080
# Poissons Ratio (y) = 0.17729 0.10829
# Poissons Ratio (z) = -0.08166 0.34562
#
# Static dielectric constant tensor:
#      x y z
#    x 1.860710 0.044430 0.208760 
#    y 0.044430 1.944320 -0.143140 
#    z 0.208760 -0.143140 1.520950 
# 
# From -- ./inp_files/449961.got.cif
#   From: 2010.05.17/outbox.cif.g08.bks.cpg/sg2_225_cif.got.tgz:449961.got - 2010.06.03 11:33:40.
