data_PCOD9108257
_publ_section_title
;
Structure prediction by ZEFSAII (Michael W. Deem and Ramdas Pophale) SiO2 
 PCOD9108257
Probable space group: P -1
;
_chemical_formula_sum "Si O2"
_cell_formula_units_Z 14
_cell_length_a 19.961298
_cell_length_b 10.287593
_cell_length_c 9.050229
_cell_angle_alpha 56.947690
_cell_angle_beta 113.887476
_cell_angle_gamma 153.591694
_cell_volume 675.205627
_symmetry_space_group_name_H-M "P -1"
_symmetry_group_IT_number 2
_symmetry_cell_setting 'triclinic'
loop_
_space_group_symop_operation_xyz
x,y,z
-x,-y,-z
loop_
_atom_site_type_symbol
_atom_site_label
_atom_site_fract_x
_atom_site_fract_y
_atom_site_fract_z
Si Si1 0.383378 0.927248 0.164741
Si Si2 0.656426 0.835331 0.847842
Si Si3 0.830150 0.683412 0.471110
Si Si4 0.616548 0.178128 0.359848
Si Si5 0.622677 0.841346 0.478509
Si Si6 0.807316 0.262247 0.111774
Si Si7 0.134569 0.942409 0.893012
O O1 0.279805 0.587139 0.330210
O O2 0.323920 0.951117 0.209892
O O3 0.560332 0.203938 0.176233
O O4 0.339211 0.918219 0.973779
O O5 0.649629 0.820403 0.676385
O O6 0.500000 0.500000 0.000000
O O7 0.778798 0.941498 0.952213
O O8 0.783339 0.501730 0.389832
O O9 0.800606 0.800190 0.309607
O O10 0.000000 0.000000 0.500000
O O11 0.500000 0.000000 0.500000
O O12 0.578949 0.938719 0.412986
O O13 0.500000 0.500000 0.500000
O O14 0.770852 0.141902 0.319016
O O15 0.839582 0.164317 0.113095
O O16 0.958089 0.642697 0.968853
#
# Coordination Sequence:
#
# PCOD9108257 Si02
#       7
#     2   2   2   2   2   2   2
#     4  10  20  40  67  95 127 175 220 270 325 405
#     4  11  22  41  67  94 130 176 225 267 332 403
#     4  11  20  37  70  94 123 170 233 264 318 398
#     4  10  22  39  68  94 129 174 223 269 332 396
#     4  12  25  41  65 102 136 168 222 291 328 386
#     4  10  23  40  64  99 137 168 228 274 330 399
#     4  10  22  40  66  94 131 187 216 263 341 408
#
# _framework density 20.734425000000002
#
# number of rings (size 3 to 8) (size 9 to 14) (size 15 to 20)
#    0.000    1.429    4.286    2.571    6.000    1.143 
#    0.000    0.714    0.000    0.000    0.000    0.000 
#    0.000    0.000    0.000    0.000    0.000    0.000 
#
# Total GULP energy -77950.246540 kJ/mol
# GULP energy per Si atom -5567.874753 kJ/mol
# Density = 2.068723 g / cm^3
# Si number density = 20.734425 Si / 1000 Ang^3
#
#
#
# Elastic Constant Matrix: (Units=GPa)
#
#
# Indices 1 2 3 4 5 6 
#
# 1 57.3018 35.8701 30.5393 10.3166 12.6509 -6.4639
# 2 35.8701 88.4998 31.3444 14.8172 10.3277 -3.0168
# 3 30.5393 31.3444 142.5529 14.2914 3.1581 -0.6843
# 4 10.3166 14.8172 14.2914 42.6003 1.7285 8.7301
# 5 12.6509 10.3277 3.1581 1.7285 41.4507 -0.9737
# 6 -6.4639 -3.0168 -0.6843 8.7301 -0.9737 23.5002
#
#
#
# Elastic Compliance Matrix: (Units=1/GPa)
#
#
# Indices 1 2 3 4 5 6 
#
# 1 0.027272 -0.008254 -0.003477 -0.003885 -0.005663 0.007549
# 2 -0.008254 0.015825 -0.001363 -0.003175 -0.001167 0.000853
# 3 -0.003477 -0.001363 0.008179 -0.001391 0.000827 -0.000342
# 4 -0.003885 -0.003175 -0.001391 0.028431 0.000614 -0.012053
# 5 -0.005663 -0.001167 0.000827 0.000614 0.026036 -0.000833
# 6 0.007549 0.000853 -0.000342 -0.012053 -0.000833 0.049172
#
#
# Mechanical properties :
#
#
# Convention : Reuss Voigt Hill
#
# Bulk Modulus (GPa) = 39.85820 53.76245 46.81032
# Shear Modulus (GPa) = 26.39014 34.21696 30.30355
#
# Velocity S-wave (km/s) = 3.57146 4.06673 3.82712
# Velocity P-wave (km/s) = 6.02263 6.93083 6.49263
#
# Compressibility (1/GPa) = 0.02508894
#
# Stress axis : x y z
#
# Youngs Moduli (GPa) = 36.66712 63.19300 122.26547
#
# Poissons Ratio (x) = 0.52159 0.42507
# Poissons Ratio (y) = 0.30265 0.16664
# Poissons Ratio (z) = 0.12748 0.08613
#
# Static dielectric constant tensor:
#      x y z
#    x 4.438630 1.359890 -0.964440 
#    y 1.359890 2.593680 -0.507340 
#    z -0.964440 -0.507340 2.152840 
# 
# From -- ./inp_files/328601.got.cif
#   From: 2010.05.17/outbox.cif.g08.bks.cpg/sg2_165_cif.got.tgz:328601.got - 2010.06.03 11:33:40.
