data_PCOD9108323
_publ_section_title
;
Structure prediction by ZEFSAII (Michael W. Deem and Ramdas Pophale) SiO2 
 PCOD9108323
Probable space group: P -1
;
_chemical_formula_sum "Si O2"
_cell_formula_units_Z 14
_cell_length_a 5.596832
_cell_length_b 7.872199
_cell_length_c 16.892810
_cell_angle_alpha 54.889467
_cell_angle_beta 110.985236
_cell_angle_gamma 116.352955
_cell_volume 540.191082
_symmetry_space_group_name_H-M "P -1"
_symmetry_group_IT_number 2
_symmetry_cell_setting 'triclinic'
loop_
_space_group_symop_operation_xyz
x,y,z
-x,-y,-z
loop_
_atom_site_type_symbol
_atom_site_label
_atom_site_fract_x
_atom_site_fract_y
_atom_site_fract_z
Si Si1 0.711825 0.817287 0.517391
Si Si2 0.871435 0.862249 0.266720
Si Si3 0.379045 0.079884 0.349903
Si Si4 0.505418 0.466563 0.137980
Si Si5 0.220684 0.026584 0.935125
Si Si6 0.749785 0.391031 0.700716
Si Si7 0.008577 0.569101 0.101643
O O1 0.565753 0.815354 0.585301
O O2 0.764556 0.587271 0.589225
O O3 0.521630 0.891824 0.414060
O O4 0.000000 0.000000 0.500000
O O5 0.567630 0.732408 0.289352
O O6 0.067433 0.738630 0.283430
O O7 0.853828 0.024804 0.151135
O O8 0.057429 0.984688 0.327559
O O9 0.485603 0.268354 0.248020
O O10 0.212358 0.494012 0.090143
O O11 0.693899 0.432798 0.098822
O O12 0.690818 0.706598 0.125614
O O13 0.026737 0.821666 0.016099
O O14 0.500000 0.000000 0.000000
O O15 0.869414 0.450004 0.789479
#
# Coordination Sequence:
#
# PCOD9108323 Si02
#       7
#     2   2   2   2   2   2   2
#     4  11  26  47  75  95 129 187 228 272 342 421
#     4  12  27  42  69 104 143 171 224 287 335 387
#     4  11  27  45  66 103 138 173 225 286 342 397
#     4  11  21  39  66  94 131 177 220 272 327 395
#     4  10  20  40  68 100 130 183 228 266 325 408
#     4  12  24  45  70  99 136 181 225 277 334 401
#     4  11  20  37  69  97 126 177 236 261 311 410
#
# _framework density 25.916754999999998
#
# number of rings (size 3 to 8) (size 9 to 14) (size 15 to 20)
#    0.000    0.857    5.714    1.286    6.000    1.143 
#    0.000    3.571    0.000    0.000    0.000    0.000 
#    0.000    0.000    0.000    0.000    0.000    0.000 
#
# Total GULP energy -78183.609602 kJ/mol
# GULP energy per Si atom -5584.543543 kJ/mol
# Density = 2.585777 g / cm^3
# Si number density = 25.916755 Si / 1000 Ang^3
#
#
#
# Elastic Constant Matrix: (Units=GPa)
#
#
# Indices 1 2 3 4 5 6 
#
# 1 198.9809 42.9160 70.5168 -15.7026 1.7855 24.0020
# 2 42.9160 60.7151 45.8527 -17.5163 10.6590 7.1817
# 3 70.5168 45.8527 172.0398 -35.7430 29.7664 9.3406
# 4 -15.7026 -17.5163 -35.7430 44.3526 11.6963 -6.6583
# 5 1.7855 10.6590 29.7664 11.6963 45.4707 4.1720
# 6 24.0020 7.1817 9.3406 -6.6583 4.1720 40.9083
#
#
#
# Elastic Compliance Matrix: (Units=1/GPa)
#
#
# Indices 1 2 3 4 5 6 
#
# 1 0.007053 -0.003820 -0.002875 -0.002812 0.003557 -0.003631
# 2 -0.003820 0.024188 -0.002104 0.008235 -0.006303 0.000459
# 3 -0.002875 -0.002104 0.011130 0.009919 -0.009423 0.002091
# 4 -0.002812 0.008235 0.009919 0.038687 -0.018829 0.006156
# 5 0.003557 -0.006303 -0.009423 -0.018829 0.034842 -0.005447
# 6 -0.003631 0.000459 0.002091 0.006156 -0.005447 0.027575
#
#
# Mechanical properties :
#
#
# Convention : Reuss Voigt Hill
#
# Bulk Modulus (GPa) = 40.36962 83.36743 61.86853
# Shear Modulus (GPa) = 29.52828 44.30966 36.91897
#
# Velocity S-wave (km/s) = 3.37909 4.13933 3.77838
# Velocity P-wave (km/s) = 5.55291 7.42176 6.55429
#
# Compressibility (1/GPa) = 0.02477110
#
# Stress axis : x y z
#
# Youngs Moduli (GPa) = 141.79098 41.34311 89.85113
#
# Poissons Ratio (x) = 0.15793 0.25834
# Poissons Ratio (y) = 0.54163 0.18907
# Poissons Ratio (z) = 0.40768 0.08700
#
# Static dielectric constant tensor:
#      x y z
#    x 2.125210 -0.121300 -0.042450 
#    y -0.121300 2.148290 0.037800 
#    z -0.042450 0.037800 2.052880 
# 
# From -- ./inp_files/547809.got.cif
#   From: 2010.05.17/outbox.cif.g08.bks.cpg/sg2_274_cif.got.tgz:547809.got - 2010.06.03 11:33:40.
