data_PCOD9108968
_publ_section_title
;
Structure prediction by ZEFSAII (Michael W. Deem and Ramdas Pophale) SiO2 
 PCOD9108968
Probable space group: P -1
;
_chemical_formula_sum "Si O2"
_cell_formula_units_Z 10
_cell_length_a 9.251117
_cell_length_b 7.163796
_cell_length_c 13.194215
_cell_angle_alpha 48.146543
_cell_angle_beta 39.988447
_cell_angle_gamma 56.566389
_cell_volume 417.111181
_symmetry_space_group_name_H-M "P -1"
_symmetry_group_IT_number 2
_symmetry_cell_setting 'triclinic'
loop_
_space_group_symop_operation_xyz
x,y,z
-x,-y,-z
loop_
_atom_site_type_symbol
_atom_site_label
_atom_site_fract_x
_atom_site_fract_y
_atom_site_fract_z
Si Si1 0.296970 0.516538 0.681995
Si Si2 0.225008 0.015094 0.434815
Si Si3 0.470055 0.765518 0.675117
Si Si4 0.503272 0.860972 0.941298
Si Si5 0.825746 0.336055 0.954600
O O1 0.500000 0.500000 0.500000
O O2 0.403578 0.529433 0.731327
O O3 0.089494 0.357853 0.823574
O O4 0.199374 0.802386 0.609025
O O5 0.305175 0.251956 0.369084
O O6 0.411466 0.979071 0.257936
O O7 0.000000 0.000000 0.500000
O O8 0.268562 0.814700 0.845531
O O9 0.500000 0.000000 0.500000
O O10 0.681432 0.611141 0.938564
O O11 0.261169 0.780355 0.060821
O O12 0.500000 0.000000 0.000000
#
# Coordination Sequence:
#
# PCOD9108968 Si02
#       5
#     2   2   2   2   2
#     4  11  23  39  61  95 127 165 210 257 319 377
#     4  10  20  41  61  86 127 164 211 258 308 373
#     4   9  21  40  61  88 125 168 202 258 324 367
#     4  10  22  39  65  96 121 163 216 261 315 370
#     4  10  21  42  64  90 131 165 208 265 310 375
#
# _framework density 23.974422000000001
#
# number of rings (size 3 to 8) (size 9 to 14) (size 15 to 20)
#    0.000    2.000    2.000    0.600    2.800    1.600 
#    3.600    7.000    0.000    0.000    0.000    0.000 
#    0.000    0.000    0.000    0.000    0.000    0.000 
#
# Total GULP energy -55726.700806 kJ/mol
# GULP energy per Si atom -5572.670081 kJ/mol
# Density = 2.391985 g / cm^3
# Si number density = 23.974422 Si / 1000 Ang^3
#
#
#
# Elastic Constant Matrix: (Units=GPa)
#
#
# Indices 1 2 3 4 5 6 
#
# 1 163.5323 68.9897 73.9995 -6.8412 -52.8403 70.2799
# 2 68.9897 85.1676 21.0039 -6.1993 -21.7780 43.4503
# 3 73.9995 21.0039 160.1050 -9.0981 -34.7128 27.2961
# 4 -6.8412 -6.1993 -9.0981 18.1228 -0.4788 5.3323
# 5 -52.8403 -21.7780 -34.7128 -0.4788 79.0758 -23.0479
# 6 70.2799 43.4503 27.2961 5.3323 -23.0479 60.1436
#
#
#
# Elastic Compliance Matrix: (Units=1/GPa)
#
#
# Indices 1 2 3 4 5 6 
#
# 1 0.017927 -0.003987 -0.003633 0.008202 0.004884 -0.015274
# 2 -0.003987 0.021957 0.001870 0.010724 0.000539 -0.012797
# 3 -0.003633 0.001870 0.008337 0.003673 0.001593 -0.000604
# 4 0.008202 0.010724 0.003673 0.070927 0.003496 -0.023948
# 5 0.004884 0.000539 0.001593 0.003496 0.016549 -0.000787
# 6 -0.015274 -0.012797 -0.000604 -0.023948 -0.000787 0.045816
#
#
# Mechanical properties :
#
#
# Convention : Reuss Voigt Hill
#
# Bulk Modulus (GPa) = 27.23296 81.86566 54.54931
# Shear Modulus (GPa) = 24.36024 47.78922 36.07473
#
# Velocity S-wave (km/s) = 3.19108 4.46953 3.88328
# Velocity P-wave (km/s) = 4.99611 7.80108 6.55049
#
# Compressibility (1/GPa) = 0.03672021
#
# Stress axis : x y z
#
# Youngs Moduli (GPa) = 55.78332 45.54360 119.94607
#
# Poissons Ratio (x) = 0.18158 0.43582
# Poissons Ratio (y) = 0.22240 -0.22433
# Poissons Ratio (z) = 0.20269 -0.08518
#
# Static dielectric constant tensor:
#      x y z
#    x 2.104330 -0.068080 0.006950 
#    y -0.068080 2.086370 -0.077250 
#    z 0.006950 -0.077250 1.928530 
# 
# From -- ./inp_files/487478.got.cif
#   From: 2010.05.17/outbox.cif.g08.bks.cpg/sg2_244_cif.got.tgz:487478.got - 2010.06.03 11:33:40.
