data_PCOD9108289
_publ_section_title
;
Structure prediction by ZEFSAII (Michael W. Deem and Ramdas Pophale) SiO2 
 PCOD9108289
Probable space group: P -1
;
_chemical_formula_sum "Si O2"
_cell_formula_units_Z 14
_cell_length_a 5.399610
_cell_length_b 20.241029
_cell_length_c 16.157219
_cell_angle_alpha 159.620373
_cell_angle_beta 89.552338
_cell_angle_gamma 101.132169
_cell_volume 520.141901
_symmetry_space_group_name_H-M "P -1"
_symmetry_group_IT_number 2
_symmetry_cell_setting 'triclinic'
loop_
_space_group_symop_operation_xyz
x,y,z
-x,-y,-z
loop_
_atom_site_type_symbol
_atom_site_label
_atom_site_fract_x
_atom_site_fract_y
_atom_site_fract_z
Si Si1 0.405699 0.360739 0.423217
Si Si2 0.074606 0.720684 0.409006
Si Si3 0.175265 0.761974 0.773810
Si Si4 0.176080 0.417714 0.171018
Si Si5 0.643316 0.075663 0.861309
Si Si6 0.539646 0.715495 0.110797
Si Si7 0.530981 0.881740 0.474208
O O1 0.500000 0.500000 0.500000
O O2 0.537559 0.206188 0.231090
O O3 0.569191 0.508185 0.675699
O O4 0.059537 0.236392 0.282466
O O5 0.199009 0.616812 0.351855
O O6 0.194539 0.723988 0.320252
O O7 0.296928 0.983294 0.743852
O O8 0.731857 0.539494 0.198140
O O9 0.000000 0.500000 0.500000
O O10 0.257595 0.913309 0.033125
O O11 0.203972 0.262231 0.920338
O O12 0.879847 0.317056 0.106896
O O13 0.686036 0.929735 0.619817
O O14 0.618457 0.776406 0.278248
O O15 0.444025 0.888675 0.286370
#
# Coordination Sequence:
#
# PCOD9108289 Si02
#       7
#     2   2   2   2   2   2   2
#     4  10  22  36  70  96 132 181 235 277 350 405
#     4  10  23  44  62  98 137 172 221 283 340 415
#     4  10  20  40  67  97 131 187 228 287 341 415
#     4  12  24  40  69  97 130 178 227 282 342 413
#     4  10  22  42  67  92 135 173 226 277 343 409
#     4  11  23  42  70  96 131 179 221 280 346 412
#     4   9  23  43  67  95 135 174 223 277 346 416
#
# _framework density 26.915732999999999
#
# number of rings (size 3 to 8) (size 9 to 14) (size 15 to 20)
#    0.857    0.857    4.286    0.429    6.000    2.286 
#    2.571    1.429    0.000    0.000    0.000    0.000 
#    0.000    0.000    0.000    0.000    0.000    0.000 
#
# Total GULP energy -78173.151222 kJ/mol
# GULP energy per Si atom -5583.796516 kJ/mol
# Density = 2.685447 g / cm^3
# Si number density = 26.915733 Si / 1000 Ang^3
#
#
#
# Elastic Constant Matrix: (Units=GPa)
#
#
# Indices 1 2 3 4 5 6 
#
# 1 121.3737 20.1519 49.1598 1.3761 9.6699 10.5696
# 2 20.1519 130.8469 52.5403 -17.9297 -2.1672 6.8432
# 3 49.1598 52.5403 108.2051 -10.3961 14.4029 -8.4717
# 4 1.3761 -17.9297 -10.3961 61.5741 -2.1533 9.8313
# 5 9.6699 -2.1672 14.4029 -2.1533 41.4349 5.5501
# 6 10.5696 6.8432 -8.4717 9.8313 5.5501 35.5110
#
#
#
# Elastic Compliance Matrix: (Units=1/GPa)
#
#
# Indices 1 2 3 4 5 6 
#
# 1 0.010825 0.000861 -0.005744 -0.000202 0.000137 -0.004724
# 2 0.000861 0.010717 -0.006154 0.003000 0.003344 -0.005143
# 3 -0.005744 -0.006154 0.016162 -0.000368 -0.005655 0.007737
# 4 -0.000202 0.003000 -0.000368 0.018076 0.002066 -0.005933
# 5 0.000137 0.003344 -0.005655 0.002066 0.027270 -0.006868
# 6 -0.004724 -0.005143 0.007737 -0.005933 -0.006868 0.035119
#
#
# Mechanical properties :
#
#
# Convention : Reuss Voigt Hill
#
# Bulk Modulus (GPa) = 63.97799 67.12553 65.55176
# Shear Modulus (GPa) = 34.37532 43.60892 38.99212
#
# Velocity S-wave (km/s) = 3.57759 4.02954 3.81027
# Velocity P-wave (km/s) = 6.39429 6.82956 6.61550
#
# Compressibility (1/GPa) = 0.01563037
#
# Stress axis : x y z
#
# Youngs Moduli (GPa) = 92.37801 93.31400 61.87207
#
# Poissons Ratio (x) = -0.08032 0.35536
# Poissons Ratio (y) = -0.07951 0.38076
# Poissons Ratio (z) = 0.53057 0.57425
#
# Static dielectric constant tensor:
#      x y z
#    x 2.088050 -0.032860 0.018610 
#    y -0.032860 2.163370 0.106430 
#    z 0.018610 0.106430 2.196030 
# 
# From -- ./inp_files/551270.got.cif
#   From: 2010.05.17/outbox.cif.g08.bks.cpg/sg2_276_cif.got.tgz:551270.got - 2010.06.03 11:33:40.
