data_PCOD9108981
_publ_section_title
;
Structure prediction by ZEFSAII (Michael W. Deem and Ramdas Pophale) SiO2 
 PCOD9108981
Probable space group: P -1
;
_chemical_formula_sum "Si O2"
_cell_formula_units_Z 14
_cell_length_a 9.774582
_cell_length_b 7.184794
_cell_length_c 18.927050
_cell_angle_alpha 60.310391
_cell_angle_beta 40.458719
_cell_angle_gamma 87.947137
_cell_volume 596.615558
_symmetry_space_group_name_H-M "P -1"
_symmetry_group_IT_number 2
_symmetry_cell_setting 'triclinic'
loop_
_space_group_symop_operation_xyz
x,y,z
-x,-y,-z
loop_
_atom_site_type_symbol
_atom_site_label
_atom_site_fract_x
_atom_site_fract_y
_atom_site_fract_z
Si Si1 0.844362 0.082567 0.614898
Si Si2 0.843802 0.064806 0.386651
Si Si3 0.723730 0.237670 0.129803
Si Si4 0.736862 0.377289 0.715599
Si Si5 0.841261 0.030861 0.997711
Si Si6 0.437413 0.105524 0.610574
Si Si7 0.980841 0.607981 0.269048
O O1 0.769470 0.248502 0.658118
O O2 0.047191 0.299495 0.435556
O O3 0.563433 0.823163 0.745897
O O4 0.000291 0.019455 0.616721
O O5 0.771239 0.959247 0.355133
O O6 0.999324 0.385523 0.266066
O O7 0.570248 0.964707 0.553512
O O8 0.667191 0.006934 0.249741
O O9 0.771027 0.201945 0.037040
O O10 0.000000 0.500000 0.000000
O O11 0.807185 0.272807 0.774424
O O12 0.431954 0.255628 0.859647
O O13 0.984361 0.189164 0.840496
O O14 0.000000 0.000000 0.000000
O O15 0.687685 0.417560 0.453553
#
# Coordination Sequence:
#
# PCOD9108981 Si02
#       7
#     2   2   2   2   2   2   2
#     4  10  21  40  60  98 117 169 196 256 303 365
#     4   9  20  36  68  87 123 155 212 245 302 362
#     4  11  23  41  62  89 128 156 207 258 303 356
#     4  10  22  39  62  86 136 153 207 244 307 367
#     4  11  26  41  61  92 125 164 199 257 309 360
#     4   9  20  38  62  91 119 158 197 259 299 353
#     4  10  20  41  61  88 122 160 205 249 300 359
#
# _framework density 23.465699000000001
#
# number of rings (size 3 to 8) (size 9 to 14) (size 15 to 20)
#    0.857    1.143    1.429    1.286    2.000    4.571 
#    0.000    7.857    0.000    0.000    0.000    0.000 
#    0.000    0.000    0.000    0.000    0.000    0.000 
#
# Total GULP energy -78162.436275 kJ/mol
# GULP energy per Si atom -5583.031162 kJ/mol
# Density = 2.341229 g / cm^3
# Si number density = 23.465699 Si / 1000 Ang^3
#
#
#
# Elastic Constant Matrix: (Units=GPa)
#
#
# Indices 1 2 3 4 5 6 
#
# 1 178.2839 -1.8738 75.4807 -8.6499 -4.1745 -15.3997
# 2 -1.8738 33.2871 16.5091 -6.0802 -1.4793 0.2994
# 3 75.4807 16.5091 145.9752 -21.2268 1.9827 -7.6591
# 4 -8.6499 -6.0802 -21.2268 16.4696 9.7493 -1.0955
# 5 -4.1745 -1.4793 1.9827 9.7493 48.1884 -0.0489
# 6 -15.3997 0.2994 -7.6591 -1.0955 -0.0489 45.1328
#
#
#
# Elastic Compliance Matrix: (Units=1/GPa)
#
#
# Indices 1 2 3 4 5 6 
#
# 1 0.007570 0.002359 -0.004281 -0.001235 0.001156 0.001812
# 2 0.002359 0.033657 -0.003667 0.009234 -0.000479 0.000183
# 3 -0.004281 -0.003667 0.011538 0.013509 -0.003690 0.000845
# 4 -0.001235 0.009234 0.013509 0.092452 -0.019080 0.004033
# 5 0.001156 -0.000479 -0.003690 -0.019080 0.024849 -0.000665
# 6 0.001812 0.000183 0.000845 0.004033 -0.000665 0.023015
#
#
# Mechanical properties :
#
#
# Convention : Reuss Voigt Hill
#
# Bulk Modulus (GPa) = 24.04686 59.75313 41.90000
# Shear Modulus (GPa) = 22.92304 39.78685 31.35495
#
# Velocity S-wave (km/s) = 3.12889 4.12215 3.65938
# Velocity P-wave (km/s) = 4.82941 6.94086 5.97907
#
# Compressibility (1/GPa) = 0.04158547
#
# Stress axis : x y z
#
# Youngs Moduli (GPa) = 132.09862 29.71147 86.67097
#
# Poissons Ratio (x) = -0.07009 0.37107
# Poissons Ratio (y) = -0.31162 0.31786
# Poissons Ratio (z) = 0.56556 0.10896
#
# Static dielectric constant tensor:
#      x y z
#    x 1.841270 -0.009970 -0.037880 
#    y -0.009970 1.966760 0.039350 
#    z -0.037880 0.039350 1.913980 
# 
# From -- ./inp_files/587816.got.cif
#   From: 2010.05.17/outbox.cif.g08.bks.cpg/sg2_294_cif.got.tgz:587816.got - 2010.06.03 11:33:40.
