data_PCOD9108991
_publ_section_title
;
Structure prediction by ZEFSAII (Michael W. Deem and Ramdas Pophale) SiO2 
 PCOD9108991
Probable space group: P -1
;
_chemical_formula_sum "Si O2"
_cell_formula_units_Z 14
_cell_length_a 9.252500
_cell_length_b 15.251644
_cell_length_c 16.586508
_cell_angle_alpha 25.313461
_cell_angle_beta 105.803703
_cell_angle_gamma 88.989152
_cell_volume 738.865491
_symmetry_space_group_name_H-M "P -1"
_symmetry_group_IT_number 2
_symmetry_cell_setting 'triclinic'
loop_
_space_group_symop_operation_xyz
x,y,z
-x,-y,-z
loop_
_atom_site_type_symbol
_atom_site_label
_atom_site_fract_x
_atom_site_fract_y
_atom_site_fract_z
Si Si1 0.895723 0.082136 0.061690
Si Si2 0.924683 0.470214 0.930940
Si Si3 0.377485 0.596076 0.093921
Si Si4 0.137231 0.164581 0.526556
Si Si5 0.168358 0.867699 0.422984
Si Si6 0.953123 0.439455 0.674837
Si Si7 0.268526 0.191034 0.810756
O O1 0.735380 0.286319 0.935124
O O2 0.811437 0.958972 0.106765
O O3 0.090881 0.871801 0.319038
O O4 0.937870 0.230220 0.885024
O O5 0.732418 0.495951 0.889973
O O6 0.090622 0.167879 0.174070
O O7 0.000000 0.500000 0.000000
O O8 0.876340 0.688516 0.677364
O O9 0.324846 0.852855 0.825823
O O10 0.603884 0.358755 0.339962
O O11 0.954488 0.168845 0.504394
O O12 0.122272 0.332700 0.460141
O O13 0.171447 0.302921 0.790717
O O14 0.822003 0.572094 0.464439
O O15 0.500000 0.000000 0.000000
#
# Coordination Sequence:
#
# PCOD9108991 Si02
#       7
#     2   2   2   2   2   2   2
#     4  10  21  41  58  87 122 158 202 251 298 349
#     4  10  22  43  64  91 124 155 198 249 301 358
#     4  10  22  37  63  93 120 156 206 242 297 364
#     4  10  20  41  61  89 120 164 195 246 305 355
#     4  10  22  38  63  91 119 159 199 250 295 360
#     4  11  21  40  60  84 122 159 202 246 304 348
#     4  11  25  37  58  91 120 157 204 255 295 348
#
# _framework density 18.947966999999998
#
# number of rings (size 3 to 8) (size 9 to 14) (size 15 to 20)
#    0.000    2.000    5.714    0.429    2.000    5.714 
#    0.000    1.429    0.000    0.000    0.000    0.000 
#    0.000    0.000    0.000    0.000    0.000    0.000 
#
# Total GULP energy -78135.298781 kJ/mol
# GULP energy per Si atom -5581.092770 kJ/mol
# Density = 1.890484 g / cm^3
# Si number density = 18.947967 Si / 1000 Ang^3
#
#
#
# Elastic Constant Matrix: (Units=GPa)
#
#
# Indices 1 2 3 4 5 6 
#
# 1 90.4610 31.8846 99.3982 3.5877 -3.0997 13.1501
# 2 31.8846 47.2223 36.3165 12.3877 -14.1186 7.8041
# 3 99.3982 36.3165 169.5020 3.2685 4.4737 -1.7615
# 4 3.5877 12.3877 3.2685 15.3143 -6.8966 -1.8360
# 5 -3.0997 -14.1186 4.4737 -6.8966 50.8333 -0.1722
# 6 13.1501 7.8041 -1.7615 -1.8360 -0.1722 18.4956
#
#
#
# Elastic Compliance Matrix: (Units=1/GPa)
#
#
# Indices 1 2 3 4 5 6 
#
# 1 0.049371 -0.002002 -0.028894 -0.006494 0.003989 -0.037617
# 2 -0.002002 0.042303 -0.007716 -0.030895 0.008046 -0.020153
# 3 -0.028894 -0.007716 0.024734 0.008807 -0.004795 0.026984
# 4 -0.006494 -0.030895 0.008807 0.094717 0.003193 0.027924
# 5 0.003989 0.008046 -0.004795 0.003193 0.022985 -0.006157
# 6 -0.037617 -0.020153 0.026984 0.027924 -0.006157 0.094600
#
#
# Mechanical properties :
#
#
# Convention : Reuss Voigt Hill
#
# Bulk Modulus (GPa) = 25.52013 71.37598 48.44806
# Shear Modulus (GPa) = 11.93336 26.23435 19.08386
#
# Velocity S-wave (km/s) = 2.51230 3.72499 3.17704
# Velocity P-wave (km/s) = 4.68116 7.50013 6.25161
#
# Compressibility (1/GPa) = 0.03918475
#
# Stress axis : x y z
#
# Youngs Moduli (GPa) = 20.25483 23.63909 40.43066
#
# Poissons Ratio (x) = 0.04732 1.16820
# Poissons Ratio (y) = 0.04054 0.31196
# Poissons Ratio (z) = 0.58524 0.18240
#
# Static dielectric constant tensor:
#      x y z
#    x 1.647750 0.007570 -0.012370 
#    y 0.007570 1.689600 -0.023060 
#    z -0.012370 -0.023060 1.662980 
# 
# From -- ./inp_files/289335.got.cif
#   From: 2010.05.17/outbox.cif.g08.bks.cpg/sg2_145_cif.got.tgz:289335.got - 2010.06.03 11:33:40.
