data_PCOD9108171
_publ_section_title
;
Structure prediction by ZEFSAII (Michael W. Deem and Ramdas Pophale) SiO2 
 PCOD9108171
Probable space group: P -1
;
_chemical_formula_sum "Si O2"
_cell_formula_units_Z 14
_cell_length_a 12.325190
_cell_length_b 22.464633
_cell_length_c 16.042614
_cell_angle_alpha 161.582725
_cell_angle_beta 142.601222
_cell_angle_gamma 27.839582
_cell_volume 624.785396
_symmetry_space_group_name_H-M "P -1"
_symmetry_group_IT_number 2
_symmetry_cell_setting 'triclinic'
loop_
_space_group_symop_operation_xyz
x,y,z
-x,-y,-z
loop_
_atom_site_type_symbol
_atom_site_label
_atom_site_fract_x
_atom_site_fract_y
_atom_site_fract_z
Si Si1 0.485351 0.530372 0.782854
Si Si2 0.136882 0.562844 0.221418
Si Si3 0.765528 0.680580 0.654879
Si Si4 0.267847 0.084372 0.419845
Si Si5 0.750933 0.212889 0.683665
Si Si6 0.047991 0.582255 0.856127
Si Si7 0.364410 0.098193 0.837190
O O1 0.735489 0.377146 0.680075
O O2 0.339953 0.449423 0.559631
O O3 0.564243 0.436469 0.801158
O O4 0.334812 0.831296 0.090002
O O5 0.951572 0.771162 0.454600
O O6 0.361257 0.292411 0.043051
O O7 0.000000 0.500000 0.000000
O O8 0.860875 0.707261 0.832248
O O9 0.000000 0.500000 0.500000
O O10 0.567051 0.926759 0.803483
O O11 0.195828 0.284065 0.568032
O O12 0.500000 0.000000 0.500000
O O13 0.651165 0.076834 0.462454
O O14 0.000000 0.000000 0.500000
O O15 0.798967 0.334825 0.944544
O O16 0.890127 0.711609 0.015746
#
# Coordination Sequence:
#
# PCOD9108171 Si02
#       7
#     2   2   2   2   2   2   2
#     4  11  23  44  64  95 134 166 213 272 318 385
#     4  11  21  39  71  98 129 170 206 268 332 377
#     4  11  26  45  61  91 131 175 217 263 322 379
#     4  11  21  39  66 103 130 160 217 270 322 383
#     4   9  17  37  67  93 122 162 212 264 318 375
#     4  10  20  40  67  89 128 174 210 265 317 386
#     4   9  21  41  63  95 127 161 217 265 321 386
#
# _framework density 22.407695
#
# number of rings (size 3 to 8) (size 9 to 14) (size 15 to 20)
#    0.000    1.714    2.857    2.143    2.000    0.571 
#   12.857    2.857    0.000    0.000    0.000    0.000 
#    0.000    0.000    0.000    0.000    0.000    0.000 
#
# Total GULP energy -78248.128207 kJ/mol
# GULP energy per Si atom -5589.152015 kJ/mol
# Density = 2.235669 g / cm^3
# Si number density = 22.407695 Si / 1000 Ang^3
#
#
#
# Elastic Constant Matrix: (Units=GPa)
#
#
# Indices 1 2 3 4 5 6 
#
# 1 97.3048 -0.7858 16.3845 -5.0312 -5.2637 -22.7715
# 2 -0.7858 92.1415 41.1803 -9.6738 21.1328 4.0403
# 3 16.3845 41.1803 74.0978 3.2672 -0.7051 3.7074
# 4 -5.0312 -9.6738 3.2672 50.3864 -2.4682 1.3111
# 5 -5.2637 21.1328 -0.7051 -2.4682 23.5618 6.4287
# 6 -22.7715 4.0403 3.7074 1.3111 6.4287 24.2781
#
#
#
# Elastic Compliance Matrix: (Units=1/GPa)
#
#
# Indices 1 2 3 4 5 6 
#
# 1 0.014700 0.003087 -0.005834 0.001874 -0.003557 0.015006
# 2 0.003087 0.021794 -0.013504 0.004188 -0.020614 0.006563
# 3 -0.005834 -0.013504 0.023099 -0.003726 0.013901 -0.010231
# 4 0.001874 0.004188 -0.003726 0.020983 -0.001494 0.000892
# 5 -0.003557 -0.020614 0.013901 -0.001494 0.065671 -0.019338
# 6 0.015006 0.006563 -0.010231 0.000892 -0.019338 0.060807
#
#
# Mechanical properties :
#
#
# Convention : Reuss Voigt Hill
#
# Bulk Modulus (GPa) = 36.91029 41.90025 39.40527
# Shear Modulus (GPa) = 20.11373 33.42961 26.77167
#
# Velocity S-wave (km/s) = 2.99929 3.86668 3.46027
# Velocity P-wave (km/s) = 5.33875 6.21889 5.79555
#
# Compressibility (1/GPa) = 0.02709272
#
# Stress axis : x y z
#
# Youngs Moduli (GPa) = 68.02539 45.88373 43.29175
#
# Poissons Ratio (x) = -0.14165 0.25255
# Poissons Ratio (y) = -0.21001 0.58462
# Poissons Ratio (z) = 0.39683 0.61962
#
# Static dielectric constant tensor:
#      x y z
#    x 2.254430 0.113290 -0.056060 
#    y 0.113290 1.869800 0.005360 
#    z -0.056060 0.005360 1.879740 
# 
# From -- ./inp_files/294658.got.cif
#   From: 2010.05.17/outbox.cif.g08.bks.cpg/sg2_148_cif.got.tgz:294658.got - 2010.06.03 11:33:40.
