data_PCOD9108710
_publ_section_title
;
Structure prediction by ZEFSAII (Michael W. Deem and Ramdas Pophale) SiO2 
 PCOD9108710
Probable space group: P -1
;
_chemical_formula_sum "Si O2"
_cell_formula_units_Z 14
_cell_length_a 13.211357
_cell_length_b 13.709572
_cell_length_c 6.748286
_cell_angle_alpha 63.748578
_cell_angle_beta 100.743097
_cell_angle_gamma 148.509810
_cell_volume 522.980247
_symmetry_space_group_name_H-M "P -1"
_symmetry_group_IT_number 2
_symmetry_cell_setting 'triclinic'
loop_
_space_group_symop_operation_xyz
x,y,z
-x,-y,-z
loop_
_atom_site_type_symbol
_atom_site_label
_atom_site_fract_x
_atom_site_fract_y
_atom_site_fract_z
Si Si1 0.477908 0.726535 0.627410
Si Si2 0.285485 0.364772 0.106002
Si Si3 0.760663 0.578289 0.546874
Si Si4 0.711723 0.136593 0.753381
Si Si5 0.198633 0.015051 0.150859
Si Si6 0.500000 0.000000 0.500000
Si Si7 0.000000 0.000000 0.000000
Si Si8 0.969223 0.537199 0.756494
O O1 0.428779 0.634838 0.473914
O O2 0.692400 0.897087 0.675438
O O3 0.454877 0.833682 0.532755
O O4 0.305153 0.505132 0.897037
O O5 0.276285 0.377959 0.323541
O O6 0.089892 0.126553 0.145450
O O7 0.500000 0.500000 0.000000
O O8 0.944197 0.805321 0.272453
O O9 0.873411 0.569733 0.672776
O O10 0.470575 0.923027 0.798321
O O11 0.835289 0.335576 0.746234
O O12 0.790605 0.230275 0.464266
O O13 0.771384 0.068801 0.878486
O O14 0.238730 0.158177 0.913342
O O15 0.000000 0.500000 0.000000
#
# Coordination Sequence:
#
# PCOD9108710 Si02
#       8
#     2   2   2   2   2   1   1   2
#     4  11  23  48  70 103 144 181 232 282 352 418
#     4  12  28  47  71 102 135 187 238 298 349 408
#     4  11  25  44  72 100 139 185 232 286 352 411
#     4   9  20  38  62  91 136 169 214 271 339 400
#     4  10  23  44  68 101 136 185 227 288 341 419
#     4  10  20  40  70  96 138 182 212 276 348 406
#     4  12  24  46  72 100 138 180 238 292 358 394
#     4  10  21  36  63  98 127 172 219 269 332 415
#
# _framework density 26.769653999999999
#
# number of rings (size 3 to 8) (size 9 to 14) (size 15 to 20)
#    0.000    1.429    4.286    0.000    4.000    2.286 
#    0.000    5.714    0.000    0.000    0.000    0.000 
#    0.000    0.000    0.000    0.000    0.000    0.000 
#
# Total GULP energy -77954.118294 kJ/mol
# GULP energy per Si atom -5568.151307 kJ/mol
# Density = 2.670873 g / cm^3
# Si number density = 26.769654 Si / 1000 Ang^3
#
#
#
# Elastic Constant Matrix: (Units=GPa)
#
#
# Indices 1 2 3 4 5 6 
#
# 1 134.7250 62.7742 36.5896 6.5981 27.1631 -6.1835
# 2 62.7742 243.8193 43.4642 44.8530 -3.5717 -16.1121
# 3 36.5896 43.4642 99.0861 11.6955 6.0613 -1.0969
# 4 6.5981 44.8530 11.6955 37.4557 -2.4945 16.7065
# 5 27.1631 -3.5717 6.0613 -2.4945 46.6384 -2.6577
# 6 -6.1835 -16.1121 -1.0969 16.7065 -2.6577 45.6392
#
#
#
# Elastic Compliance Matrix: (Units=1/GPa)
#
#
# Indices 1 2 3 4 5 6 
#
# 1 0.010459 -0.002794 -0.002552 0.002266 -0.005898 -0.000804
# 2 -0.002794 0.007422 -0.001017 -0.010734 0.002111 0.006269
# 3 -0.002552 -0.001017 0.011755 -0.002180 -0.000215 0.000363
# 4 0.002266 -0.010734 -0.002180 0.049468 -0.000448 -0.021669
# 5 -0.005898 0.002111 -0.000215 -0.000448 0.025132 0.001568
# 6 -0.000804 0.006269 0.000363 -0.021669 0.001568 0.032047
#
#
# Mechanical properties :
#
#
# Convention : Reuss Voigt Hill
#
# Bulk Modulus (GPa) = 59.13660 84.80960 71.97310
# Shear Modulus (GPa) = 32.33196 48.26679 40.29938
#
# Velocity S-wave (km/s) = 3.47909 4.25083 3.88417
# Velocity P-wave (km/s) = 6.18689 7.47280 6.86004
#
# Compressibility (1/GPa) = 0.01691000
#
# Stress axis : x y z
#
# Youngs Moduli (GPa) = 95.61181 134.73866 85.06988
#
# Poissons Ratio (x) = 0.37650 0.21710
# Poissons Ratio (y) = 0.26717 0.08648
# Poissons Ratio (z) = 0.24401 0.13697
#
# Static dielectric constant tensor:
#      x y z
#    x 2.450680 0.060200 0.153890 
#    y 0.060200 2.220290 -0.095650 
#    z 0.153890 -0.095650 2.437750 
# 
# From -- ./inp_files/92220.got.cif
#   From: 2010.05.17/outbox.cif.g08.bks.cpg/sg2_47_cif.got.tgz:92220.got - 2010.06.03 11:33:40.
