data_PCOD9108317
_publ_section_title
;
Structure prediction by ZEFSAII (Michael W. Deem and Ramdas Pophale) SiO2 
 PCOD9108317
Probable space group: P -1
;
_chemical_formula_sum "Si O2"
_cell_formula_units_Z 16
_cell_length_a 18.330827
_cell_length_b 15.709709
_cell_length_c 6.029058
_cell_angle_alpha 80.524508
_cell_angle_beta 103.898196
_cell_angle_gamma 156.589824
_cell_volume 662.570862
_symmetry_space_group_name_H-M "P -1"
_symmetry_group_IT_number 2
_symmetry_cell_setting 'triclinic'
loop_
_space_group_symop_operation_xyz
x,y,z
-x,-y,-z
loop_
_atom_site_type_symbol
_atom_site_label
_atom_site_fract_x
_atom_site_fract_y
_atom_site_fract_z
Si Si1 0.828871 0.690718 0.956561
Si Si2 0.245680 0.786171 0.303780
Si Si3 0.055434 0.322335 0.330552
Si Si4 0.519197 0.420124 0.137330
Si Si5 0.811840 0.974495 0.636135
Si Si6 0.207604 0.219150 0.461815
Si Si7 0.637467 0.264972 0.339869
Si Si8 0.125576 0.536538 0.948327
O O1 0.892096 0.699387 0.790025
O O2 0.812848 0.768780 0.807367
O O3 0.626349 0.470897 0.020416
O O4 0.990352 0.847924 0.188280
O O5 0.302950 0.768907 0.517011
O O6 0.041080 0.610389 0.274411
O O7 0.414727 0.032347 0.311235
O O8 0.220627 0.714842 0.074206
O O9 0.241992 0.541591 0.512972
O O10 0.882749 0.123157 0.457314
O O11 0.024259 0.371243 0.128995
O O12 0.658382 0.581375 0.378605
O O13 0.333226 0.177365 0.200358
O O14 0.500000 0.500000 0.000000
O O15 0.726366 0.809693 0.487451
O O16 0.000000 0.000000 0.500000
O O17 0.715120 0.349290 0.110980
#
# Coordination Sequence:
#
# PCOD9108317 Si02
#       8
#     2   2   2   2   2   2   2   2
#     4  12  24  44  65  93 129 175 221 285 335 395
#     4   9  20  38  71 101 126 165 223 273 310 379
#     4  11  25  42  63  89 144 183 210 266 342 405
#     4  12  26  41  71 101 120 166 234 289 333 397
#     4  12  25  44  66  94 131 171 223 283 341 395
#     4  12  22  42  71  94 123 163 226 284 340 393
#     4  10  20  41  66 100 132 173 217 266 322 388
#     4  10  20  40  67  99 131 173 217 265 325 389
#
# _framework density 24.148358999999999
#
# number of rings (size 3 to 8) (size 9 to 14) (size 15 to 20)
#    0.000    1.000    3.750    3.000    0.000    0.000 
#    0.000   12.500    0.000    0.000    0.000    0.000 
#    0.000    0.000    0.000    0.000    0.000    0.000 
#
# Total GULP energy -89431.149619 kJ/mol
# GULP energy per Si atom -5589.446851 kJ/mol
# Density = 2.409340 g / cm^3
# Si number density = 24.148359 Si / 1000 Ang^3
#
#
#
# Elastic Constant Matrix: (Units=GPa)
#
#
# Indices 1 2 3 4 5 6 
#
# 1 45.2723 22.3588 3.2111 -10.9320 -14.8642 0.9073
# 2 22.3588 131.7022 34.2246 -33.0548 -8.0806 16.4790
# 3 3.2111 34.2246 75.3546 -23.6669 8.1185 3.5006
# 4 -10.9320 -33.0548 -23.6669 38.4202 7.9973 -8.0748
# 5 -14.8642 -8.0806 8.1185 7.9973 35.3139 -7.0223
# 6 0.9073 16.4790 3.5006 -8.0748 -7.0223 40.7553
#
#
#
# Elastic Compliance Matrix: (Units=1/GPa)
#
#
# Indices 1 2 3 4 5 6 
#
# 1 0.028259 -0.003767 0.000244 0.003403 0.010887 0.003423
# 2 -0.003767 0.010777 -0.002648 0.006050 -0.000463 -0.002927
# 3 0.000244 -0.002648 0.018618 0.010830 -0.007161 0.000378
# 4 0.003403 0.006050 0.010830 0.041307 -0.008373 0.003289
# 5 0.010887 -0.000463 -0.007161 -0.008373 0.037399 0.005345
# 6 0.003423 -0.002927 0.000378 0.003289 0.005345 0.027184
#
#
# Mechanical properties :
#
#
# Convention : Reuss Voigt Hill
#
# Bulk Modulus (GPa) = 22.06952 41.32426 31.69689
# Shear Modulus (GPa) = 26.17912 35.73355 30.95634
#
# Velocity S-wave (km/s) = 3.29613 3.85093 3.58428
# Velocity P-wave (km/s) = 4.86261 6.07640 5.50307
#
# Compressibility (1/GPa) = 0.04531136
#
# Stress axis : x y z
#
# Youngs Moduli (GPa) = 35.38650 92.79168 53.71059
#
# Poissons Ratio (x) = 0.34955 -0.01308
# Poissons Ratio (y) = 0.13330 0.14223
# Poissons Ratio (z) = -0.00862 0.24572
#
# Static dielectric constant tensor:
#      x y z
#    x 1.993570 -0.011700 0.041120 
#    y -0.011700 1.897180 -0.046300 
#    z 0.041120 -0.046300 1.968750 
# 
# From -- ./inp_files/53405.got.cif
#   From: 2010.05.17/outbox.cif.g08.bks.cpg/sg2_27_cif.got.tgz:53405.got - 2010.06.03 11:33:40.
