data_PCOD9108860
_publ_section_title
;
Structure prediction by ZEFSAII (Michael W. Deem and Ramdas Pophale) SiO2 
 PCOD9108860
Probable space group: P -1
;
_chemical_formula_sum "Si O2"
_cell_formula_units_Z 14
_cell_length_a 13.307583
_cell_length_b 19.264762
_cell_length_c 10.923715
_cell_angle_alpha 158.288298
_cell_angle_beta 43.596296
_cell_angle_gamma 147.129706
_cell_volume 539.883857
_symmetry_space_group_name_H-M "P -1"
_symmetry_group_IT_number 2
_symmetry_cell_setting 'triclinic'
loop_
_space_group_symop_operation_xyz
x,y,z
-x,-y,-z
loop_
_atom_site_type_symbol
_atom_site_label
_atom_site_fract_x
_atom_site_fract_y
_atom_site_fract_z
Si Si1 0.038470 0.919299 0.710705
Si Si2 0.305001 0.504661 0.848394
Si Si3 0.538398 0.311838 0.652885
Si Si4 0.595127 0.143068 0.862898
Si Si5 0.648511 0.860849 0.716604
Si Si6 0.022111 0.556299 0.272425
Si Si7 0.063961 0.291280 0.153985
O O1 0.117922 0.788704 0.474644
O O2 0.834163 0.702190 0.472499
O O3 0.135178 0.148649 0.909842
O O4 0.000000 0.000000 0.000000
O O5 0.395162 0.398538 0.656199
O O6 0.429488 0.757056 0.074917
O O7 0.156175 0.488501 0.040198
O O8 0.419372 0.137498 0.354522
O O9 0.761863 0.472385 0.685834
O O10 0.474102 0.130209 0.525541
O O11 0.500000 0.500000 0.000000
O O12 0.465404 0.133489 0.065376
O O13 0.814732 0.335587 0.034204
O O14 0.874360 0.091978 0.915323
O O15 0.990219 0.627666 0.547871
#
# Coordination Sequence:
#
# PCOD9108860 Si02
#       7
#     2   2   2   2   2   2   2
#     4   8  16  33  62 100 132 183 222 276 344 406
#     4  10  22  40  74 110 139 182 239 299 345 408
#     4  12  29  47  72 103 143 191 234 290 355 431
#     4  11  23  46  70 105 147 185 234 286 356 422
#     4  11  25  48  73 105 140 187 236 294 348 421
#     4  10  20  40  74 101 141 187 233 291 355 410
#     4  10  23  44  71 102 143 186 236 283 361 417
#
# _framework density 25.931504
#
# number of rings (size 3 to 8) (size 9 to 14) (size 15 to 20)
#    0.000    1.714    1.429    2.571    6.000    2.286 
#    2.571    1.429    0.000    0.000    0.000    0.000 
#    0.000    0.000    0.000    0.000    0.000    0.000 
#
# Total GULP energy -78493.007795 kJ/mol
# GULP energy per Si atom -5606.643414 kJ/mol
# Density = 2.587248 g / cm^3
# Si number density = 25.931504 Si / 1000 Ang^3
#
#
#
# Elastic Constant Matrix: (Units=GPa)
#
#
# Indices 1 2 3 4 5 6 
#
# 1 105.1665 51.8004 42.7209 19.6483 0.8326 -5.4299
# 2 51.8004 107.2932 49.3855 19.7742 -2.2095 -6.0296
# 3 42.7209 49.3855 122.6009 15.3785 -19.3261 2.7491
# 4 19.6483 19.7742 15.3785 42.4365 -1.0126 -12.8339
# 5 0.8326 -2.2095 -19.3261 -1.0126 64.7502 4.5522
# 6 -5.4299 -6.0296 2.7491 -12.8339 4.5522 37.5541
#
#
#
# Elastic Compliance Matrix: (Units=1/GPa)
#
#
# Indices 1 2 3 4 5 6 
#
# 1 0.013509 -0.004769 -0.002616 -0.002958 -0.001200 0.000514
# 2 -0.004769 0.013861 -0.003725 -0.002616 -0.000688 0.000998
# 3 -0.002616 -0.003725 0.011435 -0.001997 0.003494 -0.002919
# 4 -0.002958 -0.002616 -0.001997 0.029750 -0.000855 0.009569
# 5 -0.001200 -0.000688 0.003494 -0.000855 0.016666 -0.002852
# 6 0.000514 0.000998 -0.002919 0.009569 -0.002852 0.030692
#
#
# Mechanical properties :
#
#
# Convention : Reuss Voigt Hill
#
# Bulk Modulus (GPa) = 60.28976 69.20824 64.74900
# Shear Modulus (GPa) = 34.80443 41.69174 38.24809
#
# Velocity S-wave (km/s) = 3.66754 4.01404 3.84470
# Velocity P-wave (km/s) = 6.42141 6.94480 6.68823
#
# Compressibility (1/GPa) = 0.01658657
#
# Stress axis : x y z
#
# Youngs Moduli (GPa) = 74.02579 72.14584 87.45078
#
# Poissons Ratio (x) = 0.34403 0.22877
# Poissons Ratio (y) = 0.35300 0.32571
# Poissons Ratio (z) = 0.19365 0.26871
#
# Static dielectric constant tensor:
#      x y z
#    x 2.014480 -0.010460 -0.035340 
#    y -0.010460 1.967340 0.026240 
#    z -0.035340 0.026240 2.063360 
# 
# From -- ./inp_files/204879.got.cif
#   From: 2010.05.17/outbox.cif.g08.bks.cpg/sg2_103_cif.got.tgz:204879.got - 2010.06.03 11:33:40.
