data_PCOD9108552
_publ_section_title
;
Structure prediction by ZEFSAII (Michael W. Deem and Ramdas Pophale) SiO2 
 PCOD9108552
Probable space group: P -1
;
_chemical_formula_sum "Si O2"
_cell_formula_units_Z 16
_cell_length_a 9.440700
_cell_length_b 6.447681
_cell_length_c 32.940046
_cell_angle_alpha 56.262171
_cell_angle_beta 27.062929
_cell_angle_gamma 54.753311
_cell_volume 740.353371
_symmetry_space_group_name_H-M "P -1"
_symmetry_group_IT_number 2
_symmetry_cell_setting 'triclinic'
loop_
_space_group_symop_operation_xyz
x,y,z
-x,-y,-z
loop_
_atom_site_type_symbol
_atom_site_label
_atom_site_fract_x
_atom_site_fract_y
_atom_site_fract_z
Si Si1 0.817637 0.522831 0.438866
Si Si2 0.722797 0.127875 0.958362
Si Si3 0.275818 0.801644 0.429406
Si Si4 0.656271 0.678058 0.883703
Si Si5 0.751264 0.254112 0.651169
Si Si6 0.289777 0.803542 0.727534
Si Si7 0.572830 0.736443 0.744180
Si Si8 0.749365 0.326241 0.092880
O O1 0.500000 0.500000 0.500000
O O2 0.726889 0.439931 0.516167
O O3 0.958662 0.765821 0.388978
O O4 0.106254 0.364464 0.353805
O O5 0.786178 0.375362 0.891794
O O6 0.540263 0.219309 0.036992
O O7 0.033972 0.927027 0.915229
O O8 0.500000 0.000000 0.000000
O O9 0.177945 0.767475 0.412270
O O10 0.574366 0.940191 0.340490
O O11 0.000000 0.000000 0.500000
O O12 0.437579 0.714819 0.895661
O O13 0.955810 0.810737 0.790942
O O14 0.531351 0.539965 0.680749
O O15 0.595913 0.013822 0.724535
O O16 0.287047 0.766337 0.781072
O O17 0.504209 0.569470 0.817788
O O18 0.000000 0.500000 0.000000
#
# Coordination Sequence:
#
# PCOD9108552 Si02
#       8
#     2   2   2   2   2   2   2   2
#     4  11  24  40  62  99 131 171 214 272 328 387
#     4  11  23  46  72  95 134 176 221 278 338 399
#     4  11  20  41  64  92 124 170 220 260 317 398
#     4  11  25  43  69 104 130 175 225 275 339 399
#     4  10  20  40  69  89 129 178 208 270 328 387
#     4  10  22  39  67  97 128 169 225 268 324 399
#     4  10  23  43  62  93 135 172 219 272 328 395
#     4  12  25  46  69  98 137 178 222 280 336 401
#
# _framework density 21.6113
#
# number of rings (size 3 to 8) (size 9 to 14) (size 15 to 20)
#    0.000    1.250    5.000    2.250    1.750    3.500 
#    6.750    0.000    0.000    0.000    0.000    0.000 
#    0.000    0.000    0.000    0.000    0.000    0.000 
#
# Total GULP energy -89196.912267 kJ/mol
# GULP energy per Si atom -5574.807017 kJ/mol
# Density = 2.156211 g / cm^3
# Si number density = 21.611300 Si / 1000 Ang^3
#
#
#
# Elastic Constant Matrix: (Units=GPa)
#
#
# Indices 1 2 3 4 5 6 
#
# 1 175.7972 38.5423 69.1854 -7.6063 -20.8713 30.4103
# 2 38.5423 65.7238 28.0887 -4.8887 -3.3443 22.7352
# 3 69.1854 28.0887 113.2780 -12.1388 2.6570 16.1551
# 4 -7.6063 -4.8887 -12.1388 19.1056 0.4008 -6.4513
# 5 -20.8713 -3.3443 2.6570 0.4008 42.7707 -3.8936
# 6 30.4103 22.7352 16.1551 -6.4513 -3.8936 35.9367
#
#
#
# Elastic Compliance Matrix: (Units=1/GPa)
#
#
# Indices 1 2 3 4 5 6 
#
# 1 0.009134 -0.001716 -0.004791 -0.001380 0.004244 -0.004278
# 2 -0.001716 0.021055 -0.002707 -0.000652 0.000003 -0.010768
# 3 -0.004791 -0.002707 0.013057 0.005971 -0.003361 0.000604
# 4 -0.001380 -0.000652 0.005971 0.058584 -0.000795 0.009327
# 5 0.004244 0.000003 -0.003361 -0.000795 0.025719 0.000562
# 6 -0.004278 -0.010768 0.000604 0.009327 0.000562 0.039723
#
#
# Mechanical properties :
#
#
# Convention : Reuss Voigt Hill
#
# Bulk Modulus (GPa) = 40.29097 69.60354 54.94725
# Shear Modulus (GPa) = 25.77679 34.16143 29.96911
#
# Velocity S-wave (km/s) = 3.45736 3.98014 3.72793
# Velocity P-wave (km/s) = 5.88402 7.30746 6.63403
#
# Compressibility (1/GPa) = 0.02481946
#
# Stress axis : x y z
#
# Youngs Moduli (GPa) = 109.47900 47.49490 76.58469
#
# Poissons Ratio (x) = 0.08150 0.36688
# Poissons Ratio (y) = 0.18786 0.20732
# Poissons Ratio (z) = 0.52447 0.12857
#
# Static dielectric constant tensor:
#      x y z
#    x 1.803430 -0.024440 -0.042100 
#    y -0.024440 1.822570 0.044050 
#    z -0.042100 0.044050 1.798690 
# 
# From -- ./inp_files/120639.got.cif
#   From: 2010.05.17/outbox.cif.g08.bks.cpg/sg2_61_cif.got.tgz:120639.got - 2010.06.03 11:33:40.
