data_PCOD9108070
_publ_section_title
;
Structure prediction by ZEFSAII (Michael W. Deem and Ramdas Pophale) SiO2 
 PCOD9108070
Probable space group: P -1
;
_chemical_formula_sum "Si O2"
_cell_formula_units_Z 12
_cell_length_a 7.300741
_cell_length_b 16.245491
_cell_length_c 18.712535
_cell_angle_alpha 157.840828
_cell_angle_beta 141.270628
_cell_angle_gamma 49.191118
_cell_volume 500.874769
_symmetry_space_group_name_H-M "P -1"
_symmetry_group_IT_number 2
_symmetry_cell_setting 'triclinic'
loop_
_space_group_symop_operation_xyz
x,y,z
-x,-y,-z
loop_
_atom_site_type_symbol
_atom_site_label
_atom_site_fract_x
_atom_site_fract_y
_atom_site_fract_z
Si Si1 0.777630 0.285065 0.863286
Si Si2 0.233591 0.422944 0.771762
Si Si3 0.814112 0.901310 0.080820
Si Si4 0.602902 0.425481 0.546687
Si Si5 0.425025 0.340320 0.057920
Si Si6 0.139235 0.314061 0.427268
O O1 0.446667 0.255288 0.705402
O O2 0.850396 0.095244 0.783605
O O3 0.817537 0.501155 0.102591
O O4 0.070762 0.335309 0.941184
O O5 0.424737 0.641828 0.959220
O O6 0.904502 0.341832 0.569324
O O7 0.703848 0.663413 0.813211
O O8 0.596014 0.859025 0.050317
O O9 0.868080 0.111248 0.213845
O O10 0.500000 0.500000 0.500000
O O11 0.337372 0.256099 0.376504
O O12 0.630029 0.565237 0.342222
O O13 0.000000 0.500000 0.500000
#
# Coordination Sequence:
#
# PCOD9108070 Si02
#       6
#     2   2   2   2   2   2
#     4   8  18  35  59  85 113 150 188 236 287 340
#     4  10  16  35  63  83 114 152 187 232 295 332
#     4   8  20  38  55  84 116 147 196 234 285 340
#     4  10  21  37  57  87 115 149 192 238 288 342
#     4   9  19  35  58  83 114 152 186 236 286 340
#     4  11  21  38  57  79 118 156 191 240 286 340
#
# _framework density 23.958081
#
# number of rings (size 3 to 8) (size 9 to 14) (size 15 to 20)
#    1.000    1.667    1.667    1.500    0.000    3.333 
#    0.000    8.333    0.000    0.000    0.000    0.000 
#    0.000    0.000    0.000    0.000    0.000    0.000 
#
# Total GULP energy -66900.737688 kJ/mol
# GULP energy per Si atom -5575.061474 kJ/mol
# Density = 2.390355 g / cm^3
# Si number density = 23.958081 Si / 1000 Ang^3
#
#
#
# Elastic Constant Matrix: (Units=GPa)
#
#
# Indices 1 2 3 4 5 6 
#
# 1 89.9542 5.7588 26.7427 -4.0332 30.8083 10.9964
# 2 5.7588 100.5202 21.2820 -10.4937 12.8391 6.9953
# 3 26.7427 21.2820 61.3975 7.2102 7.8758 5.4910
# 4 -4.0332 -10.4937 7.2102 54.8379 6.1149 17.2890
# 5 30.8083 12.8391 7.8758 6.1149 41.6065 -3.2856
# 6 10.9964 6.9953 5.4910 17.2890 -3.2856 38.4628
#
#
#
# Elastic Compliance Matrix: (Units=1/GPa)
#
#
# Indices 1 2 3 4 5 6 
#
# 1 0.021274 0.004624 -0.008650 0.009136 -0.017778 -0.011314
# 2 0.004624 0.013019 -0.005707 0.006491 -0.007825 -0.006461
# 3 -0.008650 -0.005707 0.021771 -0.006347 0.005270 0.003706
# 4 0.009136 0.006491 -0.006347 0.027593 -0.012917 -0.016393
# 5 -0.017778 -0.007825 0.005270 -0.012917 0.041709 0.015122
# 6 -0.011314 -0.006461 0.003706 -0.016393 0.015122 0.038540
#
#
# Mechanical properties :
#
#
# Convention : Reuss Voigt Hill
#
# Bulk Modulus (GPa) = 27.32393 39.93767 33.63080
# Shear Modulus (GPa) = 25.56634 40.18734 32.87684
#
# Velocity S-wave (km/s) = 3.27024 4.10005 3.70843
# Velocity P-wave (km/s) = 5.06842 6.25459 5.69249
#
# Compressibility (1/GPa) = 0.03659796
#
# Stress axis : x y z
#
# Youngs Moduli (GPa) = 47.00622 76.81356 45.93268
#
# Poissons Ratio (x) = -0.35522 0.39730
# Poissons Ratio (y) = -0.21738 0.26216
# Poissons Ratio (z) = 0.40659 0.43841
#
# Static dielectric constant tensor:
#      x y z
#    x 1.979500 -0.012350 -0.023140 
#    y -0.012350 1.963280 -0.030510 
#    z -0.023140 -0.030510 1.941780 
# 
# From -- ./inp_files/343881.got.cif
#   From: 2010.05.17/outbox.cif.g08.bks.cpg/sg2_172_cif.got.tgz:343881.got - 2010.06.03 11:33:40.
