data_PCOD9108530
_publ_section_title
;
Structure prediction by ZEFSAII (Michael W. Deem and Ramdas Pophale) SiO2 
 PCOD9108530
Probable space group: P -1
;
_chemical_formula_sum "Si O2"
_cell_formula_units_Z 14
_cell_length_a 7.696280
_cell_length_b 10.587962
_cell_length_c 12.545319
_cell_angle_alpha 81.371121
_cell_angle_beta 99.634194
_cell_angle_gamma 43.559768
_cell_volume 636.752654
_symmetry_space_group_name_H-M "P -1"
_symmetry_group_IT_number 2
_symmetry_cell_setting 'triclinic'
loop_
_space_group_symop_operation_xyz
x,y,z
-x,-y,-z
loop_
_atom_site_type_symbol
_atom_site_label
_atom_site_fract_x
_atom_site_fract_y
_atom_site_fract_z
Si Si1 0.803079 0.847472 0.099134
Si Si2 0.845777 0.376883 0.312324
Si Si3 0.408219 0.521883 0.108514
Si Si4 0.426888 0.034088 0.361675
Si Si5 0.732173 0.081680 0.251495
Si Si6 0.183944 0.704206 0.459107
Si Si7 0.850101 0.656907 0.329649
O O1 0.836213 0.708802 0.199480
O O2 0.078559 0.700736 0.072953
O O3 0.782498 0.982623 0.156631
O O4 0.500000 0.000000 0.000000
O O5 0.556636 0.540060 0.201085
O O6 0.852556 0.271530 0.421347
O O7 0.920470 0.470709 0.360980
O O8 0.103143 0.206071 0.285477
O O9 0.563993 0.304233 0.187187
O O10 0.500000 0.500000 0.000000
O O11 0.550110 0.090092 0.308012
O O12 0.500000 0.000000 0.500000
O O13 0.571538 0.834807 0.344266
O O14 0.032304 0.906824 0.361174
O O15 0.500000 0.500000 0.500000
O O16 0.046667 0.652719 0.402755
#
# Coordination Sequence:
#
# PCOD9108530 Si02
#       7
#     2   2   2   2   2   2   2
#     4  10  24  48  73  95 134 189 236 292 361 410
#     4  12  23  42  66  99 142 176 227 291 345 415
#     4  12  30  46  68 105 138 188 248 291 348 412
#     4  10  20  40  69 104 129 177 227 275 356 419
#     4  10  24  47  68 100 146 178 234 288 350 431
#     4  10  21  41  69 102 137 180 227 282 362 420
#     4  10  23  41  68 102 137 179 227 281 349 431
#
# _framework density 21.986557999999999
#
# number of rings (size 3 to 8) (size 9 to 14) (size 15 to 20)
#    0.000    1.714    2.857    3.000    6.000    4.000 
#    0.000    0.000    0.000    0.000    0.000    0.000 
#    0.000    0.000    0.000    0.000    0.000    0.000 
#
# Total GULP energy -78143.285062 kJ/mol
# GULP energy per Si atom -5581.663219 kJ/mol
# Density = 2.193652 g / cm^3
# Si number density = 21.986558 Si / 1000 Ang^3
#
#
#
# Elastic Constant Matrix: (Units=GPa)
#
#
# Indices 1 2 3 4 5 6 
#
# 1 64.7734 60.0661 46.3017 -11.7528 0.4636 -28.0465
# 2 60.0661 126.8963 29.3499 -7.6102 -2.3304 -31.1915
# 3 46.3017 29.3499 128.8981 -2.2113 -4.0776 -24.2586
# 4 -11.7528 -7.6102 -2.2113 30.0522 -12.0169 4.2877
# 5 0.4636 -2.3304 -4.0776 -12.0169 27.3791 -5.7296
# 6 -28.0465 -31.1915 -24.2586 4.2877 -5.7296 51.9361
#
#
#
# Elastic Compliance Matrix: (Units=1/GPa)
#
#
# Indices 1 2 3 4 5 6 
#
# 1 0.042007 -0.014677 -0.009778 0.012264 0.003788 0.008708
# 2 -0.014677 0.014808 0.002379 -0.001468 0.001719 0.002390
# 3 -0.009778 0.002379 0.011048 -0.002062 0.001451 0.001639
# 4 0.012264 -0.001468 -0.002062 0.044998 0.019790 0.003246
# 5 0.003788 0.001719 0.001451 0.019790 0.047038 0.007312
# 6 0.008708 0.002390 0.001639 0.003246 0.007312 0.026697
#
#
# Mechanical properties :
#
#
# Convention : Reuss Voigt Hill
#
# Bulk Modulus (GPa) = 42.17383 65.77813 53.97598
# Shear Modulus (GPa) = 20.95096 34.19683 27.57389
#
# Velocity S-wave (km/s) = 3.09025 3.94807 3.54520
# Velocity P-wave (km/s) = 5.65298 7.12499 6.43124
#
# Compressibility (1/GPa) = 0.02371139
#
# Stress axis : x y z
#
# Youngs Moduli (GPa) = 23.80537 67.52960 90.51531
#
# Poissons Ratio (x) = 0.99112 0.88510
# Poissons Ratio (y) = 0.34939 -0.21535
# Poissons Ratio (z) = 0.23278 -0.16067
#
# Static dielectric constant tensor:
#      x y z
#    x 1.842440 -0.013770 0.035000 
#    y -0.013770 1.802790 -0.058090 
#    z 0.035000 -0.058090 1.815050 
# 
# From -- ./inp_files/390028.got.cif
#   From: 2010.05.17/outbox.cif.g08.bks.cpg/sg2_196_cif.got.tgz:390028.got - 2010.06.03 11:33:40.
