data_PCOD9108660
_publ_section_title
;
Structure prediction by ZEFSAII (Michael W. Deem and Ramdas Pophale) SiO2 
 PCOD9108660
Probable space group: P -1
;
_chemical_formula_sum "Si O2"
_cell_formula_units_Z 15
_cell_length_a 5.115908
_cell_length_b 12.663191
_cell_length_c 9.853589
_cell_angle_alpha 85.489648
_cell_angle_beta 96.548741
_cell_angle_gamma 71.871202
_cell_volume 598.286392
_symmetry_space_group_name_H-M "P -1"
_symmetry_group_IT_number 2
_symmetry_cell_setting 'triclinic'
loop_
_space_group_symop_operation_xyz
x,y,z
-x,-y,-z
loop_
_atom_site_type_symbol
_atom_site_label
_atom_site_fract_x
_atom_site_fract_y
_atom_site_fract_z
Si Si1 0.249298 0.523434 0.588315
Si Si2 0.714855 0.061180 0.556417
Si Si3 0.124348 0.204392 0.952851
Si Si4 0.647238 0.393671 0.857810
Si Si5 0.701860 0.619266 0.896144
Si Si6 0.500000 0.000000 0.000000
Si Si7 0.035526 0.938250 0.819842
Si Si8 0.708318 0.253633 0.358916
O O1 0.500000 0.500000 0.500000
O O2 0.390458 0.448962 0.735397
O O3 0.151480 0.654576 0.604639
O O4 0.000000 0.500000 0.500000
O O5 0.635971 0.187561 0.486871
O O6 0.500000 0.000000 0.500000
O O7 0.000000 0.000000 0.500000
O O8 0.806568 0.036572 0.719156
O O9 0.136012 0.299741 0.048961
O O10 0.100129 0.096619 0.049631
O O11 0.870624 0.275772 0.838995
O O12 0.417297 0.133237 0.917858
O O13 0.802047 0.487671 0.878736
O O14 0.518625 0.373909 0.996106
O O15 0.563959 0.676149 0.744580
O O16 0.311605 0.965338 0.870730
O O17 0.115706 0.834312 0.732511
#
# Coordination Sequence:
#
# PCOD9108660 Si02
#       8
#     2   2   2   2   2   1   2   2
#     4  11  28  49  73 109 153 188 245 310 378 453
#     4  10  23  41  70 104 138 188 251 297 356 437
#     4  12  22  41  67 101 145 189 238 304 370 429
#     4  10  23  41  70 106 140 189 237 303 373 445
#     4  10  20  40  70 106 137 173 246 299 362 449
#     4  12  26  42  64 104 148 190 248 312 372 440
#     4  11  24  44  68 101 143 191 245 306 369 442
#     4  10  21  47  70 104 139 194 240 301 370 442
#
# _framework density 25.071605999999999
#
# number of rings (size 3 to 8) (size 9 to 14) (size 15 to 20)
#    0.000    1.333    2.667    1.600    3.733    5.333 
#    2.400    0.000    0.000    0.000    0.000    0.000 
#    0.000    0.000    0.000    0.000    0.000    0.000 
#
# Total GULP energy -83666.765214 kJ/mol
# GULP energy per Si atom -5577.784348 kJ/mol
# Density = 2.501454 g / cm^3
# Si number density = 25.071606 Si / 1000 Ang^3
#
#
#
# Elastic Constant Matrix: (Units=GPa)
#
#
# Indices 1 2 3 4 5 6 
#
# 1 91.3828 25.8040 60.5687 1.0226 15.0933 14.4234
# 2 25.8040 175.1570 112.6427 -23.8572 25.2964 2.5644
# 3 60.5687 112.6427 112.8995 -13.2100 28.0284 14.4680
# 4 1.0226 -23.8572 -13.2100 62.4780 6.7951 3.4059
# 5 15.0933 25.2964 28.0284 6.7951 43.6173 15.1130
# 6 14.4234 2.5644 14.4680 3.4059 15.1130 35.7369
#
#
#
# Elastic Compliance Matrix: (Units=1/GPa)
#
#
# Indices 1 2 3 4 5 6 
#
# 1 0.025250 0.013704 -0.027647 -0.001155 0.001425 -0.000474
# 2 0.013704 0.024955 -0.032594 0.002162 -0.000669 0.005951
# 3 -0.027647 -0.032594 0.059166 0.001711 -0.007190 -0.007578
# 4 -0.001155 0.002162 0.001711 0.017726 -0.004684 -0.000090
# 5 0.001425 -0.000669 -0.007190 -0.004684 0.031860 -0.010643
# 6 -0.000474 0.005951 -0.007578 -0.000090 -0.010643 0.035324
#
#
# Mechanical properties :
#
#
# Convention : Reuss Voigt Hill
#
# Bulk Modulus (GPa) = 61.36117 86.38557 73.87337
# Shear Modulus (GPa) = 17.07723 40.39471 28.73597
#
# Velocity S-wave (km/s) = 2.61269 4.01830 3.38917
# Velocity P-wave (km/s) = 5.79906 7.48728 6.69658
#
# Compressibility (1/GPa) = 0.01629695
#
# Stress axis : x y z
#
# Youngs Moduli (GPa) = 39.60349 40.07180 16.90171
#
# Poissons Ratio (x) = -0.54913 0.46728
# Poissons Ratio (y) = -0.54271 0.55089
# Poissons Ratio (z) = 1.09492 1.30609
#
# Static dielectric constant tensor:
#      x y z
#    x 1.560840 0.220490 0.025030 
#    y 0.220490 1.941010 -0.077260 
#    z 0.025030 -0.077260 2.004930 
# 
# From -- ./inp_files/363094.got.cif
#   From: 2010.05.17/outbox.cif.g08.bks.cpg/sg2_182_cif.got.tgz:363094.got - 2010.06.03 11:33:40.
