data_PCOD9108175
_publ_section_title
;
Structure prediction by ZEFSAII (Michael W. Deem and Ramdas Pophale) SiO2 
 PCOD9108175
Probable space group: P -1
;
_chemical_formula_sum "Si O2"
_cell_formula_units_Z 16
_cell_length_a 11.373203
_cell_length_b 13.174330
_cell_length_c 12.922736
_cell_angle_alpha 42.134259
_cell_angle_beta 90.409856
_cell_angle_gamma 57.652003
_cell_volume 769.772377
_symmetry_space_group_name_H-M "P -1"
_symmetry_group_IT_number 2
_symmetry_cell_setting 'triclinic'
loop_
_space_group_symop_operation_xyz
x,y,z
-x,-y,-z
loop_
_atom_site_type_symbol
_atom_site_label
_atom_site_fract_x
_atom_site_fract_y
_atom_site_fract_z
Si Si1 0.355397 0.361293 0.182607
Si Si2 0.677520 0.882135 0.159704
Si Si3 0.211675 0.192125 0.379796
Si Si4 0.797459 0.328960 0.843724
Si Si5 0.810727 0.148248 0.685385
Si Si6 0.576267 0.293030 0.759133
Si Si7 0.992636 0.144516 0.309275
Si Si8 0.892566 0.552333 0.599733
O O1 0.269778 0.278205 0.246210
O O2 0.315523 0.477163 0.207083
O O3 0.587785 0.103251 0.364249
O O4 0.231469 0.590388 0.929344
O O5 0.709229 0.793865 0.343532
O O6 0.892906 0.624149 0.308196
O O7 0.500000 0.000000 0.000000
O O8 0.640014 0.098948 0.985247
O O9 0.073765 0.214341 0.306826
O O10 0.122186 0.356625 0.357659
O O11 0.656890 0.367094 0.748939
O O12 0.879981 0.384544 0.737342
O O13 0.984766 0.042450 0.106914
O O14 0.683915 0.163736 0.745878
O O15 0.660377 0.444828 0.451476
O O16 0.877181 0.024503 0.665763
O O17 0.000000 0.000000 0.500000
#
# Coordination Sequence:
#
# PCOD9108175 Si02
#       8
#     2   2   2   2   2   2   2   2
#     4   9  21  40  64  93 118 162 206 250 302 362
#     4  11  26  42  58  92 131 159 198 254 311 365
#     4  10  21  42  64  89 121 163 207 249 300 363
#     4  10  20  40  67  90 122 156 209 254 296 366
#     4  10  23  38  62  94 120 161 212 245 305 363
#     4  11  23  39  65  91 119 168 203 251 309 360
#     4  11  24  40  61  93 127 161 202 259 306 358
#     4  10  24  41  63  90 123 162 203 251 308 361
#
# _framework density 20.785366
#
# number of rings (size 3 to 8) (size 9 to 14) (size 15 to 20)
#    0.000    1.750    1.250    1.500    3.500    6.500 
#    0.000    0.000    0.000    0.000    0.000    0.000 
#    0.000    0.000    0.000    0.000    0.000    0.000 
#
# Total GULP energy -89347.581833 kJ/mol
# GULP energy per Si atom -5584.223865 kJ/mol
# Density = 2.073806 g / cm^3
# Si number density = 20.785366 Si / 1000 Ang^3
#
#
#
# Elastic Constant Matrix: (Units=GPa)
#
#
# Indices 1 2 3 4 5 6 
#
# 1 52.9980 24.1931 14.9785 13.6600 7.1779 14.5885
# 2 24.1931 52.3082 25.3299 3.0962 -0.6003 11.9499
# 3 14.9785 25.3299 128.6713 5.9256 -2.6233 0.2916
# 4 13.6600 3.0962 5.9256 36.1199 -4.3409 6.1045
# 5 7.1779 -0.6003 -2.6233 -4.3409 24.9059 1.4250
# 6 14.5885 11.9499 0.2916 6.1045 1.4250 14.4213
#
#
#
# Elastic Compliance Matrix: (Units=1/GPa)
#
#
# Indices 1 2 3 4 5 6 
#
# 1 0.033106 -0.009259 -0.001773 -0.009150 -0.010351 -0.020886
# 2 -0.009259 0.029540 -0.004845 0.005343 0.004817 -0.017752
# 3 -0.001773 -0.004845 0.008995 -0.001332 0.000760 0.006116
# 4 -0.009150 0.005343 -0.001332 0.033745 0.009098 -0.010328
# 5 -0.010351 0.004817 0.000760 0.009098 0.045021 -0.001836
# 6 -0.020886 -0.017752 0.006116 -0.010328 -0.001836 0.109609
#
#
# Mechanical properties :
#
#
# Convention : Reuss Voigt Hill
#
# Bulk Modulus (GPa) = 25.07126 40.33117 32.70121
# Shear Modulus (GPa) = 16.38987 26.38780 21.38884
#
# Velocity S-wave (km/s) = 2.81112 3.56692 3.21134
# Velocity P-wave (km/s) = 4.75654 6.03404 5.43297
#
# Compressibility (1/GPa) = 0.03988631
#
# Stress axis : x y z
#
# Youngs Moduli (GPa) = 30.20633 33.85205 111.17368
#
# Poissons Ratio (x) = 0.31343 0.19716
# Poissons Ratio (y) = 0.27967 0.53864
# Poissons Ratio (z) = 0.05357 0.16401
#
# Static dielectric constant tensor:
#      x y z
#    x 1.747740 -0.018980 -0.013510 
#    y -0.018980 1.751230 0.011890 
#    z -0.013510 0.011890 1.756600 
# 
# From -- ./inp_files/427601.got.cif
#   From: 2010.05.17/outbox.cif.g08.bks.cpg/sg2_214_cif.got.tgz:427601.got - 2010.06.03 11:33:40.
