data_PCOD9108069
_publ_section_title
;
Structure prediction by ZEFSAII (Michael W. Deem and Ramdas Pophale) SiO2 
 PCOD9108069
Probable space group: P -1
;
_chemical_formula_sum "Si O2"
_cell_formula_units_Z 14
_cell_length_a 5.910185
_cell_length_b 9.803496
_cell_length_c 17.641007
_cell_angle_alpha 45.311901
_cell_angle_beta 61.807334
_cell_angle_gamma 60.897475
_cell_volume 620.788537
_symmetry_space_group_name_H-M "P -1"
_symmetry_group_IT_number 2
_symmetry_cell_setting 'triclinic'
loop_
_space_group_symop_operation_xyz
x,y,z
-x,-y,-z
loop_
_atom_site_type_symbol
_atom_site_label
_atom_site_fract_x
_atom_site_fract_y
_atom_site_fract_z
Si Si1 0.379074 0.995531 0.604739
Si Si2 0.522991 0.611456 0.104582
Si Si3 0.068201 0.398960 0.747400
Si Si4 0.715298 0.012068 0.077959
Si Si5 0.485524 0.746969 0.839845
Si Si6 0.256253 0.403056 0.549440
Si Si7 0.061435 0.701228 0.744100
O O1 0.372162 0.203117 0.563140
O O2 0.500000 0.000000 0.500000
O O3 0.484068 0.844991 0.717396
O O4 0.120691 0.914550 0.658269
O O5 0.574998 0.464573 0.081432
O O6 0.730053 0.484591 0.179076
O O7 0.225733 0.617556 0.177539
O O8 0.508242 0.836061 0.994879
O O9 0.121699 0.370702 0.662158
O O10 0.070670 0.618056 0.689661
O O11 0.285224 0.216042 0.822276
O O12 0.694783 0.114012 0.124596
O O13 0.000000 0.000000 0.000000
O O14 0.790500 0.713867 0.825439
O O15 0.500000 0.500000 0.500000
O O16 0.000000 0.500000 0.500000
#
# Coordination Sequence:
#
# PCOD9108069 Si02
#       7
#     2   2   2   2   2   2   2
#     4  11  25  44  68  99 135 186 231 289 359 427
#     4   9  21  39  66  95 133 186 229 288 350 425
#     4  10  22  43  66  99 140 180 235 295 354 421
#     4  10  20  40  66  96 137 183 230 295 354 421
#     4  10  21  41  65  96 137 178 231 288 352 430
#     4  12  29  46  73 107 143 187 239 300 366 428
#     4  10  23  41  67  96 139 182 235 287 350 433
#
# _framework density 22.551964000000002
#
# number of rings (size 3 to 8) (size 9 to 14) (size 15 to 20)
#    0.000    1.714    1.429    1.286   10.000    1.714 
#    0.000    2.857    0.000    0.000    0.000    0.000 
#    0.000    0.000    0.000    0.000    0.000    0.000 
#
# Total GULP energy -77937.206335 kJ/mol
# GULP energy per Si atom -5566.943310 kJ/mol
# Density = 2.250063 g / cm^3
# Si number density = 22.551964 Si / 1000 Ang^3
#
#
#
# Elastic Constant Matrix: (Units=GPa)
#
#
# Indices 1 2 3 4 5 6 
#
# 1 56.9236 40.4396 23.6421 -8.3880 -0.8539 7.3077
# 2 40.4396 183.8760 50.8351 14.4053 -9.2643 26.6438
# 3 23.6421 50.8351 76.0952 6.0429 11.4828 11.5174
# 4 -8.3880 14.4053 6.0429 41.5273 8.3829 4.9617
# 5 -0.8539 -9.2643 11.4828 8.3829 20.5065 -8.7564
# 6 7.3077 26.6438 11.5174 4.9617 -8.7564 36.3484
#
#
#
# Elastic Compliance Matrix: (Units=1/GPa)
#
#
# Indices 1 2 3 4 5 6 
#
# 1 0.023941 -0.004535 -0.004374 0.007770 -0.002537 -0.001774
# 2 -0.004535 0.008814 -0.005104 -0.004677 0.007978 -0.001371
# 3 -0.004374 -0.005104 0.021576 0.002317 -0.018501 -0.006989
# 4 0.007770 -0.004677 0.002317 0.031808 -0.019463 -0.007898
# 5 -0.002537 0.007978 -0.018501 -0.019463 0.080187 0.022498
# 6 -0.001774 -0.001371 -0.006989 -0.007898 0.022498 0.037586
#
#
# Mechanical properties :
#
#
# Convention : Reuss Voigt Hill
#
# Bulk Modulus (GPa) = 38.01702 60.74759 49.38231
# Shear Modulus (GPa) = 20.77228 33.14164 26.95696
#
# Velocity S-wave (km/s) = 3.03823 3.83765 3.46110
# Velocity P-wave (km/s) = 5.40388 6.82876 6.15767
#
# Compressibility (1/GPa) = 0.02630401
#
# Stress axis : x y z
#
# Youngs Moduli (GPa) = 41.76990 113.45503 46.34840
#
# Poissons Ratio (x) = 0.51456 0.20272
# Poissons Ratio (y) = 0.18944 0.23656
# Poissons Ratio (z) = 0.18270 0.57906
#
# Static dielectric constant tensor:
#      x y z
#    x 2.082880 0.106930 -0.002160 
#    y 0.106930 1.896070 -0.069610 
#    z -0.002160 -0.069610 1.901600 
# 
# From -- ./inp_files/547702.got.cif
#   From: 2010.05.17/outbox.cif.g08.bks.cpg/sg2_274_cif.got.tgz:547702.got - 2010.06.03 11:33:40.
