data_PCOD9108424
_publ_section_title
;
Structure prediction by ZEFSAII (Michael W. Deem and Ramdas Pophale) SiO2 
 PCOD9108424
Probable space group: P -1
;
_chemical_formula_sum "Si O2"
_cell_formula_units_Z 14
_cell_length_a 8.443090
_cell_length_b 19.499107
_cell_length_c 19.220440
_cell_angle_alpha 14.685919
_cell_angle_beta 54.888641
_cell_angle_gamma 55.338370
_cell_volume 655.077462
_symmetry_space_group_name_H-M "P -1"
_symmetry_group_IT_number 2
_symmetry_cell_setting 'triclinic'
loop_
_space_group_symop_operation_xyz
x,y,z
-x,-y,-z
loop_
_atom_site_type_symbol
_atom_site_label
_atom_site_fract_x
_atom_site_fract_y
_atom_site_fract_z
Si Si1 0.578886 0.730735 0.705508
Si Si2 0.009526 0.114114 0.599562
Si Si3 0.546431 0.103194 0.964107
Si Si4 0.184332 0.398271 0.599895
Si Si5 0.124192 0.322421 0.853705
Si Si6 0.740579 0.254458 0.328430
Si Si7 0.904683 0.747428 0.858761
O O1 0.803698 0.761664 0.604706
O O2 0.476302 0.700680 0.686532
O O3 0.500000 0.000000 0.500000
O O4 0.500000 0.500000 0.000000
O O5 0.899394 0.377746 0.402153
O O6 0.921252 0.928768 0.744161
O O7 0.035980 0.884465 0.878531
O O8 0.666267 0.366996 0.668811
O O9 0.330029 0.185828 0.963393
O O10 0.500000 0.000000 0.000000
O O11 0.688063 0.872349 0.190698
O O12 0.124849 0.348066 0.744604
O O13 0.000000 0.500000 0.500000
O O14 0.883086 0.307385 0.175300
O O15 0.785264 0.944332 0.642222
O O16 0.804312 0.464245 0.164890
#
# Coordination Sequence:
#
# PCOD9108424 Si02
#       7
#     2   2   2   2   2   2   2
#     4  12  24  40  62  91 123 171 220 271 325 393
#     4  12  24  40  63  93 131 171 220 274 336 379
#     4  10  20  40  68  95 129 170 219 252 305 396
#     4  11  22  41  71 104 131 170 215 263 315 390
#     4  11  23  41  64  97 132 175 215 269 323 393
#     4  10  21  38  60  86 116 151 218 270 313 372
#     4  10  21  37  61  86 114 159 206 270 319 378
#
# _framework density 21.371518999999999
#
# number of rings (size 3 to 8) (size 9 to 14) (size 15 to 20)
#    0.000    1.143    1.429    7.286    4.000    0.000 
#    0.000    5.714    0.000    1.714    0.000    0.000 
#    0.000    0.000    0.000    0.000    0.000    0.000 
#
# Total GULP energy -78164.274923 kJ/mol
# GULP energy per Si atom -5583.162495 kJ/mol
# Density = 2.132288 g / cm^3
# Si number density = 21.371519 Si / 1000 Ang^3
#
#
#
# Elastic Constant Matrix: (Units=GPa)
#
#
# Indices 1 2 3 4 5 6 
#
# 1 77.2026 33.3827 14.1139 1.2534 9.7328 -1.0606
# 2 33.3827 84.4444 34.2932 -8.5939 -2.5896 8.3753
# 3 14.1139 34.2932 149.4114 -4.5296 -1.7985 2.4999
# 4 1.2534 -8.5939 -4.5296 44.1166 -1.5270 -3.5266
# 5 9.7328 -2.5896 -1.7985 -1.5270 31.9125 -3.4900
# 6 -1.0606 8.3753 2.4999 -3.5266 -3.4900 12.3307
#
#
#
# Elastic Compliance Matrix: (Units=1/GPa)
#
#
# Indices 1 2 3 4 5 6 
#
# 1 0.016965 -0.007466 -0.000083 -0.001770 -0.005375 0.004520
# 2 -0.007466 0.017380 -0.003003 0.002545 0.002502 -0.010403
# 3 -0.000083 -0.003003 0.007389 0.000241 0.000284 0.000684
# 4 -0.001770 0.002545 0.000241 0.023771 0.002507 0.005579
# 5 -0.005375 0.002502 0.000284 0.002507 0.034209 0.008180
# 6 0.004520 -0.010403 0.000684 0.005579 0.008180 0.092325
#
#
# Mechanical properties :
#
#
# Convention : Reuss Voigt Hill
#
# Bulk Modulus (GPa) = 48.47003 52.73754 50.60379
# Shear Modulus (GPa) = 22.72529 32.95653 27.84091
#
# Velocity S-wave (km/s) = 3.26443 3.93119 3.61322
# Velocity P-wave (km/s) = 6.07764 6.73319 6.41379
#
# Compressibility (1/GPa) = 0.02063130
#
# Stress axis : x y z
#
# Youngs Moduli (GPa) = 58.94523 57.53592 135.33254
#
# Poissons Ratio (x) = 0.42957 0.01122
# Poissons Ratio (y) = 0.44009 0.40635
# Poissons Ratio (z) = 0.00489 0.17276
#
# Static dielectric constant tensor:
#      x y z
#    x 1.829790 0.012260 0.040220 
#    y 0.012260 1.807150 0.024980 
#    z 0.040220 0.024980 1.776840 
# 
# From -- ./inp_files/357931.got.cif
#   From: 2010.05.17/outbox.cif.g08.bks.cpg/sg2_179_cif.got.tgz:357931.got - 2010.06.03 11:33:40.
