data_PCOD9108871
_publ_section_title
;
Structure prediction by ZEFSAII (Michael W. Deem and Ramdas Pophale) SiO2 
 PCOD9108871
Probable space group: P -1
;
_chemical_formula_sum "Si O2"
_cell_formula_units_Z 13
_cell_length_a 15.114194
_cell_length_b 5.148810
_cell_length_c 9.668924
_cell_angle_alpha 74.365826
_cell_angle_beta 56.071959
_cell_angle_gamma 102.757743
_cell_volume 532.393987
_symmetry_space_group_name_H-M "P -1"
_symmetry_group_IT_number 2
_symmetry_cell_setting 'triclinic'
loop_
_space_group_symop_operation_xyz
x,y,z
-x,-y,-z
loop_
_atom_site_type_symbol
_atom_site_label
_atom_site_fract_x
_atom_site_fract_y
_atom_site_fract_z
Si Si1 0.711829 0.713102 0.938258
Si Si2 0.876403 0.270169 0.214247
Si Si3 0.439834 0.332529 0.276236
Si Si4 0.500000 0.000000 0.500000
Si Si5 0.728914 0.353805 0.557432
Si Si6 0.114261 0.137450 0.480772
Si Si7 0.719970 0.130594 0.113667
O O1 0.782369 0.829395 0.719392
O O2 0.568286 0.538952 0.064215
O O3 0.755108 0.481469 0.001541
O O4 0.738555 0.979555 0.983755
O O5 0.798409 0.411156 0.340866
O O6 0.791951 0.090909 0.185472
O O7 0.897328 0.073020 0.345078
O O8 0.000000 0.500000 0.000000
O O9 0.355028 0.488242 0.359239
O O10 0.475626 0.253054 0.404692
O O11 0.363461 0.002944 0.318649
O O12 0.418236 0.008070 0.702235
O O13 0.838570 0.522191 0.546425
O O14 0.000000 0.000000 0.500000
#
# Coordination Sequence:
#
# PCOD9108871 Si02
#       7
#     2   2   2   1   2   2   2
#     4  11  28  47  79 120 161 204 250 320 391 475
#     4  12  29  52  83 112 155 211 268 328 387 467
#     4  11  24  46  76 120 155 204 250 320 389 469
#     4  10  20  40  74 108 158 192 244 310 374 456
#     4  12  26  50  77 113 157 200 263 321 390 460
#     4  12  30  54  80 111 159 208 267 327 392 464
#     4  11  25  45  78 116 156 200 260 308 393 453
#
# _framework density 24.418006999999999
#
# number of rings (size 3 to 8) (size 9 to 14) (size 15 to 20)
#    0.000    0.615    3.077    2.769    8.615    4.308 
#    0.000    0.000    0.000    0.000    0.000    0.000 
#    0.000    0.000    0.000    0.000    0.000    0.000 
#
# Total GULP energy -72450.677783 kJ/mol
# GULP energy per Si atom -5573.129060 kJ/mol
# Density = 2.436243 g / cm^3
# Si number density = 24.418007 Si / 1000 Ang^3
#
#
#
# Elastic Constant Matrix: (Units=GPa)
#
#
# Indices 1 2 3 4 5 6 
#
# 1 108.9273 14.8692 42.2906 -12.2899 -0.7298 3.4202
# 2 14.8692 95.1940 21.9163 10.3738 -18.7620 -5.2802
# 3 42.2906 21.9163 174.3313 1.2920 -16.5519 5.1343
# 4 -12.2899 10.3738 1.2920 30.6514 0.8249 12.0235
# 5 -0.7298 -18.7620 -16.5519 0.8249 44.3943 -5.9523
# 6 3.4202 -5.2802 5.1343 12.0235 -5.9523 38.9087
#
#
#
# Elastic Compliance Matrix: (Units=1/GPa)
#
#
# Indices 1 2 3 4 5 6 
#
# 1 0.011460 -0.002653 -0.002633 0.007082 -0.002528 -0.003595
# 2 -0.002653 0.013470 -0.000553 -0.007951 0.006336 0.005561
# 3 -0.002633 -0.000553 0.006665 -0.001206 0.002229 -0.000009
# 4 0.007082 -0.007951 -0.001206 0.044831 -0.006729 -0.016425
# 5 -0.002528 0.006336 0.002229 -0.006729 0.027057 0.007007
# 6 -0.003595 0.005561 -0.000009 -0.016425 0.007007 0.032921
#
#
# Mechanical properties :
#
#
# Convention : Reuss Voigt Hill
#
# Bulk Modulus (GPa) = 50.20901 59.62276 54.91589
# Shear Modulus (GPa) = 32.31595 42.74932 37.53263
#
# Velocity S-wave (km/s) = 3.64187 4.18871 3.92483
# Velocity P-wave (km/s) = 6.18799 6.91840 6.56336
#
# Compressibility (1/GPa) = 0.01991674
#
# Stress axis : x y z
#
# Youngs Moduli (GPa) = 87.26038 74.23669 150.02935
#
# Poissons Ratio (x) = 0.19698 0.39505
# Poissons Ratio (y) = 0.23153 0.08297
# Poissons Ratio (z) = 0.22977 0.04105
#
# Static dielectric constant tensor:
#      x y z
#    x 2.052000 -0.018570 0.018740 
#    y -0.018570 1.995660 -0.072580 
#    z 0.018740 -0.072580 1.919930 
# 
# From -- ./inp_files/287677.got.cif
#   From: 2010.05.17/outbox.cif.g08.bks.cpg/sg2_144_cif.got.tgz:287677.got - 2010.06.03 11:33:40.
