data_PCOD9108246
_publ_section_title
;
Structure prediction by ZEFSAII (Michael W. Deem and Ramdas Pophale) SiO2 
 PCOD9108246
Probable space group: P -1
;
_chemical_formula_sum "Si O2"
_cell_formula_units_Z 16
_cell_length_a 9.204988
_cell_length_b 12.645624
_cell_length_c 10.626006
_cell_angle_alpha 132.663478
_cell_angle_beta 100.560187
_cell_angle_gamma 50.331421
_cell_volume 628.541350
_symmetry_space_group_name_H-M "P -1"
_symmetry_group_IT_number 2
_symmetry_cell_setting 'triclinic'
loop_
_space_group_symop_operation_xyz
x,y,z
-x,-y,-z
loop_
_atom_site_type_symbol
_atom_site_label
_atom_site_fract_x
_atom_site_fract_y
_atom_site_fract_z
Si Si1 0.671770 0.582091 0.742414
Si Si2 0.006922 0.267175 0.333775
Si Si3 0.450183 0.040556 0.325727
Si Si4 0.992105 0.957847 0.118321
Si Si5 0.668956 0.671212 0.227460
Si Si6 0.084968 0.310230 0.127097
Si Si7 0.395658 0.779447 0.620459
Si Si8 0.458407 0.516549 0.818545
O O1 0.722918 0.714770 0.875029
O O2 0.478611 0.692794 0.704716
O O3 0.629138 0.519938 0.811520
O O4 0.869618 0.396912 0.539106
O O5 0.250019 0.113168 0.283794
O O6 0.971964 0.400724 0.319973
O O7 0.965380 0.128363 0.181166
O O8 0.372856 0.185367 0.551502
O O9 0.558323 0.088987 0.301437
O O10 0.600750 0.808926 0.207962
O O11 0.236825 0.748838 0.996317
O O12 0.850550 0.089282 0.327181
O O13 0.875887 0.886428 0.016865
O O14 0.533629 0.618063 0.185514
O O15 0.912007 0.459863 0.113381
O O16 0.530117 0.587161 0.391648
#
# Coordination Sequence:
#
# PCOD9108246 Si02
#       8
#     2   2   2   2   2   2   2   2
#     4  12  22  37  64  96 130 167 214 266 324 380
#     4  12  22  40  66 100 129 172 220 268 319 389
#     4  10  20  40  67  94 130 171 222 262 318 393
#     4  11  26  40  64  98 136 171 213 270 327 384
#     4   9  20  40  65  94 131 173 211 269 324 379
#     4  11  23  39  62  96 134 168 214 274 324 373
#     4  11  23  40  65  98 129 175 214 266 331 379
#     4  10  23  42  61  95 136 170 210 272 326 381
#
# _framework density 25.455763000000001
#
# number of rings (size 3 to 8) (size 9 to 14) (size 15 to 20)
#    0.000    1.250    3.750    3.375    5.250    1.500 
#    0.000    6.875    0.000    0.000    0.000    0.000 
#    0.000    0.000    0.000    0.000    0.000    0.000 
#
# Total GULP energy -89390.194732 kJ/mol
# GULP energy per Si atom -5586.887171 kJ/mol
# Density = 2.539782 g / cm^3
# Si number density = 25.455763 Si / 1000 Ang^3
#
#
#
# Elastic Constant Matrix: (Units=GPa)
#
#
# Indices 1 2 3 4 5 6 
#
# 1 181.2389 55.2034 45.6654 10.2046 0.8054 35.1400
# 2 55.2034 125.7218 24.6802 26.1438 -4.4767 24.0177
# 3 45.6654 24.6802 77.7863 12.4797 -2.6542 7.1868
# 4 10.2046 26.1438 12.4797 23.6923 1.2104 3.9607
# 5 0.8054 -4.4767 -2.6542 1.2104 54.7267 10.6505
# 6 35.1400 24.0177 7.1868 3.9607 10.6505 39.6809
#
#
#
# Elastic Compliance Matrix: (Units=1/GPa)
#
#
# Indices 1 2 3 4 5 6 
#
# 1 0.008092 -0.002082 -0.003837 0.001730 0.000563 -0.005534
# 2 -0.002082 0.012462 -0.000262 -0.011986 0.002289 -0.005070
# 3 -0.003837 -0.000262 0.016210 -0.006819 0.000758 0.001097
# 4 0.001730 -0.011986 -0.006819 0.058106 -0.003004 0.001965
# 5 0.000563 0.002289 0.000758 -0.003004 0.019931 -0.007071
# 6 -0.005534 -0.005070 0.001097 0.001965 -0.007071 0.034674
#
#
# Mechanical properties :
#
#
# Convention : Reuss Voigt Hill
#
# Bulk Modulus (GPa) = 40.98058 70.64943 55.81501
# Shear Modulus (GPa) = 29.41687 40.89985 35.15836
#
# Velocity S-wave (km/s) = 3.40311 4.01272 3.72042
# Velocity P-wave (km/s) = 5.61919 7.02020 6.35840
#
# Compressibility (1/GPa) = 0.02440180
#
# Stress axis : x y z
#
# Youngs Moduli (GPa) = 123.58466 80.24140 61.69144
#
# Poissons Ratio (x) = 0.16708 0.23669
# Poissons Ratio (y) = 0.25733 0.01617
# Poissons Ratio (z) = 0.47415 0.02104
#
# Static dielectric constant tensor:
#      x y z
#    x 1.994830 -0.017290 -0.006070 
#    y -0.017290 1.946590 -0.052700 
#    z -0.006070 -0.052700 2.263820 
# 
# From -- ./inp_files/393096.got.cif
#   From: 2010.05.17/outbox.cif.g08.bks.cpg/sg2_197_cif.got.tgz:393096.got - 2010.06.03 11:33:40.
