data_PCOD9108623
_publ_section_title
;
Structure prediction by ZEFSAII (Michael W. Deem and Ramdas Pophale) SiO2 
 PCOD9108623
Probable space group: P -1
;
_chemical_formula_sum "Si O2"
_cell_formula_units_Z 16
_cell_length_a 11.560053
_cell_length_b 14.181628
_cell_length_c 6.058880
_cell_angle_alpha 108.155596
_cell_angle_beta 96.182691
_cell_angle_gamma 131.139829
_cell_volume 639.360767
_symmetry_space_group_name_H-M "P -1"
_symmetry_group_IT_number 2
_symmetry_cell_setting 'triclinic'
loop_
_space_group_symop_operation_xyz
x,y,z
-x,-y,-z
loop_
_atom_site_type_symbol
_atom_site_label
_atom_site_fract_x
_atom_site_fract_y
_atom_site_fract_z
Si Si1 0.363843 0.691972 0.436899
Si Si2 0.971316 0.234174 0.003429
Si Si3 0.393300 0.461324 0.737155
Si Si4 0.488922 0.081997 0.732475
Si Si5 0.143315 0.460422 0.876445
Si Si6 0.259331 0.258247 0.208040
Si Si7 0.297928 0.065792 0.049536
Si Si8 0.820618 0.317143 0.235879
O O1 0.457821 0.792710 0.315090
O O2 0.517804 0.783849 0.709692
O O3 0.227973 0.675606 0.526721
O O4 0.252248 0.537817 0.185982
O O5 0.954164 0.311678 0.237902
O O6 0.130620 0.259802 0.086016
O O7 0.980369 0.299008 0.819997
O O8 0.807174 0.062227 0.886138
O O9 0.257076 0.462211 0.748489
O O10 0.286054 0.301390 0.503196
O O11 0.547555 0.600877 0.726820
O O12 0.500000 0.500000 0.000000
O O13 0.500000 0.000000 0.500000
O O14 0.332006 0.018698 0.807275
O O15 0.645084 0.163072 0.991484
O O16 0.129784 0.558615 0.823423
O O17 0.206218 0.114061 0.028527
#
# Coordination Sequence:
#
# PCOD9108623 Si02
#       8
#     2   2   2   2   2   2   2   2
#     4  10  21  42  71  95 127 178 229 272 335 391
#     4  12  25  44  63 101 145 178 215 281 345 400
#     4  11  22  45  73  97 128 174 237 282 326 401
#     4  10  20  40  70 100 128 178 229 272 330 404
#     4  11  24  43  70 102 130 176 232 284 334 395
#     4  11  25  43  70  97 132 180 228 277 335 398
#     4  11  24  44  68  99 142 176 223 276 336 404
#     4  10  23  42  68  97 139 176 227 279 337 399
#
# _framework density 25.024996999999999
#
# number of rings (size 3 to 8) (size 9 to 14) (size 15 to 20)
#    0.000    1.250    1.250    5.250    3.500    2.500 
#    9.000    0.625    0.000    0.000    0.000    0.000 
#    0.000    0.000    0.000    0.000    0.000    0.000 
#
# Total GULP energy -89381.239804 kJ/mol
# GULP energy per Si atom -5586.327488 kJ/mol
# Density = 2.496804 g / cm^3
# Si number density = 25.024997 Si / 1000 Ang^3
#
#
#
# Elastic Constant Matrix: (Units=GPa)
#
#
# Indices 1 2 3 4 5 6 
#
# 1 159.8856 57.9401 30.2800 -1.1754 -28.3715 -4.5575
# 2 57.9401 133.1027 5.5454 -4.3724 -13.1156 -2.6541
# 3 30.2800 5.5454 81.2495 9.7752 -12.6601 5.3464
# 4 -1.1754 -4.3724 9.7752 29.1374 -3.2308 -3.7771
# 5 -28.3715 -13.1156 -12.6601 -3.2308 30.5619 -2.5337
# 6 -4.5575 -2.6541 5.3464 -3.7771 -2.5337 38.2810
#
#
#
# Elastic Compliance Matrix: (Units=1/GPa)
#
#
# Indices 1 2 3 4 5 6 
#
# 1 0.009046 -0.003117 -0.002487 0.001669 0.006355 0.001793
# 2 -0.003117 0.009031 0.000587 0.001236 0.001388 0.000387
# 3 -0.002487 0.000587 0.014442 -0.004831 0.003205 -0.002537
# 4 0.001669 0.001236 -0.004831 0.037325 0.004433 0.004935
# 5 0.006355 0.001388 0.003205 0.004433 0.041308 0.003577
# 6 0.001793 0.000387 -0.002537 0.004935 0.003577 0.027441
#
#
# Mechanical properties :
#
#
# Convention : Reuss Voigt Hill
#
# Bulk Modulus (GPa) = 44.47473 62.41874 53.44674
# Shear Modulus (GPa) = 32.02617 38.29421 35.16019
#
# Velocity S-wave (km/s) = 3.58126 3.91607 3.75240
# Velocity P-wave (km/s) = 5.90858 6.74123 6.33859
#
# Compressibility (1/GPa) = 0.02248468
#
# Stress axis : x y z
#
# Youngs Moduli (GPa) = 110.54251 110.73435 69.24204
#
# Poissons Ratio (x) = 0.34521 0.17222
# Poissons Ratio (y) = 0.34462 -0.04068
# Poissons Ratio (z) = 0.27494 -0.06506
#
# Static dielectric constant tensor:
#      x y z
#    x 2.019310 0.023550 -0.018750 
#    y 0.023550 2.065250 -0.022100 
#    z -0.018750 -0.022100 2.186710 
# 
# From -- ./inp_files/78388.got.cif
#   From: 2010.05.17/outbox.cif.g08.bks.cpg/sg2_40_cif.got.tgz:78388.got - 2010.06.03 11:33:40.
