data_PCOD9108882
_publ_section_title
;
Structure prediction by ZEFSAII (Michael W. Deem and Ramdas Pophale) SiO2 
 PCOD9108882
Probable space group: P -1
;
_chemical_formula_sum "Si O2"
_cell_formula_units_Z 12
_cell_length_a 9.984369
_cell_length_b 10.071311
_cell_length_c 8.183616
_cell_angle_alpha 92.047801
_cell_angle_beta 127.022829
_cell_angle_gamma 124.847916
_cell_volume 439.368743
_symmetry_space_group_name_H-M "P -1"
_symmetry_group_IT_number 2
_symmetry_cell_setting 'triclinic'
loop_
_space_group_symop_operation_xyz
x,y,z
-x,-y,-z
loop_
_atom_site_type_symbol
_atom_site_label
_atom_site_fract_x
_atom_site_fract_y
_atom_site_fract_z
Si Si1 0.181404 0.234200 0.656204
Si Si2 0.652904 0.756699 0.555712
Si Si3 0.329432 0.915324 0.031420
Si Si4 0.193292 0.860961 0.407244
Si Si5 0.603457 0.752436 0.868898
Si Si6 0.846940 0.451908 0.685995
O O1 0.295076 0.307088 0.562235
O O2 0.997367 0.239403 0.584385
O O3 0.369987 0.309699 0.946280
O O4 0.000000 0.000000 0.500000
O O5 0.703409 0.740063 0.777519
O O6 0.792377 0.982225 0.649787
O O7 0.356099 0.613305 0.336859
O O8 0.522952 0.998504 0.322214
O O9 0.250038 0.022186 0.990904
O O10 0.096679 0.681094 0.857194
O O11 0.500000 0.000000 0.000000
O O12 0.108535 0.676902 0.249246
O O13 0.322680 0.633703 0.608554
#
# Coordination Sequence:
#
# PCOD9108882 Si02
#       6
#     2   2   2   2   2   2
#     4  10  20  40  74  99 137 187 226 281 354 416
#     4   9  20  42  70 101 138 180 233 285 342 412
#     4  11  22  41  71 102 137 182 235 288 344 413
#     4  10  21  39  68 103 142 177 226 290 351 414
#     4   9  22  42  68 101 136 182 236 280 342 413
#     4   9  22  42  71 102 134 183 234 286 347 408
#
# _framework density 27.311909
#
# number of rings (size 3 to 8) (size 9 to 14) (size 15 to 20)
#    1.000    1.333    0.000    2.500    0.000    6.000 
#    0.000    1.667   11.000   17.000    0.000    0.000 
#    0.000    0.000    0.000    0.000    0.000    0.000 
#
# Total GULP energy -67217.653147 kJ/mol
# GULP energy per Si atom -5601.471096 kJ/mol
# Density = 2.724975 g / cm^3
# Si number density = 27.311909 Si / 1000 Ang^3
#
#
#
# Elastic Constant Matrix: (Units=GPa)
#
#
# Indices 1 2 3 4 5 6 
#
# 1 177.6074 56.2730 32.1023 10.8474 -22.2633 21.4043
# 2 56.2730 178.3179 60.6529 28.8921 -9.0344 13.9465
# 3 32.1023 60.6529 161.1441 -5.6992 0.7217 13.1201
# 4 10.8474 28.8921 -5.6992 49.6557 12.0251 7.9373
# 5 -22.2633 -9.0344 0.7217 12.0251 38.5884 -7.4585
# 6 21.4043 13.9465 13.1201 7.9373 -7.4585 43.8066
#
#
#
# Elastic Compliance Matrix: (Units=1/GPa)
#
#
# Indices 1 2 3 4 5 6 
#
# 1 0.006997 -0.001360 -0.000802 -0.001466 0.003837 -0.001826
# 2 -0.001360 0.008076 -0.003021 -0.005556 0.002993 0.000514
# 3 -0.000802 -0.003021 0.007833 0.003900 -0.002958 -0.002203
# 4 -0.001466 -0.005556 0.003900 0.027989 -0.012065 -0.005808
# 5 0.003837 0.002993 -0.002958 -0.012065 0.033804 0.005999
# 6 -0.001826 0.000514 -0.002203 -0.005808 0.005999 0.026290
#
#
# Mechanical properties :
#
#
# Convention : Reuss Voigt Hill
#
# Bulk Modulus (GPa) = 79.74590 90.56951 85.15771
# Shear Modulus (GPa) = 39.82939 50.94622 45.38781
#
# Velocity S-wave (km/s) = 3.82293 4.32365 4.08098
# Velocity P-wave (km/s) = 6.98198 7.62617 7.31117
#
# Compressibility (1/GPa) = 0.01253983
#
# Stress axis : x y z
#
# Youngs Moduli (GPa) = 142.91592 123.81928 127.66712
#
# Poissons Ratio (x) = 0.16844 0.10242
# Poissons Ratio (y) = 0.19442 0.38563
# Poissons Ratio (z) = 0.11465 0.37401
#
# Static dielectric constant tensor:
#      x y z
#    x 2.110800 0.044730 -0.013570 
#    y 0.044730 2.143720 -0.050070 
#    z -0.013570 -0.050070 2.181090 
# 
# From -- ./inp_files/259214.got.cif
#   From: 2010.05.17/outbox.cif.g08.bks.cpg/sg2_130_cif.got.tgz:259214.got - 2010.06.03 11:33:40.
