data_PCOD9108199
_publ_section_title
;
Structure prediction by ZEFSAII (Michael W. Deem and Ramdas Pophale) SiO2 
 PCOD9108199
Probable space group: P -1
;
_chemical_formula_sum "Si O2"
_cell_formula_units_Z 16
_cell_length_a 23.209324
_cell_length_b 9.468380
_cell_length_c 14.701384
_cell_angle_alpha 140.393569
_cell_angle_beta 160.967067
_cell_angle_gamma 39.202420
_cell_volume 654.574152
_symmetry_space_group_name_H-M "P -1"
_symmetry_group_IT_number 2
_symmetry_cell_setting 'triclinic'
loop_
_space_group_symop_operation_xyz
x,y,z
-x,-y,-z
loop_
_atom_site_type_symbol
_atom_site_label
_atom_site_fract_x
_atom_site_fract_y
_atom_site_fract_z
Si Si1 0.466623 0.768375 0.375058
Si Si2 0.100997 0.979037 0.426332
Si Si3 0.299556 0.949812 0.881047
Si Si4 0.557548 0.233522 0.469367
Si Si5 0.152423 0.521658 0.469544
Si Si6 0.123578 0.079248 0.303001
Si Si7 0.877978 0.647512 0.969194
Si Si8 0.577099 0.421048 0.237371
O O1 0.354290 0.805665 0.318065
O O2 0.426189 0.590381 0.152293
O O3 0.500000 0.000000 0.500000
O O4 0.671267 0.644364 0.648493
O O5 0.175226 0.084335 0.679976
O O6 0.076174 0.078316 0.338401
O O7 0.267670 0.752776 0.560310
O O8 0.920025 0.896312 0.141406
O O9 0.192272 0.770042 0.675355
O O10 0.464999 0.765171 0.987676
O O11 0.387640 0.111636 0.152849
O O12 0.500000 0.500000 0.500000
O O13 0.691254 0.109166 0.530228
O O14 0.313702 0.435128 0.592264
O O15 0.968402 0.562043 0.157043
O O16 0.142572 0.332184 0.432492
O O17 0.000000 0.000000 0.000000
O O18 0.000000 0.500000 0.000000
#
# Coordination Sequence:
#
# PCOD9108199 Si02
#       8
#     2   2   2   2   2   2   2   2
#     4  12  23  37  60 100 135 162 208 274 333 361
#     4   8  18  35  67  88 110 169 229 248 295 371
#     4   7  19  45  67  86 121 175 232 247 303 408
#     4  12  28  42  62 100 137 162 201 288 344 361
#     4   8  18  35  67  91 114 162 231 251 288 371
#     4  12  24  36  64 102 134 164 215 265 317 387
#     4  10  16  35  67  82 121 175 222 242 295 399
#     4   7  16  38  64  85 114 167 222 242 297 391
#
# _framework density 24.443373999999999
#
# number of rings (size 3 to 8) (size 9 to 14) (size 15 to 20)
#    1.500    1.000    2.500    2.250    3.500    1.000 
#    0.000    2.500    0.000    0.750    0.000    0.000 
#    0.000    0.000    0.000    0.000    0.000    0.000 
#
# Total GULP energy -89146.973614 kJ/mol
# GULP energy per Si atom -5571.685851 kJ/mol
# Density = 2.438774 g / cm^3
# Si number density = 24.443374 Si / 1000 Ang^3
#
#
#
# Elastic Constant Matrix: (Units=GPa)
#
#
# Indices 1 2 3 4 5 6 
#
# 1 87.4025 35.5758 -2.7561 0.6439 -10.9234 16.4390
# 2 35.5758 102.3665 26.6842 18.5578 -14.6649 23.6262
# 3 -2.7561 26.6842 60.1554 0.6180 -10.0340 0.6932
# 4 0.6439 18.5578 0.6180 20.2727 -7.1229 -6.8190
# 5 -10.9234 -14.6649 -10.0340 -7.1229 20.2287 -1.0231
# 6 16.4390 23.6262 0.6932 -6.8190 -1.0231 57.0274
#
#
#
# Elastic Compliance Matrix: (Units=1/GPa)
#
#
# Indices 1 2 3 4 5 6 
#
# 1 0.015590 -0.006963 0.005221 0.008728 0.009010 -0.000468
# 2 -0.006963 0.020388 -0.009324 -0.021779 -0.001726 -0.008962
# 3 0.005221 -0.009324 0.022866 0.013296 0.012280 0.003890
# 4 0.008728 -0.021779 0.013296 0.083241 0.025677 0.016760
# 5 0.009010 -0.001726 0.012280 0.025677 0.068296 0.002264
# 6 -0.000468 -0.008962 0.003890 0.016760 0.002264 0.023380
#
#
# Mechanical properties :
#
#
# Convention : Reuss Voigt Hill
#
# Bulk Modulus (GPa) = 27.23771 40.99248 34.11509
# Shear Modulus (GPa) = 18.64770 32.20046 25.42408
#
# Velocity S-wave (km/s) = 2.76505 3.63347 3.22859
# Velocity P-wave (km/s) = 4.62184 5.86597 5.28067
#
# Compressibility (1/GPa) = 0.03671381
#
# Stress axis : x y z
#
# Youngs Moduli (GPa) = 64.14494 49.04745 43.73344
#
# Poissons Ratio (x) = 0.34149 -0.22835
# Poissons Ratio (y) = 0.44661 0.40777
# Poissons Ratio (z) = -0.33493 0.45732
#
# Static dielectric constant tensor:
#      x y z
#    x 2.023580 -0.028420 -0.005810 
#    y -0.028420 1.953250 -0.054770 
#    z -0.005810 -0.054770 2.014640 
# 
# From -- ./inp_files/542687.got.cif
#   From: 2010.05.17/outbox.cif.g08.bks.cpg/sg2_272_cif.got.tgz:542687.got - 2010.06.03 11:33:40.
