data_PCOD9108297
_publ_section_title
;
Structure prediction by ZEFSAII (Michael W. Deem and Ramdas Pophale) SiO2 
 PCOD9108297
Probable space group: P -1
;
_chemical_formula_sum "Si O2"
_cell_formula_units_Z 14
_cell_length_a 18.111014
_cell_length_b 7.427092
_cell_length_c 11.225265
_cell_angle_alpha 72.179576
_cell_angle_beta 141.762593
_cell_angle_gamma 79.863878
_cell_volume 629.533416
_symmetry_space_group_name_H-M "P -1"
_symmetry_group_IT_number 2
_symmetry_cell_setting 'triclinic'
loop_
_space_group_symop_operation_xyz
x,y,z
-x,-y,-z
loop_
_atom_site_type_symbol
_atom_site_label
_atom_site_fract_x
_atom_site_fract_y
_atom_site_fract_z
Si Si1 0.267090 0.282713 0.892811
Si Si2 0.323947 0.792269 0.757310
Si Si3 0.963659 0.205081 0.182016
Si Si4 0.799641 0.240446 0.170495
Si Si5 0.399629 0.124333 0.725081
Si Si6 0.923008 0.293395 0.845292
Si Si7 0.986815 0.563981 0.281772
O O1 0.265106 0.492115 0.907500
O O2 0.167505 0.253614 0.859340
O O3 0.153826 0.414849 0.602245
O O4 0.458393 0.015771 0.165856
O O5 0.302230 0.802108 0.872773
O O6 0.146698 0.896635 0.468924
O O7 0.316889 0.007785 0.644557
O O8 0.500000 0.500000 0.000000
O O9 0.815168 0.245771 0.045622
O O10 0.989726 0.348321 0.278152
O O11 0.926267 0.336976 0.980511
O O12 0.000000 0.000000 0.500000
O O13 0.266525 0.441517 0.487507
O O14 0.500000 0.000000 0.000000
O O15 0.029182 0.289779 0.883610
O O16 0.000000 0.000000 0.000000
#
# Coordination Sequence:
#
# PCOD9108297 Si02
#       7
#     2   2   2   2   2   2   2
#     4  10  20  40  67  98 125 161 224 265 318 371
#     4  11  21  36  67  98 125 163 210 269 314 371
#     4  10  22  43  62  93 131 170 215 253 327 390
#     4   9  20  35  64  97 131 163 208 265 314 388
#     4  12  24  42  65  97 127 166 220 270 313 378
#     4  12  27  43  64  91 133 177 210 267 331 385
#     4  10  21  41  69  92 124 174 209 268 316 385
#
# _framework density 22.238690999999999
#
# number of rings (size 3 to 8) (size 9 to 14) (size 15 to 20)
#    0.000    1.429    4.286    0.429    6.000    0.000 
#    0.000    5.000    0.000    0.000    0.000    0.000 
#    0.000    0.000    0.000    0.000    0.000    0.000 
#
# Total GULP energy -78079.534819 kJ/mol
# GULP energy per Si atom -5577.109630 kJ/mol
# Density = 2.218807 g / cm^3
# Si number density = 22.238691 Si / 1000 Ang^3
#
#
#
# Elastic Constant Matrix: (Units=GPa)
#
#
# Indices 1 2 3 4 5 6 
#
# 1 211.3714 23.6099 59.2627 -14.7730 -2.5304 -14.0886
# 2 23.6099 61.5869 29.9419 -21.5575 -0.7371 0.0032
# 3 59.2627 29.9419 97.5211 -30.2784 2.8759 -10.4327
# 4 -14.7730 -21.5575 -30.2784 38.9836 -10.5814 -6.9393
# 5 -2.5304 -0.7371 2.8759 -10.5814 48.2193 -5.8767
# 6 -14.0886 0.0032 -10.4327 -6.9393 -5.8767 32.0076
#
#
#
# Elastic Compliance Matrix: (Units=1/GPa)
#
#
# Indices 1 2 3 4 5 6 
#
# 1 0.005815 -0.000744 -0.003246 -0.000286 0.000614 0.001552
# 2 -0.000744 0.021634 -0.002823 0.010579 0.002975 0.001590
# 3 -0.003246 -0.002823 0.017958 0.013236 0.002566 0.007765
# 4 -0.000286 0.010579 0.013236 0.047888 0.011908 0.016756
# 5 0.000614 0.002975 0.002566 0.011908 0.024269 0.008144
# 6 0.001552 0.001590 0.007765 0.016756 0.008144 0.039585
#
#
# Mechanical properties :
#
#
# Convention : Reuss Voigt Hill
#
# Bulk Modulus (GPa) = 31.46619 66.23426 48.85023
# Shear Modulus (GPa) = 27.56816 41.01974 34.29395
#
# Velocity S-wave (km/s) = 3.52468 4.29945 3.93120
# Velocity P-wave (km/s) = 5.54478 7.38207 6.52838
#
# Compressibility (1/GPa) = 0.03178014
#
# Stress axis : x y z
#
# Youngs Moduli (GPa) = 171.96690 46.22458 55.68503
#
# Poissons Ratio (x) = 0.03439 0.18077
# Poissons Ratio (y) = 0.12793 0.15720
# Poissons Ratio (z) = 0.55825 0.13050
#
# Static dielectric constant tensor:
#      x y z
#    x 1.978920 0.049200 -0.005590 
#    y 0.049200 1.989040 0.048620 
#    z -0.005590 0.048620 1.836220 
# 
# From -- ./inp_files/461100.got.cif
#   From: 2010.05.17/outbox.cif.g08.bks.cpg/sg2_231_cif.got.tgz:461100.got - 2010.06.03 11:33:40.
