data_PCOD9108067
_publ_section_title
;
Structure prediction by ZEFSAII (Michael W. Deem and Ramdas Pophale) SiO2 
 PCOD9108067
Probable space group: P -1
;
_chemical_formula_sum "Si O2"
_cell_formula_units_Z 15
_cell_length_a 8.137286
_cell_length_b 12.296079
_cell_length_c 12.422064
_cell_angle_alpha 147.949433
_cell_angle_beta 72.608852
_cell_angle_gamma 106.895651
_cell_volume 627.711978
_symmetry_space_group_name_H-M "P -1"
_symmetry_group_IT_number 2
_symmetry_cell_setting 'triclinic'
loop_
_space_group_symop_operation_xyz
x,y,z
-x,-y,-z
loop_
_atom_site_type_symbol
_atom_site_label
_atom_site_fract_x
_atom_site_fract_y
_atom_site_fract_z
Si Si1 0.253771 0.176774 0.899108
Si Si2 0.405328 0.017135 0.333815
Si Si3 0.178481 0.827325 0.794615
Si Si4 0.286215 0.736688 0.933577
Si Si5 0.849029 0.013356 0.456439
Si Si6 0.954121 0.452929 0.714632
Si Si7 0.442348 0.549527 0.431783
Si Si8 0.000000 0.500000 0.500000
O O1 0.449459 0.139660 0.801900
O O2 0.218723 0.007675 0.857253
O O3 0.146918 0.117113 0.762119
O O4 0.199708 0.395686 0.127906
O O5 0.479515 0.233467 0.449278
O O6 0.315508 0.052315 0.493557
O O7 0.290868 0.901361 0.165847
O O8 0.258599 0.839979 0.907624
O O9 0.240958 0.606053 0.539792
O O10 0.983409 0.740576 0.758799
O O11 0.468820 0.627793 0.800074
O O12 0.125319 0.565400 0.831769
O O13 0.869389 0.248181 0.612253
O O14 0.000000 0.000000 0.500000
O O15 0.020234 0.407830 0.545258
O O16 0.500000 0.500000 0.500000
#
# Coordination Sequence:
#
# PCOD9108067 Si02
#       8
#     2   2   2   2   2   2   2   1
#     4  11  25  44  68  99 132 179 223 282 333 398
#     4  11  25  42  68 100 137 177 224 275 333 401
#     4   9  20  40  62  98 133 169 223 274 335 394
#     4  10  22  40  64 101 132 179 219 273 336 397
#     4  12  26  47  69  96 136 182 228 278 328 400
#     4  11  25  44  68 100 133 179 227 277 337 399
#     4   9  20  39  63  93 133 175 216 273 326 393
#     4  10  20  40  66  96 134 168 218 274 334 390
#
# _framework density 23.89631
#
# number of rings (size 3 to 8) (size 9 to 14) (size 15 to 20)
#    0.000    1.600    1.333    2.000    1.867   10.667 
#    9.600    0.000    0.000    0.000    0.000    0.000 
#    0.000    0.000    0.000    0.000    0.000    0.000 
#
# Total GULP energy -83628.535183 kJ/mol
# GULP energy per Si atom -5575.235679 kJ/mol
# Density = 2.384192 g / cm^3
# Si number density = 23.896310 Si / 1000 Ang^3
#
#
#
# Elastic Constant Matrix: (Units=GPa)
#
#
# Indices 1 2 3 4 5 6 
#
# 1 69.5672 18.0761 12.2719 -7.5675 -5.2393 -4.1841
# 2 18.0761 137.4628 45.7436 9.6256 -3.6491 5.8733
# 3 12.2719 45.7436 59.6358 -10.1375 -11.8977 -16.4798
# 4 -7.5675 9.6256 -10.1375 18.3865 -2.6918 4.6554
# 5 -5.2393 -3.6491 -11.8977 -2.6918 40.6284 -7.1570
# 6 -4.1841 5.8733 -16.4798 4.6554 -7.1570 36.0121
#
#
#
# Elastic Compliance Matrix: (Units=1/GPa)
#
#
# Indices 1 2 3 4 5 6 
#
# 1 0.016486 -0.003998 0.003194 0.010342 0.004002 0.003488
# 2 -0.003998 0.015644 -0.018881 -0.018652 -0.007776 -0.010790
# 3 0.003194 -0.018881 0.046794 0.033622 0.018924 0.024279
# 4 0.010342 -0.018652 0.033622 0.086472 0.017329 0.011895
# 5 0.004002 -0.007776 0.018924 0.017329 0.033738 0.014858
# 6 0.003488 -0.010790 0.024279 0.011895 0.014858 0.042459
#
#
# Mechanical properties :
#
#
# Convention : Reuss Voigt Hill
#
# Bulk Modulus (GPa) = 25.28134 46.53877 35.91005
# Shear Modulus (GPa) = 16.99833 31.71035 24.35434
#
# Velocity S-wave (km/s) = 2.66998 3.64675 3.19590
# Velocity P-wave (km/s) = 4.48416 6.10322 5.35523
#
# Compressibility (1/GPa) = 0.03955487
#
# Stress axis : x y z
#
# Youngs Moduli (GPa) = 60.65725 63.92196 21.37039
#
# Poissons Ratio (x) = 0.25555 -0.06826
# Poissons Ratio (y) = 0.24250 0.40349
# Poissons Ratio (z) = -0.19375 1.20691
#
# Static dielectric constant tensor:
#      x y z
#    x 2.162270 0.164260 0.015090 
#    y 0.164260 1.726770 0.087400 
#    z 0.015090 0.087400 1.974540 
# 
# From -- ./inp_files/40290.got.cif
#   From: 2010.05.17/outbox.cif.g08.bks.cpg/sg2_21_cif.got.tgz:40290.got - 2010.06.03 11:33:40.
