data_PCOD9108970
_publ_section_title
;
Structure prediction by ZEFSAII (Michael W. Deem and Ramdas Pophale) SiO2 
 PCOD9108970
Probable space group: P -1
;
_chemical_formula_sum "Si O2"
_cell_formula_units_Z 16
_cell_length_a 8.019952
_cell_length_b 15.984735
_cell_length_c 8.976185
_cell_angle_alpha 61.351216
_cell_angle_beta 131.881804
_cell_angle_gamma 97.213262
_cell_volume 717.761969
_symmetry_space_group_name_H-M "P -1"
_symmetry_group_IT_number 2
_symmetry_cell_setting 'triclinic'
loop_
_space_group_symop_operation_xyz
x,y,z
-x,-y,-z
loop_
_atom_site_type_symbol
_atom_site_label
_atom_site_fract_x
_atom_site_fract_y
_atom_site_fract_z
Si Si1 0.024084 0.247359 0.290032
Si Si2 0.960711 0.893172 0.067744
Si Si3 0.780238 0.757162 0.893928
Si Si4 0.736453 0.313057 0.606923
Si Si5 0.680977 0.890356 0.202677
Si Si6 0.647882 0.607830 0.115657
Si Si7 0.189048 0.590553 0.741804
Si Si8 0.518936 0.294113 0.781354
O O1 0.994444 0.328054 0.336104
O O2 0.202377 0.256318 0.259242
O O3 0.135706 0.140175 0.525320
O O4 0.774789 0.263883 0.043507
O O5 0.832688 0.877901 0.154409
O O6 0.208401 0.806359 0.282161
O O7 0.801914 0.864796 0.866139
O O8 0.000000 0.000000 0.000000
O O9 0.597788 0.711808 0.905358
O O10 0.020368 0.686259 0.170344
O O11 0.742770 0.364365 0.409712
O O12 0.544514 0.344665 0.595215
O O13 0.541728 0.808459 0.190915
O O14 0.500000 0.000000 0.000000
O O15 0.839153 0.515733 0.230847
O O16 0.666098 0.636555 0.272730
O O17 0.417721 0.571265 0.999681
#
# Coordination Sequence:
#
# PCOD9108970 Si02
#       8
#     2   2   2   2   2   2   2   2
#     4  10  22  42  61  87 127 162 198 255 308 355
#     4  10  20  41  61  87 119 156 204 253 305 362
#     4   9  20  39  61  87 122 156 203 250 303 362
#     4   9  19  37  61  84 119 164 193 250 304 352
#     4  12  24  40  63  93 117 162 209 252 306 367
#     4  10  21  38  60  91 124 157 208 252 299 368
#     4  10  21  38  62  88 123 166 197 253 311 354
#     4  10  21  41  61  88 128 159 205 254 299 365
#
# _framework density 22.291513999999999
#
# number of rings (size 3 to 8) (size 9 to 14) (size 15 to 20)
#    0.750    1.250    2.500    0.750    1.750    2.000 
#    0.000    0.625    0.000    0.000    0.000    0.000 
#    0.000    0.000    0.000    0.000    0.000    0.000 
#
# Total GULP energy -89138.878016 kJ/mol
# GULP energy per Si atom -5571.179876 kJ/mol
# Density = 2.224078 g / cm^3
# Si number density = 22.291514 Si / 1000 Ang^3
#
#
#
# Elastic Constant Matrix: (Units=GPa)
#
#
# Indices 1 2 3 4 5 6 
#
# 1 89.2970 35.5093 8.1419 10.4020 -31.6153 -21.5500
# 2 35.5093 133.3026 27.8008 -5.1211 -16.3680 2.3218
# 3 8.1419 27.8008 70.5345 9.0253 -9.8066 -15.0578
# 4 10.4020 -5.1211 9.0253 30.8146 -5.6870 1.4860
# 5 -31.6153 -16.3680 -9.8066 -5.6870 37.4622 7.5882
# 6 -21.5500 2.3218 -15.0578 1.4860 7.5882 38.4488
#
#
#
# Elastic Compliance Matrix: (Units=1/GPa)
#
#
# Indices 1 2 3 4 5 6 
#
# 1 0.021603 -0.005708 0.005227 -0.007876 0.013449 0.012150
# 2 -0.005708 0.010561 -0.005511 0.005692 0.000498 -0.006313
# 3 0.005227 -0.005511 0.019562 -0.008224 0.003749 0.010502
# 4 -0.007876 0.005692 -0.008224 0.039241 0.001633 -0.009818
# 5 0.013449 0.000498 0.003749 0.001633 0.039254 0.001166
# 6 0.012150 -0.006313 0.010502 -0.009818 0.001166 0.037462
#
#
# Mechanical properties :
#
#
# Convention : Reuss Voigt Hill
#
# Bulk Modulus (GPa) = 25.16114 48.44869 36.80491
# Shear Modulus (GPa) = 25.91857 36.12393 31.02125
#
# Velocity S-wave (km/s) = 3.41355 4.02994 3.73449
# Velocity P-wave (km/s) = 5.18153 6.59054 5.92805
#
# Compressibility (1/GPa) = 0.03974383
#
# Stress axis : x y z
#
# Youngs Moduli (GPa) = 46.29023 94.68644 51.12080
#
# Poissons Ratio (x) = 0.54043 -0.26723
# Poissons Ratio (y) = 0.26420 0.28171
# Poissons Ratio (z) = -0.24198 0.52179
#
# Static dielectric constant tensor:
#      x y z
#    x 1.895790 -0.009660 0.044380 
#    y -0.009660 1.859430 0.013090 
#    z 0.044380 0.013090 1.879420 
# 
# From -- ./inp_files/201081.got.cif
#   From: 2010.05.17/outbox.cif.g08.bks.cpg/sg2_101_cif.got.tgz:201081.got - 2010.06.03 11:33:40.
