data_PCOD9108951
_publ_section_title
;
Structure prediction by ZEFSAII (Michael W. Deem and Ramdas Pophale) SiO2 
 PCOD9108951
Probable space group: P -1
;
_chemical_formula_sum "Si O2"
_cell_formula_units_Z 15
_cell_length_a 5.995155
_cell_length_b 15.558588
_cell_length_c 11.698681
_cell_angle_alpha 37.401953
_cell_angle_beta 101.294094
_cell_angle_gamma 109.971162
_cell_volume 617.476252
_symmetry_space_group_name_H-M "P -1"
_symmetry_group_IT_number 2
_symmetry_cell_setting 'triclinic'
loop_
_space_group_symop_operation_xyz
x,y,z
-x,-y,-z
loop_
_atom_site_type_symbol
_atom_site_label
_atom_site_fract_x
_atom_site_fract_y
_atom_site_fract_z
Si Si1 0.195499 0.903141 0.451295
Si Si2 0.500336 0.400116 0.923898
Si Si3 0.000000 0.000000 0.000000
Si Si4 0.694919 0.355610 0.395626
Si Si5 0.195442 0.509160 0.367243
Si Si6 0.986163 0.849955 0.932512
Si Si7 0.433630 0.261119 0.695880
Si Si8 0.702717 0.158278 0.239143
O O1 0.195152 0.754101 0.545122
O O2 0.132164 0.869610 0.613307
O O3 0.042457 0.990449 0.278481
O O4 0.467195 0.015467 0.357698
O O5 0.418082 0.541304 0.801831
O O6 0.687212 0.464789 0.773526
O O7 0.266571 0.275562 0.982168
O O8 0.620978 0.300677 0.116190
O O9 0.721669 0.894156 0.105034
O O10 0.960938 0.122561 0.959160
O O11 0.509071 0.260662 0.571176
O O12 0.912898 0.468208 0.369384
O O13 0.269898 0.371044 0.569544
O O14 0.330056 0.654251 0.299268
O O15 0.169863 0.817900 0.895420
#
# Coordination Sequence:
#
# PCOD9108951 Si02
#       8
#     2   2   1   2   2   2   2   2
#     4  10  23  42  65 100 127 174 230 277 334 398
#     4  10  22  41  64  96 130 177 223 269 338 399
#     4  12  22  40  68 104 138 162 230 278 326 412
#     4  11  22  40  67  96 137 175 226 269 334 406
#     4  10  20  41  60  92 138 180 219 265 331 406
#     4  11  22  42  65  97 133 174 219 278 341 394
#     4  10  22  38  62  96 133 182 217 268 335 396
#     4  10  22  44  69  90 134 175 223 284 336 392
#
# _framework density 24.292431000000001
#
# number of rings (size 3 to 8) (size 9 to 14) (size 15 to 20)
#    0.000    1.600    1.333    3.200    0.000    1.600 
#    7.200    6.667    0.000    0.000    0.000    0.000 
#    0.000    0.000    0.000    0.000    0.000    0.000 
#
# Total GULP energy -83639.803749 kJ/mol
# GULP energy per Si atom -5575.986917 kJ/mol
# Density = 2.423714 g / cm^3
# Si number density = 24.292431 Si / 1000 Ang^3
#
#
#
# Elastic Constant Matrix: (Units=GPa)
#
#
# Indices 1 2 3 4 5 6 
#
# 1 79.1786 26.2515 32.2944 -6.7812 -3.1365 -10.5877
# 2 26.2515 53.6126 23.3371 -19.0012 -10.3669 -20.2199
# 3 32.2944 23.3371 67.4974 -28.2827 2.3052 1.3186
# 4 -6.7812 -19.0012 -28.2827 -6.2001 -23.7974 1.0648
# 5 -3.1365 -10.3669 2.3052 -23.7974 46.1781 -13.1295
# 6 -10.5877 -20.2199 1.3186 1.0648 -13.1295 29.1585
#
#
#
# Elastic Compliance Matrix: (Units=1/GPa)
#
#
# Indices 1 2 3 4 5 6 
#
# 1 0.017426 -0.000494 -0.007817 0.001607 0.004675 0.008385
# 2 -0.000494 0.030535 -0.019157 -0.019550 0.004726 0.024703
# 3 -0.007817 -0.019157 0.025499 -0.001417 -0.013454 -0.023282
# 4 0.001607 -0.019550 -0.001417 -0.020381 -0.020839 -0.021549
# 5 0.004675 0.004726 -0.013454 -0.020839 0.016939 0.013972
# 6 0.008385 0.024703 -0.023282 -0.021549 0.013972 0.062601
#
#
# Mechanical properties :
#
#
# Convention : Reuss Voigt Hill
#
# Bulk Modulus (GPa) = 53.98200 40.45052 47.21626
# Shear Modulus (GPa) = 25.80930 21.72101 23.76516
#
# Velocity S-wave (km/s) = 3.26305 2.99347 3.13116
# Velocity P-wave (km/s) = 6.03876 5.35121 5.70535
#
# Compressibility (1/GPa) = 0.01852469
#
# Stress axis : x y z
#
# Youngs Moduli (GPa) = 57.38662 32.74939 39.21682
#
# Poissons Ratio (x) = 0.01618 0.30654
# Poissons Ratio (y) = 0.02835 0.75127
# Poissons Ratio (z) = 0.44856 0.62738
#
# Static dielectric constant tensor:
#      x y z
#    x 3.088420 0.269590 -0.123350 
#    y 0.269590 1.976810 -0.009640 
#    z -0.123350 -0.009640 2.012740 
# 
# From -- ./inp_files/134854.got.cif
#   From: 2010.05.17/outbox.cif.g08.bks.cpg/sg2_68_cif.got.tgz:134854.got - 2010.06.03 11:33:40.
