data_PCOD9108669
_publ_section_title
;
Structure prediction by ZEFSAII (Michael W. Deem and Ramdas Pophale) SiO2 
 PCOD9108669
Probable space group: P -1
;
_chemical_formula_sum "Si O2"
_cell_formula_units_Z 14
_cell_length_a 8.375584
_cell_length_b 9.800739
_cell_length_c 8.214182
_cell_angle_alpha 114.958792
_cell_angle_beta 69.234978
_cell_angle_gamma 89.985654
_cell_volume 562.596460
_symmetry_space_group_name_H-M "P -1"
_symmetry_group_IT_number 2
_symmetry_cell_setting 'triclinic'
loop_
_space_group_symop_operation_xyz
x,y,z
-x,-y,-z
loop_
_atom_site_type_symbol
_atom_site_label
_atom_site_fract_x
_atom_site_fract_y
_atom_site_fract_z
Si Si1 0.993483 0.119747 0.377935
Si Si2 0.522473 0.319867 0.397617
Si Si3 0.016889 0.390528 0.284214
Si Si4 0.306831 0.216445 0.904615
Si Si5 0.838652 0.679947 0.345876
Si Si6 0.619466 0.123783 0.569881
Si Si7 0.317886 0.948879 0.992840
O O1 0.961779 0.235069 0.290781
O O2 0.028462 0.228243 0.569826
O O3 0.178346 0.941680 0.536796
O O4 0.161638 0.997764 0.200434
O O5 0.500000 0.500000 0.500000
O O6 0.328909 0.281442 0.455508
O O7 0.598486 0.255394 0.509645
O O8 0.633585 0.226049 0.168631
O O9 0.000000 0.500000 0.500000
O O10 0.907816 0.497484 0.241938
O O11 0.213641 0.340171 0.127744
O O12 0.220261 0.268273 0.787991
O O13 0.514451 0.197699 0.802259
O O14 0.266893 0.054628 0.902996
O O15 0.500000 0.000000 0.500000
O O16 0.500000 0.000000 0.000000
#
# Coordination Sequence:
#
# PCOD9108669 Si02
#       7
#     2   2   2   2   2   2   2
#     4  10  22  41  74 106 140 195 244 297 357 441
#     4  11  23  42  73 105 147 191 241 303 366 439
#     4   9  19  39  69 105 144 181 240 295 357 433
#     4  10  22  41  72  99 145 187 234 301 366 423
#     4  10  20  40  70 109 145 186 236 304 366 430
#     4  11  23  45  70 102 149 185 237 304 365 430
#     4  11  22  45  74 108 139 193 251 302 359 444
#
# _framework density 24.884622
#
# number of rings (size 3 to 8) (size 9 to 14) (size 15 to 20)
#    0.000    1.714    2.857    1.286    0.000    0.571 
#    2.571    9.286    6.286    0.000    0.000    0.000 
#    0.000    0.000    0.000    0.000    0.000    0.000 
#
# Total GULP energy -78271.545318 kJ/mol
# GULP energy per Si atom -5590.824666 kJ/mol
# Density = 2.482798 g / cm^3
# Si number density = 24.884622 Si / 1000 Ang^3
#
#
#
# Elastic Constant Matrix: (Units=GPa)
#
#
# Indices 1 2 3 4 5 6 
#
# 1 120.6536 26.1639 63.3240 -3.2489 -41.3582 15.0636
# 2 26.1639 153.7164 51.7873 5.9939 -2.9571 -24.3539
# 3 63.3240 51.7873 181.6544 14.2811 -47.4728 8.8461
# 4 -3.2489 5.9939 14.2811 45.2798 -8.5239 -1.6121
# 5 -41.3582 -2.9571 -47.4728 -8.5239 53.8555 -4.2697
# 6 15.0636 -24.3539 8.8461 -1.6121 -4.2697 34.0054
#
#
#
# Elastic Compliance Matrix: (Units=1/GPa)
#
#
# Indices 1 2 3 4 5 6 
#
# 1 0.013674 -0.002751 -0.001590 0.003310 0.008970 -0.006331
# 2 -0.002751 0.009216 -0.002964 -0.000895 -0.003720 0.008080
# 3 -0.001590 -0.002964 0.008682 -0.001476 0.005796 -0.003019
# 4 0.003310 -0.000895 -0.001476 0.023843 0.004967 0.000031
# 5 0.008970 -0.003720 0.005796 0.004967 0.030828 -0.004039
# 6 -0.006331 0.008080 -0.003019 0.000031 -0.004039 0.038278
#
#
# Mechanical properties :
#
#
# Convention : Reuss Voigt Hill
#
# Bulk Modulus (GPa) = 58.95608 82.06385 70.50996
# Shear Modulus (GPa) = 34.53454 47.61144 41.07299
#
# Velocity S-wave (km/s) = 3.72934 4.37886 4.06709
# Velocity P-wave (km/s) = 6.50286 7.65606 7.10290
#
# Compressibility (1/GPa) = 0.01696178
#
# Stress axis : x y z
#
# Youngs Moduli (GPa) = 73.13396 108.51059 115.18184
#
# Poissons Ratio (x) = 0.29853 0.18314
# Poissons Ratio (y) = 0.20120 0.34134
# Poissons Ratio (z) = 0.11628 0.32157
#
# Static dielectric constant tensor:
#      x y z
#    x 2.078480 -0.050180 0.004050 
#    y -0.050180 2.015870 -0.012600 
#    z 0.004050 -0.012600 1.990420 
# 
# From -- ./inp_files/235540.got.cif
#   From: 2010.05.17/outbox.cif.g08.bks.cpg/sg2_118_cif.got.tgz:235540.got - 2010.06.03 11:33:40.
