data_PCOD9108397
_publ_section_title
;
Structure prediction by ZEFSAII (Michael W. Deem and Ramdas Pophale) SiO2 
 PCOD9108397
Probable space group: P -1
;
_chemical_formula_sum "Si O2"
_cell_formula_units_Z 15
_cell_length_a 8.954665
_cell_length_b 9.656950
_cell_length_c 19.098985
_cell_angle_alpha 61.066952
_cell_angle_beta 149.911166
_cell_angle_gamma 123.171701
_cell_volume 692.858742
_symmetry_space_group_name_H-M "P -1"
_symmetry_group_IT_number 2
_symmetry_cell_setting 'triclinic'
loop_
_space_group_symop_operation_xyz
x,y,z
-x,-y,-z
loop_
_atom_site_type_symbol
_atom_site_label
_atom_site_fract_x
_atom_site_fract_y
_atom_site_fract_z
Si Si1 0.744882 0.394276 0.629752
Si Si2 0.247859 0.262221 0.217292
Si Si3 0.500000 0.500000 0.000000
Si Si4 0.633060 0.537301 0.205297
Si Si5 0.430245 0.005965 0.615553
Si Si6 0.784924 0.032429 0.308943
Si Si7 0.933912 0.341000 0.209632
Si Si8 0.564032 0.133280 0.930119
O O1 0.500000 0.500000 0.500000
O O2 0.591147 0.199563 0.619315
O O3 0.955718 0.465961 0.767642
O O4 0.997536 0.435251 0.660622
O O5 0.488623 0.415186 0.239700
O O6 0.130819 0.310264 0.232667
O O7 0.391070 0.110304 0.319164
O O8 0.935594 0.205753 0.058293
O O9 0.516516 0.540514 0.910381
O O10 0.424377 0.675658 0.944929
O O11 0.570740 0.712901 0.148635
O O12 0.414856 0.980518 0.699160
O O13 0.070259 0.957765 0.457415
O O14 0.591041 0.952259 0.182690
O O15 0.947941 0.222664 0.307720
O O16 0.500000 0.000000 0.000000
#
# Coordination Sequence:
#
# PCOD9108397 Si02
#       8
#     2   2   1   2   2   2   2   2
#     4  11  24  44  72 100 137 187 242 285 356 428
#     4  12  26  44  73 108 146 183 240 295 367 424
#     4  10  20  40  68  92 136 182 226 278 346 412
#     4  11  25  42  70 104 143 185 234 299 352 432
#     4  11  26  46  72 105 139 192 241 297 356 425
#     4  11  25  46  72  99 147 187 239 295 358 427
#     4  11  23  43  70 102 142 183 228 300 357 423
#     4  12  24  44  71 107 144 186 236 294 361 425
#
# _framework density 21.649436000000001
#
# number of rings (size 3 to 8) (size 9 to 14) (size 15 to 20)
#    0.000    0.800    4.000    2.800    3.733    4.267 
#    0.000    1.333    0.000    0.000    0.000    0.000 
#    0.000    0.000    0.000    0.000    0.000    0.000 
#
# Total GULP energy -83583.101762 kJ/mol
# GULP energy per Si atom -5572.206784 kJ/mol
# Density = 2.160016 g / cm^3
# Si number density = 21.649436 Si / 1000 Ang^3
#
#
#
# Elastic Constant Matrix: (Units=GPa)
#
#
# Indices 1 2 3 4 5 6 
#
# 1 126.2950 59.8656 23.8920 -22.8840 21.5347 15.8718
# 2 59.8656 118.2881 22.6562 -24.7241 18.6960 8.4458
# 3 23.8920 22.6562 34.4040 -21.3738 13.6935 1.0529
# 4 -22.8840 -24.7241 -21.3738 44.9554 -10.1053 7.5501
# 5 21.5347 18.6960 13.6935 -10.1053 34.0813 -9.0061
# 6 15.8718 8.4458 1.0529 7.5501 -9.0061 34.8172
#
#
#
# Elastic Compliance Matrix: (Units=1/GPa)
#
#
# Indices 1 2 3 4 5 6 
#
# 1 0.012584 -0.003923 -0.001405 0.003395 -0.006092 -0.007054
# 2 -0.003923 0.012231 -0.001700 0.003666 -0.003186 -0.002746
# 3 -0.001405 -0.001700 0.049699 0.020172 -0.014427 -0.008556
# 4 0.003395 0.003666 0.020172 0.036584 -0.004633 -0.012179
# 5 -0.006092 -0.003186 -0.014427 -0.004633 0.043665 0.016286
# 6 -0.007054 -0.002746 -0.008556 -0.012179 0.016286 0.039716
#
#
# Mechanical properties :
#
#
# Convention : Reuss Voigt Hill
#
# Bulk Modulus (GPa) = 16.54100 54.64608 35.59354
# Shear Modulus (GPa) = 21.86381 34.27567 28.06974
#
# Velocity S-wave (km/s) = 3.18134 3.98328 3.60468
# Velocity P-wave (km/s) = 4.59908 6.81553 5.81391
#
# Compressibility (1/GPa) = 0.06045583
#
# Stress axis : x y z
#
# Youngs Moduli (GPa) = 79.46554 81.75819 20.12131
#
# Poissons Ratio (x) = 0.32077 0.02828
# Poissons Ratio (y) = 0.31178 0.03421
# Poissons Ratio (z) = 0.11169 0.13899
#
# Static dielectric constant tensor:
#      x y z
#    x 1.745840 -0.008770 -0.060390 
#    y -0.008770 1.869610 0.062510 
#    z -0.060390 0.062510 1.788790 
# 
# From -- ./inp_files/587948.got.cif
#   From: 2010.05.17/outbox.cif.g08.bks.cpg/sg2_294_cif.got.tgz:587948.got - 2010.06.03 11:33:40.
