data_PCOD9108204
_publ_section_title
;
Structure prediction by ZEFSAII (Michael W. Deem and Ramdas Pophale) SiO2 
 PCOD9108204
Probable space group: P -1
;
_chemical_formula_sum "Si O2"
_cell_formula_units_Z 16
_cell_length_a 11.822684
_cell_length_b 16.344768
_cell_length_c 8.945725
_cell_angle_alpha 148.642060
_cell_angle_beta 119.845680
_cell_angle_gamma 50.130035
_cell_volume 685.042336
_symmetry_space_group_name_H-M "P -1"
_symmetry_group_IT_number 2
_symmetry_cell_setting 'triclinic'
loop_
_space_group_symop_operation_xyz
x,y,z
-x,-y,-z
loop_
_atom_site_type_symbol
_atom_site_label
_atom_site_fract_x
_atom_site_fract_y
_atom_site_fract_z
Si Si1 0.062433 0.313382 0.337487
Si Si2 0.097877 0.903870 0.175102
Si Si3 0.821729 0.222134 0.630145
Si Si4 0.352546 0.363678 0.158524
Si Si5 0.513349 0.585645 0.293544
Si Si6 0.331438 0.708500 0.808682
Si Si7 0.862719 0.560062 0.117608
Si Si8 0.350307 0.183537 0.175524
O O1 0.107663 0.336125 0.568434
O O2 0.210256 0.173758 0.131331
O O3 0.000000 0.500000 0.500000
O O4 0.943006 0.246921 0.141358
O O5 0.162467 0.855284 0.310894
O O6 0.208068 0.888143 0.088082
O O7 0.946152 0.085164 0.385300
O O8 0.654890 0.278791 0.559082
O O9 0.850594 0.392520 0.918592
O O10 0.290065 0.578734 0.478431
O O11 0.531124 0.275578 0.145292
O O12 0.311345 0.272458 0.124645
O O13 0.285704 0.338127 0.921047
O O14 0.589154 0.427448 0.213895
O O15 0.615364 0.679280 0.492740
O O16 0.500000 0.500000 0.000000
O O17 0.000000 0.500000 0.000000
O O18 0.500000 0.000000 0.000000
#
# Coordination Sequence:
#
# PCOD9108204 Si02
#       8
#     2   2   2   2   2   2   2   2
#     4  12  23  43  69  97 133 178 223 260 328 403
#     4  11  23  40  64 102 133 174 213 279 328 384
#     4  11  23  39  65  98 135 167 224 273 328 386
#     4  10  23  41  68  97 127 176 224 272 324 394
#     4  11  19  38  68  96 119 172 224 263 312 393
#     4  10  20  40  67  92 132 166 225 270 321 387
#     4  12  24  43  67  98 133 178 222 273 326 402
#     4  11  25  44  67  96 134 170 212 278 335 389
#
# _framework density 23.356221000000001
#
# number of rings (size 3 to 8) (size 9 to 14) (size 15 to 20)
#    0.000    1.000    3.750    4.500    0.000    0.000 
#    2.250    1.875    0.000    0.000    0.000    0.000 
#    0.000    0.000    0.000    0.000    0.000    0.000 
#
# Total GULP energy -89522.757598 kJ/mol
# GULP energy per Si atom -5595.172350 kJ/mol
# Density = 2.330306 g / cm^3
# Si number density = 23.356221 Si / 1000 Ang^3
#
#
#
# Elastic Constant Matrix: (Units=GPa)
#
#
# Indices 1 2 3 4 5 6 
#
# 1 82.0012 -6.8233 0.4233 3.8806 -27.1067 -12.2256
# 2 -6.8233 73.8558 29.1645 -17.0704 -6.4181 -9.4374
# 3 0.4233 29.1645 74.5807 -17.8029 -19.5787 0.3844
# 4 3.8806 -17.0704 -17.8029 39.6539 -8.7249 -8.7571
# 5 -27.1067 -6.4181 -19.5787 -8.7249 42.9950 5.1328
# 6 -12.2256 -9.4374 0.3844 -8.7571 5.1328 32.2663
#
#
#
# Elastic Compliance Matrix: (Units=1/GPa)
#
#
# Indices 1 2 3 4 5 6 
#
# 1 0.017837 0.003827 0.003419 0.006071 0.013734 0.007300
# 2 0.003827 0.019123 -0.004432 0.008688 0.003959 0.008824
# 3 0.003419 -0.004432 0.020964 0.010133 0.013046 0.000424
# 4 0.006071 0.008688 0.010133 0.039304 0.016185 0.012813
# 5 0.013734 0.003959 0.013046 0.016185 0.041252 0.004037
# 6 0.007300 0.008824 0.000424 0.012813 0.004037 0.039169
#
#
# Mechanical properties :
#
#
# Convention : Reuss Voigt Hill
#
# Bulk Modulus (GPa) = 15.73514 30.66296 23.19905
# Shear Modulus (GPa) = 25.87935 36.82792 31.35363
#
# Velocity S-wave (km/s) = 3.33232 3.97519 3.66787
# Velocity P-wave (km/s) = 4.64300 5.85034 5.28128
#
# Compressibility (1/GPa) = 0.06355201
#
# Stress axis : x y z
#
# Youngs Moduli (GPa) = 56.06365 52.29231 47.70183
#
# Poissons Ratio (x) = -0.20013 -0.16310
# Poissons Ratio (y) = -0.21457 0.21143
# Poissons Ratio (z) = -0.19169 0.23177
#
# Static dielectric constant tensor:
#      x y z
#    x 1.731910 -0.013470 0.026890 
#    y -0.013470 1.869980 0.011630 
#    z 0.026890 0.011630 1.864200 
# 
# From -- ./inp_files/207301.got.cif
#   From: 2010.05.17/outbox.cif.g08.bks.cpg/sg2_104_cif.got.tgz:207301.got - 2010.06.03 11:33:40.
