data_PCOD9108592
_publ_section_title
;
Structure prediction by ZEFSAII (Michael W. Deem and Ramdas Pophale) SiO2 
 PCOD9108592
Probable space group: P -1
;
_chemical_formula_sum "Si O2"
_cell_formula_units_Z 15
_cell_length_a 10.152064
_cell_length_b 10.270762
_cell_length_c 11.518474
_cell_angle_alpha 37.311252
_cell_angle_beta 63.894752
_cell_angle_gamma 54.970132
_cell_volume 595.790508
_symmetry_space_group_name_H-M "P -1"
_symmetry_group_IT_number 2
_symmetry_cell_setting 'triclinic'
loop_
_space_group_symop_operation_xyz
x,y,z
-x,-y,-z
loop_
_atom_site_type_symbol
_atom_site_label
_atom_site_fract_x
_atom_site_fract_y
_atom_site_fract_z
Si Si1 0.031370 0.609944 0.288211
Si Si2 0.757754 0.748571 0.875978
Si Si3 0.896188 0.244307 0.243295
Si Si4 0.670127 0.401574 0.698567
Si Si5 0.302987 0.036236 0.880416
Si Si6 0.500000 0.000000 0.000000
Si Si7 0.514027 0.058717 0.584366
Si Si8 0.082762 0.737677 0.511855
O O1 0.203797 0.610858 0.238643
O O2 0.000000 0.500000 0.500000
O O3 0.000897 0.444385 0.323795
O O4 0.885711 0.858573 0.140094
O O5 0.930155 0.744876 0.836837
O O6 0.684827 0.886051 0.689439
O O7 0.635439 0.903043 0.911229
O O8 0.773009 0.480685 0.063278
O O9 0.858536 0.241990 0.396267
O O10 0.940285 0.989000 0.352987
O O11 0.619738 0.187090 0.900947
O O12 0.534355 0.663931 0.570834
O O13 0.776897 0.335066 0.587696
O O14 0.365861 0.197270 0.817370
O O15 0.385620 0.998055 0.752100
O O16 0.500000 0.000000 0.500000
#
# Coordination Sequence:
#
# PCOD9108592 Si02
#       8
#     2   2   2   2   2   1   2   2
#     4  10  20  40  69  96 133 174 230 289 336 405
#     4  10  23  43  68 101 138 190 228 291 350 417
#     4  10  22  42  69 105 138 181 235 291 351 412
#     4  11  24  44  71 105 133 189 236 290 347 421
#     4  11  22  45  69 104 134 182 232 287 354 412
#     4  10  22  42  70  98 142 176 228 284 346 422
#     4  11  26  47  65  99 144 184 234 290 353 412
#     4  10  21  40  69 105 138 173 233 292 354 409
#
# _framework density 25.176635000000001
#
# number of rings (size 3 to 8) (size 9 to 14) (size 15 to 20)
#    0.000    1.600    2.667    2.000    3.733    1.600 
#   16.800    2.000    0.000    0.000    0.000    0.000 
#    0.000    0.000    0.000    0.000    0.000    0.000 
#
# Total GULP energy -83717.053235 kJ/mol
# GULP energy per Si atom -5581.136882 kJ/mol
# Density = 2.511933 g / cm^3
# Si number density = 25.176635 Si / 1000 Ang^3
#
#
#
# Elastic Constant Matrix: (Units=GPa)
#
#
# Indices 1 2 3 4 5 6 
#
# 1 67.4592 20.0472 21.5069 0.1194 14.4495 -16.0512
# 2 20.0472 114.8028 63.2516 -1.4429 3.5088 6.4474
# 3 21.5069 63.2516 138.5243 -22.8056 11.7182 -1.3714
# 4 0.1194 -1.4429 -22.8056 55.4437 1.7484 5.6083
# 5 14.4495 3.5088 11.7182 1.7484 46.6142 -4.5956
# 6 -16.0512 6.4474 -1.3714 5.6083 -4.5956 27.0189
#
#
#
# Elastic Compliance Matrix: (Units=1/GPa)
#
#
# Indices 1 2 3 4 5 6 
#
# 1 0.020126 -0.003312 -0.001423 -0.001823 -0.004350 0.012313
# 2 -0.003312 0.012608 -0.005634 -0.001535 0.001082 -0.004760
# 3 -0.001423 -0.005634 0.010915 0.004433 -0.002067 -0.000218
# 4 -0.001823 -0.001535 0.004433 0.020384 -0.001692 -0.005011
# 5 -0.004350 0.001082 -0.002067 -0.001692 0.023440 0.001391
# 6 0.012313 -0.004760 -0.000218 -0.005011 0.001391 0.046727
#
#
# Mechanical properties :
#
#
# Convention : Reuss Voigt Hill
#
# Bulk Modulus (GPa) = 43.64634 58.93307 51.28970
# Shear Modulus (GPa) = 30.75494 40.21406 35.48450
#
# Velocity S-wave (km/s) = 3.49888 4.00093 3.75830
# Velocity P-wave (km/s) = 5.80488 6.69342 6.26492
#
# Compressibility (1/GPa) = 0.02291143
#
# Stress axis : x y z
#
# Youngs Moduli (GPa) = 49.68614 79.31442 91.61754
#
# Poissons Ratio (x) = 0.26270 0.13034
# Poissons Ratio (y) = 0.16457 0.51618
# Poissons Ratio (z) = 0.07069 0.44686
#
# Static dielectric constant tensor:
#      x y z
#    x 0.804300 -0.608270 0.440580 
#    y -0.608270 1.656420 0.179320 
#    z 0.440580 0.179320 1.908560 
# 
# From -- ./inp_files/422762.got.cif
#   From: 2010.05.17/outbox.cif.g08.bks.cpg/sg2_212_cif.got.tgz:422762.got - 2010.06.03 11:33:40.
