data_PCOD9108938
_publ_section_title
;
Structure prediction by ZEFSAII (Michael W. Deem and Ramdas Pophale) SiO2 
 PCOD9108938
Probable space group: P -1
;
_chemical_formula_sum "Si O2"
_cell_formula_units_Z 16
_cell_length_a 8.197050
_cell_length_b 17.847460
_cell_length_c 13.603547
_cell_angle_alpha 157.326642
_cell_angle_beta 76.455165
_cell_angle_gamma 92.737398
_cell_volume 666.332106
_symmetry_space_group_name_H-M "P -1"
_symmetry_group_IT_number 2
_symmetry_cell_setting 'triclinic'
loop_
_space_group_symop_operation_xyz
x,y,z
-x,-y,-z
loop_
_atom_site_type_symbol
_atom_site_label
_atom_site_fract_x
_atom_site_fract_y
_atom_site_fract_z
Si Si1 0.759555 0.929714 0.665494
Si Si2 0.902217 0.818855 0.710513
Si Si3 0.239015 0.050760 0.777172
Si Si4 0.081217 0.731626 0.771906
Si Si5 0.568805 0.652418 0.830994
Si Si6 0.884482 0.118918 0.566959
Si Si7 0.312600 0.579313 0.274178
Si Si8 0.776080 0.571950 0.098980
O O1 0.768369 0.830279 0.652766
O O2 0.965907 0.890401 0.550054
O O3 0.692868 0.801585 0.442269
O O4 0.627780 0.186787 0.994818
O O5 0.921176 0.743792 0.729770
O O6 0.107753 0.660154 0.449829
O O7 0.878341 0.064306 0.012703
O O8 0.312664 0.806453 0.516339
O O9 0.350833 0.182819 0.946122
O O10 0.225617 0.006854 0.611449
O O11 0.029610 0.207803 0.037619
O O12 0.276346 0.521811 0.473509
O O13 0.554138 0.535542 0.791511
O O14 0.000000 0.000000 0.500000
O O15 0.754012 0.372409 0.910412
O O16 0.303716 0.438037 0.010398
O O17 0.000000 0.500000 0.000000
#
# Coordination Sequence:
#
# PCOD9108938 Si02
#       8
#     2   2   2   2   2   2   2   2
#     4  11  21  38  56  94 118 144 197 249 292 342
#     4   9  16  34  63  82 109 158 198 235 289 348
#     4  10  20  41  60  86 116 157 204 232 277 369
#     4   9  18  36  61  84 110 161 199 230 286 357
#     4  11  24  34  61  90 122 151 192 247 301 331
#     4  10  21  38  62  85 115 156 199 239 283 352
#     4   9  18  38  58  81 114 161 193 231 285 359
#     4   9  17  34  59  78 112 153 194 231 281 349
#
# _framework density 24.012046999999999
#
# number of rings (size 3 to 8) (size 9 to 14) (size 15 to 20)
#    0.000    2.250    5.000    1.125    3.500    1.000 
#    2.250    1.875    0.000    0.000    0.000    0.000 
#    0.000    0.000    0.000    0.000    0.000    0.000 
#
# Total GULP energy -89218.631428 kJ/mol
# GULP energy per Si atom -5576.164464 kJ/mol
# Density = 2.395739 g / cm^3
# Si number density = 24.012047 Si / 1000 Ang^3
#
#
#
# Elastic Constant Matrix: (Units=GPa)
#
#
# Indices 1 2 3 4 5 6 
#
# 1 38.2117 -11.4677 17.4869 -7.4114 -3.0844 9.5937
# 2 -11.4677 57.4801 7.2497 -6.3287 -9.4450 -9.0277
# 3 17.4869 7.2497 132.0063 -4.8328 -5.5987 -2.7574
# 4 -7.4114 -6.3287 -4.8328 21.3685 -17.1483 0.1574
# 5 -3.0844 -9.4450 -5.5987 -17.1483 36.6442 4.7785
# 6 9.5937 -9.0277 -2.7574 0.1574 4.7785 17.2129
#
#
#
# Elastic Compliance Matrix: (Units=1/GPa)
#
#
# Indices 1 2 3 4 5 6 
#
# 1 0.057651 0.019729 -0.005636 0.057172 0.040317 -0.034403
# 2 0.019729 0.029348 -0.001849 0.036339 0.026413 -0.003565
# 3 -0.005636 -0.001849 0.008428 -0.001191 -0.000707 0.003729
# 4 0.057172 0.036339 -0.001191 0.148473 0.088554 -0.038938
# 5 0.040317 0.026413 -0.000707 0.088554 0.083075 -0.032604
# 6 -0.034403 -0.003565 0.003729 -0.038938 -0.032604 0.085405
#
#
# Mechanical properties :
#
#
# Convention : Reuss Voigt Hill
#
# Bulk Modulus (GPa) = 8.33930 28.24846 18.29388
# Shear Modulus (GPa) = 11.68598 29.34040 20.51319
#
# Velocity S-wave (km/s) = 2.20846 3.49937 2.92599
# Velocity P-wave (km/s) = 3.15967 5.30257 4.36468
#
# Compressibility (1/GPa) = 0.11991414
#
# Stress axis : x y z
#
# Youngs Moduli (GPa) = 17.34579 34.07407 118.65417
#
# Poissons Ratio (x) = -0.67225 0.66875
# Poissons Ratio (y) = -0.34222 0.21941
# Poissons Ratio (z) = 0.09776 0.06301
#
# Static dielectric constant tensor:
#      x y z
#    x 2.035790 -0.043080 -0.042310 
#    y -0.043080 1.965710 0.006660 
#    z -0.042310 0.006660 1.960140 
# 
# From -- ./inp_files/214522.got.cif
#   From: 2010.05.17/outbox.cif.g08.bks.cpg/sg2_108_cif.got.tgz:214522.got - 2010.06.03 11:33:40.
