data_PCOD9108242
_publ_section_title
;
Structure prediction by ZEFSAII (Michael W. Deem and Ramdas Pophale) SiO2 
 PCOD9108242
Probable space group: P -1
;
_chemical_formula_sum "Si O2"
_cell_formula_units_Z 16
_cell_length_a 11.493336
_cell_length_b 11.320940
_cell_length_c 9.259881
_cell_angle_alpha 82.412908
_cell_angle_beta 60.250287
_cell_angle_gamma 123.800970
_cell_volume 716.827144
_symmetry_space_group_name_H-M "P -1"
_symmetry_group_IT_number 2
_symmetry_cell_setting 'triclinic'
loop_
_space_group_symop_operation_xyz
x,y,z
-x,-y,-z
loop_
_atom_site_type_symbol
_atom_site_label
_atom_site_fract_x
_atom_site_fract_y
_atom_site_fract_z
Si Si1 0.560607 0.654266 0.848186
Si Si2 0.080263 0.672455 0.989951
Si Si3 0.508145 0.998647 0.224748
Si Si4 0.580314 0.710508 0.511329
Si Si5 0.799669 0.097471 0.380653
Si Si6 0.341572 0.063884 0.082474
Si Si7 0.049289 0.202801 0.490457
Si Si8 0.766880 0.574137 0.413323
O O1 0.473776 0.613271 0.747442
O O2 0.540886 0.753005 0.949278
O O3 0.789700 0.791561 0.646172
O O4 0.500000 0.500000 0.000000
O O5 0.300603 0.802267 0.889327
O O6 0.091062 0.778045 0.841478
O O7 0.000000 0.500000 0.000000
O O8 0.943459 0.633590 0.205848
O O9 0.386563 0.982123 0.174272
O O10 0.362915 0.912546 0.462210
O O11 0.591259 0.929894 0.118708
O O12 0.715361 0.681669 0.401415
O O13 0.423652 0.614929 0.495892
O O14 0.693542 0.906119 0.435004
O O15 0.944199 0.168921 0.413123
O O16 0.113087 0.937802 0.268858
O O17 0.172146 0.386873 0.462636
#
# Coordination Sequence:
#
# PCOD9108242 Si02
#       8
#     2   2   2   2   2   2   2   2
#     4  11  23  38  67 101 134 167 209 269 334 379
#     4  12  26  42  66  95 132 169 219 268 322 384
#     4  10  21  41  65  91 128 173 215 262 318 375
#     4  10  22  45  66  90 135 172 213 268 325 390
#     4  11  24  43  71  93 127 174 221 262 324 386
#     4  10  20  40  67  94 128 167 220 264 311 390
#     4  10  21  42  68  96 125 168 215 269 318 383
#     4  10  23  42  66  96 134 165 212 273 327 374
#
# _framework density 22.320582999999999
#
# number of rings (size 3 to 8) (size 9 to 14) (size 15 to 20)
#    0.000    1.500    3.750    1.500    3.500    0.500 
#   11.250    0.625    0.000    0.000    0.000    0.000 
#    0.000    0.000    0.000    0.000    0.000    0.000 
#
# Total GULP energy -89348.183502 kJ/mol
# GULP energy per Si atom -5584.261469 kJ/mol
# Density = 2.226978 g / cm^3
# Si number density = 22.320583 Si / 1000 Ang^3
#
#
#
# Elastic Constant Matrix: (Units=GPa)
#
#
# Indices 1 2 3 4 5 6 
#
# 1 35.5227 28.8501 16.2208 -0.7830 0.1609 16.8826
# 2 28.8501 141.0299 29.1713 26.2680 11.3660 16.4369
# 3 16.2208 29.1713 36.7617 11.9120 -5.7849 -9.9359
# 4 -0.7830 26.2680 11.9120 28.5815 -7.5577 -4.1807
# 5 0.1609 11.3660 -5.7849 -7.5577 34.1578 -4.4661
# 6 16.8826 16.4369 -9.9359 -4.1807 -4.4661 44.6133
#
#
#
# Elastic Compliance Matrix: (Units=1/GPa)
#
#
# Indices 1 2 3 4 5 6 
#
# 1 0.064710 -0.003652 -0.040186 0.015571 -0.006541 -0.031288
# 2 -0.003652 0.013780 -0.008848 -0.012856 -0.009939 -0.007865
# 3 -0.040186 -0.008848 0.067568 -0.011808 0.016416 0.034052
# 4 0.015571 -0.012856 -0.011808 0.056593 0.015123 0.003032
# 5 -0.006541 -0.009939 0.016416 0.015123 0.040739 0.015289
# 6 -0.031288 -0.007865 0.034052 0.003032 0.015289 0.046551
#
#
# Mechanical properties :
#
#
# Convention : Reuss Voigt Hill
#
# Bulk Modulus (GPa) = 24.57819 40.19987 32.38903
# Shear Modulus (GPa) = 12.22868 30.74199 21.48534
#
# Velocity S-wave (km/s) = 2.34319 3.71522 3.10591
# Velocity P-wave (km/s) = 4.28440 6.03764 5.23494
#
# Compressibility (1/GPa) = 0.04068649
#
# Stress axis : x y z
#
# Youngs Moduli (GPa) = 15.45360 72.56844 14.79992
#
# Poissons Ratio (x) = 0.26500 0.59475
# Poissons Ratio (y) = 0.05643 0.13094
# Poissons Ratio (z) = 0.62102 0.64206
#
# Static dielectric constant tensor:
#      x y z
#    x 1.874270 0.023770 -0.022680 
#    y 0.023770 1.859840 0.018390 
#    z -0.022680 0.018390 1.812410 
# 
# From -- ./inp_files/262525.got.cif
#   From: 2010.05.17/outbox.cif.g08.bks.cpg/sg2_132_cif.got.tgz:262525.got - 2010.06.03 11:33:40.
