data_PCOD9108462
_publ_section_title
;
Structure prediction by ZEFSAII (Michael W. Deem and Ramdas Pophale) SiO2 
 PCOD9108462
Probable space group: P -1
;
_chemical_formula_sum "Si O2"
_cell_formula_units_Z 16
_cell_length_a 9.631049
_cell_length_b 14.781078
_cell_length_c 11.540485
_cell_angle_alpha 27.450780
_cell_angle_beta 78.771296
_cell_angle_gamma 88.136986
_cell_volume 706.184742
_symmetry_space_group_name_H-M "P -1"
_symmetry_group_IT_number 2
_symmetry_cell_setting 'triclinic'
loop_
_space_group_symop_operation_xyz
x,y,z
-x,-y,-z
loop_
_atom_site_type_symbol
_atom_site_label
_atom_site_fract_x
_atom_site_fract_y
_atom_site_fract_z
Si Si1 0.349948 0.856785 0.124663
Si Si2 0.805733 0.450237 0.293133
Si Si3 0.514118 0.357837 0.323858
Si Si4 0.943284 0.720014 0.598297
Si Si5 0.841911 0.848381 0.228038
Si Si6 0.858031 0.927023 0.691971
Si Si7 0.388661 0.497160 0.417779
Si Si8 0.663379 0.770722 0.710375
O O1 0.251494 0.683716 0.428180
O O2 0.384703 0.728975 0.156422
O O3 0.500000 0.000000 0.000000
O O4 0.260855 0.004300 0.926862
O O5 0.674378 0.336843 0.352792
O O6 0.970825 0.448378 0.234062
O O7 0.813424 0.691182 0.013921
O O8 0.443702 0.400829 0.406958
O O9 0.411614 0.192330 0.439406
O O10 0.544463 0.579501 0.006647
O O11 0.868723 0.748226 0.457824
O O12 0.806755 0.696766 0.735188
O O13 0.082047 0.920193 0.384273
O O14 0.774588 0.664911 0.356250
O O15 0.000000 0.000000 0.000000
O O16 0.725893 0.935152 0.616033
O O17 0.000000 0.000000 0.500000
O O18 0.500000 0.500000 0.500000
#
# Coordination Sequence:
#
# PCOD9108462 Si02
#       8
#     2   2   2   2   2   2   2   2
#     4  12  26  43  68 103 140 191 245 284 356 429
#     4  11  23  40  71  99 138 187 227 287 361 421
#     4  10  20  40  68  97 129 176 231 280 338 418
#     4  11  23  43  68  98 141 177 231 287 360 413
#     4  12  26  43  67 105 145 183 239 302 344 423
#     4   9  22  41  66  96 134 178 224 284 350 420
#     4  12  24  44  72  96 141 190 234 290 362 418
#     4   9  20  40  67  94 132 172 223 288 340 400
#
# _framework density 22.656960999999999
#
# number of rings (size 3 to 8) (size 9 to 14) (size 15 to 20)
#    0.000    1.250    5.000    0.000    1.750    8.000 
#    0.000    0.625    2.750    0.000    0.000    0.000 
#    0.000    0.000    0.000    0.000    0.000    0.000 
#
# Total GULP energy -89170.725312 kJ/mol
# GULP energy per Si atom -5573.170332 kJ/mol
# Density = 2.260539 g / cm^3
# Si number density = 22.656961 Si / 1000 Ang^3
#
#
#
# Elastic Constant Matrix: (Units=GPa)
#
#
# Indices 1 2 3 4 5 6 
#
# 1 124.4294 48.3153 11.0290 -15.9846 10.9039 26.9825
# 2 48.3153 87.5649 35.1189 -10.7688 7.2512 38.8630
# 3 11.0290 35.1189 75.1965 -4.6093 -10.0310 7.1277
# 4 -15.9846 -10.7688 -4.6093 34.8824 1.6501 -6.5649
# 5 10.9039 7.2512 -10.0310 1.6501 37.5625 -2.3833
# 6 26.9825 38.8630 7.1277 -6.5649 -2.3833 47.0887
#
#
#
# Elastic Compliance Matrix: (Units=1/GPa)
#
#
# Indices 1 2 3 4 5 6 
#
# 1 0.010914 -0.004800 0.000730 0.003339 -0.002324 -0.002055
# 2 -0.004800 0.027928 -0.011570 0.001765 -0.008353 -0.018724
# 3 0.000730 -0.011570 0.018975 0.000169 0.007504 0.006662
# 4 0.003339 0.001765 0.000169 0.031038 -0.002578 0.000801
# 5 -0.002324 -0.008353 0.007504 -0.002578 0.031555 0.008328
# 6 -0.002055 -0.018724 0.006662 0.000801 0.008328 0.037393
#
#
# Mechanical properties :
#
#
# Convention : Reuss Voigt Hill
#
# Bulk Modulus (GPa) = 37.68277 52.90191 45.29234
# Shear Modulus (GPa) = 25.26184 36.75525 31.00854
#
# Velocity S-wave (km/s) = 3.34274 4.03209 3.70349
# Velocity P-wave (km/s) = 5.61841 6.71392 6.19045
#
# Compressibility (1/GPa) = 0.02653733
#
# Stress axis : x y z
#
# Youngs Moduli (GPa) = 91.62658 35.80659 52.70091
#
# Poissons Ratio (x) = 0.17186 -0.03849
# Poissons Ratio (y) = 0.43977 0.60977
# Poissons Ratio (z) = -0.06692 0.41430
#
# Static dielectric constant tensor:
#      x y z
#    x 1.933470 -0.063790 -0.072150 
#    y -0.063790 1.983490 0.070010 
#    z -0.072150 0.070010 1.926830 
# 
# From -- ./inp_files/398142.got.cif
#   From: 2010.05.17/outbox.cif.g08.bks.cpg/sg2_200_cif.got.tgz:398142.got - 2010.06.03 11:33:40.
