data_PCOD9108214
_publ_section_title
;
Structure prediction by ZEFSAII (Michael W. Deem and Ramdas Pophale) SiO2 
 PCOD9108214
Probable space group: P -1
;
_chemical_formula_sum "Si O2"
_cell_formula_units_Z 16
_cell_length_a 20.360531
_cell_length_b 9.431267
_cell_length_c 9.922769
_cell_angle_alpha 45.386849
_cell_angle_beta 136.208243
_cell_angle_gamma 147.152647
_cell_volume 691.507723
_symmetry_space_group_name_H-M "P -1"
_symmetry_group_IT_number 2
_symmetry_cell_setting 'triclinic'
loop_
_space_group_symop_operation_xyz
x,y,z
-x,-y,-z
loop_
_atom_site_type_symbol
_atom_site_label
_atom_site_fract_x
_atom_site_fract_y
_atom_site_fract_z
Si Si1 0.956716 0.967041 0.302334
Si Si2 0.126967 0.749747 0.104833
Si Si3 0.776736 0.472278 0.758267
Si Si4 0.392437 0.839200 0.829199
Si Si5 0.744763 0.132272 0.180800
Si Si6 0.497336 0.820952 0.505246
Si Si7 0.480771 0.548360 0.090728
Si Si8 0.974107 0.555490 0.569825
O O1 0.089132 0.221231 0.254674
O O2 0.911618 0.684345 0.383003
O O3 0.000000 0.000000 0.500000
O O4 0.858312 0.005429 0.092586
O O5 0.223080 0.712269 0.224870
O O6 0.096865 0.680037 0.265204
O O7 0.000000 0.500000 0.000000
O O8 0.654644 0.434503 0.572543
O O9 0.757068 0.336683 0.961757
O O10 0.278610 0.806099 0.748001
O O11 0.442916 0.016471 0.652188
O O12 0.385334 0.597425 0.940636
O O13 0.500000 0.000000 0.000000
O O14 0.878739 0.206809 0.316713
O O15 0.620902 0.829104 0.157454
O O16 0.560488 0.704613 0.719855
O O17 0.500000 0.000000 0.500000
O O18 0.500000 0.500000 0.000000
O O19 0.000000 0.500000 0.500000
#
# Coordination Sequence:
#
# PCOD9108214 Si02
#       8
#     2   2   2   2   2   2   2   2
#     4  11  20  41  71  94 121 173 222 271 329 386
#     4  10  20  40  67  93 125 165 225 269 316 389
#     4  11  20  40  71  91 126 174 223 263 330 384
#     4  10  22  42  63  94 136 168 218 266 329 387
#     4  11  22  44  66  93 137 179 211 274 335 385
#     4  12  23  40  66  99 132 169 218 268 323 395
#     4  11  22  43  70  97 130 171 218 275 324 385
#     4  12  25  43  62  98 135 170 217 277 327 388
#
# _framework density 23.137847000000001
#
# number of rings (size 3 to 8) (size 9 to 14) (size 15 to 20)
#    0.000    1.000    8.750    0.750    0.000    3.500 
#    2.250    1.250    0.000    0.000    0.000    0.000 
#    0.000    0.000    0.000    0.000    0.000    0.000 
#
# Total GULP energy -89446.681206 kJ/mol
# GULP energy per Si atom -5590.417575 kJ/mol
# Density = 2.308518 g / cm^3
# Si number density = 23.137847 Si / 1000 Ang^3
#
#
#
# Elastic Constant Matrix: (Units=GPa)
#
#
# Indices 1 2 3 4 5 6 
#
# 1 126.8972 6.4707 60.0369 -1.1784 -8.7021 -23.3270
# 2 6.4707 70.1870 21.1671 -5.3407 -5.0862 -14.9777
# 3 60.0369 21.1671 160.3044 -30.2371 -13.4370 -26.5850
# 4 -1.1784 -5.3407 -30.2371 27.2173 -4.9580 3.9805
# 5 -8.7021 -5.0862 -13.4370 -4.9580 60.2006 4.8828
# 6 -23.3270 -14.9777 -26.5850 3.9805 4.8828 42.4317
#
#
#
# Elastic Compliance Matrix: (Units=1/GPa)
#
#
# Indices 1 2 3 4 5 6 
#
# 1 0.010537 0.000778 -0.004321 -0.004764 -0.000078 0.003816
# 2 0.000778 0.015772 -0.001254 0.001160 0.000855 0.005002
# 3 -0.004321 -0.001254 0.010868 0.011705 0.002447 0.002611
# 4 -0.004764 0.001160 0.011705 0.050959 0.006249 -0.000376
# 5 -0.000078 0.000855 0.002447 0.006249 0.017801 -0.000842
# 6 0.003816 0.005002 0.002611 -0.000376 -0.000842 0.029199
#
#
# Mechanical properties :
#
#
# Convention : Reuss Voigt Hill
#
# Bulk Modulus (GPa) = 36.25543 59.19311 47.72427
# Shear Modulus (GPa) = 32.48322 43.95084 38.21703
#
# Velocity S-wave (km/s) = 3.75093 4.36308 4.06853
# Velocity P-wave (km/s) = 5.87049 7.14285 6.53770
#
# Compressibility (1/GPa) = 0.02758208
#
# Stress axis : x y z
#
# Youngs Moduli (GPa) = 94.90254 63.40472 92.01195
#
# Poissons Ratio (x) = -0.04933 0.39762
# Poissons Ratio (y) = -0.07383 0.11538
# Poissons Ratio (z) = 0.41011 0.07951
#
# Static dielectric constant tensor:
#      x y z
#    x 1.877890 0.029890 0.052630 
#    y 0.029890 1.893020 0.040210 
#    z 0.052630 0.040210 1.870570 
# 
# From -- ./inp_files/293994.got.cif
#   From: 2010.05.17/outbox.cif.g08.bks.cpg/sg2_147_cif.got.tgz:293994.got - 2010.06.03 11:33:40.
