data_PCOD9108866
_publ_section_title
;
Structure prediction by ZEFSAII (Michael W. Deem and Ramdas Pophale) SiO2 
 PCOD9108866
Probable space group: P -1
;
_chemical_formula_sum "Si O2"
_cell_formula_units_Z 10
_cell_length_a 10.253902
_cell_length_b 8.917741
_cell_length_c 7.540363
_cell_angle_alpha 36.132937
_cell_angle_beta 70.774113
_cell_angle_gamma 60.693882
_cell_volume 351.602966
_symmetry_space_group_name_H-M "P -1"
_symmetry_group_IT_number 2
_symmetry_cell_setting 'triclinic'
loop_
_space_group_symop_operation_xyz
x,y,z
-x,-y,-z
loop_
_atom_site_type_symbol
_atom_site_label
_atom_site_fract_x
_atom_site_fract_y
_atom_site_fract_z
Si Si1 0.472320 0.889577 0.921071
Si Si2 0.221759 0.726246 0.303967
Si Si3 0.711448 0.748537 0.643518
Si Si4 0.050826 0.351900 0.830202
Si Si5 0.831922 0.022353 0.566869
O O1 0.604218 0.744027 0.856997
O O2 0.372721 0.165935 0.587259
O O3 0.374835 0.704857 0.164082
O O4 0.500000 0.000000 0.000000
O O5 0.118235 0.552074 0.517551
O O6 0.259148 0.737255 0.487042
O O7 0.112151 0.048283 0.007036
O O8 0.871886 0.490042 0.806079
O O9 0.756582 0.003911 0.436853
O O10 0.863464 0.737267 0.933951
O O11 0.000000 0.000000 0.500000
#
# Coordination Sequence:
#
# PCOD9108866 Si02
#       5
#     2   2   2   2   2
#     4  11  24  45  67 104 145 189 235 294 347 426
#     4  10  23  42  73 100 146 177 234 296 352 408
#     4  11  22  41  73 101 142 191 233 283 367 416
#     4  10  22  43  74 107 136 186 233 296 351 423
#     4  10  20  40  74 104 139 175 232 293 347 413
#
# _framework density 28.441168999999999
#
# number of rings (size 3 to 8) (size 9 to 14) (size 15 to 20)
#    1.200    0.400    4.000    0.600    0.000    1.600 
#    0.000    8.000    0.000   18.000    0.000    0.000 
#    0.000    0.000    0.000    0.000    0.000    0.000 
#
# Total GULP energy -55887.036967 kJ/mol
# GULP energy per Si atom -5588.703697 kJ/mol
# Density = 2.837644 g / cm^3
# Si number density = 28.441169 Si / 1000 Ang^3
#
#
#
# Elastic Constant Matrix: (Units=GPa)
#
#
# Indices 1 2 3 4 5 6 
#
# 1 178.9452 65.1775 108.3433 4.4034 -35.6888 -16.8452
# 2 65.1775 88.5773 71.7381 7.0720 -29.7524 -0.4277
# 3 108.3433 71.7381 185.3714 4.6638 -23.3722 10.4411
# 4 4.4034 7.0720 4.6638 63.1321 12.8399 -10.2602
# 5 -35.6888 -29.7524 -23.3722 12.8399 89.5576 13.9658
# 6 -16.8452 -0.4277 10.4411 -10.2602 13.9658 49.7931
#
#
#
# Elastic Compliance Matrix: (Units=1/GPa)
#
#
# Indices 1 2 3 4 5 6 
#
# 1 0.010364 -0.003351 -0.004892 0.000517 0.000990 0.004332
# 2 -0.003351 0.019378 -0.004796 -0.002799 0.004534 -0.001810
# 3 -0.004892 -0.004796 0.010321 -0.000485 -0.000170 -0.003913
# 4 0.000517 -0.002799 -0.000485 0.017838 -0.004205 0.005108
# 5 0.000990 0.004534 -0.000170 -0.004205 0.014323 -0.004474
# 6 0.004332 -0.001810 -0.003913 0.005108 -0.004474 0.024661
#
#
# Mechanical properties :
#
#
# Convention : Reuss Voigt Hill
#
# Bulk Modulus (GPa) = 71.51718 104.82350 88.17034
# Shear Modulus (GPa) = 39.17694 54.33891 46.75792
#
# Velocity S-wave (km/s) = 3.71546 4.37575 4.05905
# Velocity P-wave (km/s) = 6.60352 7.90354 7.28259
#
# Compressibility (1/GPa) = 0.01398265
#
# Stress axis : x y z
#
# Youngs Moduli (GPa) = 96.49138 51.60575 96.88554
#
# Poissons Ratio (x) = 0.17294 0.47400
# Poissons Ratio (y) = 0.32336 0.46470
# Poissons Ratio (z) = 0.47208 0.24752
#
# Static dielectric constant tensor:
#      x y z
#    x 2.263470 0.059330 0.093360 
#    y 0.059330 2.418930 0.035070 
#    z 0.093360 0.035070 2.328100 
# 
# From -- ./inp_files/36438.got.cif
#   From: 2010.05.17/outbox.cif.g08.bks.cpg/sg2_19_cif.got.tgz:36438.got - 2010.06.03 11:33:40.
