data_PCOD9108547
_publ_section_title
;
Structure prediction by ZEFSAII (Michael W. Deem and Ramdas Pophale) SiO2 
 PCOD9108547
Probable space group: P -1
;
_chemical_formula_sum "Si O2"
_cell_formula_units_Z 16
_cell_length_a 18.616661
_cell_length_b 15.309531
_cell_length_c 26.450349
_cell_angle_alpha 27.501088
_cell_angle_beta 18.434756
_cell_angle_gamma 19.799904
_cell_volume 806.415289
_symmetry_space_group_name_H-M "P -1"
_symmetry_group_IT_number 2
_symmetry_cell_setting 'triclinic'
loop_
_space_group_symop_operation_xyz
x,y,z
-x,-y,-z
loop_
_atom_site_type_symbol
_atom_site_label
_atom_site_fract_x
_atom_site_fract_y
_atom_site_fract_z
Si Si1 0.861184 0.163721 0.059252
Si Si2 0.288496 0.712475 0.273781
Si Si3 0.332791 0.766250 0.099002
Si Si4 0.708760 0.876751 0.127620
Si Si5 0.722198 0.233868 0.533297
Si Si6 0.649969 0.114853 0.327378
Si Si7 0.842113 0.599850 0.000331
Si Si8 0.153683 0.776030 0.656189
O O1 0.571300 0.461636 0.085590
O O2 0.737043 0.088099 0.223664
O O3 0.131286 0.123517 0.930018
O O4 0.000000 0.000000 0.000000
O O5 0.332618 0.773181 0.156631
O O6 0.416980 0.424489 0.335353
O O7 0.500163 0.710514 0.172553
O O8 0.941536 0.962578 0.394961
O O9 0.976254 0.943365 0.227936
O O10 0.442238 0.884098 0.932332
O O11 0.484921 0.829258 0.312083
O O12 0.987772 0.633199 0.033235
O O13 0.501843 0.502013 0.573942
O O14 0.856881 0.242523 0.387529
O O15 0.000000 0.000000 0.500000
O O16 0.500000 0.000000 0.500000
O O17 0.914567 0.766670 0.846267
O O18 0.000000 0.500000 0.000000
#
# Coordination Sequence:
#
# PCOD9108547 Si02
#       8
#     2   2   2   2   2   2   2   2
#     4  10  22  43  66  94 123 165 222 267 327 388
#     4  11  22  39  63  96 123 162 212 258 323 384
#     4  10  20  40  69  86 128 159 206 266 321 374
#     4  10  21  40  62  91 124 166 212 258 314 383
#     4  10  24  41  58  85 133 173 209 256 314 384
#     4  10  23  44  66  95 130 163 209 275 331 380
#     4  11  21  37  64  95 126 164 209 259 315 383
#     4  10  24  38  58  89 127 165 214 250 312 376
#
# _framework density 19.840893000000001
#
# number of rings (size 3 to 8) (size 9 to 14) (size 15 to 20)
#    0.000    1.750    3.750    1.125    5.250    5.000 
#    6.750    0.000    0.000    0.000    0.000    0.000 
#    0.000    0.000    0.000    0.000    0.000    0.000 
#
# Total GULP energy -89207.448652 kJ/mol
# GULP energy per Si atom -5575.465541 kJ/mol
# Density = 1.979573 g / cm^3
# Si number density = 19.840893 Si / 1000 Ang^3
#
#
#
# Elastic Constant Matrix: (Units=GPa)
#
#
# Indices 1 2 3 4 5 6 
#
# 1 96.6871 68.9851 28.0350 1.8425 -5.3987 6.3858
# 2 68.9851 166.7622 44.6166 8.8273 7.0633 0.4295
# 3 28.0350 44.6166 73.4660 -14.4779 6.5793 -0.6424
# 4 1.8425 8.8273 -14.4779 29.0427 -3.3420 11.7738
# 5 -5.3987 7.0633 6.5793 -3.3420 15.0939 4.6399
# 6 6.3858 0.4295 -0.6424 11.7738 4.6399 38.6006
#
#
#
# Elastic Compliance Matrix: (Units=1/GPa)
#
#
# Indices 1 2 3 4 5 6 
#
# 1 0.017261 -0.007103 -0.002835 0.003365 0.013148 -0.005431
# 2 -0.007103 0.010989 -0.004729 -0.008081 -0.008793 0.004496
# 3 -0.002835 -0.004729 0.020332 0.012222 -0.004232 -0.002359
# 4 0.003365 -0.008081 0.012222 0.052058 0.016765 -0.018157
# 5 0.013148 -0.008793 -0.004232 0.016765 0.086037 -0.017603
# 6 -0.005431 0.004496 -0.002359 -0.018157 -0.017603 0.034370
#
#
# Mechanical properties :
#
#
# Convention : Reuss Voigt Hill
#
# Bulk Modulus (GPa) = 51.95137 68.90985 60.43061
# Shear Modulus (GPa) = 19.47065 29.56603 24.51834
#
# Velocity S-wave (km/s) = 3.13603 3.86444 3.51913
# Velocity P-wave (km/s) = 6.27326 7.39720 6.85829
#
# Compressibility (1/GPa) = 0.01924877
#
# Stress axis : x y z
#
# Youngs Moduli (GPa) = 57.93298 91.00278 49.18252
#
# Poissons Ratio (x) = 0.64640 0.13943
# Poissons Ratio (y) = 0.41150 0.23257
# Poissons Ratio (z) = 0.16424 0.43033
#
# Static dielectric constant tensor:
#      x y z
#    x 1.670960 -0.002310 0.001170 
#    y -0.002310 1.767740 -0.008640 
#    z 0.001170 -0.008640 1.728300 
# 
# From -- ./inp_files/620437.got.cif
#   From: 2010.05.17/outbox.cif.g08.bks.cpg/sg2_311_cif.got.tgz:620437.got - 2010.06.03 11:33:40.
