data_PCOD9108170
_publ_section_title
;
Structure prediction by ZEFSAII (Michael W. Deem and Ramdas Pophale) SiO2 
 PCOD9108170
Probable space group: P -1
;
_chemical_formula_sum "Si O2"
_cell_formula_units_Z 16
_cell_length_a 13.482873
_cell_length_b 7.816586
_cell_length_c 8.395064
_cell_angle_alpha 60.085769
_cell_angle_beta 58.279821
_cell_angle_gamma 84.296033
_cell_volume 636.226319
_symmetry_space_group_name_H-M "P -1"
_symmetry_group_IT_number 2
_symmetry_cell_setting 'triclinic'
loop_
_space_group_symop_operation_xyz
x,y,z
-x,-y,-z
loop_
_atom_site_type_symbol
_atom_site_label
_atom_site_fract_x
_atom_site_fract_y
_atom_site_fract_z
Si Si1 0.189851 0.593482 0.054653
Si Si2 0.081262 0.994975 0.592874
Si Si3 0.871901 0.084420 0.874163
Si Si4 0.913164 0.379221 0.403338
Si Si5 0.710277 0.427835 0.367423
Si Si6 0.464221 0.004825 0.344399
Si Si7 0.641534 0.784093 0.149175
Si Si8 0.332279 0.306863 0.185336
O O1 0.184416 0.826551 0.969736
O O2 0.285715 0.515725 0.122718
O O3 0.051035 0.487478 0.255770
O O4 0.226641 0.542705 0.872007
O O5 0.093109 0.766212 0.678635
O O6 0.206216 0.146743 0.392475
O O7 0.000000 0.000000 0.500000
O O8 0.005770 0.051488 0.776529
O O9 0.873517 0.248378 0.655374
O O10 0.782571 0.882236 0.991998
O O11 0.808778 0.489786 0.394046
O O12 0.637323 0.193513 0.534195
O O13 0.626027 0.589362 0.366256
O O14 0.575037 0.959547 0.171740
O O15 0.500000 0.000000 0.500000
O O16 0.423124 0.216139 0.258739
O O17 0.613844 0.715966 0.024133
#
# Coordination Sequence:
#
# PCOD9108170 Si02
#       8
#     2   2   2   2   2   2   2   2
#     4  11  23  38  61 102 133 159 203 257 316 374
#     4  10  16  35  65  89 124 158 206 241 308 370
#     4  11  21  38  64  95 132 159 208 258 304 368
#     4  11  20  38  64  94 127 171 199 251 307 385
#     4  11  24  43  64  90 129 168 209 253 315 377
#     4  12  26  45  65  91 126 162 212 275 315 349
#     4  11  23  44  66  91 121 173 218 248 301 382
#     4  11  21  41  68  89 120 171 210 251 306 382
#
# _framework density 25.148287
#
# number of rings (size 3 to 8) (size 9 to 14) (size 15 to 20)
#    0.000    1.000    6.250    3.000    0.000    1.000 
#    0.000    8.125    0.000    0.000    0.000    0.000 
#    0.000    0.000    0.000    0.000    0.000    0.000 
#
# Total GULP energy -89364.260248 kJ/mol
# GULP energy per Si atom -5585.266266 kJ/mol
# Density = 2.509105 g / cm^3
# Si number density = 25.148287 Si / 1000 Ang^3
#
#
#
# Elastic Constant Matrix: (Units=GPa)
#
#
# Indices 1 2 3 4 5 6 
#
# 1 95.4074 10.7506 15.5392 -1.5646 1.0362 -31.9535
# 2 10.7506 74.8576 -0.0284 14.3108 1.3106 -9.3047
# 3 15.5392 -0.0284 38.3019 5.4754 -12.8966 -8.2569
# 4 -1.5646 14.3108 5.4754 32.6313 -2.1685 -0.9440
# 5 1.0362 1.3106 -12.8966 -2.1685 36.7657 -2.8957
# 6 -31.9535 -9.3047 -8.2569 -0.9440 -2.8957 30.8184
#
#
#
# Elastic Compliance Matrix: (Units=1/GPa)
#
#
# Indices 1 2 3 4 5 6 
#
# 1 0.016567 -0.000812 -0.003714 0.002212 -0.000352 0.015972
# 2 -0.000812 0.015339 0.002324 -0.007020 0.000209 0.004216
# 3 -0.003714 0.002324 0.034052 -0.005902 0.012165 0.006936
# 4 0.002212 -0.007020 -0.005902 0.034821 0.000146 -0.000327
# 5 -0.000352 0.000209 0.012165 0.000146 0.031947 0.005963
# 6 0.015972 0.004216 0.006936 -0.000327 0.005963 0.052690
#
#
# Mechanical properties :
#
#
# Convention : Reuss Voigt Hill
#
# Bulk Modulus (GPa) = 16.24615 29.00996 22.62806
# Shear Modulus (GPa) = 23.77145 32.19681 27.98413
#
# Velocity S-wave (km/s) = 3.07783 3.58198 3.33943
# Velocity P-wave (km/s) = 4.37091 5.35425 4.88738
#
# Compressibility (1/GPa) = 0.06155304
#
# Stress axis : x y z
#
# Youngs Moduli (GPa) = 60.36097 65.19487 29.36720
#
# Poissons Ratio (x) = 0.05295 0.10906
# Poissons Ratio (y) = 0.04902 -0.06824
# Poissons Ratio (z) = 0.22416 -0.15149
#
# Static dielectric constant tensor:
#      x y z
#    x 2.070360 -0.064770 -0.008210 
#    y -0.064770 2.086780 -0.008550 
#    z -0.008210 -0.008550 1.967430 
# 
# From -- ./inp_files/226180.got.cif
#   From: 2010.05.17/outbox.cif.g08.bks.cpg/sg2_114_cif.got.tgz:226180.got - 2010.06.03 11:33:40.
