data_PCOD9108151
_publ_section_title
;
Structure prediction by ZEFSAII (Michael W. Deem and Ramdas Pophale) SiO2 
 PCOD9108151
Probable space group: P -1
;
_chemical_formula_sum "Si O2"
_cell_formula_units_Z 12
_cell_length_a 8.996709
_cell_length_b 14.911676
_cell_length_c 15.083078
_cell_angle_alpha 160.415145
_cell_angle_beta 80.593256
_cell_angle_gamma 89.784879
_cell_volume 588.124716
_symmetry_space_group_name_H-M "P -1"
_symmetry_group_IT_number 2
_symmetry_cell_setting 'triclinic'
loop_
_space_group_symop_operation_xyz
x,y,z
-x,-y,-z
loop_
_atom_site_type_symbol
_atom_site_label
_atom_site_fract_x
_atom_site_fract_y
_atom_site_fract_z
Si Si1 0.051331 0.238394 0.675662
Si Si2 0.556004 0.734269 0.673072
Si Si3 0.212896 0.649151 0.337210
Si Si4 0.382898 0.848812 0.354740
Si Si5 0.039078 0.675459 0.736395
Si Si6 0.726047 0.951994 0.157072
O O1 0.959161 0.317344 0.663380
O O2 0.254810 0.048157 0.475624
O O3 0.000000 0.000000 0.500000
O O4 0.000000 0.500000 0.000000
O O5 0.500000 0.500000 0.500000
O O6 0.761724 0.539911 0.456479
O O7 0.438498 0.874795 0.728711
O O8 0.500000 0.000000 0.000000
O O9 0.279642 0.821211 0.423117
O O10 0.225428 0.812739 0.577910
O O11 0.310370 0.284826 0.001841
O O12 0.500000 0.000000 0.500000
O O13 0.500000 0.500000 0.000000
O O14 0.000000 0.500000 0.500000
O O15 0.897948 0.745364 0.891265
O O16 0.000000 0.000000 0.000000
#
# Coordination Sequence:
#
# PCOD9108151 Si02
#       6
#     2   2   2   2   2   2
#     4  10  20  40  67  86 119 173 209 243 316 406
#     4  12  23  43  70  96 128 179 225 266 324 401
#     4  11  24  43  64  96 133 167 211 276 339 368
#     4  11  22  41  68  94 125 167 216 261 316 404
#     4  12  23  43  70  95 127 179 231 261 320 410
#     4  12  24  42  67  97 140 167 217 289 328 371
#
# _framework density 20.403835999999998
#
# number of rings (size 3 to 8) (size 9 to 14) (size 15 to 20)
#    0.000    0.667    3.333    7.000    0.000    0.000 
#    9.000    0.000    0.000    0.000    0.000    0.000 
#    0.000    0.000    0.000    0.000    0.000    0.000 
#
# Total GULP energy -66864.346235 kJ/mol
# GULP energy per Si atom -5572.028853 kJ/mol
# Density = 2.035740 g / cm^3
# Si number density = 20.403836 Si / 1000 Ang^3
#
#
#
# Elastic Constant Matrix: (Units=GPa)
#
#
# Indices 1 2 3 4 5 6 
#
# 1 158.0792 51.9459 66.2765 11.6568 -5.5965 -44.3515
# 2 51.9459 83.6378 34.4785 23.0692 -1.9119 -43.3698
# 3 66.2765 34.4785 149.0211 8.3847 22.1446 -37.3965
# 4 11.6568 23.0692 8.3847 45.4255 -1.7026 1.2356
# 5 -5.5965 -1.9119 22.1446 -1.7026 59.9834 7.7572
# 6 -44.3515 -43.3698 -37.3965 1.2356 7.7572 53.8360
#
#
#
# Elastic Compliance Matrix: (Units=1/GPa)
#
#
# Indices 1 2 3 4 5 6 
#
# 1 0.009494 -0.002764 -0.002917 -0.000532 0.001423 0.003375
# 2 -0.002764 0.029077 0.001657 -0.015118 -0.003363 0.023129
# 3 -0.002917 0.001657 0.010187 -0.002342 -0.004922 0.006770
# 4 -0.000532 -0.015118 -0.002342 0.030800 0.003200 -0.015412
# 5 0.001423 -0.003363 -0.004922 0.003200 0.019621 -0.007856
# 6 0.003375 0.023129 0.006770 -0.015412 -0.007856 0.046176
#
#
# Mechanical properties :
#
#
# Convention : Reuss Voigt Hill
#
# Bulk Modulus (GPa) = 24.56589 77.34888 50.95739
# Shear Modulus (GPa) = 29.94481 47.71813 38.83147
#
# Velocity S-wave (km/s) = 3.83509 4.84124 4.36724
# Velocity P-wave (km/s) = 5.62819 8.32114 7.10345
#
# Compressibility (1/GPa) = 0.04070685
#
# Stress axis : x y z
#
# Youngs Moduli (GPa) = 105.32872 34.39195 98.16585
#
# Poissons Ratio (x) = 0.09507 0.28639
# Poissons Ratio (y) = 0.29118 -0.16262
# Poissons Ratio (z) = 0.30729 -0.05697
#
# Static dielectric constant tensor:
#      x y z
#    x 1.726220 -0.041860 -0.026640 
#    y -0.041860 1.809370 0.024960 
#    z -0.026640 0.024960 1.747470 
# 
# From -- ./inp_files/48781.got.cif
#   From: 2010.05.17/outbox.cif.g08.bks.cpg/sg2_25_cif.got.tgz:48781.got - 2010.06.03 11:33:40.
