data_PCOD9108511
_publ_section_title
;
Structure prediction by ZEFSAII (Michael W. Deem and Ramdas Pophale) SiO2 
 PCOD9108511
Probable space group: P -1
;
_chemical_formula_sum "Si O2"
_cell_formula_units_Z 16
_cell_length_a 11.080695
_cell_length_b 11.751468
_cell_length_c 9.406854
_cell_angle_alpha 113.676277
_cell_angle_beta 44.321097
_cell_angle_gamma 128.322286
_cell_volume 669.439154
_symmetry_space_group_name_H-M "P -1"
_symmetry_group_IT_number 2
_symmetry_cell_setting 'triclinic'
loop_
_space_group_symop_operation_xyz
x,y,z
-x,-y,-z
loop_
_atom_site_type_symbol
_atom_site_label
_atom_site_fract_x
_atom_site_fract_y
_atom_site_fract_z
Si Si1 0.109985 0.067281 0.088587
Si Si2 0.863663 0.553524 0.069010
Si Si3 0.804566 0.014145 0.572056
Si Si4 0.460467 0.734755 0.844280
Si Si5 0.507461 0.330074 0.885878
Si Si6 0.352223 0.868637 0.453376
Si Si7 0.147345 0.844530 0.106395
Si Si8 0.080506 0.411561 0.295836
O O1 0.217769 0.980577 0.009302
O O2 0.265470 0.239377 0.022273
O O3 0.957549 0.033921 0.329951
O O4 0.000000 0.000000 0.000000
O O5 0.899703 0.555941 0.871966
O O6 0.635448 0.424809 0.222879
O O7 0.000000 0.500000 0.000000
O O8 0.946461 0.712315 0.139144
O O9 0.674044 0.852047 0.660047
O O10 0.653102 0.055545 0.648746
O O11 0.896921 0.116440 0.681749
O O12 0.473034 0.712929 0.990440
O O13 0.310024 0.794909 0.969163
O O14 0.567866 0.240679 0.684524
O O15 0.680873 0.500570 0.807492
O O16 0.109095 0.756055 0.626809
O O17 0.500000 0.000000 0.500000
O O18 0.000000 0.500000 0.500000
#
# Coordination Sequence:
#
# PCOD9108511 Si02
#       8
#     2   2   2   2   2   2   2   2
#     4  12  27  43  61  93 136 180 222 264 322 385
#     4   9  21  36  65  96 130 157 203 277 327 379
#     4  12  24  39  66  94 129 176 218 261 321 393
#     4  10  20  40  69 100 121 161 216 273 333 373
#     4  10  20  43  64  88 132 167 213 274 322 384
#     4  11  23  36  65 102 127 162 220 272 325 382
#     4  11  22  42  67  95 129 165 220 271 323 389
#     4   9  21  38  62  94 130 166 209 264 335 384
#
# _framework density 23.900601999999999
#
# number of rings (size 3 to 8) (size 9 to 14) (size 15 to 20)
#    0.000    1.500    2.500    2.250    8.750    0.000 
#    0.000    1.250    0.000    0.000    0.000    0.000 
#    0.000    0.000    0.000    0.000    0.000    0.000 
#
# Total GULP energy -89307.431303 kJ/mol
# GULP energy per Si atom -5581.714456 kJ/mol
# Density = 2.384620 g / cm^3
# Si number density = 23.900602 Si / 1000 Ang^3
#
#
#
# Elastic Constant Matrix: (Units=GPa)
#
#
# Indices 1 2 3 4 5 6 
#
# 1 85.3487 40.5239 33.7969 12.1423 14.4358 30.3884
# 2 40.5239 202.0394 56.6220 -14.1627 3.9253 64.7591
# 3 33.7969 56.6220 116.5093 -10.1008 -5.9463 37.6798
# 4 12.1423 -14.1627 -10.1008 27.8372 14.0374 3.8617
# 5 14.4358 3.9253 -5.9463 14.0374 42.8477 -2.2744
# 6 30.3884 64.7591 37.6798 3.8617 -2.2744 53.8768
#
#
#
# Elastic Compliance Matrix: (Units=1/GPa)
#
#
# Indices 1 2 3 4 5 6 
#
# 1 0.017271 -0.000933 -0.003373 -0.006121 -0.004515 -0.006013
# 2 -0.000933 0.009684 0.000003 0.009105 -0.004190 -0.011946
# 3 -0.003373 0.000003 0.012557 0.006945 0.000212 -0.007372
# 4 -0.006121 0.009105 0.006945 0.056876 -0.017352 -0.017158
# 5 -0.004515 -0.004190 0.000212 -0.017352 0.031489 0.010007
# 6 -0.006013 -0.011946 -0.007372 -0.017158 0.010007 0.043119
#
#
# Mechanical properties :
#
#
# Convention : Reuss Voigt Hill
#
# Bulk Modulus (GPa) = 32.35549 73.97587 53.16568
# Shear Modulus (GPa) = 26.32920 43.10932 34.71926
#
# Velocity S-wave (km/s) = 3.32266 4.25160 3.81550
# Velocity P-wave (km/s) = 5.31855 7.42429 6.45783
#
# Compressibility (1/GPa) = 0.03090665
#
# Stress axis : x y z
#
# Youngs Moduli (GPa) = 57.90203 103.25861 79.63683
#
# Poissons Ratio (x) = 0.09631 0.26861
# Poissons Ratio (y) = 0.05401 -0.00024
# Poissons Ratio (z) = 0.19530 -0.00031
#
# Static dielectric constant tensor:
#      x y z
#    x 1.963290 -0.026000 -0.111910 
#    y -0.026000 2.035920 0.003040 
#    z -0.111910 0.003040 1.915090 
# 
# From -- ./inp_files/262772.got.cif
#   From: 2010.05.17/outbox.cif.g08.bks.cpg/sg2_132_cif.got.tgz:262772.got - 2010.06.03 11:33:40.
