data_PCOD9108550
_publ_section_title
;
Structure prediction by ZEFSAII (Michael W. Deem and Ramdas Pophale) SiO2 
 PCOD9108550
Probable space group: P -1
;
_chemical_formula_sum "Si O2"
_cell_formula_units_Z 16
_cell_length_a 11.652949
_cell_length_b 19.319313
_cell_length_c 8.360038
_cell_angle_alpha 51.479395
_cell_angle_beta 137.042625
_cell_angle_gamma 147.082257
_cell_volume 696.797943
_symmetry_space_group_name_H-M "P -1"
_symmetry_group_IT_number 2
_symmetry_cell_setting 'triclinic'
loop_
_space_group_symop_operation_xyz
x,y,z
-x,-y,-z
loop_
_atom_site_type_symbol
_atom_site_label
_atom_site_fract_x
_atom_site_fract_y
_atom_site_fract_z
Si Si1 0.928536 0.810749 0.388048
Si Si2 0.332593 0.721838 0.272434
Si Si3 0.127578 0.382236 0.212130
Si Si4 0.766282 0.509310 0.486792
Si Si5 0.229903 0.023193 0.162934
Si Si6 0.311482 0.696496 0.647736
Si Si7 0.791274 0.934916 0.250954
Si Si8 0.518246 0.579043 0.066838
O O1 0.959578 0.748888 0.644364
O O2 0.803700 0.847793 0.290312
O O3 0.743727 0.705241 0.218108
O O4 0.176037 0.927171 0.377213
O O5 0.387159 0.638116 0.454056
O O6 0.289410 0.729600 0.400926
O O7 0.549524 0.854843 0.220004
O O8 0.097906 0.645771 0.034966
O O9 0.233294 0.458514 0.375955
O O10 0.322416 0.462550 0.155688
O O11 0.657613 0.540534 0.206948
O O12 0.046619 0.598005 0.598820
O O13 0.482556 0.169268 0.242952
O O14 0.196634 0.989216 0.989893
O O15 0.000000 0.000000 0.000000
O O16 0.396275 0.625878 0.818503
O O17 0.000000 0.000000 0.500000
#
# Coordination Sequence:
#
# PCOD9108550 Si02
#       8
#     2   2   2   2   2   2   2   2
#     4  10  21  42  66  95 130 171 220 267 325 392
#     4  12  24  40  63  96 136 172 217 269 328 383
#     4  11  23  41  67  97 131 171 218 275 322 386
#     4  11  24  41  66  98 129 176 218 266 334 383
#     4  10  20  40  69  88 129 174 214 266 326 386
#     4  12  24  43  65  97 136 171 220 268 324 394
#     4  11  22  39  66  98 122 171 221 263 329 386
#     4  11  22  41  71  95 132 171 220 269 326 385
#
# _framework density 22.962178999999999
#
# number of rings (size 3 to 8) (size 9 to 14) (size 15 to 20)
#    0.000    1.000    3.750    6.000    0.000    0.500 
#    2.250    8.125    0.000    0.000    0.000    0.000 
#    0.000    0.000    0.000    0.000    0.000    0.000 
#
# Total GULP energy -89302.519717 kJ/mol
# GULP energy per Si atom -5581.407482 kJ/mol
# Density = 2.290992 g / cm^3
# Si number density = 22.962179 Si / 1000 Ang^3
#
#
#
# Elastic Constant Matrix: (Units=GPa)
#
#
# Indices 1 2 3 4 5 6 
#
# 1 -112.1594 -49.7894 -67.5755 -72.1184 51.2127 81.4010
# 2 -49.7894 52.8752 -11.3425 -36.1459 16.6397 53.2831
# 3 -67.5755 -11.3425 83.5991 -36.0198 18.7832 35.2181
# 4 -72.1184 -36.1459 -36.0198 13.8558 29.6542 16.5094
# 5 51.2127 16.6397 18.7832 29.6542 15.2402 -30.7436
# 6 81.4010 53.2831 35.2181 16.5094 -30.7436 17.8568
#
#
#
# Elastic Compliance Matrix: (Units=1/GPa)
#
#
# Indices 1 2 3 4 5 6 
#
# 1 0.008159 -0.006702 -0.001867 -0.006314 0.008491 0.006942
# 2 -0.006702 0.015121 -0.002485 -0.001267 0.002266 -0.004596
# 3 -0.001867 -0.002485 0.008834 0.000032 0.002042 0.001986
# 4 -0.006314 -0.001267 0.000032 0.023079 -0.000070 0.011043
# 5 0.008491 0.002266 0.002042 -0.000070 0.027288 -0.002449
# 6 0.006942 -0.004596 0.001986 0.011043 -0.002449 0.019727
#
#
# Mechanical properties :
#
#
# Convention : Reuss Voigt Hill
#
# Bulk Modulus (GPa) = 99.91890 -25.89999 37.00946
# Shear Modulus (GPa) = 39.16980 19.59204 29.38092
#
# Velocity S-wave (km/s) = 4.13466 2.92418 3.58094
# Velocity P-wave (km/s) = 8.14880 0.31178 5.76629
#
# Compressibility (1/GPa) = 0.01000812
#
# Stress axis : x y z
#
# Youngs Moduli (GPa) = 122.56779 66.13271 113.19574
#
# Poissons Ratio (x) = 0.44320 0.21132
# Poissons Ratio (y) = 0.82140 0.28124
# Poissons Ratio (z) = 0.22882 0.16431
#
# Static dielectric constant tensor:
#      x y z
#    x 1.917170 -0.052980 0.003960 
#    y -0.052980 1.881720 -0.042370 
#    z 0.003960 -0.042370 1.953350 
# 
# From -- ./inp_files/282965.got.cif
#   From: 2010.05.17/outbox.cif.g08.bks.cpg/sg2_142_cif.got.tgz:282965.got - 2010.06.03 11:33:40.
