data_PCOD9108088
_publ_section_title
;
Structure prediction by ZEFSAII (Michael W. Deem and Ramdas Pophale) SiO2 
 PCOD9108088
Probable space group: P -1
;
_chemical_formula_sum "Si O2"
_cell_formula_units_Z 14
_cell_length_a 12.028386
_cell_length_b 14.268041
_cell_length_c 7.647148
_cell_angle_alpha 82.599126
_cell_angle_beta 114.740152
_cell_angle_gamma 42.048302
_cell_volume 551.800001
_symmetry_space_group_name_H-M "P -1"
_symmetry_group_IT_number 2
_symmetry_cell_setting 'triclinic'
loop_
_space_group_symop_operation_xyz
x,y,z
-x,-y,-z
loop_
_atom_site_type_symbol
_atom_site_label
_atom_site_fract_x
_atom_site_fract_y
_atom_site_fract_z
Si Si1 0.017833 0.277052 0.994889
Si Si2 0.527489 0.239971 0.544246
Si Si3 0.741818 0.272167 0.784569
Si Si4 0.505433 0.794300 0.838168
Si Si5 0.445270 0.933915 0.105990
Si Si6 0.515637 0.594623 0.058567
Si Si7 0.015719 0.352970 0.364244
O O1 0.752030 0.515111 0.716398
O O2 0.958942 0.204392 0.963316
O O3 0.080331 0.265414 0.236955
O O4 0.243639 0.135773 0.034292
O O5 0.746695 0.173560 0.696437
O O6 0.540543 0.160682 0.406609
O O7 0.526757 0.181333 0.735017
O O8 0.500000 0.500000 0.500000
O O9 0.651808 0.293335 0.905329
O O10 0.377278 0.947678 0.861954
O O11 0.420583 0.742915 0.832425
O O12 0.821052 0.415117 0.324995
O O13 0.270685 0.212969 0.663217
O O14 0.816993 0.575805 0.136680
O O15 0.500000 0.500000 0.000000
#
# Coordination Sequence:
#
# PCOD9108088 Si02
#       7
#     2   2   2   2   2   2   2
#     4  10  22  38  63  96 123 160 214 259 306 377
#     4  10  21  42  62  90 125 169 207 254 313 371
#     4  10  18  36  63  91 120 162 212 252 312 368
#     4   9  21  37  61  93 122 164 211 251 307 371
#     4  12  22  40  65  91 130 165 205 258 313 369
#     4  10  16  35  63  88 121 161 205 257 302 362
#     4   9  20  37  62  91 122 169 205 247 321 370
#
# _framework density 25.371511999999999
#
# number of rings (size 3 to 8) (size 9 to 14) (size 15 to 20)
#    0.857    1.143    2.857    1.714    0.000    2.857 
#    0.000    7.857    0.000   10.286    0.000    0.000 
#    0.000    0.000    0.000    0.000    0.000    0.000 
#
# Total GULP energy -78313.208481 kJ/mol
# GULP energy per Si atom -5593.800606 kJ/mol
# Density = 2.531377 g / cm^3
# Si number density = 25.371512 Si / 1000 Ang^3
#
#
#
# Elastic Constant Matrix: (Units=GPa)
#
#
# Indices 1 2 3 4 5 6 
#
# 1 110.3179 30.7326 26.5929 2.7014 8.4025 -0.6480
# 2 30.7326 147.2011 31.0087 8.9346 14.1162 3.3886
# 3 26.5929 31.0087 41.9420 -2.9665 3.2869 7.2304
# 4 2.7014 8.9346 -2.9665 38.2551 3.2904 1.0587
# 5 8.4025 14.1162 3.2869 3.2904 45.1776 -9.3646
# 6 -0.6480 3.3886 7.2304 1.0587 -9.3646 40.1851
#
#
#
# Elastic Compliance Matrix: (Units=1/GPa)
#
#
# Indices 1 2 3 4 5 6 
#
# 1 0.010979 -0.000771 -0.006599 -0.001056 -0.000990 0.001227
# 2 -0.000771 0.008495 -0.005780 -0.002208 -0.001947 -0.000084
# 3 -0.006599 -0.005780 0.033755 0.004689 -0.001019 -0.006053
# 4 -0.001056 -0.002208 0.004689 0.027301 -0.001820 -0.001818
# 5 -0.000990 -0.001947 -0.001019 -0.001820 0.024391 0.006063
# 6 0.001227 -0.000084 -0.006053 -0.001818 0.006063 0.027462
#
#
# Mechanical properties :
#
#
# Convention : Reuss Voigt Hill
#
# Bulk Modulus (GPa) = 37.13777 52.90329 45.02053
# Shear Modulus (GPa) = 29.82219 38.79868 34.31043
#
# Velocity S-wave (km/s) = 3.43216 3.91477 3.68138
# Velocity P-wave (km/s) = 5.51141 6.42889 5.98775
#
# Compressibility (1/GPa) = 0.02692677
#
# Stress axis : x y z
#
# Youngs Moduli (GPa) = 91.08441 117.71910 29.62490
#
# Poissons Ratio (x) = 0.09079 0.19551
# Poissons Ratio (y) = 0.07025 0.17125
# Poissons Ratio (z) = 0.60110 0.68047
#
# Static dielectric constant tensor:
#      x y z
#    x 2.028150 0.043600 0.017810 
#    y 0.043600 1.839920 -0.071040 
#    z 0.017810 -0.071040 2.019240 
# 
# From -- ./inp_files/318563.got.cif
#   From: 2010.05.17/outbox.cif.g08.bks.cpg/sg2_160_cif.got.tgz:318563.got - 2010.06.03 11:33:40.
