data_PCOD9108565
_publ_section_title
;
Structure prediction by ZEFSAII (Michael W. Deem and Ramdas Pophale) SiO2 
 PCOD9108565
Probable space group: P -1
;
_chemical_formula_sum "Si O2"
_cell_formula_units_Z 14
_cell_length_a 9.152389
_cell_length_b 10.273977
_cell_length_c 23.222948
_cell_angle_alpha 140.031948
_cell_angle_beta 26.914656
_cell_angle_gamma 138.027378
_cell_volume 621.255999
_symmetry_space_group_name_H-M "P -1"
_symmetry_group_IT_number 2
_symmetry_cell_setting 'triclinic'
loop_
_space_group_symop_operation_xyz
x,y,z
-x,-y,-z
loop_
_atom_site_type_symbol
_atom_site_label
_atom_site_fract_x
_atom_site_fract_y
_atom_site_fract_z
Si Si1 0.905573 0.699328 0.760602
Si Si2 0.764943 0.098687 0.880313
Si Si3 0.016574 0.029453 0.073832
Si Si4 0.736443 0.837001 0.375122
Si Si5 0.676080 0.702379 0.171196
Si Si6 0.111958 0.914319 0.489119
Si Si7 0.773089 0.505353 0.525641
O O1 0.078810 0.783380 0.789116
O O2 0.589496 0.511321 0.816772
O O3 0.136375 0.628317 0.605969
O O4 0.780850 0.889996 0.838865
O O5 0.982782 0.116034 0.753239
O O6 0.986448 0.280024 0.904067
O O7 0.399056 0.074017 0.975042
O O8 0.801848 0.822950 0.109062
O O9 0.000000 0.000000 0.000000
O O10 0.568020 0.598082 0.359965
O O11 0.500000 0.000000 0.500000
O O12 0.855694 0.895549 0.416056
O O13 0.450529 0.834018 0.331690
O O14 0.851283 0.732535 0.549427
O O15 0.000000 0.000000 0.500000
O O16 0.000000 0.500000 0.500000
#
# Coordination Sequence:
#
# PCOD9108565 Si02
#       7
#     2   2   2   2   2   2   2
#     4  10  20  40  69  93 125 166 218 268 317 380
#     4  11  22  39  66  95 121 171 222 265 317 384
#     4  11  26  42  61  91 130 171 218 267 326 381
#     4  12  19  38  65  92 130 164 210 266 317 387
#     4  10  21  42  67  90 124 166 218 270 320 385
#     4  11  24  38  64  98 135 167 206 267 337 384
#     4  11  20  39  69 101 126 169 219 261 322 398
#
# _framework density 22.534994999999999
#
# number of rings (size 3 to 8) (size 9 to 14) (size 15 to 20)
#    0.000    1.143    4.286    3.429    2.000    3.429 
#    0.000    0.000    0.000    0.000    0.000    0.000 
#    0.000    0.000    0.000    0.000    0.000    0.000 
#
# Total GULP energy -78035.663972 kJ/mol
# GULP energy per Si atom -5573.975998 kJ/mol
# Density = 2.248370 g / cm^3
# Si number density = 22.534995 Si / 1000 Ang^3
#
#
#
# Elastic Constant Matrix: (Units=GPa)
#
#
# Indices 1 2 3 4 5 6 
#
# 1 115.7604 35.1673 4.5705 -29.4133 30.9260 13.4734
# 2 35.1673 124.1181 13.9644 -55.4768 -4.9466 16.2347
# 3 4.5705 13.9644 61.4798 -48.4322 4.9522 9.6392
# 4 -29.4133 -55.4768 -48.4322 37.4812 -9.7157 15.8021
# 5 30.9260 -4.9466 4.9522 -9.7157 32.8581 4.2332
# 6 13.4734 16.2347 9.6392 15.8021 4.2332 24.4123
#
#
#
# Elastic Compliance Matrix: (Units=1/GPa)
#
#
# Indices 1 2 3 4 5 6 
#
# 1 0.013398 -0.005519 -0.000736 -0.002574 -0.014181 0.000692
# 2 -0.005519 0.006314 -0.008721 -0.007998 0.004227 0.006735
# 3 -0.000736 -0.008721 0.005876 -0.013730 -0.007376 0.014052
# 4 -0.002574 -0.007998 -0.013730 -0.015816 -0.004372 0.023157
# 5 -0.014181 0.004227 -0.007376 -0.004372 0.043829 0.003158
# 6 0.000692 0.006735 0.014052 0.023157 0.003158 0.015017
#
#
# Mechanical properties :
#
#
# Convention : Reuss Voigt Hill
#
# Bulk Modulus (GPa) = -229.09657 45.41811 -91.83923
# Shear Modulus (GPa) = 51.48383 35.46070 43.47226
#
# Velocity S-wave (km/s) = 4.78495 3.97115 4.39692
# Velocity P-wave (km/s) = 8.44722 6.42066 3.88141
#
# Compressibility (1/GPa) = -0.00436497
#
# Stress axis : x y z
#
# Youngs Moduli (GPa) = 74.63606 158.36662 170.18092
#
# Poissons Ratio (x) = 0.87410 0.12528
# Poissons Ratio (y) = 0.41195 1.48420
# Poissons Ratio (z) = 0.05494 1.38117
#
# Static dielectric constant tensor:
#      x y z
#    x 1.812640 0.036730 -0.011620 
#    y 0.036730 1.819960 0.053450 
#    z -0.011620 0.053450 1.965990 
# 
# From -- ./inp_files/270970.got.cif
#   From: 2010.05.17/outbox.cif.g08.bks.cpg/sg2_136_cif.got.tgz:270970.got - 2010.06.03 11:33:40.
