data_PCOD9108734
_publ_section_title
;
Structure prediction by ZEFSAII (Michael W. Deem and Ramdas Pophale) SiO2 
 PCOD9108734
Probable space group: P -1
;
_chemical_formula_sum "Si O2"
_cell_formula_units_Z 14
_cell_length_a 5.059483
_cell_length_b 7.813425
_cell_length_c 25.394500
_cell_angle_alpha 34.658257
_cell_angle_beta 69.025707
_cell_angle_gamma 64.465109
_cell_volume 515.119648
_symmetry_space_group_name_H-M "P -1"
_symmetry_group_IT_number 2
_symmetry_cell_setting 'triclinic'
loop_
_space_group_symop_operation_xyz
x,y,z
-x,-y,-z
loop_
_atom_site_type_symbol
_atom_site_label
_atom_site_fract_x
_atom_site_fract_y
_atom_site_fract_z
Si Si1 0.118046 0.621460 0.594727
Si Si2 0.601021 0.729175 0.745302
Si Si3 0.253258 0.422004 0.457842
Si Si4 0.155661 0.661777 0.868037
Si Si5 0.799054 0.208620 0.344335
Si Si6 0.393691 0.210107 0.056428
Si Si7 0.032212 0.250454 0.892135
O O1 0.165836 0.561687 0.668692
O O2 0.892447 0.480210 0.613528
O O3 0.563204 0.493883 0.425666
O O4 0.000000 0.000000 0.500000
O O5 0.388637 0.833381 0.784594
O O6 0.414669 0.726052 0.706853
O O7 0.864395 0.892547 0.675220
O O8 0.774052 0.375037 0.838225
O O9 0.000000 0.500000 0.500000
O O10 0.321827 0.048407 0.551913
O O11 0.031623 0.546489 0.853217
O O12 0.891188 0.825665 0.883139
O O13 0.309195 0.345479 0.969564
O O14 0.664359 0.912016 0.116045
O O15 0.500000 0.500000 0.000000
O O16 0.000000 0.000000 0.000000
#
# Coordination Sequence:
#
# PCOD9108734 Si02
#       7
#     2   2   2   2   2   2   2
#     4  10  20  40  70  99 128 172 227 261 313 410
#     4  12  24  41  68  95 137 180 227 280 354 395
#     4  11  22  41  74 105 133 174 222 273 327 398
#     4  11  23  41  67  98 130 176 228 292 352 396
#     4  11  23  42  69 100 135 181 219 273 341 403
#     4  11  23  40  69  99 125 169 240 299 339 398
#     4  12  23  42  70  95 128 182 241 284 335 416
#
# _framework density 27.178152999999998
#
# number of rings (size 3 to 8) (size 9 to 14) (size 15 to 20)
#    0.000    0.857    4.286    5.143    0.000    0.000 
#    0.000    1.429   12.571    0.000    0.000    0.000 
#    0.000    0.000    0.000    0.000    0.000    0.000 
#
# Total GULP energy -78345.738410 kJ/mol
# GULP energy per Si atom -5596.124172 kJ/mol
# Density = 2.711629 g / cm^3
# Si number density = 27.178153 Si / 1000 Ang^3
#
#
#
# Elastic Constant Matrix: (Units=GPa)
#
#
# Indices 1 2 3 4 5 6 
#
# 1 174.0443 43.7528 48.3426 17.9208 34.5129 -23.7134
# 2 43.7528 112.5167 24.4150 23.7231 14.5693 -38.1433
# 3 48.3426 24.4150 112.7268 29.8003 11.9548 -16.2029
# 4 17.9208 23.7231 29.8003 35.0972 1.0798 -8.3141
# 5 34.5129 14.5693 11.9548 1.0798 65.9009 13.2164
# 6 -23.7134 -38.1433 -16.2029 -8.3141 13.2164 51.5901
#
#
#
# Elastic Compliance Matrix: (Units=1/GPa)
#
#
# Indices 1 2 3 4 5 6 
#
# 1 0.007901 -0.000746 -0.002064 -0.000843 -0.004264 0.003388
# 2 -0.000746 0.015138 0.001405 -0.008193 -0.005351 0.011341
# 3 -0.002064 0.001405 0.012714 -0.009922 -0.001973 0.002989
# 4 -0.000843 -0.008193 -0.009922 0.041838 0.004145 -0.003880
# 5 -0.004264 -0.005351 -0.001973 0.004145 0.021143 -0.011284
# 6 0.003388 0.011341 0.002989 -0.003880 -0.011284 0.032530
#
#
# Mechanical properties :
#
#
# Convention : Reuss Voigt Hill
#
# Bulk Modulus (GPa) = 30.35753 70.25651 50.30702
# Shear Modulus (GPa) = 34.46975 49.36947 41.91961
#
# Velocity S-wave (km/s) = 3.56517 4.26668 3.93160
# Velocity P-wave (km/s) = 5.30484 7.08373 6.25782
#
# Compressibility (1/GPa) = 0.03294076
#
# Stress axis : x y z
#
# Youngs Moduli (GPa) = 126.57322 66.06085 78.65463
#
# Poissons Ratio (x) = 0.04926 0.16238
# Poissons Ratio (y) = 0.09438 -0.11048
# Poissons Ratio (z) = 0.26131 -0.09279
#
# Static dielectric constant tensor:
#      x y z
#    x 2.180950 0.037410 -0.026120 
#    y 0.037410 2.203760 -0.078510 
#    z -0.026120 -0.078510 2.203960 
# 
# From -- ./inp_files/615138.got.cif
#   From: 2010.05.17/outbox.cif.g08.bks.cpg/sg2_308_cif.got.tgz:615138.got - 2010.06.03 11:33:40.
