data_PCOD9108928
_publ_section_title
;
Structure prediction by ZEFSAII (Michael W. Deem and Ramdas Pophale) SiO2 
 PCOD9108928
Probable space group: P -1
;
_chemical_formula_sum "Si O2"
_cell_formula_units_Z 16
_cell_length_a 12.112509
_cell_length_b 9.360070
_cell_length_c 11.208305
_cell_angle_alpha 124.104006
_cell_angle_beta 63.526015
_cell_angle_gamma 85.419420
_cell_volume 843.469738
_symmetry_space_group_name_H-M "P -1"
_symmetry_group_IT_number 2
_symmetry_cell_setting 'triclinic'
loop_
_space_group_symop_operation_xyz
x,y,z
-x,-y,-z
loop_
_atom_site_type_symbol
_atom_site_label
_atom_site_fract_x
_atom_site_fract_y
_atom_site_fract_z
Si Si1 0.367651 0.095545 0.022796
Si Si2 0.613805 0.784180 0.193456
Si Si3 0.143998 0.005339 0.414797
Si Si4 0.376011 0.601711 0.014108
Si Si5 0.859864 0.641071 0.570855
Si Si6 0.674852 0.585664 0.446924
Si Si7 0.320828 0.068894 0.550282
Si Si8 0.601498 0.296166 0.210314
O O1 0.254409 0.272018 0.230548
O O2 0.405263 0.151249 0.903678
O O3 0.500000 0.000000 0.000000
O O4 0.316371 0.933416 0.945755
O O5 0.693944 0.873475 0.277197
O O6 0.462306 0.876023 0.369809
O O7 0.681503 0.554455 0.055164
O O8 0.130966 0.179002 0.415380
O O9 0.200210 0.041722 0.531026
O O10 0.260427 0.804080 0.212315
O O11 0.000000 0.000000 0.500000
O O12 0.500000 0.500000 0.000000
O O13 0.433556 0.631582 0.874316
O O14 0.801671 0.544767 0.454760
O O15 0.000000 0.500000 0.500000
O O16 0.662804 0.758740 0.446914
O O17 0.679465 0.406320 0.286290
O O18 0.535978 0.658928 0.627108
#
# Coordination Sequence:
#
# PCOD9108928 Si02
#       8
#     2   2   2   2   2   2   2   2
#     4  12  21  41  65  93 123 162 208 256 308 363
#     4  11  22  36  64  95 125 157 202 255 315 365
#     4  11  25  44  63  88 126 166 205 257 308 364
#     4  12  23  38  63  99 123 158 210 259 300 366
#     4  11  25  44  63  88 126 166 207 252 310 369
#     4  10  21  38  63  91 128 161 198 254 317 360
#     4  10  20  41  59  93 131 158 197 256 317 361
#     4  11  21  38  64  95 124 160 203 257 310 362
#
# _framework density 18.969262000000001
#
# number of rings (size 3 to 8) (size 9 to 14) (size 15 to 20)
#    0.000    1.000    6.250    1.500    1.750    0.000 
#    2.250    2.500    0.000    0.000    0.000    0.000 
#    0.000    0.000    0.000    0.000    0.000    0.000 
#
# Total GULP energy -89378.388553 kJ/mol
# GULP energy per Si atom -5586.149285 kJ/mol
# Density = 1.892609 g / cm^3
# Si number density = 18.969262 Si / 1000 Ang^3
#
#
#
# Elastic Constant Matrix: (Units=GPa)
#
#
# Indices 1 2 3 4 5 6 
#
# 1 137.7181 33.3180 58.3219 6.2596 10.6421 -3.6718
# 2 33.3180 65.8277 27.3190 0.1968 11.0889 -6.2448
# 3 58.3219 27.3190 85.3542 5.0444 12.9351 -8.4236
# 4 6.2596 0.1968 5.0444 37.6486 -2.7480 6.0921
# 5 10.6421 11.0889 12.9351 -2.7480 31.9972 4.5156
# 6 -3.6718 -6.2448 -8.4236 6.0921 4.5156 33.1093
#
#
#
# Elastic Compliance Matrix: (Units=1/GPa)
#
#
# Indices 1 2 3 4 5 6 
#
# 1 0.010679 -0.002824 -0.006448 -0.000751 0.000091 -0.000863
# 2 -0.002824 0.019028 -0.003109 -0.000079 -0.004851 0.003161
# 3 -0.006448 -0.003109 0.018489 -0.002500 -0.005111 0.004559
# 4 -0.000751 -0.000079 -0.002500 0.028430 0.004661 -0.006601
# 5 0.000091 -0.004851 -0.005111 0.004661 0.036505 -0.008041
# 6 -0.000863 0.003161 0.004559 -0.006601 -0.008041 0.034175
#
#
# Mechanical properties :
#
#
# Convention : Reuss Voigt Hill
#
# Bulk Modulus (GPa) = 42.67154 58.53531 50.60343
# Shear Modulus (GPa) = 27.79668 31.88041 29.83855
#
# Velocity S-wave (km/s) = 3.83215 4.10400 3.97040
# Velocity P-wave (km/s) = 6.49033 7.30630 6.91037
#
# Compressibility (1/GPa) = 0.02343482
#
# Stress axis : x y z
#
# Youngs Moduli (GPa) = 93.64170 52.55408 54.08741
#
# Poissons Ratio (x) = 0.14842 0.34873
# Poissons Ratio (y) = 0.26446 0.16814
# Poissons Ratio (z) = 0.60376 0.16337
#
# Static dielectric constant tensor:
#      x y z
#    x 1.673370 0.014230 0.039110 
#    y 0.014230 1.686530 0.010080 
#    z 0.039110 0.010080 1.651990 
# 
# From -- ./inp_files/239780.got.cif
#   From: 2010.05.17/outbox.cif.g08.bks.cpg/sg2_120_cif.got.tgz:239780.got - 2010.06.03 11:33:40.
