data_PCOD9108439
_publ_section_title
;
Structure prediction by ZEFSAII (Michael W. Deem and Ramdas Pophale) SiO2 
 PCOD9108439
Probable space group: P -1
;
_chemical_formula_sum "Si O2"
_cell_formula_units_Z 14
_cell_length_a 5.560505
_cell_length_b 20.430642
_cell_length_c 19.877138
_cell_angle_alpha 157.963869
_cell_angle_beta 113.946573
_cell_angle_gamma 55.006452
_cell_volume 633.366566
_symmetry_space_group_name_H-M "P -1"
_symmetry_group_IT_number 2
_symmetry_cell_setting 'triclinic'
loop_
_space_group_symop_operation_xyz
x,y,z
-x,-y,-z
loop_
_atom_site_type_symbol
_atom_site_label
_atom_site_fract_x
_atom_site_fract_y
_atom_site_fract_z
Si Si1 0.490244 0.998590 0.776108
Si Si2 0.394583 0.743602 0.867009
Si Si3 0.727372 0.060373 0.612969
Si Si4 0.306188 0.906961 0.865917
Si Si5 0.646805 0.747400 0.127514
Si Si6 0.239995 0.746859 0.574092
Si Si7 0.794542 0.320287 0.775914
O O1 0.332788 0.872155 0.654508
O O2 0.867320 0.849881 0.652300
O O3 0.318916 0.166858 0.856280
O O4 0.460835 0.134674 0.968215
O O5 0.315403 0.787154 0.820178
O O6 0.604984 0.491936 0.662123
O O7 0.041806 0.881235 0.990875
O O8 0.680579 0.083405 0.708599
O O9 0.601962 0.283384 0.774435
O O10 0.500000 0.000000 0.500000
O O11 0.075305 0.873134 0.446668
O O12 0.410142 0.749878 0.665458
O O13 0.500000 0.000000 0.000000
O O14 0.920806 0.709992 0.174073
O O15 0.655698 0.535038 0.924229
#
# Coordination Sequence:
#
# PCOD9108439 Si02
#       7
#     2   2   2   2   2   2   2
#     4  11  26  43  60  95 133 168 215 259 315 392
#     4  10  23  42  64  96 129 169 214 261 316 373
#     4   9  18  35  56  87 112 142 201 252 301 375
#     4  10  20  40  68  96 128 163 219 267 301 375
#     4  10  21  37  59  84 117 160 198 258 313 360
#     4  11  25  43  66  92 131 176 210 259 320 373
#     4   9  19  37  62  84 113 153 206 255 310 362
#
# _framework density 22.104104
#
# number of rings (size 3 to 8) (size 9 to 14) (size 15 to 20)
#    0.000    2.000    1.429    0.857    4.000    1.714 
#    5.143    0.000    0.000    0.000    0.000    0.000 
#    0.000    0.000    0.000    0.000    0.000    0.000 
#
# Total GULP energy -78022.976210 kJ/mol
# GULP energy per Si atom -5573.069729 kJ/mol
# Density = 2.205379 g / cm^3
# Si number density = 22.104104 Si / 1000 Ang^3
#
#
#
# Elastic Constant Matrix: (Units=GPa)
#
#
# Indices 1 2 3 4 5 6 
#
# 1 95.6382 15.9890 37.5848 10.3175 20.4793 14.8357
# 2 15.9890 59.3468 21.5601 11.3483 -8.6771 19.7052
# 3 37.5848 21.5601 137.4868 15.0644 15.6020 8.2124
# 4 10.3175 11.3483 15.0644 9.9446 14.5227 3.6800
# 5 20.4793 -8.6771 15.6020 14.5227 24.2295 -1.2583
# 6 14.8357 19.7052 8.2124 3.6800 -1.2583 37.2701
#
#
#
# Elastic Compliance Matrix: (Units=1/GPa)
#
#
# Indices 1 2 3 4 5 6 
#
# 1 0.012005 0.005193 -0.001918 -0.026547 0.008643 -0.004189
# 2 0.005193 -0.001184 -0.003372 0.073815 -0.047383 -0.009586
# 3 -0.001918 -0.003372 0.008945 -0.001127 -0.004644 0.000530
# 4 -0.026547 0.073815 -0.001127 -0.209739 0.175230 -0.001586
# 5 0.008643 -0.047383 -0.004644 0.175230 -0.084913 0.002466
# 6 -0.004189 -0.009586 0.000530 -0.001586 0.002466 0.033690
#
#
# Mechanical properties :
#
#
# Convention : Reuss Voigt Hill
#
# Bulk Modulus (GPa) = 51.09241 49.19329 50.14285
# Shear Modulus (GPa) = -21.32402 28.77803 3.72700
#
# Velocity S-wave (km/s) = -3.10935 3.61214 1.29991
# Velocity P-wave (km/s) = 3.20530 6.30082 4.99871
#
# Compressibility (1/GPa) = 0.01957238
#
# Stress axis : x y z
#
# Youngs Moduli (GPa) = 83.30160 -844.78024 111.78946
#
# Poissons Ratio (x) = 4.38721 0.21440
# Poissons Ratio (y) = -0.43261 0.37699
# Poissons Ratio (z) = 0.15976 -2.84891
#
# Static dielectric constant tensor:
#      x y z
#    x 1.884970 0.007710 -0.044030 
#    y 0.007710 1.842090 0.002900 
#    z -0.044030 0.002900 1.851610 
# 
# From -- ./inp_files/584230.got.cif
#   From: 2010.05.17/outbox.cif.g08.bks.cpg/sg2_293_cif.got.tgz:584230.got - 2010.06.03 11:33:40.
