data_PCOD9108931
_publ_section_title
;
Structure prediction by ZEFSAII (Michael W. Deem and Ramdas Pophale) SiO2 
 PCOD9108931
Probable space group: P -1
;
_chemical_formula_sum "Si O2"
_cell_formula_units_Z 14
_cell_length_a 7.880318
_cell_length_b 13.952322
_cell_length_c 5.707190
_cell_angle_alpha 116.092930
_cell_angle_beta 87.043856
_cell_angle_gamma 85.766977
_cell_volume 559.528144
_symmetry_space_group_name_H-M "P -1"
_symmetry_group_IT_number 2
_symmetry_cell_setting 'triclinic'
loop_
_space_group_symop_operation_xyz
x,y,z
-x,-y,-z
loop_
_atom_site_type_symbol
_atom_site_label
_atom_site_fract_x
_atom_site_fract_y
_atom_site_fract_z
Si Si1 0.915219 0.679473 0.313365
Si Si2 0.805341 0.250408 0.934552
Si Si3 0.308857 0.101957 0.412089
Si Si4 0.609472 0.602100 0.119921
Si Si5 0.986771 0.847300 0.816956
Si Si6 0.309154 0.908899 0.563904
Si Si7 0.511478 0.372032 0.344605
O O1 0.780901 0.783745 0.362429
O O2 0.808189 0.581911 0.160226
O O3 0.958398 0.723521 0.614454
O O4 0.088345 0.677412 0.155831
O O5 0.942255 0.159476 0.936529
O O6 0.698260 0.316655 0.210778
O O7 0.676184 0.189496 0.726964
O O8 0.508357 0.095279 0.325300
O O9 0.809711 0.912888 0.823117
O O10 0.289547 0.014983 0.520279
O O11 0.538304 0.661912 0.428789
O O12 0.500000 0.500000 0.000000
O O13 0.597262 0.647857 0.903738
O O14 0.138918 0.887823 0.694670
O O15 0.500000 0.500000 0.500000
#
# Coordination Sequence:
#
# PCOD9108931 Si02
#       7
#     2   2   2   2   2   2   2
#     4   9  22  39  61  93 132 172 219 279 338 403
#     4  11  23  38  67  94 133 177 229 281 346 408
#     4   9  20  39  62  88 139 175 225 278 341 396
#     4  10  22  43  69  96 128 174 226 281 345 411
#     4   9  22  37  60  93 129 175 218 281 329 404
#     4  10  20  41  59  94 131 184 221 281 331 417
#     4  10  24  43  69  97 129 174 229 283 346 414
#
# _framework density 25.021083999999998
#
# number of rings (size 3 to 8) (size 9 to 14) (size 15 to 20)
#    0.857    1.429    0.000    1.286    8.000    0.571 
#    2.571    7.143    0.000    0.000    0.000    0.000 
#    0.000    0.000    0.000    0.000    0.000    0.000 
#
# Total GULP energy -78065.088298 kJ/mol
# GULP energy per Si atom -5576.077736 kJ/mol
# Density = 2.496414 g / cm^3
# Si number density = 25.021084 Si / 1000 Ang^3
#
#
#
# Elastic Constant Matrix: (Units=GPa)
#
#
# Indices 1 2 3 4 5 6 
#
# 1 132.1045 17.2695 31.8968 8.8338 13.2899 -1.9689
# 2 17.2695 67.4648 11.9392 7.1046 3.4340 -0.8258
# 3 31.8968 11.9392 112.2081 -4.5341 10.4171 -1.9185
# 4 8.8338 7.1046 -4.5341 27.6770 -3.0132 8.8117
# 5 13.2899 3.4340 10.4171 -3.0132 41.1039 -4.9941
# 6 -1.9689 -0.8258 -1.9185 8.8117 -4.9941 37.7323
#
#
#
# Elastic Compliance Matrix: (Units=1/GPa)
#
#
# Indices 1 2 3 4 5 6 
#
# 1 0.008756 -0.001368 -0.002251 -0.003311 -0.002294 0.000782
# 2 -0.001368 0.015924 -0.001394 -0.004313 -0.000715 0.001119
# 3 -0.002251 -0.001394 0.009943 0.002689 -0.001536 -0.000474
# 4 -0.003311 -0.004313 0.002689 0.042084 0.002667 -0.009605
# 5 -0.002294 -0.000715 -0.001536 0.002667 0.026032 0.002609
# 6 0.000782 0.001119 -0.000474 -0.009605 0.002609 0.029132
#
#
# Mechanical properties :
#
#
# Convention : Reuss Voigt Hill
#
# Bulk Modulus (GPa) = 40.65558 48.22091 44.43824
# Shear Modulus (GPa) = 33.31188 38.01410 35.66299
#
# Velocity S-wave (km/s) = 3.65273 3.90203 3.77943
# Velocity P-wave (km/s) = 5.83727 6.29405 6.06996
#
# Compressibility (1/GPa) = 0.02459687
#
# Stress axis : x y z
#
# Youngs Moduli (GPa) = 114.20848 62.79911 100.56944
#
# Poissons Ratio (x) = 0.08591 0.22637
# Poissons Ratio (y) = 0.15623 0.14022
# Poissons Ratio (z) = 0.25707 0.08756
#
# Static dielectric constant tensor:
#      x y z
#    x 1.862460 0.025720 0.116290 
#    y 0.025720 2.043890 0.031200 
#    z 0.116290 0.031200 1.962120 
# 
# From -- ./inp_files/39849.got.cif
#   From: 2010.05.17/outbox.cif.g08.bks.cpg/sg2_20_cif.got.tgz:39849.got - 2010.06.03 11:33:40.
