data_PCOD9108799
_publ_section_title
;
Structure prediction by ZEFSAII (Michael W. Deem and Ramdas Pophale) SiO2 
 PCOD9108799
Probable space group: P -1
;
_chemical_formula_sum "Si O2"
_cell_formula_units_Z 14
_cell_length_a 11.484978
_cell_length_b 9.161437
_cell_length_c 9.185551
_cell_angle_alpha 118.688172
_cell_angle_beta 52.049299
_cell_angle_gamma 138.622677
_cell_volume 503.452056
_symmetry_space_group_name_H-M "P -1"
_symmetry_group_IT_number 2
_symmetry_cell_setting 'triclinic'
loop_
_space_group_symop_operation_xyz
x,y,z
-x,-y,-z
loop_
_atom_site_type_symbol
_atom_site_label
_atom_site_fract_x
_atom_site_fract_y
_atom_site_fract_z
Si Si1 0.476696 0.167305 0.726925
Si Si2 0.894522 0.020357 0.274972
Si Si3 0.259542 0.435520 0.493651
Si Si4 0.416130 0.249015 0.134021
Si Si5 0.156530 0.347789 0.014881
Si Si6 0.000000 0.000000 0.500000
Si Si7 0.558291 0.185699 0.264288
Si Si8 0.000000 0.500000 0.000000
O O1 0.664379 0.390542 0.610259
O O2 0.292611 0.055736 0.708229
O O3 0.531387 0.020980 0.662271
O O4 0.409734 0.196511 0.947008
O O5 0.074346 0.266751 0.200403
O O6 0.879425 0.988487 0.441940
O O7 0.939398 0.868698 0.108968
O O8 0.246354 0.235835 0.333291
O O9 0.050702 0.248939 0.638750
O O10 0.407466 0.606057 0.587969
O O11 0.455080 0.133815 0.164619
O O12 0.611193 0.506782 0.110962
O O13 0.105409 0.483361 0.049303
O O14 0.781918 0.291325 0.130578
#
# Coordination Sequence:
#
# PCOD9108799 Si02
#       8
#     2   2   2   2   2   1   2   1
#     4  12  25  46  74 108 146 192 242 298 361 439
#     4  11  24  42  71  99 140 188 242 297 354 430
#     4  12  27  47  71 107 146 191 247 302 364 419
#     4  11  24  43  76 106 142 191 248 289 356 441
#     4  10  21  42  71 103 138 186 242 294 351 431
#     4  12  28  44  68 100 140 190 242 302 356 422
#     4  11  25  46  73 109 153 188 231 303 366 432
#     4  10  20  40  72 100 140 190 234 278 360 428
#
# _framework density 27.808009999999999
#
# number of rings (size 3 to 8) (size 9 to 14) (size 15 to 20)
#    0.000    0.857    2.857    4.286    6.000    1.143 
#    0.000    0.714    0.000    0.000    0.000    0.000 
#    0.000    0.000    0.000    0.000    0.000    0.000 
#
# Total GULP energy -77935.608941 kJ/mol
# GULP energy per Si atom -5566.829210 kJ/mol
# Density = 2.774472 g / cm^3
# Si number density = 27.808010 Si / 1000 Ang^3
#
#
#
# Elastic Constant Matrix: (Units=GPa)
#
#
# Indices 1 2 3 4 5 6 
#
# 1 134.1833 49.7426 45.3453 -8.1874 43.5671 -23.7220
# 2 49.7426 186.2256 35.3206 -32.7149 26.5025 -34.1220
# 3 45.3453 35.3206 117.0677 -23.6789 30.4627 -17.2588
# 4 -8.1874 -32.7149 -23.6789 47.6070 -5.2786 1.7198
# 5 43.5671 26.5025 30.4627 -5.2786 58.8160 -12.3502
# 6 -23.7220 -34.1220 -17.2588 1.7198 -12.3502 46.3714
#
#
#
# Elastic Compliance Matrix: (Units=1/GPa)
#
#
# Indices 1 2 3 4 5 6 
#
# 1 0.010986 -0.001428 -0.002113 -0.000890 -0.006015 0.002214
# 2 -0.001428 0.007505 0.000168 0.004719 -0.001064 0.004396
# 3 -0.002113 0.000168 0.011591 0.005039 -0.003597 0.002212
# 4 -0.000890 0.004719 0.005039 0.026364 -0.000941 0.003664
# 5 -0.006015 -0.001064 -0.003597 -0.000941 0.023972 0.001220
# 6 0.002214 0.004396 0.002212 0.003664 0.001220 0.026945
#
#
# Mechanical properties :
#
#
# Convention : Reuss Voigt Hill
#
# Bulk Modulus (GPa) = 42.85132 77.58819 60.21976
# Shear Modulus (GPa) = 41.02100 51.03009 46.02555
#
# Velocity S-wave (km/s) = 3.84494 4.28844 4.07273
# Velocity P-wave (km/s) = 5.92913 7.24451 6.61957
#
# Compressibility (1/GPa) = 0.02333650
#
# Stress axis : x y z
#
# Youngs Moduli (GPa) = 91.02499 133.23671 86.27323
#
# Poissons Ratio (x) = 0.19033 0.18229
# Poissons Ratio (y) = 0.13003 -0.01453
# Poissons Ratio (z) = 0.19233 -0.02244
#
# Static dielectric constant tensor:
#      x y z
#    x 2.114160 -0.054600 -0.165910 
#    y -0.054600 2.432390 0.226460 
#    z -0.165910 0.226460 2.528310 
# 
# From -- ./inp_files/235501.got.cif
#   From: 2010.05.17/outbox.cif.g08.bks.cpg/sg2_118_cif.got.tgz:235501.got - 2010.06.03 11:33:40.
