data_PCOD9108413
_publ_section_title
;
Structure prediction by ZEFSAII (Michael W. Deem and Ramdas Pophale) SiO2 
 PCOD9108413
Probable space group: P -1
;
_chemical_formula_sum "Si O2"
_cell_formula_units_Z 13
_cell_length_a 9.135058
_cell_length_b 6.861140
_cell_length_c 7.059633
_cell_angle_alpha 93.758074
_cell_angle_beta 88.600508
_cell_angle_gamma 104.681939
_cell_volume 427.093760
_symmetry_space_group_name_H-M "P -1"
_symmetry_group_IT_number 2
_symmetry_cell_setting 'triclinic'
loop_
_space_group_symop_operation_xyz
x,y,z
-x,-y,-z
loop_
_atom_site_type_symbol
_atom_site_label
_atom_site_fract_x
_atom_site_fract_y
_atom_site_fract_z
Si Si1 0.000000 0.500000 0.000000
Si Si2 0.352004 0.168765 0.253863
Si Si3 0.663715 0.362100 0.151057
Si Si4 0.564640 0.255397 0.719120
Si Si5 0.878459 0.371748 0.684765
Si Si6 0.032898 0.195922 0.330897
Si Si7 0.740963 0.935552 0.180415
O O1 0.827119 0.517892 0.139356
O O2 0.102560 0.713122 0.116129
O O3 0.504861 0.351052 0.271247
O O4 0.196562 0.168490 0.361913
O O5 0.397433 0.964720 0.296314
O O6 0.295071 0.147522 0.035356
O O7 0.696723 0.150745 0.200687
O O8 0.599761 0.337090 0.936536
O O9 0.714926 0.377471 0.613465
O O10 0.386394 0.211376 0.693719
O O11 0.943907 0.602861 0.792477
O O12 0.964992 0.286942 0.518066
O O13 0.913059 0.004628 0.244903
#
# Coordination Sequence:
#
# PCOD9108413 Si02
#       7
#     1   2   2   2   2   2   2
#     4  10  16  36  58  70  98 148 188 198 246 342
#     4   9  18  33  56  82 108 137 177 225 260 309
#     4   8  15  30  56  78  97 143 183 206 251 327
#     4   8  17  34  56  75 103 143 188 204 254 330
#     4  10  22  35  55  78 108 147 176 216 269 320
#     4  11  21  34  54  83 115 131 174 230 275 298
#     4   9  16  33  56  78 104 145 175 210 269 324
#
# _framework density 30.438281
#
# number of rings (size 3 to 8) (size 9 to 14) (size 15 to 20)
#    0.000    2.769    1.538    2.308    0.000    1.231 
#    0.000    7.692    0.000    0.000    0.000    0.000 
#    0.000    0.000    0.000    0.000    0.000    0.000 
#
# Total GULP energy -72573.929687 kJ/mol
# GULP energy per Si atom -5582.609976 kJ/mol
# Density = 3.036900 g / cm^3
# Si number density = 30.438281 Si / 1000 Ang^3
#
#
#
# Elastic Constant Matrix: (Units=GPa)
#
#
# Indices 1 2 3 4 5 6 
#
# 1 267.9547 54.1378 62.0650 4.7470 -8.5648 66.3257
# 2 54.1378 135.0731 5.2073 2.1857 11.9388 41.5308
# 3 62.0650 5.2073 110.7080 7.6222 6.0224 28.5190
# 4 4.7470 2.1857 7.6222 26.8361 11.8488 2.4640
# 5 -8.5648 11.9388 6.0224 11.8488 61.3256 -6.5785
# 6 66.3257 41.5308 28.5190 2.4640 -6.5785 63.8903
#
#
#
# Elastic Compliance Matrix: (Units=1/GPa)
#
#
# Indices 1 2 3 4 5 6 
#
# 1 0.005402 -0.000903 -0.001962 -0.000280 0.000741 -0.004058
# 2 -0.000903 0.010048 0.001900 0.000820 -0.003157 -0.006800
# 3 -0.001962 0.001900 0.011408 -0.001809 -0.001888 -0.004416
# 4 -0.000280 0.000820 -0.001809 0.041579 -0.008257 -0.001889
# 5 0.000741 -0.003157 -0.001888 -0.008257 0.019280 0.004429
# 6 -0.004058 -0.006800 -0.004416 -0.001889 0.004429 0.026785
#
#
# Mechanical properties :
#
#
# Convention : Reuss Voigt Hill
#
# Bulk Modulus (GPa) = 40.11205 84.06176 62.08691
# Shear Modulus (GPa) = 40.08337 56.56546 48.32442
#
# Velocity S-wave (km/s) = 3.63281 4.31555 3.98882
# Velocity P-wave (km/s) = 5.55006 7.24631 6.45416
#
# Compressibility (1/GPa) = 0.02493016
#
# Stress axis : x y z
#
# Youngs Moduli (GPa) = 185.12032 99.51900 87.65872
#
# Poissons Ratio (x) = 0.08984 0.17195
# Poissons Ratio (y) = 0.16711 -0.16658
# Poissons Ratio (z) = 0.36313 -0.18912
#
# Static dielectric constant tensor:
#      x y z
#    x 2.609280 0.033850 -0.211940 
#    y 0.033850 2.612340 -0.066030 
#    z -0.211940 -0.066030 2.466530 
# 
# From -- ./inp_files/155153.got.cif
#   From: 2010.05.17/outbox.cif.g08.bks.cpg/sg2_78_cif.got.tgz:155153.got - 2010.06.03 11:33:40.
