data_PCOD9108678
_publ_section_title
;
Structure prediction by ZEFSAII (Michael W. Deem and Ramdas Pophale) SiO2 
 PCOD9108678
Probable space group: P -1
;
_chemical_formula_sum "Si O2"
_cell_formula_units_Z 14
_cell_length_a 13.747249
_cell_length_b 13.089214
_cell_length_c 12.254356
_cell_angle_alpha 147.727778
_cell_angle_beta 40.470043
_cell_angle_gamma 147.756687
_cell_volume 620.043057
_symmetry_space_group_name_H-M "P -1"
_symmetry_group_IT_number 2
_symmetry_cell_setting 'triclinic'
loop_
_space_group_symop_operation_xyz
x,y,z
-x,-y,-z
loop_
_atom_site_type_symbol
_atom_site_label
_atom_site_fract_x
_atom_site_fract_y
_atom_site_fract_z
Si Si1 0.164249 0.072771 0.646767
Si Si2 0.258923 0.125713 0.164377
Si Si3 0.619019 0.771299 0.609109
Si Si4 0.968590 0.407603 0.614867
Si Si5 0.534845 0.416882 0.735845
Si Si6 0.113360 0.284623 0.166479
Si Si7 0.648183 0.200482 0.291100
O O1 0.231761 0.177237 0.562841
O O2 0.314113 0.263347 0.777696
O O3 0.956299 0.985104 0.765587
O O4 0.169913 0.845041 0.440836
O O5 0.291776 0.092200 0.231174
O O6 0.383289 0.397807 0.267596
O O7 0.326453 0.005810 0.921314
O O8 0.500000 0.500000 0.500000
O O9 0.486595 0.824649 0.710428
O O10 0.907037 0.573626 0.783739
O O11 0.028616 0.337631 0.390899
O O12 0.145329 0.561552 0.681090
O O13 0.670368 0.577369 0.862332
O O14 0.580005 0.232385 0.494210
O O15 0.000000 0.000000 0.000000
#
# Coordination Sequence:
#
# PCOD9108678 Si02
#       7
#     2   2   2   2   2   2   2
#     4  11  22  41  65  93 131 169 209 261 318 370
#     4  12  21  41  66  91 131 168 216 258 312 375
#     4  11  21  42  65  90 132 171 210 262 314 367
#     4  10  21  39  63  94 128 163 209 264 317 373
#     4  10  22  43  64  92 133 164 206 268 318 367
#     4  10  20  40  70  91 123 168 208 260 322 378
#     4  10  21  39  65  90 128 167 209 260 317 371
#
# _framework density 22.579076000000001
#
# number of rings (size 3 to 8) (size 9 to 14) (size 15 to 20)
#    0.000    1.429    5.714    1.714    0.000    0.571 
#    5.143    2.143    0.000    0.000    0.000    0.000 
#    0.000    0.000    0.000    0.000    0.000    0.000 
#
# Total GULP energy -78176.430336 kJ/mol
# GULP energy per Si atom -5584.030738 kJ/mol
# Density = 2.252769 g / cm^3
# Si number density = 22.579076 Si / 1000 Ang^3
#
#
#
# Elastic Constant Matrix: (Units=GPa)
#
#
# Indices 1 2 3 4 5 6 
#
# 1 128.0351 39.1722 29.4132 10.4397 -2.4127 30.9888
# 2 39.1722 96.9446 19.3011 10.7947 -16.3917 26.5709
# 3 29.4132 19.3011 114.8604 10.1748 -11.0383 12.3482
# 4 10.4397 10.7947 10.1748 21.1485 2.0003 6.8521
# 5 -2.4127 -16.3917 -11.0383 2.0003 35.9181 4.5778
# 6 30.9888 26.5709 12.3482 6.8521 4.5778 46.3504
#
#
#
# Elastic Compliance Matrix: (Units=1/GPa)
#
#
# Indices 1 2 3 4 5 6 
#
# 1 0.010170 -0.002344 -0.001579 -0.001493 -0.000177 -0.004796
# 2 -0.002344 0.015116 0.000036 -0.005010 0.007943 -0.007152
# 3 -0.001579 0.000036 0.009917 -0.003885 0.003348 -0.001363
# 4 -0.001493 -0.005010 -0.003885 0.053829 -0.006268 -0.002433
# 5 -0.000177 0.007943 0.003348 -0.006268 0.033818 -0.007740
# 6 -0.004796 -0.007152 -0.001363 -0.002433 -0.007740 0.030369
#
#
# Mechanical properties :
#
#
# Convention : Reuss Voigt Hill
#
# Bulk Modulus (GPa) = 36.45890 57.29033 46.87461
# Shear Modulus (GPa) = 29.38815 37.48030 33.43423
#
# Velocity S-wave (km/s) = 3.61164 4.07868 3.85224
# Velocity P-wave (km/s) = 5.79432 6.89993 6.37116
#
# Compressibility (1/GPa) = 0.02742815
#
# Stress axis : x y z
#
# Youngs Moduli (GPa) = 98.33211 66.15474 100.83616
#
# Poissons Ratio (x) = 0.15506 0.15927
# Poissons Ratio (y) = 0.23048 -0.00364
# Poissons Ratio (z) = 0.15532 -0.00239
#
# Static dielectric constant tensor:
#      x y z
#    x 1.865590 0.004510 0.034840 
#    y 0.004510 1.862280 -0.027530 
#    z 0.034840 -0.027530 1.886840 
# 
# From -- ./inp_files/533467.got.cif
#   From: 2010.05.17/outbox.cif.g08.bks.cpg/sg2_267_cif.got.tgz:533467.got - 2010.06.03 11:33:40.
