data_PCOD9108124
_publ_section_title
;
Structure prediction by ZEFSAII (Michael W. Deem and Ramdas Pophale) SiO2 
 PCOD9108124
Probable space group: P -1
;
_chemical_formula_sum "Si O2"
_cell_formula_units_Z 16
_cell_length_a 11.946942
_cell_length_b 12.337634
_cell_length_c 5.148841
_cell_angle_alpha 77.474215
_cell_angle_beta 95.026597
_cell_angle_gamma 122.512745
_cell_volume 624.360091
_symmetry_space_group_name_H-M "P -1"
_symmetry_group_IT_number 2
_symmetry_cell_setting 'triclinic'
loop_
_space_group_symop_operation_xyz
x,y,z
-x,-y,-z
loop_
_atom_site_type_symbol
_atom_site_label
_atom_site_fract_x
_atom_site_fract_y
_atom_site_fract_z
Si Si1 0.925449 0.689492 0.361570
Si Si2 0.334184 0.096805 0.184659
Si Si3 0.297629 0.595058 0.611915
Si Si4 0.083875 0.947900 0.926995
Si Si5 0.434321 0.573997 0.154018
Si Si6 0.403507 0.868358 0.712436
Si Si7 0.320806 0.291367 0.497215
Si Si8 0.835906 0.152293 0.394188
O O1 0.841858 0.541582 0.316698
O O2 0.818374 0.722687 0.438720
O O3 0.015049 0.801755 0.111193
O O4 0.040183 0.708154 0.573219
O O5 0.483553 0.142430 0.108178
O O6 0.326239 0.185299 0.366228
O O7 0.233370 0.068216 0.949352
O O8 0.259817 0.947073 0.354502
O O9 0.345556 0.594811 0.332407
O O10 0.320255 0.736699 0.592212
O O11 0.391681 0.588078 0.852088
O O12 0.087731 0.918875 0.644412
O O13 0.000000 0.000000 0.000000
O O14 0.388571 0.423708 0.266711
O O15 0.582530 0.665831 0.252308
O O16 0.277964 0.864410 0.819404
O O17 0.500000 0.000000 0.500000
#
# Coordination Sequence:
#
# PCOD9108124 Si02
#       8
#     2   2   2   2   2   2   2   2
#     4  10  24  39  64  95 137 175 227 275 349 414
#     4  10  21  41  64 100 127 178 228 281 346 406
#     4  11  24  46  69 106 138 184 231 290 347 415
#     4  11  23  38  64  97 136 179 222 280 345 417
#     4  10  24  41  67 107 144 177 229 280 355 414
#     4  10  23  47  70  94 134 178 236 292 344 409
#     4  10  20  40  67 100 142 179 217 287 345 420
#     4  10  23  44  62  94 133 180 233 282 341 406
#
# _framework density 25.626239000000002
#
# number of rings (size 3 to 8) (size 9 to 14) (size 15 to 20)
#    0.000    1.750    1.250    1.500    5.250    9.500 
#    6.750    0.625    0.000    0.000    0.000    0.000 
#    0.000    0.000    0.000    0.000    0.000    0.000 
#
# Total GULP energy -89233.864760 kJ/mol
# GULP energy per Si atom -5577.116547 kJ/mol
# Density = 2.556791 g / cm^3
# Si number density = 25.626239 Si / 1000 Ang^3
#
#
#
# Elastic Constant Matrix: (Units=GPa)
#
#
# Indices 1 2 3 4 5 6 
#
# 1 113.1325 48.2555 1.1910 12.9591 13.1835 25.5260
# 2 48.2555 186.8613 16.1040 9.2643 8.4254 31.2208
# 3 1.1910 16.1040 36.4279 7.9377 -5.7919 2.7706
# 4 12.9591 9.2643 7.9377 34.3092 8.4566 -0.5802
# 5 13.1835 8.4254 -5.7919 8.4566 26.2905 9.2508
# 6 25.5260 31.2208 2.7706 -0.5802 9.2508 47.9306
#
#
#
# Elastic Compliance Matrix: (Units=1/GPa)
#
#
# Indices 1 2 3 4 5 6 
#
# 1 0.011346 -0.002031 0.001336 -0.003626 -0.002011 -0.004452
# 2 -0.002031 0.006646 -0.002657 -0.000331 -0.000537 -0.002994
# 3 0.001336 -0.002657 0.033014 -0.010435 0.011982 -0.003328
# 4 -0.003626 -0.000331 -0.010435 0.036632 -0.014249 0.005943
# 5 -0.002011 -0.000537 0.011982 -0.014249 0.049614 -0.009020
# 6 -0.004452 -0.002994 -0.003328 0.005943 -0.009020 0.027190
#
#
# Mechanical properties :
#
#
# Convention : Reuss Voigt Hill
#
# Bulk Modulus (GPa) = 22.57252 51.94697 37.25974
# Shear Modulus (GPa) = 26.89411 39.76412 33.32912
#
# Velocity S-wave (km/s) = 3.24308 3.94343 3.61028
# Velocity P-wave (km/s) = 4.78026 6.40697 5.65244
#
# Compressibility (1/GPa) = 0.04430166
#
# Stress axis : x y z
#
# Youngs Moduli (GPa) = 88.14007 150.46942 30.28972
#
# Poissons Ratio (x) = 0.30555 -0.04045
# Poissons Ratio (y) = 0.17898 0.08048
# Poissons Ratio (z) = -0.11772 0.39981
#
# Static dielectric constant tensor:
#      x y z
#    x 2.243750 -0.156920 0.242650 
#    y -0.156920 2.095680 -0.124220 
#    z 0.242650 -0.124220 2.503750 
# 
# From -- ./inp_files/70710.got.cif
#   From: 2010.05.17/outbox.cif.g08.bks.cpg/sg2_36_cif.got.tgz:70710.got - 2010.06.03 11:33:40.
