data_PCOD9108102
_publ_section_title
;
Structure prediction by ZEFSAII (Michael W. Deem and Ramdas Pophale) SiO2 
 PCOD9108102
Probable space group: P -1
;
_chemical_formula_sum "Si O2"
_cell_formula_units_Z 15
_cell_length_a 12.760174
_cell_length_b 12.248395
_cell_length_c 7.021954
_cell_angle_alpha 128.493053
_cell_angle_beta 96.206499
_cell_angle_gamma 118.423303
_cell_volume 611.330681
_symmetry_space_group_name_H-M "P -1"
_symmetry_group_IT_number 2
_symmetry_cell_setting 'triclinic'
loop_
_space_group_symop_operation_xyz
x,y,z
-x,-y,-z
loop_
_atom_site_type_symbol
_atom_site_label
_atom_site_fract_x
_atom_site_fract_y
_atom_site_fract_z
Si Si1 0.412878 0.212289 0.120456
Si Si2 0.502190 0.668616 0.164608
Si Si3 0.169382 0.452142 0.964986
Si Si4 0.773381 0.004138 0.842718
Si Si5 0.265425 0.575691 0.532149
Si Si6 0.825046 0.807511 0.861670
Si Si7 0.118209 0.620062 0.820722
Si Si8 0.000000 0.000000 0.500000
O O1 0.438667 0.232652 0.923934
O O2 0.283120 0.000338 0.963731
O O3 0.567295 0.312761 0.349109
O O4 0.346073 0.301005 0.261381
O O5 0.626761 0.833023 0.513834
O O6 0.500000 0.500000 0.000000
O O7 0.337098 0.570831 0.060483
O O8 0.100189 0.503865 0.869287
O O9 0.189101 0.532362 0.268478
O O10 0.076965 0.224321 0.704780
O O11 0.867025 0.951022 0.852039
O O12 0.858239 0.194893 0.943370
O O13 0.181707 0.361636 0.367891
O O14 0.260554 0.690999 0.813143
O O15 0.897128 0.909613 0.187616
O O16 0.000000 0.500000 0.500000
#
# Coordination Sequence:
#
# PCOD9108102 Si02
#       8
#     2   2   2   2   2   2   2   1
#     4  10  21  40  69  99 134 171 219 284 346 391
#     4  12  22  40  71 110 137 168 230 290 344 400
#     4  11  24  43  71  99 139 178 233 281 340 409
#     4  10  25  43  68 100 145 172 229 280 343 406
#     4  11  21  44  71  94 133 178 224 289 344 384
#     4   9  20  41  66  98 134 173 225 277 340 404
#     4  12  28  49  65  98 142 189 231 274 332 424
#     4  10  20  40  66  98 134 182 216 282 338 396
#
# _framework density 24.536638
#
# number of rings (size 3 to 8) (size 9 to 14) (size 15 to 20)
#    0.800    0.533    2.667    3.600    0.000    2.667 
#    9.600    3.333    0.000    0.000    0.000    0.000 
#    0.000    0.000    0.000    0.000    0.000    0.000 
#
# Total GULP energy -83589.487815 kJ/mol
# GULP energy per Si atom -5572.632521 kJ/mol
# Density = 2.448079 g / cm^3
# Si number density = 24.536638 Si / 1000 Ang^3
#
#
#
# Elastic Constant Matrix: (Units=GPa)
#
#
# Indices 1 2 3 4 5 6 
#
# 1 64.3576 41.7351 3.2887 -1.3731 7.7996 -8.7182
# 2 41.7351 197.0440 43.6569 -4.3840 5.3233 -40.7593
# 3 3.2887 43.6569 61.2299 -8.1109 17.1731 -20.9874
# 4 -1.3731 -4.3840 -8.1109 33.5980 -5.5977 4.9033
# 5 7.7996 5.3233 17.1731 -5.5977 22.2584 -8.2460
# 6 -8.7182 -40.7593 -20.9874 4.9033 -8.2460 49.4331
#
#
#
# Elastic Compliance Matrix: (Units=1/GPa)
#
#
# Indices 1 2 3 4 5 6 
#
# 1 0.019766 -0.005121 0.005293 -0.000212 -0.009882 -0.000117
# 2 -0.005121 0.008172 -0.005700 -0.000192 0.005822 0.004405
# 3 0.005293 -0.005700 0.027353 0.002200 -0.019416 0.004390
# 4 -0.000212 -0.000192 0.002200 0.031434 0.005805 -0.001411
# 5 -0.009882 0.005822 -0.019416 0.005805 0.065341 0.005138
# 6 -0.000117 0.004405 0.004390 -0.001411 0.005138 0.026702
#
#
# Mechanical properties :
#
#
# Convention : Reuss Voigt Hill
#
# Bulk Modulus (GPa) = 22.60605 55.55477 39.08041
# Shear Modulus (GPa) = 24.44154 36.65461 30.54807
#
# Velocity S-wave (km/s) = 3.15957 3.86926 3.53228
# Velocity P-wave (km/s) = 4.74802 6.53087 5.70946
#
# Compressibility (1/GPa) = 0.04423595
#
# Stress axis : x y z
#
# Youngs Moduli (GPa) = 50.59185 122.36440 36.55840
#
# Poissons Ratio (x) = 0.62666 -0.19351
# Poissons Ratio (y) = 0.25909 0.20838
# Poissons Ratio (z) = -0.26780 0.69748
#
# Static dielectric constant tensor:
#      x y z
#    x 2.075930 0.040980 0.005300 
#    y 0.040980 2.011440 0.036060 
#    z 0.005300 0.036060 1.947480 
# 
# From -- ./inp_files/305929.got.cif
#   From: 2010.05.17/outbox.cif.g08.bks.cpg/sg2_153_cif.got.tgz:305929.got - 2010.06.03 11:33:40.
