data_PCOD9108990
_publ_section_title
;
Structure prediction by ZEFSAII (Michael W. Deem and Ramdas Pophale) SiO2 
 PCOD9108990
Probable space group: P -1
;
_chemical_formula_sum "Si O2"
_cell_formula_units_Z 14
_cell_length_a 14.401343
_cell_length_b 6.782085
_cell_length_c 10.983547
_cell_angle_alpha 120.125538
_cell_angle_beta 40.349202
_cell_angle_gamma 133.501501
_cell_volume 503.215325
_symmetry_space_group_name_H-M "P -1"
_symmetry_group_IT_number 2
_symmetry_cell_setting 'triclinic'
loop_
_space_group_symop_operation_xyz
x,y,z
-x,-y,-z
loop_
_atom_site_type_symbol
_atom_site_label
_atom_site_fract_x
_atom_site_fract_y
_atom_site_fract_z
Si Si1 0.394799 0.051385 0.460836
Si Si2 0.054730 0.455444 0.646037
Si Si3 0.472216 0.118171 0.942492
Si Si4 0.978889 0.752824 0.122059
Si Si5 0.436381 0.480115 0.376625
Si Si6 0.808269 0.652656 0.003385
Si Si7 0.755105 0.678495 0.734517
O O1 0.219762 0.770126 0.580682
O O2 0.512688 0.004507 0.237875
O O3 0.497288 0.756404 0.474557
O O4 0.347931 0.231252 0.481633
O O5 0.061205 0.300664 0.711477
O O6 0.069041 0.303762 0.465057
O O7 0.896565 0.496111 0.820654
O O8 0.635793 0.428815 0.865356
O O9 0.295242 0.104667 0.121966
O O10 0.500000 0.000000 0.000000
O O11 0.862167 0.718387 0.112377
O O12 0.123717 0.071460 0.055829
O O13 0.000000 0.500000 0.000000
O O14 0.333260 0.429057 0.342645
O O15 0.607480 0.504261 0.169117
#
# Coordination Sequence:
#
# PCOD9108990 Si02
#       7
#     2   2   2   2   2   2   2
#     4  10  22  37  62  94 127 158 201 256 317 353
#     4  10  22  38  58  89 119 173 208 246 296 390
#     4  10  20  41  61  89 118 170 205 254 300 377
#     4   9  18  35  56  81 121 173 209 235 296 390
#     4  11  22  38  61 100 130 153 196 273 316 356
#     4  10  21  36  57  84 132 163 198 251 322 357
#     4  10  23  38  65  92 119 158 221 251 300 370
#
# _framework density 27.821093000000001
#
# number of rings (size 3 to 8) (size 9 to 14) (size 15 to 20)
#    0.000    2.000    1.429    2.571    6.000    2.286 
#   10.286    0.000    0.000    8.571    0.000    0.000 
#    0.000    0.000    0.000    0.000    0.000    0.000 
#
# Total GULP energy -78409.763275 kJ/mol
# GULP energy per Si atom -5600.697377 kJ/mol
# Density = 2.775777 g / cm^3
# Si number density = 27.821093 Si / 1000 Ang^3
#
#
#
# Elastic Constant Matrix: (Units=GPa)
#
#
# Indices 1 2 3 4 5 6 
#
# 1 98.6099 38.7095 43.9184 -2.6475 15.6582 -22.3243
# 2 38.7095 214.8080 76.6467 -17.7123 12.7103 -20.0457
# 3 43.9184 76.6467 211.2943 27.0858 22.2889 -14.1416
# 4 -2.6475 -17.7123 27.0858 67.7618 -3.9882 18.9640
# 5 15.6582 12.7103 22.2889 -3.9882 40.8487 2.3093
# 6 -22.3243 -20.0457 -14.1416 18.9640 2.3093 52.8850
#
#
#
# Elastic Compliance Matrix: (Units=1/GPa)
#
#
# Indices 1 2 3 4 5 6 
#
# 1 0.013054 -0.001212 -0.001345 -0.000985 -0.004285 0.005232
# 2 -0.001212 0.005852 -0.002138 0.002245 0.000011 0.000329
# 3 -0.001345 -0.002138 0.006761 -0.004056 -0.003018 0.002016
# 4 -0.000985 0.002245 -0.004056 0.019351 0.004221 -0.007773
# 5 -0.004285 0.000011 -0.003018 0.004221 0.028482 -0.005369
# 6 0.005232 0.000329 0.002016 -0.007773 -0.005369 0.024803
#
#
# Mechanical properties :
#
#
# Convention : Reuss Voigt Hill
#
# Bulk Modulus (GPa) = 61.43578 93.69570 77.56574
# Shear Modulus (GPa) = 44.20146 56.66161 50.43153
#
# Velocity S-wave (km/s) = 3.99027 4.51781 4.26221
# Velocity P-wave (km/s) = 6.58483 7.80802 7.22237
#
# Compressibility (1/GPa) = 0.01627716
#
# Stress axis : x y z
#
# Youngs Moduli (GPa) = 76.60342 170.89055 147.90707
#
# Poissons Ratio (x) = 0.20710 0.19898
# Poissons Ratio (y) = 0.09284 0.31618
# Poissons Ratio (z) = 0.10305 0.36531
#
# Static dielectric constant tensor:
#      x y z
#    x 2.236010 0.076500 -0.022230 
#    y 0.076500 2.247930 0.039390 
#    z -0.022230 0.039390 2.220930 
# 
# From -- ./inp_files/39040.got.cif
#   From: 2010.05.17/outbox.cif.g08.bks.cpg/sg2_20_cif.got.tgz:39040.got - 2010.06.03 11:33:40.
