data_PCOD9108830
_publ_section_title
;
Structure prediction by ZEFSAII (Michael W. Deem and Ramdas Pophale) SiO2 
 PCOD9108830
Probable space group: P -1
;
_chemical_formula_sum "Si O2"
_cell_formula_units_Z 12
_cell_length_a 7.198160
_cell_length_b 5.430017
_cell_length_c 14.606717
_cell_angle_alpha 89.785339
_cell_angle_beta 121.445088
_cell_angle_gamma 115.993015
_cell_volume 418.556710
_symmetry_space_group_name_H-M "P -1"
_symmetry_group_IT_number 2
_symmetry_cell_setting 'triclinic'
loop_
_space_group_symop_operation_xyz
x,y,z
-x,-y,-z
loop_
_atom_site_type_symbol
_atom_site_label
_atom_site_fract_x
_atom_site_fract_y
_atom_site_fract_z
Si Si1 0.911455 0.039486 0.077780
Si Si2 0.881109 0.419568 0.265791
Si Si3 0.469379 0.834608 0.094353
Si Si4 0.961478 0.002044 0.596528
Si Si5 0.390054 0.713189 0.280295
Si Si6 0.614435 0.787931 0.662564
O O1 0.672896 0.812200 0.082042
O O2 0.147966 0.123087 0.205805
O O3 0.789713 0.235789 0.020626
O O4 0.000000 0.000000 0.000000
O O5 0.612865 0.177232 0.156048
O O6 0.886787 0.671688 0.325200
O O7 0.107689 0.585250 0.249447
O O8 0.962261 0.217163 0.339809
O O9 0.402086 0.679428 0.174743
O O10 0.000000 0.000000 0.500000
O O11 0.695240 0.889307 0.579986
O O12 0.506920 0.548538 0.362001
O O13 0.521137 0.049300 0.335801
#
# Coordination Sequence:
#
# PCOD9108830 Si02
#       6
#     2   2   2   2   2   2
#     4  11  22  44  64 105 138 184 233 278 334 418
#     4  10  22  42  66 102 135 172 232 280 336 413
#     4  11  23  41  70  99 138 192 221 281 348 400
#     4  10  20  40  72  97 130 180 223 279 352 402
#     4  10  21  41  65  91 136 177 221 272 337 394
#     4  10  21  43  62  94 138 169 224 285 319 403
#
# _framework density 28.669951000000001
#
# number of rings (size 3 to 8) (size 9 to 14) (size 15 to 20)
#    0.000    1.667    5.000    0.500    0.000    2.000 
#    0.000    4.167    0.000   24.000    0.000    0.000 
#    0.000    0.000    0.000    0.000    0.000    0.000 
#
# Total GULP energy -67087.421104 kJ/mol
# GULP energy per Si atom -5590.618425 kJ/mol
# Density = 2.860470 g / cm^3
# Si number density = 28.669951 Si / 1000 Ang^3
#
#
#
# Elastic Constant Matrix: (Units=GPa)
#
#
# Indices 1 2 3 4 5 6 
#
# 1 203.8919 43.1261 68.9502 -6.9028 -44.8905 23.5899
# 2 43.1261 177.3641 64.0600 -1.3013 -14.1804 -17.4330
# 3 68.9502 64.0600 154.2441 -17.6890 -59.1229 16.0253
# 4 -6.9028 -1.3013 -17.6890 38.3676 8.2043 3.5540
# 5 -44.8905 -14.1804 -59.1229 8.2043 61.5317 -7.1785
# 6 23.5899 -17.4330 16.0253 3.5540 -7.1785 36.1504
#
#
#
# Elastic Compliance Matrix: (Units=1/GPa)
#
#
# Indices 1 2 3 4 5 6 
#
# 1 0.006683 -0.001587 -0.000490 0.000578 0.003463 -0.004279
# 2 -0.001587 0.008127 -0.004635 -0.002197 -0.002664 0.006697
# 3 -0.000490 -0.004635 0.013842 0.004477 0.010531 -0.006400
# 4 0.000578 -0.002197 0.004477 0.028821 -0.000363 -0.006327
# 5 0.003463 -0.002664 0.010531 -0.000363 0.028026 -0.002612
# 6 -0.004279 0.006697 -0.006400 -0.006327 -0.002612 0.036624
#
#
# Mechanical properties :
#
#
# Convention : Reuss Voigt Hill
#
# Bulk Modulus (GPa) = 65.66803 98.64142 82.15473
# Shear Modulus (GPa) = 35.55566 51.16752 43.36159
#
# Velocity S-wave (km/s) = 3.52543 4.22916 3.89323
# Velocity P-wave (km/s) = 6.28698 7.63730 6.99480
#
# Compressibility (1/GPa) = 0.01522811
#
# Stress axis : x y z
#
# Youngs Moduli (GPa) = 149.63329 123.04498 72.24293
#
# Poissons Ratio (x) = 0.19533 0.03540
# Poissons Ratio (y) = 0.23753 0.33482
# Poissons Ratio (z) = 0.07333 0.57027
#
# Static dielectric constant tensor:
#      x y z
#    x 2.184930 0.023700 -0.000280 
#    y 0.023700 2.381900 0.078040 
#    z -0.000280 0.078040 2.256300 
# 
# From -- ./inp_files/487117.got.cif
#   From: 2010.05.17/outbox.cif.g08.bks.cpg/sg2_244_cif.got.tgz:487117.got - 2010.06.03 11:33:40.
