data_PCOD9108919
_publ_section_title
;
Structure prediction by ZEFSAII (Michael W. Deem and Ramdas Pophale) SiO2 
 PCOD9108919
Probable space group: P -1
;
_chemical_formula_sum "Si O2"
_cell_formula_units_Z 14
_cell_length_a 14.079595
_cell_length_b 20.210116
_cell_length_c 8.977603
_cell_angle_alpha 148.658635
_cell_angle_beta 41.124410
_cell_angle_gamma 153.087566
_cell_volume 601.045813
_symmetry_space_group_name_H-M "P -1"
_symmetry_group_IT_number 2
_symmetry_cell_setting 'triclinic'
loop_
_space_group_symop_operation_xyz
x,y,z
-x,-y,-z
loop_
_atom_site_type_symbol
_atom_site_label
_atom_site_fract_x
_atom_site_fract_y
_atom_site_fract_z
Si Si1 0.434189 0.636268 0.246988
Si Si2 0.087050 0.332119 0.287124
Si Si3 0.872538 0.908073 0.318883
Si Si4 0.614704 0.451769 0.198400
Si Si5 0.118223 0.806442 0.229531
Si Si6 0.236444 0.636776 0.925122
Si Si7 0.192620 0.722260 0.677402
O O1 0.228836 0.437907 0.174243
O O2 0.628150 0.730866 0.304796
O O3 0.391149 0.759679 0.529054
O O4 0.473401 0.618522 0.998594
O O5 0.209840 0.501018 0.580594
O O6 0.860454 0.249053 0.362000
O O7 0.058453 0.163965 0.007350
O O8 0.865756 0.032323 0.469082
O O9 0.000000 0.000000 0.500000
O O10 0.500000 0.500000 0.500000
O O11 0.602744 0.315902 0.052240
O O12 0.869140 0.625580 0.209883
O O13 0.259881 0.791707 0.121332
O O14 0.174871 0.811150 0.000484
O O15 0.000000 0.500000 0.000000
O O16 0.000000 0.500000 0.500000
#
# Coordination Sequence:
#
# PCOD9108919 Si02
#       7
#     2   2   2   2   2   2   2
#     4  11  22  40  67  93 129 167 222 258 318 390
#     4  11  20  41  68  95 127 169 212 267 315 385
#     4  12  25  38  60 101 136 165 206 277 331 365
#     4  11  22  41  66  95 124 172 218 262 313 392
#     4  11  21  42  60  96 133 161 207 273 317 375
#     4  10  21  39  68  91 120 171 217 252 315 385
#     4  10  16  36  66  89 122 158 211 260 311 363
#
# _framework density 23.292735
#
# number of rings (size 3 to 8) (size 9 to 14) (size 15 to 20)
#    0.000    1.143    7.143    2.143    0.000    1.714 
#    0.000    7.143    0.000    0.000    0.000    0.000 
#    0.000    0.000    0.000    0.000    0.000    0.000 
#
# Total GULP energy -78040.351979 kJ/mol
# GULP energy per Si atom -5574.310856 kJ/mol
# Density = 2.323972 g / cm^3
# Si number density = 23.292735 Si / 1000 Ang^3
#
#
#
# Elastic Constant Matrix: (Units=GPa)
#
#
# Indices 1 2 3 4 5 6 
#
# 1 118.7928 22.4603 51.2520 4.2541 -11.3255 14.5272
# 2 22.4603 12.6914 18.6840 -4.0948 0.6283 7.5653
# 3 51.2520 18.6840 147.7715 -8.5988 -32.9087 -9.7411
# 4 4.2541 -4.0948 -8.5988 30.9653 -12.6382 -11.5752
# 5 -11.3255 0.6283 -32.9087 -12.6382 38.5141 -4.7453
# 6 14.5272 7.5653 -9.7411 -11.5752 -4.7453 33.3164
#
#
#
# Elastic Compliance Matrix: (Units=1/GPa)
#
#
# Indices 1 2 3 4 5 6 
#
# 1 0.014818 -0.016888 -0.005115 -0.010555 -0.004235 -0.008392
# 2 -0.016888 0.203375 -0.040730 -0.034814 -0.063362 -0.071847
# 3 -0.005115 -0.040730 0.025304 0.029101 0.034509 0.033903
# 4 -0.010555 -0.034814 0.029101 0.081591 0.056171 0.057364
# 5 -0.004235 -0.063362 0.034509 0.056171 0.080736 0.057339
# 6 -0.008392 -0.071847 0.033903 0.057364 0.057339 0.087999
#
#
# Mechanical properties :
#
#
# Convention : Reuss Voigt Hill
#
# Bulk Modulus (GPa) = 8.47224 51.56093 30.01658
# Shear Modulus (GPa) = 7.59149 33.01644 20.30397
#
# Velocity S-wave (km/s) = 1.80727 3.76900 2.95564
# Velocity P-wave (km/s) = 2.82846 6.41284 4.95604
#
# Compressibility (1/GPa) = 0.11803252
#
# Stress axis : x y z
#
# Youngs Moduli (GPa) = 67.48461 4.91703 39.51888
#
# Poissons Ratio (x) = 0.08304 0.20213
# Poissons Ratio (y) = 1.13966 1.60960
# Poissons Ratio (z) = 0.34516 0.20027
#
# Static dielectric constant tensor:
#      x y z
#    x 1.996750 -0.016190 -0.122830 
#    y -0.016190 1.968060 -0.041050 
#    z -0.122830 -0.041050 2.216190 
# 
# From -- ./inp_files/319148.got.cif
#   From: 2010.05.17/outbox.cif.g08.bks.cpg/sg2_160_cif.got.tgz:319148.got - 2010.06.03 11:33:40.
