data_PCOD9108956
_publ_section_title
;
Structure prediction by ZEFSAII (Michael W. Deem and Ramdas Pophale) SiO2 
 PCOD9108956
Probable space group: P -1
;
_chemical_formula_sum "Si O2"
_cell_formula_units_Z 16
_cell_length_a 8.901208
_cell_length_b 16.595983
_cell_length_c 11.132326
_cell_angle_alpha 119.981267
_cell_angle_beta 116.435578
_cell_angle_gamma 111.457767
_cell_volume 831.255441
_symmetry_space_group_name_H-M "P -1"
_symmetry_group_IT_number 2
_symmetry_cell_setting 'triclinic'
loop_
_space_group_symop_operation_xyz
x,y,z
-x,-y,-z
loop_
_atom_site_type_symbol
_atom_site_label
_atom_site_fract_x
_atom_site_fract_y
_atom_site_fract_z
Si Si1 0.360556 0.042213 0.604781
Si Si2 0.570215 0.641673 0.793224
Si Si3 0.695077 0.645468 0.428843
Si Si4 0.899974 0.853669 0.863555
Si Si5 0.552625 0.720989 0.094899
Si Si6 0.141976 0.858598 0.160902
Si Si7 0.032623 0.254350 0.646461
Si Si8 0.814435 0.494453 0.994289
O O1 0.332394 0.131287 0.717932
O O2 0.657179 0.139921 0.763187
O O3 0.227000 0.970304 0.373927
O O4 0.230751 0.911145 0.547568
O O5 0.372546 0.473152 0.601920
O O6 0.644518 0.727999 0.762538
O O7 0.506917 0.685510 0.911434
O O8 0.847184 0.710535 0.972892
O O9 0.836070 0.781541 0.660252
O O10 0.876640 0.691883 0.417389
O O11 0.432840 0.578022 0.227885
O O12 0.119747 0.891615 0.044846
O O13 0.000000 0.000000 0.000000
O O14 0.748612 0.722373 0.205423
O O15 0.303414 0.601134 0.998651
O O16 0.037451 0.351624 0.793860
O O17 0.000000 0.500000 0.000000
#
# Coordination Sequence:
#
# PCOD9108956 Si02
#       8
#     2   2   2   2   2   2   2   2
#     4  11  22  36  64  91 124 159 190 264 318 336
#     4  10  20  41  61  83 119 154 212 245 287 369
#     4  11  21  40  63  84 120 166 196 248 303 354
#     4  10  24  38  63  89 117 161 215 239 294 368
#     4  11  21  35  62  93 120 157 204 248 309 356
#     4   9  23  38  60  88 127 151 208 246 307 355
#     4  11  21  38  58  95 122 155 203 249 302 368
#     4  11  24  36  62  95 127 153 198 257 308 359
#
# _framework density 19.247995
#
# number of rings (size 3 to 8) (size 9 to 14) (size 15 to 20)
#    0.750    0.750    3.750    1.500   10.500    0.000 
#    0.000    0.625    2.750    1.500    0.000    0.000 
#    0.000    0.000    0.000    0.000    0.000    0.000 
#
# Total GULP energy -89197.355957 kJ/mol
# GULP energy per Si atom -5574.834747 kJ/mol
# Density = 1.920419 g / cm^3
# Si number density = 19.247995 Si / 1000 Ang^3
#
#
#
# Elastic Constant Matrix: (Units=GPa)
#
#
# Indices 1 2 3 4 5 6 
#
# 1 106.1705 25.5001 30.4927 17.1735 -26.3113 12.8108
# 2 25.5001 73.6417 25.2502 16.8276 -15.8522 8.5968
# 3 30.4927 25.2502 61.7369 19.5080 -29.3597 -9.7515
# 4 17.1735 16.8276 19.5080 33.2183 -4.8812 -5.2904
# 5 -26.3113 -15.8522 -29.3597 -4.8812 35.5092 8.6781
# 6 12.8108 8.5968 -9.7515 -5.2904 8.6781 21.8984
#
#
#
# Elastic Compliance Matrix: (Units=1/GPa)
#
#
# Indices 1 2 3 4 5 6 
#
# 1 0.017710 0.003109 -0.002336 -0.010391 0.016441 -0.021647
# 2 0.003109 0.021261 -0.004298 -0.011253 0.011417 -0.019322
# 3 -0.002336 -0.004298 0.034276 -0.012524 0.021294 0.006853
# 4 -0.010391 -0.011253 -0.012524 0.049318 -0.022601 0.025791
# 5 0.016441 0.011417 0.021294 -0.022601 0.069095 -0.037460
# 6 -0.021647 -0.019322 0.006853 0.025791 -0.037460 0.090042
#
#
# Mechanical properties :
#
#
# Convention : Reuss Voigt Hill
#
# Bulk Modulus (GPa) = 15.10645 44.89278 29.99962
# Shear Modulus (GPa) = 16.08663 28.81225 22.44944
#
# Velocity S-wave (km/s) = 2.89408 3.87317 3.41886
# Velocity P-wave (km/s) = 4.36268 6.58604 5.58609
#
# Compressibility (1/GPa) = 0.06619690
#
# Stress axis : x y z
#
# Youngs Moduli (GPa) = 56.46455 47.03431 29.17513
#
# Poissons Ratio (x) = -0.14623 0.06815
# Poissons Ratio (y) = -0.17554 0.12540
# Poissons Ratio (z) = 0.13190 0.20216
#
# Static dielectric constant tensor:
#      x y z
#    x 1.658980 0.022020 0.008320 
#    y 0.022020 1.719000 0.006210 
#    z 0.008320 0.006210 1.668920 
# 
# From -- ./inp_files/403268.got.cif
#   From: 2010.05.17/outbox.cif.g08.bks.cpg/sg2_202_cif.got.tgz:403268.got - 2010.06.03 11:33:40.
