data_PCOD9108238
_publ_section_title
;
Structure prediction by ZEFSAII (Michael W. Deem and Ramdas Pophale) SiO2 
 PCOD9108238
Probable space group: P -1
;
_chemical_formula_sum "Si O2"
_cell_formula_units_Z 16
_cell_length_a 13.346782
_cell_length_b 20.355101
_cell_length_c 5.221715
_cell_angle_alpha 82.737403
_cell_angle_beta 89.106943
_cell_angle_gamma 27.598609
_cell_volume 637.414440
_symmetry_space_group_name_H-M "P -1"
_symmetry_group_IT_number 2
_symmetry_cell_setting 'triclinic'
loop_
_space_group_symop_operation_xyz
x,y,z
-x,-y,-z
loop_
_atom_site_type_symbol
_atom_site_label
_atom_site_fract_x
_atom_site_fract_y
_atom_site_fract_z
Si Si1 0.412817 0.644840 0.844196
Si Si2 0.809368 0.173859 0.752880
Si Si3 0.671950 0.744692 0.220905
Si Si4 0.167902 0.228665 0.016704
Si Si5 0.817791 0.016803 0.797767
Si Si6 0.926942 0.251819 0.268789
Si Si7 0.805947 0.422986 0.596343
Si Si8 0.940595 0.463553 0.274072
O O1 0.311710 0.719052 0.528313
O O2 0.666743 0.498890 0.823754
O O3 0.279164 0.658106 0.929773
O O4 0.346054 0.733959 0.030365
O O5 0.843184 0.079048 0.703764
O O6 0.035988 0.072476 0.902169
O O7 0.633421 0.839089 0.036682
O O8 0.434829 0.854301 0.232122
O O9 0.807492 0.607503 0.133431
O O10 0.837034 0.655004 0.505007
O O11 0.064578 0.268250 0.733172
O O12 0.113378 0.195466 0.198004
O O13 0.013135 0.375729 0.079626
O O14 0.925925 0.901588 0.652701
O O15 0.788291 0.371591 0.434415
O O16 0.781823 0.509219 0.428253
#
# Coordination Sequence:
#
# PCOD9108238 Si02
#       8
#     2   2   2   2   2   2   2   2
#     4  11  24  43  73  99 133 176 225 282 337 386
#     4  10  25  46  67 105 133 169 230 282 327 400
#     4  10  20  40  67  94 126 174 217 275 340 389
#     4  10  22  40  60  96 129 169 221 282 319 401
#     4  10  23  44  67  94 137 177 218 271 338 401
#     4  10  24  41  60  95 137 176 221 268 324 413
#     4  10  22  38  67  93 135 174 218 277 336 392
#     4   9  20  40  63  99 129 158 228 281 331 388
#
# _framework density 25.101406999999998
#
# number of rings (size 3 to 8) (size 9 to 14) (size 15 to 20)
#    0.000    2.000    0.000    1.500    8.750    5.500 
#    6.750    5.625    0.000    0.000    0.000    0.000 
#    0.000    0.000    0.000    0.000    0.000    0.000 
#
# Total GULP energy -89090.329010 kJ/mol
# GULP energy per Si atom -5568.145563 kJ/mol
# Density = 2.504428 g / cm^3
# Si number density = 25.101407 Si / 1000 Ang^3
#
#
#
# Elastic Constant Matrix: (Units=GPa)
#
#
# Indices 1 2 3 4 5 6 
#
# 1 144.2681 46.4735 28.0080 15.0596 8.7973 1.8811
# 2 46.4735 82.6945 5.9126 11.1881 10.6694 -29.4268
# 3 28.0080 5.9126 55.7640 0.2566 -7.1686 -3.3183
# 4 15.0596 11.1881 0.2566 24.3735 -5.8134 4.1336
# 5 8.7973 10.6694 -7.1686 -5.8134 33.3374 3.5264
# 6 1.8811 -29.4268 -3.3183 4.1336 3.5264 38.2902
#
#
#
# Elastic Compliance Matrix: (Units=1/GPa)
#
#
# Indices 1 2 3 4 5 6 
#
# 1 0.010726 -0.007388 -0.005137 -0.002438 -0.001333 -0.006264
# 2 -0.007388 0.029283 0.000564 -0.016344 -0.012888 0.025868
# 3 -0.005137 0.000564 0.021334 0.003930 0.006286 0.001531
# 4 -0.002438 -0.016344 0.003930 0.057923 0.018946 -0.020098
# 5 -0.001333 -0.012888 0.006286 0.018946 0.040724 -0.015090
# 6 -0.006264 0.025868 0.001531 -0.020098 -0.015090 0.049996
#
#
# Mechanical properties :
#
#
# Convention : Reuss Voigt Hill
#
# Bulk Modulus (GPa) = 26.72276 49.27942 38.00109
# Shear Modulus (GPa) = 20.29360 32.68906 26.49133
#
# Velocity S-wave (km/s) = 2.84644 3.61263 3.25217
# Velocity P-wave (km/s) = 4.63378 6.08902 5.41055
#
# Compressibility (1/GPa) = 0.03742128
#
# Stress axis : x y z
#
# Youngs Moduli (GPa) = 93.23046 34.14899 46.87320
#
# Poissons Ratio (x) = 0.25229 0.24078
# Poissons Ratio (y) = 0.68878 -0.02642
# Poissons Ratio (z) = 0.47891 -0.01924
#
# Static dielectric constant tensor:
#      x y z
#    x 2.089010 -0.024090 -0.100510 
#    y -0.024090 2.141600 0.005860 
#    z -0.100510 0.005860 2.051790 
# 
# From -- ./inp_files/83228.got.cif
#   From: 2010.05.17/outbox.cif.g08.bks.cpg/sg2_42_cif.got.tgz:83228.got - 2010.06.03 11:33:40.
