data_PCOD9108627
_publ_section_title
;
Structure prediction by ZEFSAII (Michael W. Deem and Ramdas Pophale) SiO2 
 PCOD9108627
Probable space group: P -1
;
_chemical_formula_sum "Si O2"
_cell_formula_units_Z 16
_cell_length_a 8.965489
_cell_length_b 9.079125
_cell_length_c 21.971006
_cell_angle_alpha 52.924472
_cell_angle_beta 129.614587
_cell_angle_gamma 148.309277
_cell_volume 715.671167
_symmetry_space_group_name_H-M "P -1"
_symmetry_group_IT_number 2
_symmetry_cell_setting 'triclinic'
loop_
_space_group_symop_operation_xyz
x,y,z
-x,-y,-z
loop_
_atom_site_type_symbol
_atom_site_label
_atom_site_fract_x
_atom_site_fract_y
_atom_site_fract_z
Si Si1 0.222701 0.329589 0.845557
Si Si2 0.333990 0.159726 0.249032
Si Si3 0.670712 0.001932 0.993112
Si Si4 0.198753 0.825339 0.612054
Si Si5 0.549077 0.641781 0.644788
Si Si6 0.413060 0.575990 0.403634
Si Si7 0.093443 0.782135 0.455892
Si Si8 0.753398 0.518677 0.059369
O O1 0.526612 0.636119 0.823474
O O2 0.272740 0.154981 0.921584
O O3 0.116690 0.368387 0.867205
O O4 0.980306 0.150865 0.773807
O O5 0.566086 0.167756 0.325054
O O6 0.329179 0.292617 0.272310
O O7 0.437751 0.798296 0.928358
O O8 0.500000 0.000000 0.000000
O O9 0.985606 0.280052 0.973541
O O10 0.144193 0.857480 0.521391
O O11 0.879882 0.528773 0.625519
O O12 0.323393 0.087064 0.617747
O O13 0.669895 0.598836 0.633947
O O14 0.198701 0.348472 0.620436
O O15 0.634776 0.916195 0.580733
O O16 0.500000 0.500000 0.500000
O O17 0.000000 0.500000 0.500000
O O18 0.500000 0.500000 0.000000
#
# Coordination Sequence:
#
# PCOD9108627 Si02
#       8
#     2   2   2   2   2   2   2   2
#     4  11  23  44  65  93 134 175 213 252 323 399
#     4  12  26  42  61  90 131 179 210 258 325 414
#     4  11  22  41  73 111 133 164 219 282 317 371
#     4  12  24  40  62  88 120 160 221 269 329 387
#     4  12  25  39  62  88 124 163 213 274 344 377
#     4  12  23  41  62  91 115 156 210 294 343 376
#     4  12  22  37  63  91 113 153 223 287 316 372
#     4  10  20  40  70 100 133 173 221 267 311 376
#
# _framework density 22.356634
#
# number of rings (size 3 to 8) (size 9 to 14) (size 15 to 20)
#    0.000    0.500    3.750    7.125    1.750    0.000 
#    0.000    7.500    0.000    0.000    0.000    0.000 
#    0.000    0.000    0.000    0.000    0.000    0.000 
#
# Total GULP energy -89336.385702 kJ/mol
# GULP energy per Si atom -5583.524106 kJ/mol
# Density = 2.230575 g / cm^3
# Si number density = 22.356634 Si / 1000 Ang^3
#
#
#
# Elastic Constant Matrix: (Units=GPa)
#
#
# Indices 1 2 3 4 5 6 
#
# 1 98.0742 28.5606 20.5935 13.7151 -26.0491 -1.0527
# 2 28.5606 112.7638 9.1888 6.4207 -2.6562 7.4336
# 3 20.5935 9.1888 45.2274 12.3052 -17.8495 -5.9022
# 4 13.7151 6.4207 12.3052 42.9959 -0.1640 -9.9530
# 5 -26.0491 -2.6562 -17.8495 -0.1640 26.7630 6.3449
# 6 -1.0527 7.4336 -5.9022 -9.9530 6.3449 32.7512
#
#
#
# Elastic Compliance Matrix: (Units=1/GPa)
#
#
# Indices 1 2 3 4 5 6 
#
# 1 0.016180 -0.003222 0.001080 -0.005755 0.016965 -0.003590
# 2 -0.003222 0.009945 -0.001845 -0.000469 -0.002841 -0.002286
# 3 0.001080 -0.001845 0.033894 -0.009919 0.023659 -0.001036
# 4 -0.005755 -0.000469 -0.009919 0.030296 -0.014484 0.010147
# 5 0.016965 -0.002841 0.023659 -0.014484 0.072360 -0.012966
# 6 -0.003590 -0.002286 -0.001036 0.010147 -0.012966 0.036345
#
#
# Mechanical properties :
#
#
# Convention : Reuss Voigt Hill
#
# Bulk Modulus (GPa) = 19.21411 41.41682 30.31547
# Shear Modulus (GPa) = 22.28721 33.68351 27.98536
#
# Velocity S-wave (km/s) = 3.16079 3.88576 3.54187
# Velocity P-wave (km/s) = 4.68335 6.22077 5.50599
#
# Compressibility (1/GPa) = 0.05204507
#
# Stress axis : x y z
#
# Youngs Moduli (GPa) = 61.80369 100.55291 29.50362
#
# Poissons Ratio (x) = 0.32400 -0.03187
# Poissons Ratio (y) = 0.19914 0.05444
# Poissons Ratio (z) = -0.06676 0.18554
#
# Static dielectric constant tensor:
#      x y z
#    x 1.955670 0.036880 -0.014530 
#    y 0.036880 1.838120 0.008450 
#    z -0.014530 0.008450 1.868990 
# 
# From -- ./inp_files/587919.got.cif
#   From: 2010.05.17/outbox.cif.g08.bks.cpg/sg2_294_cif.got.tgz:587919.got - 2010.06.03 11:33:40.
