data_PCOD9108869
_publ_section_title
;
Structure prediction by ZEFSAII (Michael W. Deem and Ramdas Pophale) SiO2 
 PCOD9108869
Probable space group: P -1
;
_chemical_formula_sum "Si O2"
_cell_formula_units_Z 14
_cell_length_a 19.314734
_cell_length_b 5.471860
_cell_length_c 20.757863
_cell_angle_alpha 116.266461
_cell_angle_beta 159.961023
_cell_angle_gamma 54.896294
_cell_volume 576.452891
_symmetry_space_group_name_H-M "P -1"
_symmetry_group_IT_number 2
_symmetry_cell_setting 'triclinic'
loop_
_space_group_symop_operation_xyz
x,y,z
-x,-y,-z
loop_
_atom_site_type_symbol
_atom_site_label
_atom_site_fract_x
_atom_site_fract_y
_atom_site_fract_z
Si Si1 0.755658 0.723588 0.852018
Si Si2 0.932077 0.648790 0.388384
Si Si3 0.870751 0.254316 0.611343
Si Si4 0.333407 0.698479 0.696605
Si Si5 0.636400 0.922847 0.543515
Si Si6 0.900380 0.183876 0.003373
Si Si7 0.842330 0.435383 0.161718
O O1 0.530452 0.808184 0.621879
O O2 0.770039 0.549254 0.910088
O O3 0.000000 0.500000 0.000000
O O4 0.751785 0.051359 0.890914
O O5 0.791867 0.555538 0.206000
O O6 0.000000 0.500000 0.500000
O O7 0.185269 0.530048 0.562649
O O8 0.774534 0.020589 0.311419
O O9 0.749693 0.191674 0.436659
O O10 0.689678 0.578381 0.527473
O O11 0.054545 0.358562 0.756861
O O12 0.985417 0.944942 0.721200
O O13 0.609485 0.510813 0.929009
O O14 0.880724 0.899024 0.769823
O O15 0.500000 0.000000 0.500000
O O16 0.000000 0.000000 0.000000
#
# Coordination Sequence:
#
# PCOD9108869 Si02
#       7
#     2   2   2   2   2   2   2
#     4  10  22  41  64  94 121 155 215 281 342 399
#     4  10  20  40  74 107 139 176 233 268 320 419
#     4  11  28  45  63 102 138 181 232 283 339 415
#     4  10  23  43  68 104 145 182 221 279 334 396
#     4  12  25  46  72  95 132 180 233 298 347 395
#     4  10  22  40  62  94 120 153 214 275 339 406
#     4  11  25  47  69 100 144 184 222 270 350 400
#
# _framework density 24.286460999999999
#
# number of rings (size 3 to 8) (size 9 to 14) (size 15 to 20)
#    0.000    1.429    4.286    0.429    2.000    8.571 
#    0.000    0.000    0.000    0.000    0.000    0.000 
#    0.000    0.000    0.000    0.000    0.000    0.000 
#
# Total GULP energy -78267.781171 kJ/mol
# GULP energy per Si atom -5590.555798 kJ/mol
# Density = 2.423118 g / cm^3
# Si number density = 24.286461 Si / 1000 Ang^3
#
#
#
# Elastic Constant Matrix: (Units=GPa)
#
#
# Indices 1 2 3 4 5 6 
#
# 1 83.6455 32.7554 49.2419 1.5388 -14.4705 12.8542
# 2 32.7554 91.4118 48.3050 -1.8190 -7.1954 5.7026
# 3 49.2419 48.3050 220.6254 -0.1713 -31.4442 17.1736
# 4 1.5388 -1.8190 -0.1713 30.1988 -0.2790 -9.8155
# 5 -14.4705 -7.1954 -31.4442 -0.2790 24.3136 -5.0486
# 6 12.8542 5.7026 17.1736 -9.8155 -5.0486 57.9154
#
#
#
# Elastic Compliance Matrix: (Units=1/GPa)
#
#
# Indices 1 2 3 4 5 6 
#
# 1 0.015984 -0.004305 -0.001638 -0.001831 0.005588 -0.002461
# 2 -0.004305 0.013552 -0.002224 0.001126 -0.001342 0.000354
# 3 -0.001638 -0.002224 0.006362 -0.000208 0.006431 -0.000779
# 4 -0.001831 0.001126 -0.000208 0.035365 0.000712 0.006413
# 5 0.005588 -0.001342 0.006431 0.000712 0.052736 0.001703
# 6 -0.002461 0.000354 -0.000779 0.006413 0.001703 0.019244
#
#
# Mechanical properties :
#
#
# Convention : Reuss Voigt Hill
#
# Bulk Modulus (GPa) = 51.11577 72.92080 62.01828
# Shear Modulus (GPa) = 30.10234 40.17758 35.13996
#
# Velocity S-wave (km/s) = 3.52443 4.07175 3.80793
# Velocity P-wave (km/s) = 6.13636 7.22468 6.70264
#
# Compressibility (1/GPa) = 0.01956344
#
# Stress axis : x y z
#
# Youngs Moduli (GPa) = 62.56195 73.78913 157.17785
#
# Poissons Ratio (x) = 0.31765 0.25752
# Poissons Ratio (y) = 0.26932 0.34961
# Poissons Ratio (z) = 0.10250 0.16413
#
# Static dielectric constant tensor:
#      x y z
#    x 1.988540 0.023560 -0.011830 
#    y 0.023560 2.076680 -0.045280 
#    z -0.011830 -0.045280 1.979180 
# 
# From -- ./inp_files/584194.got.cif
#   From: 2010.05.17/outbox.cif.g08.bks.cpg/sg2_293_cif.got.tgz:584194.got - 2010.06.03 11:33:40.
