data_PCOD9108471
_publ_section_title
;
Structure prediction by ZEFSAII (Michael W. Deem and Ramdas Pophale) SiO2 
 PCOD9108471
Probable space group: P -1
;
_chemical_formula_sum "Si O2"
_cell_formula_units_Z 16
_cell_length_a 10.760139
_cell_length_b 11.575542
_cell_length_c 15.015792
_cell_angle_alpha 68.137136
_cell_angle_beta 112.704390
_cell_angle_gamma 51.446912
_cell_volume 711.601535
_symmetry_space_group_name_H-M "P -1"
_symmetry_group_IT_number 2
_symmetry_cell_setting 'triclinic'
loop_
_space_group_symop_operation_xyz
x,y,z
-x,-y,-z
loop_
_atom_site_type_symbol
_atom_site_label
_atom_site_fract_x
_atom_site_fract_y
_atom_site_fract_z
Si Si1 0.814108 0.777501 0.023323
Si Si2 0.468437 0.191335 0.953579
Si Si3 0.471012 0.114274 0.377465
Si Si4 0.719105 0.237237 0.073502
Si Si5 0.975258 0.617529 0.538227
Si Si6 0.606157 0.256465 0.352558
Si Si7 0.967409 0.898257 0.398762
Si Si8 0.990693 0.876534 0.979216
O O1 0.600557 0.832057 0.969310
O O2 0.128945 0.448898 0.177110
O O3 0.756666 0.951786 0.897583
O O4 0.762031 0.887044 0.074385
O O5 0.524236 0.291411 0.954917
O O6 0.192670 0.409441 0.742915
O O7 0.674708 0.067847 0.469578
O O8 0.500000 0.000000 0.500000
O O9 0.632225 0.917182 0.394637
O O10 0.910931 0.163439 0.080626
O O11 0.500000 0.500000 0.000000
O O12 0.941312 0.971344 0.272501
O O13 0.056735 0.683548 0.499646
O O14 0.000000 0.500000 0.500000
O O15 0.270553 0.574121 0.188340
O O16 0.804790 0.204650 0.454264
O O17 0.653132 0.186503 0.281492
O O18 0.000000 0.000000 0.000000
#
# Coordination Sequence:
#
# PCOD9108471 Si02
#       8
#     2   2   2   2   2   2   2   2
#     4  10  23  41  72  95 134 182 224 278 345 399
#     4  11  24  45  71 100 135 182 228 281 344 403
#     4  10  20  40  68  97 131 178 216 277 340 396
#     4  12  25  41  70 100 136 177 231 274 335 410
#     4  11  25  42  70  98 136 176 225 276 342 407
#     4   9  20  40  66  92 132 168 218 273 334 387
#     4  10  22  39  66  98 126 172 223 272 324 404
#     4  11  21  41  67  95 134 178 218 278 339 392
#
# _framework density 22.484493000000001
#
# number of rings (size 3 to 8) (size 9 to 14) (size 15 to 20)
#    0.000    1.500    3.750    0.750    7.000    0.000 
#    0.000    4.375    0.000    0.000    0.000    0.000 
#    0.000    0.000    0.000    0.000    0.000    0.000 
#
# Total GULP energy -89084.281052 kJ/mol
# GULP energy per Si atom -5567.767566 kJ/mol
# Density = 2.243332 g / cm^3
# Si number density = 22.484493 Si / 1000 Ang^3
#
#
#
# Elastic Constant Matrix: (Units=GPa)
#
#
# Indices 1 2 3 4 5 6 
#
# 1 185.5686 52.4149 21.5652 11.7731 -42.5207 -1.4801
# 2 52.4149 127.2971 25.6963 -12.8049 -2.0628 6.6971
# 3 21.5652 25.6963 46.4909 -0.2748 -19.8318 5.5524
# 4 11.7731 -12.8049 -0.2748 27.6213 -2.4232 -1.1115
# 5 -42.5207 -2.0628 -19.8318 -2.4232 37.7506 3.3874
# 6 -1.4801 6.6971 5.5524 -1.1115 3.3874 40.3637
#
#
#
# Elastic Compliance Matrix: (Units=1/GPa)
#
#
# Indices 1 2 3 4 5 6 
#
# 1 0.009402 -0.004865 0.003388 -0.005211 0.011810 -0.000449
# 2 -0.004865 0.012025 -0.007982 0.006811 -0.008563 -0.000169
# 3 0.003388 -0.007982 0.034153 -0.003119 0.021584 -0.005147
# 4 -0.005211 0.006811 -0.003119 0.041178 -0.004548 0.000624
# 5 0.011810 -0.008563 0.021584 -0.004548 0.050865 -0.005509
# 6 -0.000449 -0.000169 -0.005147 0.000624 -0.005509 0.025974
#
#
# Mechanical properties :
#
#
# Convention : Reuss Voigt Hill
#
# Bulk Modulus (GPa) = 27.27543 62.07884 44.67713
# Shear Modulus (GPa) = 24.42166 38.45913 31.44040
#
# Velocity S-wave (km/s) = 3.29926 4.14027 3.74346
# Velocity P-wave (km/s) = 5.16436 7.10812 6.21273
#
# Compressibility (1/GPa) = 0.03666304
#
# Stress axis : x y z
#
# Youngs Moduli (GPa) = 106.35679 83.15875 29.27980
#
# Poissons Ratio (x) = 0.40453 -0.09920
# Poissons Ratio (y) = 0.51738 0.23372
# Poissons Ratio (z) = -0.36035 0.66381
#
# Static dielectric constant tensor:
#      x y z
#    x 2.042810 -0.054440 0.058430 
#    y -0.054440 1.880340 -0.027560 
#    z 0.058430 -0.027560 1.909830 
# 
# From -- ./inp_files/428181.got.cif
#   From: 2010.05.17/outbox.cif.g08.bks.cpg/sg2_215_cif.got.tgz:428181.got - 2010.06.03 11:33:40.
