data_PCOD9108575
_publ_section_title
;
Structure prediction by ZEFSAII (Michael W. Deem and Ramdas Pophale) SiO2 
 PCOD9108575
Probable space group: P -1
;
_chemical_formula_sum "Si O2"
_cell_formula_units_Z 14
_cell_length_a 24.399328
_cell_length_b 6.567178
_cell_length_c 5.531517
_cell_angle_alpha 67.243573
_cell_angle_beta 106.023623
_cell_angle_gamma 137.687908
_cell_volume 550.140236
_symmetry_space_group_name_H-M "P -1"
_symmetry_group_IT_number 2
_symmetry_cell_setting 'triclinic'
loop_
_space_group_symop_operation_xyz
x,y,z
-x,-y,-z
loop_
_atom_site_type_symbol
_atom_site_label
_atom_site_fract_x
_atom_site_fract_y
_atom_site_fract_z
Si Si1 0.696875 0.727143 0.867052
Si Si2 0.488477 0.601423 0.686501
Si Si3 0.172406 0.742419 0.817095
Si Si4 0.387999 0.694506 0.660531
Si Si5 0.995008 0.349139 0.816986
Si Si6 0.178687 0.202619 0.293894
Si Si7 0.253880 0.689868 0.540346
O O1 0.738688 0.641460 0.813804
O O2 0.691398 0.950041 0.631903
O O3 0.611592 0.400843 0.019507
O O4 0.766068 0.996135 0.024205
O O5 0.500000 0.500000 0.500000
O O6 0.403419 0.503434 0.637346
O O7 0.554827 0.978247 0.560801
O O8 0.500000 0.500000 0.000000
O O9 0.212399 0.653924 0.753847
O O10 0.077536 0.434392 0.894932
O O11 0.167365 0.944344 0.547677
O O12 0.307318 0.617080 0.632271
O O13 0.000000 0.500000 0.500000
O O14 0.903696 0.002156 0.863629
O O15 0.000000 0.500000 0.000000
O O16 0.188682 0.442009 0.369064
#
# Coordination Sequence:
#
# PCOD9108575 Si02
#       7
#     2   2   2   2   2   2   2
#     4  11  23  41  67 100 141 187 241 304 355 437
#     4  11  28  53  79 113 148 188 237 288 356 442
#     4  10  22  41  62  98 141 184 248 301 362 425
#     4  11  26  46  77 106 147 189 233 293 366 428
#     4  10  20  40  69  93 140 197 245 308 368 421
#     4  10  22  41  67  97 141 191 251 300 375 415
#     4  11  25  40  66 107 140 187 246 306 360 437
#
# _framework density 25.448056000000001
#
# number of rings (size 3 to 8) (size 9 to 14) (size 15 to 20)
#    0.000    1.429    2.857    0.857    4.000    5.143 
#    0.000    0.714    0.000    0.000    0.000    0.000 
#    0.000    0.000    0.000    0.000    0.000    0.000 
#
# Total GULP energy -78029.450553 kJ/mol
# GULP energy per Si atom -5573.532182 kJ/mol
# Density = 2.539013 g / cm^3
# Si number density = 25.448056 Si / 1000 Ang^3
#
#
#
# Elastic Constant Matrix: (Units=GPa)
#
#
# Indices 1 2 3 4 5 6 
#
# 1 166.8404 34.4370 49.0141 7.0935 6.4100 -35.9094
# 2 34.4370 82.1957 36.8526 7.3581 10.8586 -29.8102
# 3 49.0141 36.8526 92.6043 -4.6039 -3.4770 -30.3712
# 4 7.0935 7.3581 -4.6039 52.5710 -8.7919 -10.8936
# 5 6.4100 10.8586 -3.4770 -8.7919 38.9470 2.9340
# 6 -35.9094 -29.8102 -30.3712 -10.8936 2.9340 38.3332
#
#
#
# Elastic Compliance Matrix: (Units=1/GPa)
#
#
# Indices 1 2 3 4 5 6 
#
# 1 0.008032 0.000158 -0.002578 -0.000525 -0.002138 0.005620
# 2 0.000158 0.019443 -0.004278 -0.001846 -0.007142 0.011900
# 3 -0.002578 -0.004278 0.017199 0.004919 0.003584 0.009009
# 4 -0.000525 -0.001846 0.004919 0.022336 0.005487 0.007898
# 5 -0.002138 -0.007142 0.003584 0.005487 0.029988 -0.005453
# 6 0.005620 0.011900 0.009009 0.007898 -0.005453 0.050405
#
#
# Mechanical properties :
#
#
# Convention : Reuss Voigt Hill
#
# Bulk Modulus (GPa) = 31.97044 64.69421 48.33233
# Shear Modulus (GPa) = 29.20133 40.72604 34.96369
#
# Velocity S-wave (km/s) = 3.39113 4.00479 3.71067
# Velocity P-wave (km/s) = 5.28425 6.84556 6.11494
#
# Compressibility (1/GPa) = 0.03127889
#
# Stress axis : x y z
#
# Youngs Moduli (GPa) = 124.49646 51.43360 58.14262
#
# Poissons Ratio (x) = -0.00812 0.14987
# Poissons Ratio (y) = -0.01965 0.24872
# Poissons Ratio (z) = 0.32090 0.22002
#
# Static dielectric constant tensor:
#      x y z
#    x 2.029750 0.037720 0.025410 
#    y 0.037720 1.994690 -0.010250 
#    z 0.025410 -0.010250 2.169020 
# 
# From -- ./inp_files/13617.got.cif
#   From: 2010.05.17/outbox.cif.g08.bks.cpg/sg2_7_cif.got.tgz:13617.got - 2010.06.03 11:33:40.
