data_PCOD9108667
_publ_section_title
;
Structure prediction by ZEFSAII (Michael W. Deem and Ramdas Pophale) SiO2 
 PCOD9108667
Probable space group: P -1
;
_chemical_formula_sum "Si O2"
_cell_formula_units_Z 14
_cell_length_a 6.944651
_cell_length_b 11.336989
_cell_length_c 10.025878
_cell_angle_alpha 40.824637
_cell_angle_beta 96.289659
_cell_angle_gamma 100.103524
_cell_volume 507.703119
_symmetry_space_group_name_H-M "P -1"
_symmetry_group_IT_number 2
_symmetry_cell_setting 'triclinic'
loop_
_space_group_symop_operation_xyz
x,y,z
-x,-y,-z
loop_
_atom_site_type_symbol
_atom_site_label
_atom_site_fract_x
_atom_site_fract_y
_atom_site_fract_z
Si Si1 0.310750 0.520088 0.847251
Si Si2 0.951259 0.200738 0.548083
Si Si3 0.002780 0.185323 0.156019
Si Si4 0.711821 0.616305 0.455625
Si Si5 0.843901 0.239148 0.809873
Si Si6 0.565618 0.146776 0.268570
Si Si7 0.432912 0.221301 0.926153
O O1 0.843300 0.635048 0.959158
O O2 0.449370 0.659937 0.829445
O O3 0.428082 0.418618 0.831682
O O4 0.174105 0.653527 0.648487
O O5 0.188787 0.268416 0.510481
O O6 0.887349 0.174812 0.720983
O O7 0.925135 0.005424 0.643074
O O8 0.791352 0.178313 0.211820
O O9 0.968408 0.196715 0.983618
O O10 0.500000 0.500000 0.500000
O O11 0.844240 0.456067 0.608741
O O12 0.726366 0.766108 0.210581
O O13 0.621802 0.181037 0.892927
O O14 0.500000 0.000000 0.500000
O O15 0.440867 0.104087 0.160429
#
# Coordination Sequence:
#
# PCOD9108667 Si02
#       7
#     2   2   2   2   2   2   2
#     4  12  25  48  79 105 152 200 248 310 369 438
#     4  12  24  43  77 113 152 194 243 304 379 458
#     4  11  26  48  74 110 149 194 249 311 374 439
#     4  10  20  40  70 108 146 189 238 300 374 444
#     4  10  20  43  70 109 153 187 238 296 376 448
#     4  11  28  53  73 106 144 201 264 307 367 437
#     4  10  23  44  75 104 151 196 241 307 369 432
#
# _framework density 27.575168999999999
#
# number of rings (size 3 to 8) (size 9 to 14) (size 15 to 20)
#    0.000    1.143    2.857    2.571    2.000    2.857 
#    2.571    4.286    0.000    0.000    0.000    0.000 
#    0.000    0.000    0.000    0.000    0.000    0.000 
#
# Total GULP energy -78222.220841 kJ/mol
# GULP energy per Si atom -5587.301489 kJ/mol
# Density = 2.751241 g / cm^3
# Si number density = 27.575169 Si / 1000 Ang^3
#
#
#
# Elastic Constant Matrix: (Units=GPa)
#
#
# Indices 1 2 3 4 5 6 
#
# 1 107.7502 33.0946 51.9631 -7.3318 -18.0695 20.8596
# 2 33.0946 67.6830 22.9869 -23.9198 -8.6158 7.3270
# 3 51.9631 22.9869 153.0785 -7.9959 4.2857 10.3461
# 4 -7.3318 -23.9198 -7.9959 48.7595 3.6554 3.6665
# 5 -18.0695 -8.6158 4.2857 3.6554 54.9465 5.0103
# 6 20.8596 7.3270 10.3461 3.6665 5.0103 46.6782
#
#
#
# Elastic Compliance Matrix: (Units=1/GPa)
#
#
# Indices 1 2 3 4 5 6 
#
# 1 0.014475 -0.004811 -0.004012 -0.000808 0.004854 -0.005282
# 2 -0.004811 0.021207 -0.000964 0.009561 0.001352 -0.001861
# 3 -0.004012 -0.000964 0.008096 0.000387 -0.002160 0.000351
# 4 -0.000808 0.009561 0.000387 0.025396 -0.000195 -0.003199
# 5 0.004854 0.001352 -0.002160 -0.000195 0.020563 -0.004095
# 6 -0.005282 -0.001861 0.000351 -0.003199 -0.004095 0.024689
#
#
# Mechanical properties :
#
#
# Convention : Reuss Voigt Hill
#
# Bulk Modulus (GPa) = 41.31649 60.51121 50.91385
# Shear Modulus (GPa) = 35.19447 44.77464 39.98456
#
# Velocity S-wave (km/s) = 3.57642 4.03393 3.81204
# Velocity P-wave (km/s) = 5.66305 6.60973 6.15462
#
# Compressibility (1/GPa) = 0.02420341
#
# Stress axis : x y z
#
# Youngs Moduli (GPa) = 69.08557 47.15424 123.51361
#
# Poissons Ratio (x) = 0.22686 0.49557
# Poissons Ratio (y) = 0.33237 0.11908
# Poissons Ratio (z) = 0.27719 0.04546
#
# Static dielectric constant tensor:
#      x y z
#    x 2.227070 0.046160 -0.035830 
#    y 0.046160 2.138970 -0.035750 
#    z -0.035830 -0.035750 2.298890 
# 
# From -- ./inp_files/174164.got.cif
#   From: 2010.05.17/outbox.cif.g08.bks.cpg/sg2_88_cif.got.tgz:174164.got - 2010.06.03 11:33:40.
