data_PCOD9108053
_publ_section_title
;
Structure prediction by ZEFSAII (Michael W. Deem and Ramdas Pophale) SiO2 
 PCOD9108053
Probable space group: P -1
;
_chemical_formula_sum "Si O2"
_cell_formula_units_Z 14
_cell_length_a 23.115509
_cell_length_b 7.932998
_cell_length_c 8.506333
_cell_angle_alpha 55.188668
_cell_angle_beta 148.346828
_cell_angle_gamma 131.205582
_cell_volume 615.651778
_symmetry_space_group_name_H-M "P -1"
_symmetry_group_IT_number 2
_symmetry_cell_setting 'triclinic'
loop_
_space_group_symop_operation_xyz
x,y,z
-x,-y,-z
loop_
_atom_site_type_symbol
_atom_site_label
_atom_site_fract_x
_atom_site_fract_y
_atom_site_fract_z
Si Si1 0.152899 0.648624 0.114934
Si Si2 0.535812 0.384483 0.295788
Si Si3 0.172369 0.900635 0.608686
Si Si4 0.643654 0.012723 0.750684
Si Si5 0.793970 0.717934 0.740972
Si Si6 0.943575 0.841145 0.306564
Si Si7 0.870683 0.469673 0.542218
O O1 0.242865 0.901480 0.149932
O O2 0.161437 0.478838 0.092564
O O3 0.190699 0.579110 0.405915
O O4 0.013958 0.603664 0.831325
O O5 0.574804 0.173847 0.459165
O O6 0.654186 0.585373 0.528832
O O7 0.434719 0.250599 0.263314
O O8 0.500000 0.500000 0.000000
O O9 0.150480 0.752320 0.482994
O O10 0.056436 0.809261 0.502158
O O11 0.191856 0.144004 0.460234
O O12 0.289410 0.913152 0.965668
O O13 0.875874 0.881687 0.977293
O O14 0.843076 0.623944 0.270878
O O15 0.000000 0.000000 0.500000
#
# Coordination Sequence:
#
# PCOD9108053 Si02
#       7
#     2   2   2   2   2   2   2
#     4  10  21  38  59  91 129 170 208 263 321 385
#     4  10  20  40  66  96 123 171 222 267 319 377
#     4  12  22  38  65  96 131 169 211 264 328 390
#     4  10  21  38  66  95 126 167 218 267 320 382
#     4  11  23  39  63  94 131 169 216 263 323 386
#     4  12  25  39  60  95 135 171 213 264 327 390
#     4  11  22  36  59  90 133 168 208 258 327 388
#
# _framework density 22.740127999999999
#
# number of rings (size 3 to 8) (size 9 to 14) (size 15 to 20)
#    0.000    1.143    4.286    3.429    4.000    0.000 
#    0.000    0.000    0.000   18.857    0.000    0.000 
#    0.000    0.000    0.000    0.000    0.000    0.000 
#
# Total GULP energy -78046.405694 kJ/mol
# GULP energy per Si atom -5574.743264 kJ/mol
# Density = 2.268837 g / cm^3
# Si number density = 22.740128 Si / 1000 Ang^3
#
#
#
# Elastic Constant Matrix: (Units=GPa)
#
#
# Indices 1 2 3 4 5 6 
#
# 1 71.6442 29.7606 28.3017 12.6244 -21.7681 9.2233
# 2 29.7606 100.9847 35.0725 -10.6059 -9.1788 22.2843
# 3 28.3017 35.0725 114.7396 -10.8409 -10.0247 7.6522
# 4 12.6244 -10.6059 -10.8409 43.2029 8.0379 -4.5809
# 5 -21.7681 -9.1788 -10.0247 8.0379 23.1083 2.1485
# 6 9.2233 22.2843 7.6522 -4.5809 2.1485 44.8940
#
#
#
# Elastic Compliance Matrix: (Units=1/GPa)
#
#
# Indices 1 2 3 4 5 6 
#
# 1 0.032527 -0.005369 -0.004785 -0.019004 0.033670 -0.006752
# 2 -0.005369 0.013611 -0.002270 0.004139 -0.001633 -0.004766
# 3 -0.004785 -0.002270 0.010722 0.004032 -0.002235 0.000801
# 4 -0.019004 0.004139 0.004032 0.036560 -0.027804 0.006223
# 5 0.033670 -0.001633 -0.002235 -0.027804 0.084215 -0.012593
# 6 -0.006752 -0.004766 0.000801 0.006223 -0.012593 0.027129
#
#
# Mechanical properties :
#
#
# Convention : Reuss Voigt Hill
#
# Bulk Modulus (GPa) = 31.23965 52.62646 41.93305
# Shear Modulus (GPa) = 20.80877 35.18995 27.99936
#
# Velocity S-wave (km/s) = 3.02829 3.93807 3.51276
# Velocity P-wave (km/s) = 5.09852 6.62350 5.91040
#
# Compressibility (1/GPa) = 0.03201060
#
# Stress axis : x y z
#
# Youngs Moduli (GPa) = 30.74414 73.46921 93.26743
#
# Poissons Ratio (x) = 0.39448 0.44631
# Poissons Ratio (y) = 0.16507 0.21171
# Poissons Ratio (z) = 0.14712 0.16677
#
# Static dielectric constant tensor:
#      x y z
#    x 1.876250 0.006770 0.065490 
#    y 0.006770 1.982610 -0.072460 
#    z 0.065490 -0.072460 1.920760 
# 
# From -- ./inp_files/178400.got.cif
#   From: 2010.05.17/outbox.cif.g08.bks.cpg/sg2_90_cif.got.tgz:178400.got - 2010.06.03 11:33:40.
