data_PCOD9108545
_publ_section_title
;
Structure prediction by ZEFSAII (Michael W. Deem and Ramdas Pophale) SiO2 
 PCOD9108545
Probable space group: P -1
;
_chemical_formula_sum "Si O2"
_cell_formula_units_Z 16
_cell_length_a 6.340784
_cell_length_b 12.901339
_cell_length_c 8.619670
_cell_angle_alpha 119.817931
_cell_angle_beta 96.412382
_cell_angle_gamma 81.606386
_cell_volume 604.595355
_symmetry_space_group_name_H-M "P -1"
_symmetry_group_IT_number 2
_symmetry_cell_setting 'triclinic'
loop_
_space_group_symop_operation_xyz
x,y,z
-x,-y,-z
loop_
_atom_site_type_symbol
_atom_site_label
_atom_site_fract_x
_atom_site_fract_y
_atom_site_fract_z
Si Si1 0.992596 0.365030 0.047978
Si Si2 0.798974 0.402723 0.759405
Si Si3 0.300202 0.327697 0.307579
Si Si4 0.625316 0.474496 0.314564
Si Si5 0.399974 0.101967 0.693883
Si Si6 0.329461 0.920562 0.010561
Si Si7 0.927098 0.044140 0.260457
Si Si8 0.159889 0.241348 0.539439
O O1 0.796181 0.435690 0.172603
O O2 0.154802 0.462461 0.089111
O O3 0.131659 0.292724 0.139175
O O4 0.879127 0.320325 0.852577
O O5 0.559887 0.425725 0.692909
O O6 0.976776 0.351637 0.612556
O O7 0.519328 0.354620 0.265042
O O8 0.265444 0.460219 0.485992
O O9 0.285905 0.240865 0.387054
O O10 0.547037 0.138168 0.874630
O O11 0.320936 0.220816 0.679265
O O12 0.500000 0.000000 0.500000
O O13 0.210742 0.045385 0.727849
O O14 0.221092 0.873814 0.811978
O O15 0.124832 0.985033 0.132651
O O16 0.500000 0.000000 0.000000
O O17 0.028704 0.127375 0.451981
#
# Coordination Sequence:
#
# PCOD9108545 Si02
#       8
#     2   2   2   2   2   2   2   2
#     4  10  20  44  63  88 131 170 210 257 338 373
#     4  10  23  39  65  93 126 169 210 273 314 384
#     4  10  23  38  64  93 124 167 213 269 307 381
#     4  10  20  40  69  86 126 175 216 249 335 378
#     4  11  23  43  69  94 128 175 212 267 334 390
#     4   9  20  44  71  91 120 178 212 250 338 400
#     4  10  22  44  69  91 129 172 210 271 330 385
#     4  12  24  42  62  99 133 158 228 269 311 381
#
# _framework density 26.463984
#
# number of rings (size 3 to 8) (size 9 to 14) (size 15 to 20)
#    0.000    1.750    2.500    1.125    3.500    1.000 
#    6.750    0.000    0.000    0.000    0.000    0.000 
#    0.000    0.000    0.000    0.000    0.000    0.000 
#
# Total GULP energy -89272.868772 kJ/mol
# GULP energy per Si atom -5579.554298 kJ/mol
# Density = 2.640375 g / cm^3
# Si number density = 26.463984 Si / 1000 Ang^3
#
#
#
# Elastic Constant Matrix: (Units=GPa)
#
#
# Indices 1 2 3 4 5 6 
#
# 1 117.4439 50.5485 36.3151 -10.6122 -15.3337 -0.9826
# 2 50.5485 98.5308 33.0330 -41.4387 7.4754 -8.4677
# 3 36.3151 33.0330 106.0079 -34.5317 0.3508 -13.0101
# 4 -10.6122 -41.4387 -34.5317 44.6965 -17.3721 3.6747
# 5 -15.3337 7.4754 0.3508 -17.3721 44.1141 -6.8367
# 6 -0.9826 -8.4677 -13.0101 3.6747 -6.8367 39.5822
#
#
#
# Elastic Compliance Matrix: (Units=1/GPa)
#
#
# Indices 1 2 3 4 5 6 
#
# 1 0.013371 -0.008672 -0.004327 -0.006823 0.003192 -0.001761
# 2 -0.008672 0.023211 0.003792 0.023122 0.002799 0.004334
# 3 -0.004327 0.003792 0.015545 0.015942 0.004808 0.005164
# 4 -0.006823 0.023122 0.015942 0.061215 0.018866 0.007593
# 5 0.003192 0.002799 0.004808 0.018866 0.031620 0.005968
# 6 -0.001761 0.004334 0.005164 0.007593 0.005968 0.028170
#
#
# Mechanical properties :
#
#
# Convention : Reuss Voigt Hill
#
# Bulk Modulus (GPa) = 29.66237 62.41954 46.04095
# Shear Modulus (GPa) = 24.65698 39.15096 31.90397
#
# Velocity S-wave (km/s) = 3.05572 3.85048 3.47589
# Velocity P-wave (km/s) = 4.86650 6.58833 5.79175
#
# Compressibility (1/GPa) = 0.03371275
#
# Stress axis : x y z
#
# Youngs Moduli (GPa) = 74.79124 43.08359 64.32943
#
# Poissons Ratio (x) = 0.37361 0.27838
# Poissons Ratio (y) = 0.64856 -0.24396
# Poissons Ratio (z) = 0.32366 -0.16339
#
# Static dielectric constant tensor:
#      x y z
#    x 2.065420 -0.063240 0.008560 
#    y -0.063240 2.199320 -0.018620 
#    z 0.008560 -0.018620 2.079080 
# 
# From -- ./inp_files/135746.got.cif
#   From: 2010.05.17/outbox.cif.g08.bks.cpg/sg2_68_cif.got.tgz:135746.got - 2010.06.03 11:33:40.
