data_PCOD9108783
_publ_section_title
;
Structure prediction by ZEFSAII (Michael W. Deem and Ramdas Pophale) SiO2 
 PCOD9108783
Probable space group: P -1
;
_chemical_formula_sum "Si O2"
_cell_formula_units_Z 16
_cell_length_a 15.965625
_cell_length_b 22.099794
_cell_length_c 8.690262
_cell_angle_alpha 38.602359
_cell_angle_beta 41.377010
_cell_angle_gamma 20.592364
_cell_volume 670.380439
_symmetry_space_group_name_H-M "P -1"
_symmetry_group_IT_number 2
_symmetry_cell_setting 'triclinic'
loop_
_space_group_symop_operation_xyz
x,y,z
-x,-y,-z
loop_
_atom_site_type_symbol
_atom_site_label
_atom_site_fract_x
_atom_site_fract_y
_atom_site_fract_z
Si Si1 0.523753 0.174607 0.994280
Si Si2 0.927329 0.587175 0.674991
Si Si3 0.045522 0.623488 0.132960
Si Si4 0.845833 0.023417 0.352284
Si Si5 0.250362 0.629034 0.659528
Si Si6 0.976422 0.147466 0.894723
Si Si7 0.204959 0.544259 0.599376
Si Si8 0.399965 0.966727 0.138058
O O1 0.348460 0.250685 0.219300
O O2 0.797163 0.986176 0.040648
O O3 0.449438 0.331767 0.733264
O O4 0.472889 0.146265 0.967949
O O5 0.000201 0.435676 0.804622
O O6 0.994636 0.614184 0.388419
O O7 0.049508 0.559208 0.708885
O O8 0.284745 0.528898 0.949146
O O9 0.863646 0.829007 0.950961
O O10 0.899363 0.961855 0.223344
O O11 0.626709 0.104153 0.564432
O O12 0.084805 0.831644 0.493626
O O13 0.826375 0.150815 0.143024
O O14 0.500000 0.500000 0.500000
O O15 0.121037 0.645636 0.674426
O O16 0.819097 0.346478 0.694621
O O17 0.500000 0.000000 0.000000
#
# Coordination Sequence:
#
# PCOD9108783 Si02
#       8
#     2   2   2   2   2   2   2   2
#     4  12  25  41  72 102 134 184 231 272 351 414
#     4  11  24  42  67 101 141 176 225 291 340 404
#     4  10  23  43  64 100 141 178 221 289 340 402
#     4   9  22  43  65  97 142 176 223 290 335 402
#     4  10  20  40  71  97 131 184 231 273 345 413
#     4  10  23  44  69  98 135 181 228 284 338 399
#     4  11  23  42  66  99 136 174 227 284 335 400
#     4  11  25  41  67 102 139 181 227 280 344 410
#
# _framework density 23.867046999999999
#
# number of rings (size 3 to 8) (size 9 to 14) (size 15 to 20)
#    0.000    1.500    1.250    2.625    7.000    1.500 
#    0.000    2.500    0.000    0.000    0.000    0.000 
#    0.000    0.000    0.000    0.000    0.000    0.000 
#
# Total GULP energy -89259.335706 kJ/mol
# GULP energy per Si atom -5578.708482 kJ/mol
# Density = 2.381272 g / cm^3
# Si number density = 23.867047 Si / 1000 Ang^3
#
#
#
# Elastic Constant Matrix: (Units=GPa)
#
#
# Indices 1 2 3 4 5 6 
#
# 1 84.0463 11.9048 57.5706 15.5171 -10.8694 6.9748
# 2 11.9048 37.4610 48.8188 0.0836 -4.9604 9.2820
# 3 57.5706 48.8188 203.4638 -3.9116 -25.9241 -2.5735
# 4 15.5171 0.0836 -3.9116 31.4702 2.7657 -0.1050
# 5 -10.8694 -4.9604 -25.9241 2.7657 20.5854 0.2674
# 6 6.9748 9.2820 -2.5735 -0.1050 0.2674 34.8082
#
#
#
# Elastic Compliance Matrix: (Units=1/GPa)
#
#
# Indices 1 2 3 4 5 6 
#
# 1 0.018154 0.003451 -0.005615 -0.010094 0.004767 -0.005040
# 2 0.003451 0.044498 -0.012161 -0.003186 -0.002167 -0.013450
# 3 -0.005615 -0.012161 0.010403 0.003525 0.006666 0.005097
# 4 -0.010094 -0.003186 0.003525 0.037807 -0.006780 0.003299
# 5 0.004767 -0.002167 0.006666 -0.006780 0.059884 -0.000365
# 6 -0.005040 -0.013450 0.005097 0.003299 -0.000365 0.033715
#
#
# Mechanical properties :
#
#
# Convention : Reuss Voigt Hill
#
# Bulk Modulus (GPa) = 22.51960 62.39549 42.45754
# Shear Modulus (GPa) = 20.16838 31.15121 25.65979
#
# Velocity S-wave (km/s) = 2.91009 3.61667 3.28245
# Velocity P-wave (km/s) = 4.55494 6.60607 5.67396
#
# Compressibility (1/GPa) = 0.04440576
#
# Stress axis : x y z
#
# Youngs Moduli (GPa) = 55.08360 22.47279 96.12481
#
# Poissons Ratio (x) = -0.07756 0.53976
# Poissons Ratio (y) = -0.19010 1.16896
# Poissons Ratio (z) = 0.30931 0.27329
#
# Static dielectric constant tensor:
#      x y z
#    x 1.911840 -0.026150 0.023830 
#    y -0.026150 2.040520 0.096190 
#    z 0.023830 0.096190 2.054730 
# 
# From -- ./inp_files/338583.got.cif
#   From: 2010.05.17/outbox.cif.g08.bks.cpg/sg2_170_cif.got.tgz:338583.got - 2010.06.03 11:33:40.
