data_PCOD9108618
_publ_section_title
;
Structure prediction by ZEFSAII (Michael W. Deem and Ramdas Pophale) SiO2 
 PCOD9108618
Probable space group: P -1
;
_chemical_formula_sum "Si O2"
_cell_formula_units_Z 16
_cell_length_a 7.329761
_cell_length_b 11.885658
_cell_length_c 12.361895
_cell_angle_alpha 94.732845
_cell_angle_beta 35.157788
_cell_angle_gamma 90.725451
_cell_volume 615.205452
_symmetry_space_group_name_H-M "P -1"
_symmetry_group_IT_number 2
_symmetry_cell_setting 'triclinic'
loop_
_space_group_symop_operation_xyz
x,y,z
-x,-y,-z
loop_
_atom_site_type_symbol
_atom_site_label
_atom_site_fract_x
_atom_site_fract_y
_atom_site_fract_z
Si Si1 0.606334 0.262843 0.528735
Si Si2 0.007735 0.287714 0.147720
Si Si3 0.264395 0.104049 0.842713
Si Si4 0.662355 0.496575 0.225956
Si Si5 0.880484 0.770386 0.415749
Si Si6 0.786859 0.922524 0.661998
Si Si7 0.138324 0.965395 0.173475
Si Si8 0.611611 0.424783 0.839827
O O1 0.940086 0.282909 0.308829
O O2 0.435410 0.389169 0.650311
O O3 0.425381 0.212301 0.510362
O O4 0.502508 0.188349 0.676793
O O5 0.047844 0.175934 0.043015
O O6 0.726517 0.380331 0.250144
O O7 0.343321 0.336508 0.963425
O O8 0.549148 0.003694 0.195767
O O9 0.064248 0.060364 0.834817
O O10 0.408810 0.501804 0.252924
O O11 0.000000 0.500000 0.000000
O O12 0.116619 0.854184 0.250518
O O13 0.051089 0.645323 0.317021
O O14 0.803125 0.806286 0.579433
O O15 0.971233 0.928338 0.688005
O O16 0.000000 0.000000 0.500000
O O17 0.500000 0.000000 0.000000
O O18 0.500000 0.500000 0.000000
#
# Coordination Sequence:
#
# PCOD9108618 Si02
#       8
#     2   2   2   2   2   2   2   2
#     4  11  23  42  73 100 138 182 239 286 354 431
#     4  11  23  43  71 106 134 185 241 285 354 442
#     4  11  24  47  72 102 146 196 230 302 374 405
#     4  10  20  40  69  99 139 177 224 286 352 424
#     4  10  23  45  65  97 141 183 227 297 357 413
#     4  10  23  45  65  98 142 182 245 286 355 427
#     4  10  24  42  69 101 140 187 243 296 354 428
#     4  11  23  43  73 100 143 187 223 296 367 416
#
# _framework density 26.007570999999999
#
# number of rings (size 3 to 8) (size 9 to 14) (size 15 to 20)
#    0.000    1.500    2.500    3.375    3.500    5.000 
#   11.250    2.500    0.000    0.000    0.000    0.000 
#    0.000    0.000    0.000    0.000    0.000    0.000 
#
# Total GULP energy -89224.209425 kJ/mol
# GULP energy per Si atom -5576.513089 kJ/mol
# Density = 2.594838 g / cm^3
# Si number density = 26.007571 Si / 1000 Ang^3
#
#
#
# Elastic Constant Matrix: (Units=GPa)
#
#
# Indices 1 2 3 4 5 6 
#
# 1 128.8585 43.6228 16.8637 29.0103 9.1658 11.8243
# 2 43.6228 97.8873 22.6553 31.5734 14.5312 -2.1837
# 3 16.8637 22.6553 110.1444 17.0865 20.1475 1.2716
# 4 29.0103 31.5734 17.0865 52.1104 9.9088 10.3409
# 5 9.1658 14.5312 20.1475 9.9088 34.9158 9.7741
# 6 11.8243 -2.1837 1.2716 10.3409 9.7741 61.8904
#
#
#
# Elastic Compliance Matrix: (Units=1/GPa)
#
#
# Indices 1 2 3 4 5 6 
#
# 1 0.009745 -0.003365 -0.000376 -0.003027 0.000344 -0.001521
# 2 -0.003365 0.014643 -0.000838 -0.006596 -0.003655 0.002856
# 3 -0.000376 -0.000838 0.010582 -0.001926 -0.005392 0.000998
# 4 -0.003027 -0.006596 -0.001926 0.026601 -0.001843 -0.003768
# 5 0.000344 -0.003655 -0.005392 -0.001843 0.035199 -0.005335
# 6 -0.001521 0.002856 0.000998 -0.003768 -0.005335 0.018001
#
#
# Mechanical properties :
#
#
# Convention : Reuss Voigt Hill
#
# Bulk Modulus (GPa) = 38.73857 55.90822 47.32339
# Shear Modulus (GPa) = 37.72652 46.69989 42.21321
#
# Velocity S-wave (km/s) = 3.81280 4.24208 4.03316
# Velocity P-wave (km/s) = 5.85754 6.74813 6.31854
#
# Compressibility (1/GPa) = 0.02581406
#
# Stress axis : x y z
#
# Youngs Moduli (GPa) = 102.61399 68.29212 94.49687
#
# Poissons Ratio (x) = 0.22977 0.03551
# Poissons Ratio (y) = 0.34525 0.07918
# Poissons Ratio (z) = 0.03856 0.05722
#
# Static dielectric constant tensor:
#      x y z
#    x 2.120320 -0.057450 -0.093980 
#    y -0.057450 2.163270 -0.015940 
#    z -0.093980 -0.015940 2.171820 
# 
# From -- ./inp_files/502974.got.cif
#   From: 2010.05.17/outbox.cif.g08.bks.cpg/sg2_252_cif.got.tgz:502974.got - 2010.06.03 11:33:40.
