data_PCOD9108906
_publ_section_title
;
Structure prediction by ZEFSAII (Michael W. Deem and Ramdas Pophale) SiO2 
 PCOD9108906
Probable space group: P -1
;
_chemical_formula_sum "Si O2"
_cell_formula_units_Z 16
_cell_length_a 7.707252
_cell_length_b 5.723959
_cell_length_c 18.606584
_cell_angle_alpha 103.088151
_cell_angle_beta 57.858473
_cell_angle_gamma 116.490478
_cell_volume 622.004667
_symmetry_space_group_name_H-M "P -1"
_symmetry_group_IT_number 2
_symmetry_cell_setting 'triclinic'
loop_
_space_group_symop_operation_xyz
x,y,z
-x,-y,-z
loop_
_atom_site_type_symbol
_atom_site_label
_atom_site_fract_x
_atom_site_fract_y
_atom_site_fract_z
Si Si1 0.972296 0.599727 0.308515
Si Si2 0.524463 0.699145 0.752794
Si Si3 0.289183 0.433798 0.963678
Si Si4 0.220354 0.264274 0.162016
Si Si5 0.224243 0.162153 0.756080
Si Si6 0.301987 0.871628 0.589660
Si Si7 0.901143 0.932702 0.595795
Si Si8 0.177165 0.823026 0.903915
O O1 0.867389 0.692705 0.272681
O O2 0.767299 0.424889 0.392570
O O3 0.113927 0.452412 0.233032
O O4 0.123023 0.820257 0.344684
O O5 0.689071 0.829392 0.792135
O O6 0.400228 0.393773 0.778390
O O7 0.659743 0.713180 0.650952
O O8 0.337104 0.817599 0.802844
O O9 0.557198 0.587631 0.923028
O O10 0.240549 0.649926 0.939049
O O11 0.239138 0.127258 0.931809
O O12 0.085225 0.359384 0.060726
O O13 0.003207 0.018024 0.165878
O O14 0.331754 0.015965 0.669573
O O15 0.082531 0.876183 0.599476
O O16 0.500000 0.000000 0.500000
O O17 0.000000 0.000000 0.500000
#
# Coordination Sequence:
#
# PCOD9108906 Si02
#       8
#     2   2   2   2   2   2   2   2
#     4  10  20  41  58  78 123 158 200 253 316 372
#     4  11  21  41  61  87 125 156 209 257 309 381
#     4   9  18  34  66  91 130 161 213 258 314 375
#     4  10  20  41  62  88 119 163 205 253 307 379
#     4  10  23  39  58  90 117 163 205 251 319 371
#     4  10  23  40  56  82 117 155 205 261 315 368
#     4  11  24  37  57  87 112 156 206 250 310 370
#     4   9  19  36  60 100 121 169 208 259 317 378
#
# _framework density 25.723278000000001
#
# number of rings (size 3 to 8) (size 9 to 14) (size 15 to 20)
#    0.000    2.000    3.750    0.750    5.250    2.500 
#   11.250    0.625    0.000    0.750    0.000    0.000 
#    0.000    0.000    0.000    0.000    0.000    0.000 
#
# Total GULP energy -89336.767235 kJ/mol
# GULP energy per Si atom -5583.547952 kJ/mol
# Density = 2.566473 g / cm^3
# Si number density = 25.723278 Si / 1000 Ang^3
#
#
#
# Elastic Constant Matrix: (Units=GPa)
#
#
# Indices 1 2 3 4 5 6 
#
# 1 78.1591 15.5030 23.9944 -16.3042 -26.1294 8.9307
# 2 15.5030 103.4187 28.4446 -31.3857 -7.4665 9.4295
# 3 23.9944 28.4446 158.8191 -61.2936 -24.0034 -6.6633
# 4 -16.3042 -31.3857 -61.2936 57.4648 9.2576 -2.1475
# 5 -26.1294 -7.4665 -24.0034 9.2576 43.6183 -18.2714
# 6 8.9307 9.4295 -6.6633 -2.1475 -18.2714 39.9299
#
#
#
# Elastic Compliance Matrix: (Units=1/GPa)
#
#
# Indices 1 2 3 4 5 6 
#
# 1 0.016690 -0.001101 0.000387 0.002996 0.009930 0.001296
# 2 -0.001101 0.011915 0.000334 0.006603 -0.000916 -0.002576
# 3 0.000387 0.000334 0.012252 0.012485 0.006742 0.005636
# 4 0.002996 0.006603 0.012485 0.034677 0.003904 0.003505
# 5 0.009930 -0.000916 0.006742 0.003904 0.038746 0.017060
# 6 0.001296 -0.002576 0.005636 0.003505 0.017060 0.034298
#
#
# Mechanical properties :
#
#
# Convention : Reuss Voigt Hill
#
# Bulk Modulus (GPa) = 24.93857 52.92009 38.92933
# Shear Modulus (GPa) = 30.73065 46.36627 38.54846
#
# Velocity S-wave (km/s) = 3.46014 4.25019 3.87535
# Velocity P-wave (km/s) = 5.06749 6.68603 5.93222
#
# Compressibility (1/GPa) = 0.04009853
#
# Stress axis : x y z
#
# Youngs Moduli (GPa) = 59.91439 83.92647 81.61927
#
# Poissons Ratio (x) = 0.09236 -0.03158
# Poissons Ratio (y) = 0.06594 -0.02727
# Poissons Ratio (z) = -0.02318 -0.02804
#
# Static dielectric constant tensor:
#      x y z
#    x 2.071270 -0.008440 0.032980 
#    y -0.008440 2.132140 -0.040970 
#    z 0.032980 -0.040970 2.025630 
# 
# From -- ./inp_files/115908.got.cif
#   From: 2010.05.17/outbox.cif.g08.bks.cpg/sg2_58_cif.got.tgz:115908.got - 2010.06.03 11:33:40.
