data_PCOD9108044
_publ_section_title
;
Structure prediction by ZEFSAII (Michael W. Deem and Ramdas Pophale) SiO2 
 PCOD9108044
Probable space group: P -1
;
_chemical_formula_sum "Si O2"
_cell_formula_units_Z 16
_cell_length_a 17.606848
_cell_length_b 8.765014
_cell_length_c 11.676715
_cell_angle_alpha 122.727169
_cell_angle_beta 148.792860
_cell_angle_gamma 49.400391
_cell_volume 708.334452
_symmetry_space_group_name_H-M "P -1"
_symmetry_group_IT_number 2
_symmetry_cell_setting 'triclinic'
loop_
_space_group_symop_operation_xyz
x,y,z
-x,-y,-z
loop_
_atom_site_type_symbol
_atom_site_label
_atom_site_fract_x
_atom_site_fract_y
_atom_site_fract_z
Si Si1 0.696216 0.761458 0.426182
Si Si2 0.579697 0.198427 0.512018
Si Si3 0.041775 0.415716 0.719288
Si Si4 0.480449 0.809402 0.954655
Si Si5 0.641267 0.511239 0.848018
Si Si6 0.014420 0.744913 0.169147
Si Si7 0.102062 0.017341 0.530453
Si Si8 0.727255 0.680273 0.687977
O O1 0.666889 0.695316 0.487108
O O2 0.871291 0.599463 0.546311
O O3 0.693889 0.978530 0.527349
O O4 0.555656 0.784716 0.166939
O O5 0.657344 0.295989 0.741760
O O6 0.501433 0.338530 0.358528
O O7 0.421566 0.201408 0.373296
O O8 0.019418 0.330963 0.780653
O O9 0.083330 0.242867 0.607180
O O10 0.191159 0.472214 0.946666
O O11 0.577388 0.603323 0.927153
O O12 0.290112 0.869158 0.731450
O O13 0.500000 0.000000 0.000000
O O14 0.174660 0.557067 0.252181
O O15 0.862016 0.766437 0.905441
O O16 0.040913 0.940994 0.309681
O O17 0.000000 0.000000 0.500000
#
# Coordination Sequence:
#
# PCOD9108044 Si02
#       8
#     2   2   2   2   2   2   2   2
#     4  11  25  41  66  95 135 171 216 281 329 382
#     4  11  22  41  65  99 125 175 224 267 328 394
#     4  10  20  41  62  96 130 172 214 271 330 381
#     4  12  23  45  68  93 131 179 216 265 332 393
#     4  11  23  41  70  90 132 179 221 265 322 409
#     4   9  19  37  66  96 125 170 217 269 319 392
#     4  10  21  40  69  96 127 174 223 261 321 399
#     4  10  20  40  66  95 133 166 217 276 332 377
#
# _framework density 22.588197999999998
#
# number of rings (size 3 to 8) (size 9 to 14) (size 15 to 20)
#    0.000    1.500    3.750    1.125    1.750    1.000 
#    2.250    8.750    0.000    0.000    0.000    0.000 
#    0.000    0.000    0.000    0.000    0.000    0.000 
#
# Total GULP energy -89503.942437 kJ/mol
# GULP energy per Si atom -5593.996402 kJ/mol
# Density = 2.253679 g / cm^3
# Si number density = 22.588198 Si / 1000 Ang^3
#
#
#
# Elastic Constant Matrix: (Units=GPa)
#
#
# Indices 1 2 3 4 5 6 
#
# 1 46.4486 -4.6638 29.1037 -3.7527 -4.6818 -10.8983
# 2 -4.6638 74.6109 28.3774 20.1617 -5.6872 -31.5692
# 3 29.1037 28.3774 98.8784 24.1166 -3.7640 -10.2224
# 4 -3.7527 20.1617 24.1166 29.9226 -8.6484 -5.2886
# 5 -4.6818 -5.6872 -3.7640 -8.6484 40.7446 2.4881
# 6 -10.8983 -31.5692 -10.2224 -5.2886 2.4881 25.6948
#
#
#
# Elastic Compliance Matrix: (Units=1/GPa)
#
#
# Indices 1 2 3 4 5 6 
#
# 1 0.054555 0.032161 -0.023125 0.016196 0.008643 0.055949
# 2 0.032161 0.053500 -0.015978 -0.005283 0.004198 0.071521
# 3 -0.023125 -0.015978 0.022832 -0.016010 -0.004760 -0.023190
# 4 0.016196 -0.005283 -0.016010 0.055950 0.011250 0.004436
# 5 0.008643 0.004198 -0.004760 0.011250 0.027669 0.006566
# 6 0.055949 0.071521 -0.023190 0.004436 0.006566 0.141573
#
#
# Mechanical properties :
#
#
# Convention : Reuss Voigt Hill
#
# Bulk Modulus (GPa) = 8.54678 36.17472 22.36075
# Shear Modulus (GPa) = 12.22606 30.41377 21.31992
#
# Velocity S-wave (km/s) = 2.32902 3.67337 3.07555
# Velocity P-wave (km/s) = 3.32030 5.83449 4.74687
#
# Compressibility (1/GPa) = 0.11700306
#
# Stress axis : x y z
#
# Youngs Moduli (GPa) = 18.33015 18.69173 43.79890
#
# Poissons Ratio (x) = -0.60114 1.01283
# Poissons Ratio (y) = -0.58951 0.69981
# Poissons Ratio (z) = 0.42388 0.29865
#
# Static dielectric constant tensor:
#      x y z
#    x 1.837170 0.021330 -0.015490 
#    y 0.021330 1.874150 0.029360 
#    z -0.015490 0.029360 1.796420 
# 
# From -- ./inp_files/357460.got.cif
#   From: 2010.05.17/outbox.cif.g08.bks.cpg/sg2_179_cif.got.tgz:357460.got - 2010.06.03 11:33:40.
