data_PCOD9108801
_publ_section_title
;
Structure prediction by ZEFSAII (Michael W. Deem and Ramdas Pophale) SiO2 
 PCOD9108801
Probable space group: P -1
;
_chemical_formula_sum "Si O2"
_cell_formula_units_Z 14
_cell_length_a 9.329703
_cell_length_b 11.339873
_cell_length_c 8.185774
_cell_angle_alpha 52.078052
_cell_angle_beta 130.440129
_cell_angle_gamma 121.591418
_cell_volume 508.518817
_symmetry_space_group_name_H-M "P -1"
_symmetry_group_IT_number 2
_symmetry_cell_setting 'triclinic'
loop_
_space_group_symop_operation_xyz
x,y,z
-x,-y,-z
loop_
_atom_site_type_symbol
_atom_site_label
_atom_site_fract_x
_atom_site_fract_y
_atom_site_fract_z
Si Si1 0.524631 0.812509 0.991387
Si Si2 0.748585 0.280675 0.859897
Si Si3 0.266970 0.311306 0.039697
Si Si4 0.129892 0.562701 0.917475
Si Si5 0.908505 0.981906 0.269016
Si Si6 0.498706 0.872727 0.454358
Si Si7 0.917822 0.240308 0.598937
O O1 0.322655 0.712171 0.004656
O O2 0.479425 0.978214 0.786963
O O3 0.584307 0.712109 0.974510
O O4 0.711105 0.853844 0.209960
O O5 0.909835 0.434146 0.895444
O O6 0.855903 0.143162 0.046604
O O7 0.562525 0.262392 0.637472
O O8 0.259163 0.454339 0.029162
O O9 0.074387 0.307834 0.793868
O O10 0.304320 0.185194 0.299684
O O11 0.064330 0.662364 0.638796
O O12 0.035676 0.919711 0.281951
O O13 0.000000 0.000000 0.500000
O O14 0.285412 0.771484 0.459748
O O15 0.500000 0.000000 0.500000
#
# Coordination Sequence:
#
# PCOD9108801 Si02
#       7
#     2   2   2   2   2   2   2
#     4  10  24  45  67 106 139 177 231 282 342 415
#     4  11  24  45  69 104 140 180 233 284 338 409
#     4  11  26  44  71 100 140 190 224 282 348 403
#     4  12  27  46  72 101 135 184 237 284 335 414
#     4  10  20  40  72 101 133 180 219 286 352 395
#     4  11  24  46  71 105 142 177 229 287 345 413
#     4  11  25  47  70 104 139 177 235 286 344 414
#
# _framework density 27.530939
#
# number of rings (size 3 to 8) (size 9 to 14) (size 15 to 20)
#    0.000    1.143    1.429    4.286    0.000   12.571 
#   12.857    0.000    0.000    0.000    0.000    0.000 
#    0.000    0.000    0.000    0.000    0.000    0.000 
#
# Total GULP energy -77951.185657 kJ/mol
# GULP energy per Si atom -5567.941833 kJ/mol
# Density = 2.746828 g / cm^3
# Si number density = 27.530939 Si / 1000 Ang^3
#
#
#
# Elastic Constant Matrix: (Units=GPa)
#
#
# Indices 1 2 3 4 5 6 
#
# 1 163.8660 61.9406 32.8004 -3.1860 -16.0570 26.4510
# 2 61.9406 169.8773 58.4521 13.4329 3.0338 -5.1365
# 3 32.8004 58.4521 172.3318 19.2128 9.8190 21.0542
# 4 -3.1860 13.4329 19.2128 34.8615 -9.2577 10.2487
# 5 -16.0570 3.0338 9.8190 -9.2577 28.7982 3.2045
# 6 26.4510 -5.1365 21.0542 10.2487 3.2045 72.4097
#
#
#
# Elastic Compliance Matrix: (Units=1/GPa)
#
#
# Indices 1 2 3 4 5 6 
#
# 1 0.009609 -0.003944 -0.001171 0.006820 0.008900 -0.004809
# 2 -0.003944 0.008496 -0.001757 -0.004856 -0.004439 0.003438
# 3 -0.001171 -0.001757 0.007486 -0.004389 -0.004313 -0.001061
# 4 0.006820 -0.004856 -0.004389 0.041357 0.020029 -0.008300
# 5 0.008900 -0.004439 -0.004313 0.020029 0.048877 -0.007310
# 6 -0.004809 0.003438 -0.001061 -0.008300 -0.007310 0.017618
#
#
# Mechanical properties :
#
#
# Convention : Reuss Voigt Hill
#
# Bulk Modulus (GPa) = 84.40892 90.27347 87.34120
# Shear Modulus (GPa) = 33.08258 50.73935 41.91096
#
# Velocity S-wave (km/s) = 3.47024 4.29767 3.90593
# Velocity P-wave (km/s) = 6.83981 7.58206 7.22048
#
# Compressibility (1/GPa) = 0.01184709
#
# Stress axis : x y z
#
# Youngs Moduli (GPa) = 104.07183 117.69598 133.57620
#
# Poissons Ratio (x) = 0.46422 0.15642
# Poissons Ratio (y) = 0.41049 0.23469
# Poissons Ratio (z) = 0.12187 0.20679
#
# Static dielectric constant tensor:
#      x y z
#    x 2.436570 0.208160 -0.170810 
#    y 0.208160 1.679140 -0.472410 
#    z -0.170810 -0.472410 1.732360 
# 
# From -- ./inp_files/169970.got.cif
#   From: 2010.05.17/outbox.cif.g08.bks.cpg/sg2_85_cif.got.tgz:169970.got - 2010.06.03 11:33:40.
