data_PCOD9108309
_publ_section_title
;
Structure prediction by ZEFSAII (Michael W. Deem and Ramdas Pophale) SiO2 
 PCOD9108309
Probable space group: P -1
;
_chemical_formula_sum "Si O2"
_cell_formula_units_Z 13
_cell_length_a 6.743482
_cell_length_b 15.353614
_cell_length_c 14.606741
_cell_angle_alpha 144.076410
_cell_angle_beta 126.631241
_cell_angle_gamma 39.192674
_cell_volume 558.751708
_symmetry_space_group_name_H-M "P -1"
_symmetry_group_IT_number 2
_symmetry_cell_setting 'triclinic'
loop_
_space_group_symop_operation_xyz
x,y,z
-x,-y,-z
loop_
_atom_site_type_symbol
_atom_site_label
_atom_site_fract_x
_atom_site_fract_y
_atom_site_fract_z
Si Si1 0.461446 0.222016 0.401873
Si Si2 0.000000 0.000000 0.500000
Si Si3 0.542798 0.911589 0.253073
Si Si4 0.532552 0.664886 0.169699
Si Si5 0.738491 0.612206 0.901233
Si Si6 0.358105 0.213844 0.158500
Si Si7 0.643508 0.522369 0.260223
O O1 0.451134 0.234705 0.301769
O O2 0.299249 0.415557 0.576662
O O3 0.330748 0.113388 0.313401
O O4 0.813931 0.096579 0.432822
O O5 0.792083 0.918913 0.382800
O O6 0.381944 0.844685 0.215443
O O7 0.715211 0.759206 0.088583
O O8 0.465317 0.701022 0.291619
O O9 0.901228 0.557386 0.164195
O O10 0.500000 0.500000 0.000000
O O11 0.561786 0.714391 0.845002
O O12 0.574469 0.536263 0.838958
O O13 0.977933 0.348110 0.165841
O O14 0.500000 0.000000 0.000000
#
# Coordination Sequence:
#
# PCOD9108309 Si02
#       7
#     2   1   2   2   2   2   2
#     4  10  22  42  68 101 140 176 228 286 350 406
#     4   8  20  36  66  92 138 172 216 274 348 390
#     4  10  20  40  67  98 137 183 217 286 336 413
#     4  11  23  36  68 104 138 181 232 278 343 409
#     4  11  23  42  68  99 138 181 235 279 347 407
#     4  11  23  46  70  98 133 183 240 281 345 418
#     4  11  25  42  69 101 140 182 229 293 341 413
#
# _framework density 23.266148999999999
#
# number of rings (size 3 to 8) (size 9 to 14) (size 15 to 20)
#    0.923    0.615    3.077    1.846    2.154    1.846 
#    0.000    1.538    0.000    0.000    0.000    0.000 
#    0.000    0.000    0.000    0.000    0.000    0.000 
#
# Total GULP energy -72395.261627 kJ/mol
# GULP energy per Si atom -5568.866279 kJ/mol
# Density = 2.321319 g / cm^3
# Si number density = 23.266149 Si / 1000 Ang^3
#
#
#
# Elastic Constant Matrix: (Units=GPa)
#
#
# Indices 1 2 3 4 5 6 
#
# 1 86.3218 27.6421 32.3647 -8.8279 12.1651 24.3726
# 2 27.6421 83.4235 18.3732 -15.5528 -2.5077 20.1642
# 3 32.3647 18.3732 118.4044 -6.6721 5.9343 23.3745
# 4 -8.8279 -15.5528 -6.6721 44.1958 10.6252 -10.8796
# 5 12.1651 -2.5077 5.9343 10.6252 30.1885 -1.6460
# 6 24.3726 20.1642 23.3745 -10.8796 -1.6460 34.3907
#
#
#
# Elastic Compliance Matrix: (Units=1/GPa)
#
#
# Indices 1 2 3 4 5 6 
#
# 1 0.017053 -0.002994 -0.001965 0.001772 -0.007838 -0.008809
# 2 -0.002994 0.014955 -0.000321 0.003003 0.001159 -0.005424
# 3 -0.001965 -0.000321 0.010178 0.000080 -0.001557 -0.005387
# 4 0.001772 0.003003 0.000080 0.027729 -0.009955 0.005225
# 5 -0.007838 0.001159 -0.001557 -0.009955 0.040447 0.004720
# 6 -0.008809 -0.005424 -0.005387 0.005225 0.004720 0.044041
#
#
# Mechanical properties :
#
#
# Convention : Reuss Voigt Hill
#
# Bulk Modulus (GPa) = 31.61737 49.43441 40.52589
# Shear Modulus (GPa) = 28.48923 35.73964 32.11443
#
# Velocity S-wave (km/s) = 3.50307 3.92359 3.71928
# Velocity P-wave (km/s) = 5.47549 6.46680 5.99168
#
# Compressibility (1/GPa) = 0.03162819
#
# Stress axis : x y z
#
# Youngs Moduli (GPa) = 58.64061 66.86652 98.24671
#
# Poissons Ratio (x) = 0.20018 0.19306
# Poissons Ratio (y) = 0.17555 0.03149
# Poissons Ratio (z) = 0.11523 0.02143
#
# Static dielectric constant tensor:
#      x y z
#    x 1.824980 0.087630 0.054490 
#    y 0.087630 1.949640 -0.035270 
#    z 0.054490 -0.035270 1.748740 
# 
# From -- ./inp_files/483702.got.cif
#   From: 2010.05.17/outbox.cif.g08.bks.cpg/sg2_242_cif.got.tgz:483702.got - 2010.06.03 11:33:40.
