data_PCOD9108354
_publ_section_title
;
Structure prediction by ZEFSAII (Michael W. Deem and Ramdas Pophale) SiO2 
 PCOD9108354
Probable space group: P -1
;
_chemical_formula_sum "Si O2"
_cell_formula_units_Z 15
_cell_length_a 10.079156
_cell_length_b 5.516671
_cell_length_c 12.511200
_cell_angle_alpha 63.560144
_cell_angle_beta 92.913898
_cell_angle_gamma 118.377579
_cell_volume 536.513262
_symmetry_space_group_name_H-M "P -1"
_symmetry_group_IT_number 2
_symmetry_cell_setting 'triclinic'
loop_
_space_group_symop_operation_xyz
x,y,z
-x,-y,-z
loop_
_atom_site_type_symbol
_atom_site_label
_atom_site_fract_x
_atom_site_fract_y
_atom_site_fract_z
Si Si1 0.527172 0.052227 0.669424
Si Si2 0.146966 0.203910 0.542621
Si Si3 0.500000 0.500000 0.500000
Si Si4 0.179514 0.247430 0.946191
Si Si5 0.954587 0.371464 0.216167
Si Si6 0.571363 0.665999 0.208648
Si Si7 0.748643 0.586236 0.847853
Si Si8 0.854153 0.249816 0.652075
O O1 0.543961 0.234388 0.526303
O O2 0.445015 0.228961 0.692400
O O3 0.690460 0.183060 0.707870
O O4 0.457307 0.686415 0.729664
O O5 0.310975 0.270364 0.494299
O O6 0.136277 0.520151 0.487970
O O7 0.000000 0.000000 0.500000
O O8 0.115932 0.993382 0.687540
O O9 0.269786 0.152318 0.884940
O O10 0.170244 0.552804 0.850920
O O11 0.257199 0.308215 0.052603
O O12 0.000000 0.000000 0.000000
O O13 0.112866 0.488755 0.133951
O O14 0.015584 0.567819 0.290397
O O15 0.426900 0.653363 0.144341
O O16 0.813628 0.891849 0.712235
#
# Coordination Sequence:
#
# PCOD9108354 Si02
#       8
#     2   2   1   2   2   2   2   2
#     4  10  22  43  72 103 137 187 235 295 352 430
#     4   9  20  37  68  99 138 184 234 294 360 434
#     4  10  20  40  68 104 144 186 240 294 364 434
#     4  12  26  43  65 101 138 182 237 300 357 421
#     4  11  21  41  66  96 135 179 228 293 355 420
#     4  11  25  46  71  98 141 186 239 291 359 432
#     4  11  23  43  70  97 135 187 235 293 353 428
#     4   9  19  41  63  98 134 174 231 281 353 425
#
# _framework density 27.958304999999999
#
# number of rings (size 3 to 8) (size 9 to 14) (size 15 to 20)
#    0.000    1.600    2.667    1.600    0.000    4.267 
#    0.000    2.667    0.000    0.000    0.000    0.000 
#    0.000    0.000    0.000    0.000    0.000    0.000 
#
# Total GULP energy -83626.207800 kJ/mol
# GULP energy per Si atom -5575.080520 kJ/mol
# Density = 2.789467 g / cm^3
# Si number density = 27.958305 Si / 1000 Ang^3
#
#
#
# Elastic Constant Matrix: (Units=GPa)
#
#
# Indices 1 2 3 4 5 6 
#
# 1 187.2357 25.0523 21.4779 3.2882 -1.8130 3.9209
# 2 25.0523 75.3116 29.2361 7.1763 -5.1236 -1.5572
# 3 21.4779 29.2361 96.8460 -5.7478 12.2543 -3.3202
# 4 3.2882 7.1763 -5.7478 52.3722 -1.6411 6.9351
# 5 -1.8130 -5.1236 12.2543 -1.6411 44.6112 4.6084
# 6 3.9209 -1.5572 -3.3202 6.9351 4.6084 45.4946
#
#
#
# Elastic Compliance Matrix: (Units=1/GPa)
#
#
# Indices 1 2 3 4 5 6 
#
# 1 0.005663 -0.001520 -0.000872 -0.000150 0.000353 -0.000617
# 2 -0.001520 0.016230 -0.005093 -0.002645 0.003062 0.000408
# 3 -0.000872 -0.005093 0.012726 0.001892 -0.004146 0.000961
# 4 -0.000150 -0.002645 0.001892 0.020081 0.000221 -0.003023
# 5 0.000353 0.003062 -0.004146 0.000221 0.024209 -0.002714
# 6 -0.000617 0.000408 0.000961 -0.003023 -0.002714 0.022854
#
#
# Mechanical properties :
#
#
# Convention : Reuss Voigt Hill
#
# Bulk Modulus (GPa) = 50.89037 56.76954 53.82996
# Shear Modulus (GPa) = 40.55746 47.40406 43.98076
#
# Velocity S-wave (km/s) = 3.81286 4.12214 3.97051
# Velocity P-wave (km/s) = 6.13397 6.55784 6.34944
#
# Compressibility (1/GPa) = 0.01965008
#
# Stress axis : x y z
#
# Youngs Moduli (GPa) = 176.57866 61.61594 78.57740
#
# Poissons Ratio (x) = 0.09364 0.06851
# Poissons Ratio (y) = 0.26836 0.40018
# Poissons Ratio (z) = 0.15396 0.31380
#
# Static dielectric constant tensor:
#      x y z
#    x 2.205280 0.059870 -0.167670 
#    y 0.059870 2.243050 0.029440 
#    z -0.167670 0.029440 1.385250 
# 
# From -- ./inp_files/488095.got.cif
#   From: 2010.05.17/outbox.cif.g08.bks.cpg/sg2_245_cif.got.tgz:488095.got - 2010.06.03 11:33:40.
