data_PCOD9108825
_publ_section_title
;
Structure prediction by ZEFSAII (Michael W. Deem and Ramdas Pophale) SiO2 
 PCOD9108825
Probable space group: P -1
;
_chemical_formula_sum "Si O2"
_cell_formula_units_Z 16
_cell_length_a 9.922218
_cell_length_b 11.659130
_cell_length_c 13.710790
_cell_angle_alpha 140.876347
_cell_angle_beta 66.863884
_cell_angle_gamma 130.105743
_cell_volume 746.503772
_symmetry_space_group_name_H-M "P -1"
_symmetry_group_IT_number 2
_symmetry_cell_setting 'triclinic'
loop_
_space_group_symop_operation_xyz
x,y,z
-x,-y,-z
loop_
_atom_site_type_symbol
_atom_site_label
_atom_site_fract_x
_atom_site_fract_y
_atom_site_fract_z
Si Si1 0.466713 0.028330 0.373728
Si Si2 0.893975 0.084125 0.873764
Si Si3 0.472269 0.268884 0.337036
Si Si4 0.782034 0.324238 0.628231
Si Si5 0.523018 0.356290 0.978185
Si Si6 0.844881 0.423131 0.237579
Si Si7 0.907331 0.617891 0.146350
Si Si8 0.838919 0.790466 0.966568
O O1 0.435194 0.138431 0.364128
O O2 0.649495 0.214525 0.501727
O O3 0.307070 0.876210 0.398030
O O4 0.488403 0.843639 0.202778
O O5 0.954692 0.143100 0.782758
O O6 0.694986 0.862422 0.776818
O O7 0.868684 0.249103 0.056411
O O8 0.071836 0.123503 0.895715
O O9 0.500000 0.500000 0.500000
O O10 0.650125 0.307458 0.263861
O O11 0.789302 0.542564 0.801432
O O12 0.995363 0.437953 0.637179
O O13 0.500000 0.500000 0.000000
O O14 0.710737 0.498788 0.075817
O O15 0.347248 0.242505 0.020432
O O16 0.882728 0.592494 0.251371
O O17 0.000000 0.500000 0.000000
O O18 0.000000 0.000000 0.000000
#
# Coordination Sequence:
#
# PCOD9108825 Si02
#       8
#     2   2   2   2   2   2   2   2
#     4  11  24  44  70  94 143 176 225 287 343 413
#     4  10  21  42  65  93 130 176 223 280 340 396
#     4  12  28  43  62 100 141 183 229 282 350 411
#     4  10  23  46  68  98 134 184 227 279 353 401
#     4  12  22  42  70 107 130 175 234 277 345 403
#     4  10  22  42  67  96 127 179 231 277 345 406
#     4  10  20  40  72  95 133 171 231 284 325 408
#     4  11  25  39  67 102 138 169 228 286 329 411
#
# _framework density 21.433247000000001
#
# number of rings (size 3 to 8) (size 9 to 14) (size 15 to 20)
#    0.000    1.250    2.500    4.125    7.000    1.500 
#    0.000    1.250    0.000    0.000    0.000    0.000 
#    0.000    0.000    0.000    0.000    0.000    0.000 
#
# Total GULP energy -89187.552712 kJ/mol
# GULP energy per Si atom -5574.222044 kJ/mol
# Density = 2.138446 g / cm^3
# Si number density = 21.433247 Si / 1000 Ang^3
#
#
#
# Elastic Constant Matrix: (Units=GPa)
#
#
# Indices 1 2 3 4 5 6 
#
# 1 110.9907 25.2725 33.5855 13.5264 25.1819 24.1279
# 2 25.2725 79.9382 7.8692 8.2913 10.8299 11.8871
# 3 33.5855 7.8692 75.9453 24.7732 26.5162 3.1532
# 4 13.5264 8.2913 24.7732 24.5969 4.3767 6.9952
# 5 25.1819 10.8299 26.5162 4.3767 33.5956 14.6320
# 6 24.1279 11.8871 3.1532 6.9952 14.6320 56.5187
#
#
#
# Elastic Compliance Matrix: (Units=1/GPa)
#
#
# Indices 1 2 3 4 5 6 
#
# 1 0.012374 -0.002401 -0.003229 -0.001016 -0.004365 -0.003342
# 2 -0.002401 0.014172 0.002840 -0.005477 -0.004138 -0.000365
# 3 -0.003229 0.002840 0.031778 -0.029486 -0.023547 0.008754
# 4 -0.001016 -0.005477 -0.029486 0.072159 0.021282 -0.011210
# 5 -0.004365 -0.004138 -0.023547 0.021282 0.055868 -0.013050
# 6 -0.003342 -0.000365 0.008754 -0.011210 -0.013050 0.023474
#
#
# Mechanical properties :
#
#
# Convention : Reuss Voigt Hill
#
# Bulk Modulus (GPa) = 18.95987 44.48098 31.72042
# Shear Modulus (GPa) = 21.46039 36.28539 28.87289
#
# Velocity S-wave (km/s) = 3.16771 4.11901 3.67428
# Velocity P-wave (km/s) = 4.71640 6.58938 5.72994
#
# Compressibility (1/GPa) = 0.05274299
#
# Stress axis : x y z
#
# Youngs Moduli (GPa) = 80.81382 70.56157 31.46848
#
# Poissons Ratio (x) = 0.16939 0.10163
# Poissons Ratio (y) = 0.19400 -0.08936
# Poissons Ratio (z) = 0.26099 -0.20036
#
# Static dielectric constant tensor:
#      x y z
#    x 1.627490 0.044250 -0.049080 
#    y 0.044250 1.851550 -0.004780 
#    z -0.049080 -0.004780 1.727040 
# 
# From -- ./inp_files/500980.got.cif
#   From: 2010.05.17/outbox.cif.g08.bks.cpg/sg2_251_cif.got.tgz:500980.got - 2010.06.03 11:33:40.
