data_PCOD9108292
_publ_section_title
;
Structure prediction by ZEFSAII (Michael W. Deem and Ramdas Pophale) SiO2 
 PCOD9108292
Probable space group: P -1
;
_chemical_formula_sum "Si O2"
_cell_formula_units_Z 15
_cell_length_a 5.117040
_cell_length_b 12.546899
_cell_length_c 12.330223
_cell_angle_alpha 115.643332
_cell_angle_beta 63.968030
_cell_angle_gamma 108.940084
_cell_volume 632.342114
_symmetry_space_group_name_H-M "P -1"
_symmetry_group_IT_number 2
_symmetry_cell_setting 'triclinic'
loop_
_space_group_symop_operation_xyz
x,y,z
-x,-y,-z
loop_
_atom_site_type_symbol
_atom_site_label
_atom_site_fract_x
_atom_site_fract_y
_atom_site_fract_z
Si Si1 0.000000 0.000000 0.000000
Si Si2 0.084593 0.127586 0.224343
Si Si3 0.734758 0.392322 0.974469
Si Si4 0.701878 0.456579 0.776872
Si Si5 0.688018 0.196824 0.066776
Si Si6 0.523723 0.723732 0.436830
Si Si7 0.953190 0.114373 0.485039
Si Si8 0.829985 0.352984 0.319669
O O1 0.059291 0.880068 0.997840
O O2 0.835245 0.047591 0.163649
O O3 0.364677 0.111985 0.089778
O O4 0.092045 0.094811 0.332690
O O5 0.054855 0.265545 0.278486
O O6 0.443541 0.436694 0.095402
O O7 0.751702 0.272289 0.981106
O O8 0.735197 0.376923 0.839861
O O9 0.000000 0.500000 0.000000
O O10 0.495533 0.376603 0.694981
O O11 0.995991 0.518353 0.689108
O O12 0.688227 0.288360 0.208146
O O13 0.846516 0.779998 0.440235
O O14 0.379215 0.658313 0.543526
O O15 0.342918 0.830050 0.473205
O O16 0.000000 0.000000 0.500000
#
# Coordination Sequence:
#
# PCOD9108292 Si02
#       8
#     1   2   2   2   2   2   2   2
#     4  10  24  36  66  96 120 168 236 278 320 396
#     4  10  21  42  63  90 129 171 222 276 340 396
#     4  11  24  41  65  93 141 183 208 281 354 408
#     4  11  24  41  64 103 133 174 230 275 344 415
#     4  11  20  41  64  90 131 173 226 272 341 402
#     4  11  25  44  72 102 133 177 237 280 339 415
#     4  11  25  47  68  96 136 181 221 288 352 404
#     4  10  20  40  67  97 133 175 215 284 337 412
#
# _framework density 23.721335
#
# number of rings (size 3 to 8) (size 9 to 14) (size 15 to 20)
#    0.000    1.333    4.000    1.200    1.867    1.067 
#    2.400    2.667    0.000    0.000    0.000    0.000 
#    0.000    0.000    0.000    0.000    0.000    0.000 
#
# Total GULP energy -83571.935240 kJ/mol
# GULP energy per Si atom -5571.462349 kJ/mol
# Density = 2.366734 g / cm^3
# Si number density = 23.721335 Si / 1000 Ang^3
#
#
#
# Elastic Constant Matrix: (Units=GPa)
#
#
# Indices 1 2 3 4 5 6 
#
# 1 55.5454 10.0962 2.0885 -12.2913 0.5721 -19.8743
# 2 10.0962 90.7478 66.4432 -35.7363 14.8429 -32.6390
# 3 2.0885 66.4432 88.1567 -11.5149 29.9555 -16.5116
# 4 -12.2913 -35.7363 -11.5149 36.5787 -9.3850 14.9470
# 5 0.5721 14.8429 29.9555 -9.3850 28.8136 -7.0353
# 6 -19.8743 -32.6390 -16.5116 14.9470 -7.0353 35.3608
#
#
#
# Elastic Compliance Matrix: (Units=1/GPa)
#
#
# Indices 1 2 3 4 5 6 
#
# 1 0.027754 0.025543 -0.018935 0.023389 0.019536 0.024335
# 2 0.025543 0.145856 -0.116976 0.112440 0.098830 0.066498
# 3 -0.018935 -0.116976 0.112301 -0.091018 -0.097252 -0.047052
# 4 0.023389 0.112440 -0.091018 0.122101 0.085746 0.039878
# 5 0.019536 0.098830 -0.097252 0.085746 0.123456 0.045109
# 6 0.024335 0.066498 -0.047052 0.039878 0.045109 0.073485
#
#
# Mechanical properties :
#
#
# Convention : Reuss Voigt Hill
#
# Bulk Modulus (GPa) = 15.34316 43.52283 29.43300
# Shear Modulus (GPa) = 5.90031 30.53876 18.21954
#
# Velocity S-wave (km/s) = 1.57884 3.59192 2.77441
# Velocity P-wave (km/s) = 3.13142 5.96573 4.76423
#
# Compressibility (1/GPa) = 0.06517561
#
# Stress axis : x y z
#
# Youngs Moduli (GPa) = 36.03104 6.85608 8.90464
#
# Poissons Ratio (x) = -0.17513 0.16861
# Poissons Ratio (y) = -0.92036 1.04163
# Poissons Ratio (z) = 0.68224 0.80200
#
# Static dielectric constant tensor:
#      x y z
#    x 1.600730 -0.216950 -0.222390 
#    y -0.216950 1.802730 -0.086490 
#    z -0.222390 -0.086490 1.826670 
# 
# From -- ./inp_files/68645.got.cif
#   From: 2010.05.17/outbox.cif.g08.bks.cpg/sg2_35_cif.got.tgz:68645.got - 2010.06.03 11:33:40.
