data_PCOD9108913
_publ_section_title
;
Structure prediction by ZEFSAII (Michael W. Deem and Ramdas Pophale) SiO2 
 PCOD9108913
Probable space group: P -1
;
_chemical_formula_sum "Si O2"
_cell_formula_units_Z 16
_cell_length_a 21.451094
_cell_length_b 4.992669
_cell_length_c 7.388628
_cell_angle_alpha 111.475713
_cell_angle_beta 75.794910
_cell_angle_gamma 83.050259
_cell_volume 694.084805
_symmetry_space_group_name_H-M "P -1"
_symmetry_group_IT_number 2
_symmetry_cell_setting 'triclinic'
loop_
_space_group_symop_operation_xyz
x,y,z
-x,-y,-z
loop_
_atom_site_type_symbol
_atom_site_label
_atom_site_fract_x
_atom_site_fract_y
_atom_site_fract_z
Si Si1 0.078219 0.571355 0.351894
Si Si2 0.056514 0.232935 0.634572
Si Si3 0.625218 0.406116 0.442145
Si Si4 0.246037 0.366586 0.471614
Si Si5 0.545226 0.675634 0.906523
Si Si6 0.819094 0.982561 0.292666
Si Si7 0.356462 0.280822 0.839756
Si Si8 0.780333 0.668599 0.921587
O O1 0.083340 0.325963 0.444835
O O2 0.017836 0.565920 0.256457
O O3 0.054602 0.889521 0.541420
O O4 0.148654 0.555193 0.206397
O O5 0.110120 0.222122 0.750740
O O6 0.689113 0.520815 0.493504
O O7 0.570297 0.520455 0.660921
O O8 0.638233 0.056245 0.311176
O O9 0.609834 0.560306 0.297305
O O10 0.188396 0.669140 0.592482
O O11 0.230833 0.126318 0.560876
O O12 0.247208 0.245499 0.237676
O O13 0.500000 0.500000 0.000000
O O14 0.607421 0.697486 0.992143
O O15 0.500000 0.000000 0.000000
O O16 0.798224 0.926325 0.091627
O O17 0.278586 0.431713 0.957375
#
# Coordination Sequence:
#
# PCOD9108913 Si02
#       8
#     2   2   2   2   2   2   2   2
#     4  10  22  37  65  88 129 173 224 272 342 388
#     4  10  20  41  58  91 129 176 217 282 334 399
#     4  12  25  48  70 103 142 173 219 281 326 387
#     4  12  24  43  64 101 134 175 216 291 323 389
#     4  12  28  49  74 106 139 180 222 266 328 398
#     4  12  24  40  67  97 134 172 231 272 344 386
#     4  12  27  44  74 104 135 180 226 269 334 397
#     4  12  24  42  70 101 128 180 227 275 336 402
#
# _framework density 23.051938
#
# number of rings (size 3 to 8) (size 9 to 14) (size 15 to 20)
#    0.000    0.500    6.250    1.500    0.000    7.500 
#    0.000    0.000    0.000    6.000    0.000    0.000 
#    0.000    0.000    0.000    0.000    0.000    0.000 
#
# Total GULP energy -89478.333089 kJ/mol
# GULP energy per Si atom -5592.395818 kJ/mol
# Density = 2.299947 g / cm^3
# Si number density = 23.051938 Si / 1000 Ang^3
#
#
#
# Elastic Constant Matrix: (Units=GPa)
#
#
# Indices 1 2 3 4 5 6 
#
# 1 86.7391 2.9777 18.6624 -3.5876 -10.5178 -2.3384
# 2 2.9777 107.9598 18.9300 0.0273 1.6018 4.7621
# 3 18.6624 18.9300 101.9719 -14.3553 0.8119 -0.6542
# 4 -3.5876 0.0273 -14.3553 17.0489 -3.6212 3.8894
# 5 -10.5178 1.6018 0.8119 -3.6212 46.2943 -5.5721
# 6 -2.3384 4.7621 -0.6542 3.8894 -5.5721 29.0656
#
#
#
# Elastic Compliance Matrix: (Units=1/GPa)
#
#
# Indices 1 2 3 4 5 6 
#
# 1 0.012453 -0.000082 -0.002113 0.001185 0.003131 0.001409
# 2 -0.000082 0.009694 -0.002000 -0.001493 -0.000623 -0.001560
# 3 -0.002113 -0.002000 0.011941 0.009823 0.000042 -0.000880
# 4 0.001185 -0.001493 0.009823 0.069974 0.004670 -0.007907
# 5 0.003131 -0.000623 0.000042 0.004670 0.023201 0.004178
# 6 0.001409 -0.001560 -0.000880 -0.007907 0.004178 0.036613
#
#
# Mechanical properties :
#
#
# Convention : Reuss Voigt Hill
#
# Bulk Modulus (GPa) = 38.91195 41.97901 40.44548
# Shear Modulus (GPa) = 27.64992 35.55515 31.60253
#
# Velocity S-wave (km/s) = 3.46708 3.93159 3.70662
# Velocity P-wave (km/s) = 5.73971 6.23378 5.99184
#
# Compressibility (1/GPa) = 0.02569904
#
# Stress axis : x y z
#
# Youngs Moduli (GPa) = 80.30214 103.15611 83.74187
#
# Poissons Ratio (x) = 0.00845 0.17694
# Poissons Ratio (y) = 0.00658 0.16747
# Poissons Ratio (z) = 0.16967 0.20630
#
# Static dielectric constant tensor:
#      x y z
#    x 1.941000 -0.031390 -0.009480 
#    y -0.031390 1.803200 -0.009550 
#    z -0.009480 -0.009550 1.855940 
# 
# From -- ./inp_files/339966.got.cif
#   From: 2010.05.17/outbox.cif.g08.bks.cpg/sg2_170_cif.got.tgz:339966.got - 2010.06.03 11:33:40.
