data_PCOD9108299
_publ_section_title
;
Structure prediction by ZEFSAII (Michael W. Deem and Ramdas Pophale) SiO2 
 PCOD9108299
Probable space group: P -1
;
_chemical_formula_sum "Si O2"
_cell_formula_units_Z 14
_cell_length_a 10.549549
_cell_length_b 10.366191
_cell_length_c 10.205902
_cell_angle_alpha 66.580656
_cell_angle_beta 47.111561
_cell_angle_gamma 100.020065
_cell_volume 562.990141
_symmetry_space_group_name_H-M "P -1"
_symmetry_group_IT_number 2
_symmetry_cell_setting 'triclinic'
loop_
_space_group_symop_operation_xyz
x,y,z
-x,-y,-z
loop_
_atom_site_type_symbol
_atom_site_label
_atom_site_fract_x
_atom_site_fract_y
_atom_site_fract_z
Si Si1 0.010833 0.172609 0.418537
Si Si2 0.864941 0.512928 0.476223
Si Si3 0.556304 0.511504 0.158706
Si Si4 0.671151 0.182500 0.548874
Si Si5 0.201794 0.913120 0.118644
Si Si6 0.144794 0.199999 0.948820
Si Si7 0.642715 0.838385 0.423616
O O1 0.850640 0.152892 0.426912
O O2 0.895555 0.162393 0.637719
O O3 0.267691 0.366063 0.133182
O O4 0.000000 0.000000 0.500000
O O5 0.363074 0.529253 0.294997
O O6 0.205891 0.624752 0.537704
O O7 0.000000 0.500000 0.500000
O O8 0.959148 0.272388 0.780103
O O9 0.439660 0.295082 0.338884
O O10 0.718799 0.617141 0.131525
O O11 0.557845 0.180414 0.497293
O O12 0.461950 0.019729 0.855528
O O13 0.175347 0.063954 0.051977
O O14 0.869721 0.056914 0.184798
O O15 0.275691 0.240299 0.704139
#
# Coordination Sequence:
#
# PCOD9108299 Si02
#       7
#     2   2   2   2   2   2   2
#     4  12  25  43  68  95 138 179 210 274 345 383
#     4  12  24  40  67 102 127 171 226 266 324 390
#     4  12  24  41  67  99 138 170 212 278 329 390
#     4  11  25  45  68  97 131 175 220 280 313 394
#     4  11  22  43  69  94 130 173 225 265 330 388
#     4  10  20  40  67  98 126 170 219 270 323 388
#     4  10  22  40  69  94 129 172 226 264 324 389
#
# _framework density 24.867221000000001
#
# number of rings (size 3 to 8) (size 9 to 14) (size 15 to 20)
#    0.000    0.857    7.143    0.857    2.000    1.143 
#    0.000    2.143    0.000    0.000    0.000    0.000 
#    0.000    0.000    0.000    0.000    0.000    0.000 
#
# Total GULP energy -78375.048656 kJ/mol
# GULP energy per Si atom -5598.217761 kJ/mol
# Density = 2.481062 g / cm^3
# Si number density = 24.867221 Si / 1000 Ang^3
#
#
#
# Elastic Constant Matrix: (Units=GPa)
#
#
# Indices 1 2 3 4 5 6 
#
# 1 132.3280 14.1102 52.6587 4.1156 -30.0455 -30.5586
# 2 14.1102 70.6311 30.9857 -13.2365 -8.9485 -1.3873
# 3 52.6587 30.9857 138.7037 -23.9623 7.5142 -12.7136
# 4 4.1156 -13.2365 -23.9623 34.0236 4.8182 -2.5262
# 5 -30.0455 -8.9485 7.5142 4.8182 53.2837 1.0969
# 6 -30.5586 -1.3873 -12.7136 -2.5262 1.0969 38.1935
#
#
#
# Elastic Compliance Matrix: (Units=1/GPa)
#
#
# Indices 1 2 3 4 5 6 
#
# 1 0.014523 -0.000007 -0.006437 -0.006996 0.009549 0.008740
# 2 -0.000007 0.016655 -0.003258 0.003748 0.002920 -0.000321
# 3 -0.006437 -0.003258 0.012279 0.009082 -0.006722 -0.000388
# 4 -0.006996 0.003748 0.009082 0.039276 -0.008156 0.000394
# 5 0.009549 0.002920 -0.006722 -0.008156 0.026241 0.004215
# 6 0.008740 -0.000321 -0.000388 0.000394 0.004215 0.032940
#
#
# Mechanical properties :
#
#
# Convention : Reuss Voigt Hill
#
# Bulk Modulus (GPa) = 41.57531 59.68579 50.63055
# Shear Modulus (GPa) = 29.52713 41.36072 35.44392
#
# Velocity S-wave (km/s) = 3.44959 4.08274 3.77945
# Velocity P-wave (km/s) = 5.71152 6.80286 6.28094
#
# Compressibility (1/GPa) = 0.02405274
#
# Stress axis : x y z
#
# Youngs Moduli (GPa) = 68.85490 60.04251 81.44090
#
# Poissons Ratio (x) = 0.00043 0.52423
# Poissons Ratio (y) = 0.00050 0.26533
# Poissons Ratio (z) = 0.44322 0.19562
#
# Static dielectric constant tensor:
#      x y z
#    x 2.086100 0.099230 0.018960 
#    y 0.099230 1.994820 0.023210 
#    z 0.018960 0.023210 1.964940 
# 
# From -- ./inp_files/425597.got.cif
#   From: 2010.05.17/outbox.cif.g08.bks.cpg/sg2_213_cif.got.tgz:425597.got - 2010.06.03 11:33:40.
