data_PCOD9108662
_publ_section_title
;
Structure prediction by ZEFSAII (Michael W. Deem and Ramdas Pophale) SiO2 
 PCOD9108662
Probable space group: P -1
;
_chemical_formula_sum "Si O2"
_cell_formula_units_Z 16
_cell_length_a 22.398369
_cell_length_b 21.776504
_cell_length_c 5.722919
_cell_angle_alpha 111.934640
_cell_angle_beta 78.995454
_cell_angle_gamma 159.852316
_cell_volume 772.303870
_symmetry_space_group_name_H-M "P -1"
_symmetry_group_IT_number 2
_symmetry_cell_setting 'triclinic'
loop_
_space_group_symop_operation_xyz
x,y,z
-x,-y,-z
loop_
_atom_site_type_symbol
_atom_site_label
_atom_site_fract_x
_atom_site_fract_y
_atom_site_fract_z
Si Si1 0.094512 0.491074 0.961435
Si Si2 0.522712 0.876664 0.144817
Si Si3 0.626208 0.555915 0.745775
Si Si4 0.625811 0.701937 0.833261
Si Si5 0.979627 0.048713 0.711447
Si Si6 0.748811 0.911072 0.421189
Si Si7 0.853958 0.321156 0.550058
Si Si8 0.299128 0.986693 0.284487
O O1 0.284614 0.641346 0.999975
O O2 0.171973 0.642267 0.212025
O O3 0.979513 0.391424 0.669955
O O4 0.912731 0.272397 0.939494
O O5 0.640465 0.068433 0.291731
O O6 0.590882 0.921674 0.420402
O O7 0.584425 0.902306 0.893232
O O8 0.613264 0.622289 0.882080
O O9 0.584088 0.501682 0.424604
O O10 0.452654 0.333656 0.681230
O O11 0.834442 0.749210 0.969292
O O12 0.720755 0.865465 0.105888
O O13 0.780910 0.840257 0.717650
O O14 0.000000 0.000000 0.500000
O O15 0.938096 0.065940 0.591780
O O16 0.749771 0.987123 0.602752
O O17 0.000000 0.500000 0.500000
#
# Coordination Sequence:
#
# PCOD9108662 Si02
#       8
#     2   2   2   2   2   2   2   2
#     4  10  23  43  68 101 142 182 224 287 335 400
#     4  11  25  44  71 100 138 189 231 274 340 407
#     4  10  22  38  62  89 119 156 210 266 339 399
#     4  10  22  38  61  88 124 160 202 279 338 397
#     4  11  23  38  63  97 121 157 215 277 344 408
#     4  11  25  42  63  88 129 170 216 279 337 401
#     4  10  20  40  70 106 141 173 228 287 338 388
#     4  11  27  46  65  98 142 183 236 280 333 412
#
# _framework density 20.717236
#
# number of rings (size 3 to 8) (size 9 to 14) (size 15 to 20)
#    0.000    1.500    2.500    1.125    8.750    1.500 
#    2.250    0.000    0.000    0.000    0.000    0.000 
#    0.000    0.000    0.000    0.000    0.000    0.000 
#
# Total GULP energy -89151.061457 kJ/mol
# GULP energy per Si atom -5571.941341 kJ/mol
# Density = 2.067008 g / cm^3
# Si number density = 20.717236 Si / 1000 Ang^3
#
#
#
# Elastic Constant Matrix: (Units=GPa)
#
#
# Indices 1 2 3 4 5 6 
#
# 1 87.5184 17.1296 47.1707 6.8755 0.3277 20.8165
# 2 17.1296 63.8232 22.3764 -3.4834 18.0816 21.0281
# 3 47.1707 22.3764 102.9332 2.4240 9.4834 25.0036
# 4 6.8755 -3.4834 2.4240 33.7750 6.8040 0.4084
# 5 0.3277 18.0816 9.4834 6.8040 30.4239 4.0036
# 6 20.8165 21.0281 25.0036 0.4084 4.0036 25.3422
#
#
#
# Elastic Compliance Matrix: (Units=1/GPa)
#
#
# Indices 1 2 3 4 5 6 
#
# 1 0.017012 -0.001478 -0.005969 -0.003990 0.004434 -0.007495
# 2 -0.001478 0.026823 0.000844 0.006268 -0.015011 -0.019605
# 3 -0.005969 0.000844 0.015049 0.001163 -0.004069 -0.010021
# 4 -0.003990 0.006268 0.001163 0.033270 -0.011244 -0.001831
# 5 0.004434 -0.015011 -0.004069 -0.011244 0.044744 0.005941
# 6 -0.007495 -0.019605 -0.010021 -0.001831 0.005941 0.070862
#
#
# Mechanical properties :
#
#
# Convention : Reuss Voigt Hill
#
# Bulk Modulus (GPa) = 21.89220 47.51424 34.70322
# Shear Modulus (GPa) = 21.16933 29.08142 25.12538
#
# Velocity S-wave (km/s) = 3.20006 3.75070 3.48627
# Velocity P-wave (km/s) = 4.92382 6.46076 5.74393
#
# Compressibility (1/GPa) = 0.04567837
#
# Stress axis : x y z
#
# Youngs Moduli (GPa) = 58.78224 37.28122 66.45164
#
# Poissons Ratio (x) = 0.05510 0.39663
# Poissons Ratio (y) = 0.08687 -0.05608
# Poissons Ratio (z) = 0.35085 -0.03146
#
# Static dielectric constant tensor:
#      x y z
#    x 1.758210 -0.026850 0.044940 
#    y -0.026850 1.794190 -0.083250 
#    z 0.044940 -0.083250 1.892620 
# 
# From -- ./inp_files/120452.got.cif
#   From: 2010.05.17/outbox.cif.g08.bks.cpg/sg2_61_cif.got.tgz:120452.got - 2010.06.03 11:33:40.
