data_PCOD9108221
_publ_section_title
;
Structure prediction by ZEFSAII (Michael W. Deem and Ramdas Pophale) SiO2 
 PCOD9108221
Probable space group: P -1
;
_chemical_formula_sum "Si O2"
_cell_formula_units_Z 16
_cell_length_a 15.398156
_cell_length_b 7.841389
_cell_length_c 9.928888
_cell_angle_alpha 74.632111
_cell_angle_beta 35.370095
_cell_angle_gamma 67.175154
_cell_volume 636.652950
_symmetry_space_group_name_H-M "P -1"
_symmetry_group_IT_number 2
_symmetry_cell_setting 'triclinic'
loop_
_space_group_symop_operation_xyz
x,y,z
-x,-y,-z
loop_
_atom_site_type_symbol
_atom_site_label
_atom_site_fract_x
_atom_site_fract_y
_atom_site_fract_z
Si Si1 0.990695 0.245433 0.334424
Si Si2 0.529465 0.858365 0.865001
Si Si3 0.873465 0.678912 0.353449
Si Si4 0.906729 0.350903 0.688455
Si Si5 0.459425 0.429376 0.883788
Si Si6 0.633288 0.533471 0.421228
Si Si7 0.955818 0.193237 0.094877
Si Si8 0.644190 0.822529 0.145393
O O1 0.894820 0.461613 0.382932
O O2 0.940141 0.204839 0.555167
O O3 0.962886 0.148625 0.254080
O O4 0.173575 0.231620 0.113558
O O5 0.711106 0.795821 0.602196
O O6 0.428806 0.961560 0.843695
O O7 0.490069 0.682789 0.017795
O O8 0.500000 0.000000 0.000000
O O9 0.015252 0.714783 0.253685
O O10 0.909017 0.722038 0.147082
O O11 0.000000 0.500000 0.500000
O O12 0.721301 0.444758 0.908776
O O13 0.572246 0.532040 0.651226
O O14 0.448736 0.275587 0.817433
O O15 0.500000 0.500000 0.500000
O O16 0.791258 0.357295 0.242061
O O17 0.640158 0.730683 0.314580
O O18 0.000000 0.000000 0.000000
#
# Coordination Sequence:
#
# PCOD9108221 Si02
#       8
#     2   2   2   2   2   2   2   2
#     4  11  21  43  70  96 130 175 236 280 326 412
#     4  10  20  32  62 103 136 165 222 277 329 394
#     4  11  20  40  72  97 129 178 229 273 334 410
#     4  10  16  35  70 100 123 169 229 270 325 402
#     4  10  17  34  63  99 135 175 214 274 341 401
#     4  10  22  40  65  91 138 179 216 269 350 409
#     4  12  28  44  65  97 134 179 230 288 340 394
#     4  10  19  36  63  99 133 175 219 279 329 402
#
# _framework density 25.131432
#
# number of rings (size 3 to 8) (size 9 to 14) (size 15 to 20)
#    0.000    1.500    6.250    1.875    5.250    0.000 
#    0.000    3.125    0.000    0.000    0.000    0.000 
#    0.000    0.000    0.000    0.000    0.000    0.000 
#
# Total GULP energy -89447.742570 kJ/mol
# GULP energy per Si atom -5590.483911 kJ/mol
# Density = 2.507423 g / cm^3
# Si number density = 25.131432 Si / 1000 Ang^3
#
#
#
# Elastic Constant Matrix: (Units=GPa)
#
#
# Indices 1 2 3 4 5 6 
#
# 1 129.0134 48.7650 31.9900 5.4312 11.4423 -17.8560
# 2 48.7650 127.5852 64.1919 11.0006 5.0813 -26.6813
# 3 31.9900 64.1919 155.5971 15.1779 15.7513 -34.1962
# 4 5.4312 11.0006 15.1779 30.7683 -6.6445 14.0272
# 5 11.4423 5.0813 15.7513 -6.6445 37.1345 7.6840
# 6 -17.8560 -26.6813 -34.1962 14.0272 7.6840 43.5215
#
#
#
# Elastic Compliance Matrix: (Units=1/GPa)
#
#
# Indices 1 2 3 4 5 6 
#
# 1 0.010028 -0.002437 0.001730 -0.006293 -0.006081 0.007081
# 2 -0.002437 0.012050 -0.001660 -0.007408 -0.003181 0.008032
# 3 0.001730 -0.001660 0.014074 -0.018226 -0.013468 0.019002
# 4 -0.006293 -0.007408 -0.018226 0.076759 0.035263 -0.052409
# 5 -0.006081 -0.003181 -0.013468 0.035263 0.048494 -0.034955
# 6 0.007081 0.008032 0.019002 -0.052409 -0.034955 0.068800
#
#
# Mechanical properties :
#
#
# Convention : Reuss Voigt Hill
#
# Bulk Modulus (GPa) = 31.83165 78.00994 54.92080
# Shear Modulus (GPa) = 20.37389 40.10146 30.23768
#
# Velocity S-wave (km/s) = 2.85036 3.99892 3.47245
# Velocity P-wave (km/s) = 4.85039 7.24085 6.16264
#
# Compressibility (1/GPa) = 0.03141527
#
# Stress axis : x y z
#
# Youngs Moduli (GPa) = 99.72180 82.98827 71.05505
#
# Poissons Ratio (x) = 0.20227 -0.12290
# Poissons Ratio (y) = 0.24306 0.11797
# Poissons Ratio (z) = -0.17248 0.13779
#
# Static dielectric constant tensor:
#      x y z
#    x 2.116760 -0.042040 0.112580 
#    y -0.042040 2.074790 -0.085360 
#    z 0.112580 -0.085360 1.994910 
# 
# From -- ./inp_files/461144.got.cif
#   From: 2010.05.17/outbox.cif.g08.bks.cpg/sg2_231_cif.got.tgz:461144.got - 2010.06.03 11:33:40.
