data_PCOD9108012
_publ_section_title
;
Structure prediction by ZEFSAII (Michael W. Deem and Ramdas Pophale) SiO2 
 PCOD9108012
Probable space group: P -1
;
_chemical_formula_sum "Si O2"
_cell_formula_units_Z 14
_cell_length_a 8.148186
_cell_length_b 12.991418
_cell_length_c 9.116489
_cell_angle_alpha 54.367392
_cell_angle_beta 119.703312
_cell_angle_gamma 131.158800
_cell_volume 580.541258
_symmetry_space_group_name_H-M "P -1"
_symmetry_group_IT_number 2
_symmetry_cell_setting 'triclinic'
loop_
_space_group_symop_operation_xyz
x,y,z
-x,-y,-z
loop_
_atom_site_type_symbol
_atom_site_label
_atom_site_fract_x
_atom_site_fract_y
_atom_site_fract_z
Si Si1 0.466785 0.246841 0.175711
Si Si2 0.183080 0.359413 0.418112
Si Si3 0.795723 0.861643 0.599985
Si Si4 0.756905 0.195403 0.927069
Si Si5 0.450257 0.311357 0.782439
Si Si6 0.452254 0.987640 0.740242
Si Si7 0.905740 0.479433 0.307884
O O1 0.228056 0.164894 0.215818
O O2 0.529178 0.122679 0.270750
O O3 0.641786 0.383919 0.243554
O O4 0.459591 0.308426 0.962584
O O5 0.211584 0.275727 0.365838
O O6 0.222358 0.283500 0.639398
O O7 0.371255 0.529068 0.334584
O O8 0.974259 0.374831 0.339099
O O9 0.600590 0.895215 0.451102
O O10 0.000000 0.000000 0.500000
O O11 0.541331 0.212635 0.838675
O O12 0.966053 0.357437 0.847042
O O13 0.682487 0.082383 0.852986
O O14 0.741094 0.116075 0.140211
O O15 0.000000 0.500000 0.500000
#
# Coordination Sequence:
#
# PCOD9108012 Si02
#       7
#     2   2   2   2   2   2   2
#     4  11  25  42  68  96 131 171 226 270 314 392
#     4  10  22  42  67  93 135 169 208 266 334 381
#     4  12  25  41  63  94 131 173 214 270 332 384
#     4   9  19  38  69  92 128 171 217 262 317 388
#     4   9  20  41  69  95 128 172 214 266 324 381
#     4  10  20  40  66  94 129 174 214 260 318 390
#     4  11  24  42  67 100 128 170 220 272 324 384
#
# _framework density 24.115425999999999
#
# number of rings (size 3 to 8) (size 9 to 14) (size 15 to 20)
#    0.000    1.714    1.429    2.143    4.000    8.000 
#    2.571    0.714    0.000    0.000    0.000    0.000 
#    0.000    0.000    0.000    0.000    0.000    0.000 
#
# Total GULP energy -78180.186749 kJ/mol
# GULP energy per Si atom -5584.299053 kJ/mol
# Density = 2.406054 g / cm^3
# Si number density = 24.115426 Si / 1000 Ang^3
#
#
#
# Elastic Constant Matrix: (Units=GPa)
#
#
# Indices 1 2 3 4 5 6 
#
# 1 57.4720 24.3507 14.7591 -0.1474 -17.1255 -2.4064
# 2 24.3507 96.4931 12.3866 0.5547 -1.9745 -12.1338
# 3 14.7591 12.3866 87.8565 -1.5301 -16.3192 -3.4113
# 4 -0.1474 0.5547 -1.5301 33.0771 -12.4889 -4.1202
# 5 -17.1255 -1.9745 -16.3192 -12.4889 26.7824 -7.5919
# 6 -2.4064 -12.1338 -3.4113 -4.1202 -7.5919 28.9660
#
#
#
# Elastic Compliance Matrix: (Units=1/GPa)
#
#
# Indices 1 2 3 4 5 6 
#
# 1 0.027331 -0.005580 0.001417 0.010888 0.025357 0.008295
# 2 -0.005580 0.012342 -0.001175 -0.000843 -0.002707 0.003739
# 3 0.001417 -0.001175 0.014371 0.006947 0.014550 0.006120
# 4 0.010888 -0.000843 0.006947 0.047366 0.038369 0.018164
# 5 0.025357 -0.002707 0.014550 0.038369 0.089034 0.031479
# 6 0.008295 0.003739 0.006120 0.018164 0.031479 0.048333
#
#
# Mechanical properties :
#
#
# Convention : Reuss Voigt Hill
#
# Bulk Modulus (GPa) = 23.05814 38.31272 30.68543
# Shear Modulus (GPa) = 18.94590 30.45343 24.69966
#
# Velocity S-wave (km/s) = 2.80596 3.55747 3.20383
# Velocity P-wave (km/s) = 4.48109 5.72677 5.14179
#
# Compressibility (1/GPa) = 0.04336863
#
# Stress axis : x y z
#
# Youngs Moduli (GPa) = 36.58826 81.02451 69.58403
#
# Poissons Ratio (x) = 0.45210 -0.09860
# Poissons Ratio (y) = 0.20415 0.08177
# Poissons Ratio (z) = -0.05185 0.09521
#
# Static dielectric constant tensor:
#      x y z
#    x 1.950870 0.115080 0.036400 
#    y 0.115080 1.684770 0.183280 
#    z 0.036400 0.183280 1.881870 
# 
# From -- ./inp_files/185298.got.cif
#   From: 2010.05.17/outbox.cif.g08.bks.cpg/sg2_93_cif.got.tgz:185298.got - 2010.06.03 11:33:40.
