data_PCOD9108922
_publ_section_title
;
Structure prediction by ZEFSAII (Michael W. Deem and Ramdas Pophale) SiO2 
 PCOD9108922
Probable space group: P -1
;
_chemical_formula_sum "Si O2"
_cell_formula_units_Z 16
_cell_length_a 17.232677
_cell_length_b 17.186673
_cell_length_c 9.656029
_cell_angle_alpha 129.747552
_cell_angle_beta 133.589708
_cell_angle_gamma 22.537186
_cell_volume 793.889247
_symmetry_space_group_name_H-M "P -1"
_symmetry_group_IT_number 2
_symmetry_cell_setting 'triclinic'
loop_
_space_group_symop_operation_xyz
x,y,z
-x,-y,-z
loop_
_atom_site_type_symbol
_atom_site_label
_atom_site_fract_x
_atom_site_fract_y
_atom_site_fract_z
Si Si1 0.256789 0.550426 0.569547
Si Si2 0.138498 0.784876 0.953028
Si Si3 0.066615 0.740711 0.085535
Si Si4 0.467705 0.805722 0.649530
Si Si5 0.508253 0.513319 0.729541
Si Si6 0.882419 0.504948 0.007923
Si Si7 0.802296 0.085076 0.337216
Si Si8 0.153134 0.242813 0.784785
O O1 0.192200 0.674007 0.759319
O O2 0.447918 0.309774 0.523582
O O3 0.343887 0.555637 0.564527
O O4 0.042056 0.667707 0.401543
O O5 0.013495 0.822781 0.959881
O O6 0.370430 0.609071 0.114763
O O7 0.000000 0.000000 0.000000
O O8 0.278958 0.634312 0.264252
O O9 0.110461 0.586247 0.970244
O O10 0.890075 0.913040 0.176217
O O11 0.677282 0.643919 0.819627
O O12 0.304805 0.861158 0.589069
O O13 0.359879 0.004254 0.742932
O O14 0.363284 0.728767 0.762687
O O15 0.092855 0.322482 0.960037
O O16 0.851952 0.645882 0.173199
O O17 0.000000 0.000000 0.500000
#
# Coordination Sequence:
#
# PCOD9108922 Si02
#       8
#     2   2   2   2   2   2   2   2
#     4  11  23  38  58  91 118 159 206 243 306 353
#     4  10  23  43  63  84 122 170 206 249 296 361
#     4  10  22  38  60  87 119 162 201 245 303 359
#     4  11  21  35  60  88 123 158 194 252 308 367
#     4  10  23  38  59  89 122 161 196 250 297 368
#     4  10  20  41  59  90 121 158 205 246 315 364
#     4  12  22  35  60  93 128 154 196 247 316 366
#     4  10  22  37  63  87 123 158 199 260 301 366
#
# _framework density 20.153946000000001
#
# number of rings (size 3 to 8) (size 9 to 14) (size 15 to 20)
#    0.750    0.750    2.500    3.000    3.500    1.000 
#    0.000    0.625    0.000    0.750    0.000    0.000 
#    0.000    0.000    0.000    0.000    0.000    0.000 
#
# Total GULP energy -89073.819602 kJ/mol
# GULP energy per Si atom -5567.113725 kJ/mol
# Density = 2.010807 g / cm^3
# Si number density = 20.153946 Si / 1000 Ang^3
#
#
#
# Elastic Constant Matrix: (Units=GPa)
#
#
# Indices 1 2 3 4 5 6 
#
# 1 84.8434 37.8383 30.8452 17.4000 2.1647 21.2223
# 2 37.8383 118.6219 38.1266 31.6127 -9.2209 19.8324
# 3 30.8452 38.1266 63.9718 19.9624 -1.3365 17.4796
# 4 17.4000 31.6127 19.9624 37.1464 -3.9609 6.5497
# 5 2.1647 -9.2209 -1.3365 -3.9609 30.1962 13.1227
# 6 21.2223 19.8324 17.4796 6.5497 13.1227 36.1545
#
#
#
# Elastic Compliance Matrix: (Units=1/GPa)
#
#
# Indices 1 2 3 4 5 6 
#
# 1 0.016258 -0.002180 -0.004127 -0.002454 0.000275 -0.006008
# 2 -0.002180 0.013321 -0.003131 -0.007144 0.005399 -0.005180
# 3 -0.004127 -0.003131 0.023475 -0.006521 0.002545 -0.006952
# 4 -0.002454 -0.007144 -0.006521 0.037750 0.002292 0.000841
# 5 0.000275 0.005399 0.002545 0.002292 0.044204 -0.020813
# 6 -0.006008 -0.005180 -0.006952 0.000841 -0.020813 0.044790
#
#
# Mechanical properties :
#
#
# Convention : Reuss Voigt Hill
#
# Bulk Modulus (GPa) = 29.25742 53.45082 41.35412
# Shear Modulus (GPa) = 23.80194 31.40790 27.60492
#
# Velocity S-wave (km/s) = 3.44031 3.95194 3.70496
# Velocity P-wave (km/s) = 5.50722 6.88496 6.23426
#
# Compressibility (1/GPa) = 0.03417936
#
# Stress axis : x y z
#
# Youngs Moduli (GPa) = 61.50878 75.06685 42.59802
#
# Poissons Ratio (x) = 0.16363 0.17580
# Poissons Ratio (y) = 0.13407 0.13337
# Poissons Ratio (z) = 0.25384 0.23503
#
# Static dielectric constant tensor:
#      x y z
#    x 1.738270 -0.007130 -0.002370 
#    y -0.007130 1.788900 0.025350 
#    z -0.002370 0.025350 1.755050 
# 
# From -- ./inp_files/466451.got.cif
#   From: 2010.05.17/outbox.cif.g08.bks.cpg/sg2_234_cif.got.tgz:466451.got - 2010.06.03 11:33:40.
