data_PCOD9108950
_publ_section_title
;
Structure prediction by ZEFSAII (Michael W. Deem and Ramdas Pophale) SiO2 
 PCOD9108950
Probable space group: P -1
;
_chemical_formula_sum "Si O2"
_cell_formula_units_Z 16
_cell_length_a 5.196045
_cell_length_b 7.778485
_cell_length_c 18.727778
_cell_angle_alpha 64.289715
_cell_angle_beta 102.093003
_cell_angle_gamma 118.457961
_cell_volume 599.580167
_symmetry_space_group_name_H-M "P -1"
_symmetry_group_IT_number 2
_symmetry_cell_setting 'triclinic'
loop_
_space_group_symop_operation_xyz
x,y,z
-x,-y,-z
loop_
_atom_site_type_symbol
_atom_site_label
_atom_site_fract_x
_atom_site_fract_y
_atom_site_fract_z
Si Si1 0.645366 0.812931 0.640816
Si Si2 0.545430 0.109110 0.686045
Si Si3 0.875021 0.774394 0.452472
Si Si4 0.304764 0.066371 0.923120
Si Si5 0.715884 0.268003 0.166496
Si Si6 0.000849 0.508411 0.610460
Si Si7 0.366220 0.489759 0.193570
Si Si8 0.302282 0.249775 0.033244
O O1 0.309596 0.689372 0.620238
O O2 0.710596 0.628551 0.712684
O O3 0.676705 0.966111 0.681590
O O4 0.852861 0.992583 0.565921
O O5 0.382635 0.179299 0.602733
O O6 0.811020 0.325364 0.688092
O O7 0.316367 0.943485 0.756106
O O8 0.937655 0.629401 0.423000
O O9 0.824422 0.632174 0.545509
O O10 0.465545 0.255334 0.842453
O O11 0.214656 0.194189 0.956256
O O12 0.002175 0.868056 0.921468
O O13 0.500000 0.000000 0.000000
O O14 0.558280 0.389632 0.180511
O O15 0.522566 0.178003 0.100290
O O16 0.054828 0.425135 0.148961
O O17 0.500000 0.500000 0.000000
#
# Coordination Sequence:
#
# PCOD9108950 Si02
#       8
#     2   2   2   2   2   2   2   2
#     4  10  22  40  61  91 129 169 214 269 330 384
#     4  10  22  40  60  92 130 165 220 267 323 389
#     4  10  20  41  60  92 127 165 215 275 318 395
#     4  11  26  43  68 103 133 172 227 275 324 402
#     4  11  24  44  72  95 136 183 216 275 335 389
#     4  10  22  37  64  91 126 168 217 268 329 388
#     4  11  24  45  69  97 139 173 223 276 328 396
#     4  11  24  45  69  97 135 176 220 271 336 392
#
# _framework density 26.685338000000002
#
# number of rings (size 3 to 8) (size 9 to 14) (size 15 to 20)
#    0.000    1.500    2.500    1.500    5.250    2.500 
#    2.250    0.000    0.000    0.000    0.000    0.000 
#    0.000    0.000    0.000    0.000    0.000    0.000 
#
# Total GULP energy -89432.291551 kJ/mol
# GULP energy per Si atom -5589.518222 kJ/mol
# Density = 2.662460 g / cm^3
# Si number density = 26.685338 Si / 1000 Ang^3
#
#
#
# Elastic Constant Matrix: (Units=GPa)
#
#
# Indices 1 2 3 4 5 6 
#
# 1 95.3440 36.7329 11.4382 -18.1059 12.5953 19.3993
# 2 36.7329 131.1312 43.5664 -44.2843 -14.8956 21.1573
# 3 11.4382 43.5664 140.6362 -53.3514 10.7115 23.8540
# 4 -18.1059 -44.2843 -53.3514 50.9225 10.2609 -11.8216
# 5 12.5953 -14.8956 10.7115 10.2609 36.6104 -2.9468
# 6 19.3993 21.1573 23.8540 -11.8216 -2.9468 62.3369
#
#
#
# Elastic Compliance Matrix: (Units=1/GPa)
#
#
# Indices 1 2 3 4 5 6 
#
# 1 0.015080 -0.003470 0.004455 0.008165 -0.010528 -0.004169
# 2 -0.003470 0.011958 -0.000822 0.007204 0.004192 -0.001100
# 3 0.004455 -0.000822 0.015800 0.018903 -0.012121 -0.004141
# 4 0.008165 0.007204 0.018903 0.051913 -0.020227 -0.003331
# 5 -0.010528 0.004192 -0.012121 -0.020227 0.042232 0.004652
# 6 -0.004169 -0.001100 -0.004141 -0.003331 0.004652 0.018886
#
#
# Mechanical properties :
#
#
# Convention : Reuss Voigt Hill
#
# Bulk Modulus (GPa) = 23.16801 61.17627 42.17214
# Shear Modulus (GPa) = 29.42385 48.33224 38.87804
#
# Velocity S-wave (km/s) = 3.32418 4.26043 3.82109
# Velocity P-wave (km/s) = 4.84090 6.86851 5.94183
#
# Compressibility (1/GPa) = 0.04316296
#
# Stress axis : x y z
#
# Youngs Moduli (GPa) = 66.31122 83.62951 63.29266
#
# Poissons Ratio (x) = 0.29022 -0.28196
# Poissons Ratio (y) = 0.23012 0.05202
# Poissons Ratio (z) = -0.29541 0.06874
#
# Static dielectric constant tensor:
#      x y z
#    x 2.304860 -0.151570 -0.080320 
#    y -0.151570 2.125060 0.049730 
#    z -0.080320 0.049730 2.173050 
# 
# From -- ./inp_files/10738.got.cif
#   From: 2010.05.17/outbox.cif.g08.bks.cpg/sg2_6_cif.got.tgz:10738.got - 2010.06.03 11:33:40.
