data_PCOD9108333
_publ_section_title
;
Structure prediction by ZEFSAII (Michael W. Deem and Ramdas Pophale) SiO2 
 PCOD9108333
Probable space group: P -1
;
_chemical_formula_sum "Si O2"
_cell_formula_units_Z 13
_cell_length_a 12.390245
_cell_length_b 8.438516
_cell_length_c 8.586583
_cell_angle_alpha 67.249934
_cell_angle_beta 90.590138
_cell_angle_gamma 41.393436
_cell_volume 476.404747
_symmetry_space_group_name_H-M "P -1"
_symmetry_group_IT_number 2
_symmetry_cell_setting 'triclinic'
loop_
_space_group_symop_operation_xyz
x,y,z
-x,-y,-z
loop_
_atom_site_type_symbol
_atom_site_label
_atom_site_fract_x
_atom_site_fract_y
_atom_site_fract_z
Si Si1 0.636133 0.327431 0.919405
Si Si2 0.075757 0.813581 0.853419
Si Si3 0.669635 0.501445 0.585585
Si Si4 0.783662 0.711633 0.611853
Si Si5 0.000000 0.500000 0.000000
Si Si6 0.195569 0.194018 0.737839
Si Si7 0.649072 0.675022 0.201995
O O1 0.572449 0.482444 0.694974
O O2 0.500000 0.500000 0.000000
O O3 0.815782 0.214687 0.004088
O O4 0.704348 0.042266 0.033848
O O5 0.237665 0.596710 0.805806
O O6 0.034791 0.666721 0.944408
O O7 0.879217 0.159647 0.680159
O O8 0.675079 0.672749 0.620740
O O9 0.578701 0.675539 0.355761
O O10 0.840217 0.725102 0.769070
O O11 0.714685 0.923965 0.387341
O O12 0.987396 0.395800 0.662828
O O13 0.195125 0.390513 0.715247
O O14 0.500000 0.000000 0.000000
#
# Coordination Sequence:
#
# PCOD9108333 Si02
#       7
#     2   2   2   2   1   2   2
#     4  12  25  45  69 106 146 192 239 302 370 435
#     4  12  24  42  75 109 144 188 251 298 356 434
#     4  11  24  46  77 102 143 197 248 293 359 442
#     4  10  20  40  68 101 135 180 236 298 348 426
#     4  12  22  38  68 114 136 178 246 306 348 412
#     4  10  21  41  66  94 144 182 230 287 364 426
#     4  11  25  46  69 108 152 187 236 307 369 429
#
# _framework density 27.287721000000001
#
# number of rings (size 3 to 8) (size 9 to 14) (size 15 to 20)
#    0.000    0.923    4.615    2.769    0.000    1.231 
#    2.769    5.385    0.000    0.000    0.000    0.000 
#    0.000    0.000    0.000    0.000    0.000    0.000 
#
# Total GULP energy -72437.673914 kJ/mol
# GULP energy per Si atom -5572.128763 kJ/mol
# Density = 2.722561 g / cm^3
# Si number density = 27.287721 Si / 1000 Ang^3
#
#
#
# Elastic Constant Matrix: (Units=GPa)
#
#
# Indices 1 2 3 4 5 6 
#
# 1 162.8311 28.1455 40.2618 7.3612 -24.0515 31.0808
# 2 28.1455 87.6720 45.2416 -4.6413 0.0838 -18.0272
# 3 40.2618 45.2416 190.9129 14.9729 -44.5342 -1.8743
# 4 7.3612 -4.6413 14.9729 29.9986 3.2391 6.6060
# 5 -24.0515 0.0838 -44.5342 3.2391 48.0544 11.4084
# 6 31.0808 -18.0272 -1.8743 6.6060 11.4084 49.3498
#
#
#
# Elastic Compliance Matrix: (Units=1/GPa)
#
#
# Indices 1 2 3 4 5 6 
#
# 1 0.010490 -0.006676 0.001769 -0.003158 0.009676 -0.010792
# 2 -0.006676 0.020287 -0.006937 0.006706 -0.013479 0.013570
# 3 0.001769 -0.006937 0.009639 -0.006440 0.011468 -0.005071
# 4 -0.003158 0.006706 -0.006440 0.039194 -0.010530 0.001382
# 5 0.009676 -0.013479 0.011468 -0.010530 0.041468 -0.018759
# 6 -0.010792 0.013570 -0.005071 0.001382 -0.018759 0.035976
#
#
# Mechanical properties :
#
#
# Convention : Reuss Voigt Hill
#
# Bulk Modulus (GPa) = 59.77742 74.30152 67.03947
# Shear Modulus (GPa) = 26.83581 47.33169 37.08375
#
# Velocity S-wave (km/s) = 3.13939 4.16930 3.69045
# Velocity P-wave (km/s) = 5.92409 7.10390 6.54066
#
# Compressibility (1/GPa) = 0.01672872
#
# Stress axis : x y z
#
# Youngs Moduli (GPa) = 95.33004 49.29293 103.74181
#
# Poissons Ratio (x) = 0.32907 -0.18347
# Poissons Ratio (y) = 0.63640 0.71961
# Poissons Ratio (z) = -0.16860 0.34192
#
# Static dielectric constant tensor:
#      x y z
#    x 2.168970 -0.281450 0.191700 
#    y -0.281450 2.641880 -0.345020 
#    z 0.191700 -0.345020 2.568380 
# 
# From -- ./inp_files/237146.got.cif
#   From: 2010.05.17/outbox.cif.g08.bks.cpg/sg2_119_cif.got.tgz:237146.got - 2010.06.03 11:33:40.
