data_PCOD9108456
_publ_section_title
;
Structure prediction by ZEFSAII (Michael W. Deem and Ramdas Pophale) SiO2 
 PCOD9108456
Probable space group: P -1
;
_chemical_formula_sum "Si O2"
_cell_formula_units_Z 15
_cell_length_a 7.751636
_cell_length_b 17.615086
_cell_length_c 5.619316
_cell_angle_alpha 116.545444
_cell_angle_beta 110.631309
_cell_angle_gamma 59.541334
_cell_volume 583.750654
_symmetry_space_group_name_H-M "P -1"
_symmetry_group_IT_number 2
_symmetry_cell_setting 'triclinic'
loop_
_space_group_symop_operation_xyz
x,y,z
-x,-y,-z
loop_
_atom_site_type_symbol
_atom_site_label
_atom_site_fract_x
_atom_site_fract_y
_atom_site_fract_z
Si Si1 0.345535 0.783115 0.204413
Si Si2 0.239801 0.689678 0.394681
Si Si3 0.739151 0.938254 0.022713
Si Si4 0.730506 0.592932 0.053505
Si Si5 0.284288 0.992432 0.392175
Si Si6 0.021404 0.253625 0.264084
Si Si7 0.500000 0.500000 0.500000
Si Si8 0.085017 0.579975 0.860409
O O1 0.312928 0.765187 0.441133
O O2 0.332706 0.883975 0.286027
O O3 0.560004 0.696802 0.136092
O O4 0.159936 0.772554 0.960130
O O5 0.016007 0.741741 0.467080
O O6 0.374647 0.612590 0.536644
O O7 0.235786 0.625826 0.081180
O O8 0.821862 0.956075 0.341266
O O9 0.782523 0.830193 0.857641
O O10 0.500000 0.000000 0.000000
O O11 0.817068 0.965921 0.853402
O O12 0.657296 0.526211 0.771225
O O13 0.789315 0.531871 0.245958
O O14 0.918513 0.593908 0.998719
O O15 0.500000 0.000000 0.500000
O O16 0.008581 0.353836 0.317012
#
# Coordination Sequence:
#
# PCOD9108456 Si02
#       8
#     2   2   2   2   2   2   1   2
#     4  11  25  41  73  97 139 181 238 287 364 427
#     4  10  23  41  65 101 137 188 228 291 343 434
#     4  10  25  45  71  98 137 185 233 304 361 422
#     4  10  21  43  66 103 139 184 228 287 349 435
#     4  10  25  47  71 103 136 185 238 305 364 427
#     4  11  24  43  70  99 138 179 241 288 356 429
#     4  10  20  40  68  96 146 178 230 272 352 414
#     4   9  23  41  66  99 143 180 231 284 351 427
#
# _framework density 25.695903999999999
#
# number of rings (size 3 to 8) (size 9 to 14) (size 15 to 20)
#    0.000    1.867    1.333    0.000   11.200    3.733 
#    4.800    2.000    0.000    0.000    0.000    0.000 
#    0.000    0.000    0.000    0.000    0.000    0.000 
#
# Total GULP energy -83561.108893 kJ/mol
# GULP energy per Si atom -5570.740593 kJ/mol
# Density = 2.563742 g / cm^3
# Si number density = 25.695904 Si / 1000 Ang^3
#
#
#
# Elastic Constant Matrix: (Units=GPa)
#
#
# Indices 1 2 3 4 5 6 
#
# 1 62.2344 34.1299 28.3430 2.6784 1.5940 10.1998
# 2 34.1299 147.2603 51.5058 4.9297 -2.2906 31.6432
# 3 28.3430 51.5058 80.2698 5.2116 -9.2988 20.9245
# 4 2.6784 4.9297 5.2116 20.7618 16.3720 2.8444
# 5 1.5940 -2.2906 -9.2988 16.3720 36.8640 4.2756
# 6 10.1998 31.6432 20.9245 2.8444 4.2756 46.9898
#
#
#
# Elastic Compliance Matrix: (Units=1/GPa)
#
#
# Indices 1 2 3 4 5 6 
#
# 1 0.020291 -0.002806 -0.006047 0.002434 -0.003701 0.000367
# 2 -0.002806 0.009806 -0.004104 -0.000779 0.000525 -0.004168
# 3 -0.006047 -0.004104 0.020616 -0.011204 0.010810 -0.005410
# 4 0.002434 -0.000779 -0.011204 0.081615 -0.039650 0.003653
# 5 -0.003701 0.000525 0.010810 -0.039650 0.048394 -0.006367
# 6 0.000367 -0.004168 -0.005410 0.003653 -0.006367 0.026775
#
#
# Mechanical properties :
#
#
# Convention : Reuss Voigt Hill
#
# Bulk Modulus (GPa) = 40.32123 57.52467 48.92295
# Shear Modulus (GPa) = 20.68882 32.64219 26.66550
#
# Velocity S-wave (km/s) = 2.84058 3.56803 3.22488
# Velocity P-wave (km/s) = 5.14629 6.27772 5.73995
#
# Compressibility (1/GPa) = 0.02480083
#
# Stress axis : x y z
#
# Youngs Moduli (GPa) = 49.28390 101.97785 48.50578
#
# Poissons Ratio (x) = 0.28612 0.29330
# Poissons Ratio (y) = 0.13828 0.19905
# Poissons Ratio (z) = 0.29800 0.41848
#
# Static dielectric constant tensor:
#      x y z
#    x 2.044100 -0.051840 -0.067260 
#    y -0.051840 2.020080 -0.086350 
#    z -0.067260 -0.086350 2.071920 
# 
# From -- ./inp_files/44386.got.cif
#   From: 2010.05.17/outbox.cif.g08.bks.cpg/sg2_23_cif.got.tgz:44386.got - 2010.06.03 11:33:40.
