data_PCOD9108106
_publ_section_title
;
Structure prediction by ZEFSAII (Michael W. Deem and Ramdas Pophale) SiO2 
 PCOD9108106
Probable space group: P -1
;
_chemical_formula_sum "Si O2"
_cell_formula_units_Z 16
_cell_length_a 12.934195
_cell_length_b 10.343772
_cell_length_c 9.442866
_cell_angle_alpha 91.487966
_cell_angle_beta 101.336765
_cell_angle_gamma 33.164096
_cell_volume 654.604734
_symmetry_space_group_name_H-M "P -1"
_symmetry_group_IT_number 2
_symmetry_cell_setting 'triclinic'
loop_
_space_group_symop_operation_xyz
x,y,z
-x,-y,-z
loop_
_atom_site_type_symbol
_atom_site_label
_atom_site_fract_x
_atom_site_fract_y
_atom_site_fract_z
Si Si1 0.084273 0.528676 0.867996
Si Si2 0.513953 0.807615 0.576991
Si Si3 0.155687 0.335043 0.410445
Si Si4 0.175818 0.707848 0.380827
Si Si5 0.282072 0.679134 0.978845
Si Si6 0.881687 0.888601 0.074815
Si Si7 0.037204 0.823260 0.667821
Si Si8 0.541761 0.768681 0.907987
O O1 0.052164 0.669316 0.740748
O O2 0.971643 0.527462 0.764211
O O3 0.317503 0.282341 0.963611
O O4 0.968424 0.699183 0.978991
O O5 0.684857 0.715281 0.545623
O O6 0.599351 0.575209 0.584145
O O7 0.507371 0.852520 0.742066
O O8 0.303144 0.058322 0.458324
O O9 0.000000 0.500000 0.500000
O O10 0.097684 0.758669 0.519113
O O11 0.031731 0.776417 0.237300
O O12 0.153720 0.884764 0.359594
O O13 0.316927 0.508819 0.066030
O O14 0.500000 0.500000 0.000000
O O15 0.193957 0.738873 0.803282
O O16 0.163335 0.926687 0.012689
O O17 0.670335 0.053639 0.079882
#
# Coordination Sequence:
#
# PCOD9108106 Si02
#       8
#     2   2   2   2   2   2   2   2
#     4  11  23  42  68  98 127 174 218 262 333 396
#     4  11  25  44  70  97 124 176 226 270 332 393
#     4  11  28  49  68  90 131 174 220 286 340 384
#     4  10  20  40  66  98 139 172 218 267 325 391
#     4   8  17  34  57  92 137 174 207 248 320 384
#     4  10  21  37  66  96 138 173 209 267 323 389
#     4   9  20  34  65 100 137 178 206 264 327 389
#     4  10  22  38  65 101 130 169 220 267 318 390
#
# _framework density 24.442229999999999
#
# number of rings (size 3 to 8) (size 9 to 14) (size 15 to 20)
#    0.000    2.000    1.250    0.750    5.250    7.000 
#    0.000    1.875    0.000    0.000    0.000    0.000 
#    0.000    0.000    0.000    0.000    0.000    0.000 
#
# Total GULP energy -89473.698858 kJ/mol
# GULP energy per Si atom -5592.106179 kJ/mol
# Density = 2.438660 g / cm^3
# Si number density = 24.442230 Si / 1000 Ang^3
#
#
#
# Elastic Constant Matrix: (Units=GPa)
#
#
# Indices 1 2 3 4 5 6 
#
# 1 50.0882 26.1254 24.4890 -2.3422 -1.2308 -23.7189
# 2 26.1254 114.8764 31.5010 -10.6477 6.0040 -13.7352
# 3 24.4890 31.5010 122.5046 2.6906 -2.5773 -16.4188
# 4 -2.3422 -10.6477 2.6906 40.6930 -3.5153 -2.9542
# 5 -1.2308 6.0040 -2.5773 -3.5153 43.6344 -4.1883
# 6 -23.7189 -13.7352 -16.4188 -2.9542 -4.1883 40.3319
#
#
#
# Elastic Compliance Matrix: (Units=1/GPa)
#
#
# Indices 1 2 3 4 5 6 
#
# 1 0.031656 -0.004361 -0.002995 0.002336 0.003079 0.016403
# 2 -0.004361 0.010562 -0.001890 0.002533 -0.001455 0.000297
# 3 -0.002995 -0.001890 0.009484 -0.001121 0.000785 0.001455
# 4 0.002336 0.002533 -0.001121 0.025911 0.002113 0.003897
# 5 0.003079 -0.001455 0.000785 0.002113 0.023831 0.004264
# 6 0.016403 0.000297 0.001455 0.003897 0.004264 0.035863
#
#
# Mechanical properties :
#
#
# Convention : Reuss Voigt Hill
#
# Bulk Modulus (GPa) = 30.11252 50.18890 40.15071
# Shear Modulus (GPa) = 29.96361 38.62211 34.29286
#
# Velocity S-wave (km/s) = 3.50508 3.97941 3.74975
# Velocity P-wave (km/s) = 5.35979 6.45697 5.93380
#
# Compressibility (1/GPa) = 0.03320877
#
# Stress axis : x y z
#
# Youngs Moduli (GPa) = 31.58926 94.68247 105.44159
#
# Poissons Ratio (x) = 0.41294 0.31577
# Poissons Ratio (y) = 0.13777 0.19934
# Poissons Ratio (z) = 0.09460 0.17900
#
# Static dielectric constant tensor:
#      x y z
#    x 2.040680 0.116920 -0.010710 
#    y 0.116920 1.973080 -0.026980 
#    z -0.010710 -0.026980 1.901500 
# 
# From -- ./inp_files/299787.got.cif
#   From: 2010.05.17/outbox.cif.g08.bks.cpg/sg2_150_cif.got.tgz:299787.got - 2010.06.03 11:33:40.
