data_PCOD9108448
_publ_section_title
;
Structure prediction by ZEFSAII (Michael W. Deem and Ramdas Pophale) SiO2 
 PCOD9108448
Probable space group: P -1
;
_chemical_formula_sum "Si O2"
_cell_formula_units_Z 16
_cell_length_a 25.320104
_cell_length_b 15.593913
_cell_length_c 9.853375
_cell_angle_alpha 46.791160
_cell_angle_beta 133.808729
_cell_angle_gamma 161.034402
_cell_volume 904.982348
_symmetry_space_group_name_H-M "P -1"
_symmetry_group_IT_number 2
_symmetry_cell_setting 'triclinic'
loop_
_space_group_symop_operation_xyz
x,y,z
-x,-y,-z
loop_
_atom_site_type_symbol
_atom_site_label
_atom_site_fract_x
_atom_site_fract_y
_atom_site_fract_z
Si Si1 0.407290 0.798767 0.235498
Si Si2 0.726709 0.111989 0.446128
Si Si3 0.120394 0.082074 0.448751
Si Si4 0.050306 0.240795 0.240657
Si Si5 0.392098 0.698823 0.000441
Si Si6 0.012173 0.678581 0.203293
Si Si7 0.031021 0.180700 0.818333
Si Si8 0.526262 0.406454 0.602166
O O1 0.241820 0.531415 0.311065
O O2 0.369884 0.710637 0.105629
O O3 0.572811 0.965936 0.386977
O O4 0.456778 0.006260 0.103514
O O5 0.841787 0.206707 0.652150
O O6 0.847141 0.371459 0.292916
O O7 0.635395 0.884792 0.435409
O O8 0.049222 0.112536 0.302012
O O9 0.316978 0.372723 0.459916
O O10 0.069112 0.941826 0.645911
O O11 0.040671 0.908567 0.362395
O O12 0.010475 0.289169 0.015009
O O13 0.425501 0.609320 0.170585
O O14 0.227268 0.482571 0.857123
O O15 0.045304 0.832412 0.202230
O O16 0.000000 0.000000 0.000000
O O17 0.500000 0.500000 0.500000
#
# Coordination Sequence:
#
# PCOD9108448 Si02
#       8
#     2   2   2   2   2   2   2   2
#     4  10  16  36  58  82 108 144 191 238 270 337
#     4  10  21  32  58  88 108 144 198 243 278 320
#     4  11  23  33  56  86 117 152 188 223 292 346
#     4  11  20  38  58  80 118 156 184 228 284 353
#     4  10  18  30  59  84 104 143 195 234 279 316
#     4  11  20  36  59  86 112 146 193 244 280 329
#     4  12  18  33  54  87 111 142 191 246 273 320
#     4  11  20  35  54  85 120 146 185 238 286 333
#
# _framework density 17.679901999999998
#
# number of rings (size 3 to 8) (size 9 to 14) (size 15 to 20)
#    0.000    1.250    7.500    2.250    0.000    0.000 
#    0.000    1.250    2.750   10.500    0.000    0.000 
#    0.000    0.000    0.000    0.000    0.000    0.000 
#
# Total GULP energy -89226.675547 kJ/mol
# GULP energy per Si atom -5576.667222 kJ/mol
# Density = 1.763966 g / cm^3
# Si number density = 17.679902 Si / 1000 Ang^3
#
#
#
# Elastic Constant Matrix: (Units=GPa)
#
#
# Indices 1 2 3 4 5 6 
#
# 1 54.8091 26.5774 38.5745 -11.8189 7.7570 -3.1526
# 2 26.5774 98.8111 43.6571 -6.0098 -1.1979 -1.1260
# 3 38.5745 43.6571 114.8320 -6.1164 16.8606 10.3135
# 4 -11.8189 -6.0098 -6.1164 29.7246 -2.7888 8.0923
# 5 7.7570 -1.1979 16.8606 -2.7888 21.2459 -0.5657
# 6 -3.1526 -1.1260 10.3135 8.0923 -0.5657 22.3312
#
#
#
# Elastic Compliance Matrix: (Units=1/GPa)
#
#
# Indices 1 2 3 4 5 6 
#
# 1 0.027481 -0.003701 -0.007347 0.007152 -0.003356 0.004410
# 2 -0.003701 0.013432 -0.004994 0.000090 0.006152 0.002584
# 3 -0.007347 -0.004994 0.015373 0.000723 -0.009941 -0.008903
# 4 0.007152 0.000090 0.000723 0.040631 0.001781 -0.013998
# 5 -0.003356 0.006152 -0.009941 0.001781 0.056902 0.005224
# 6 0.004410 0.002584 -0.008903 -0.013998 0.005224 0.054850
#
#
# Mechanical properties :
#
#
# Convention : Reuss Voigt Hill
#
# Bulk Modulus (GPa) = 41.31902 54.00780 47.66341
# Shear Modulus (GPa) = 20.09491 25.30320 22.69906
#
# Velocity S-wave (km/s) = 3.37500 3.78720 3.58703
# Velocity P-wave (km/s) = 6.21360 7.05250 6.64630
#
# Compressibility (1/GPa) = 0.02420193
#
# Stress axis : x y z
#
# Youngs Moduli (GPa) = 36.38851 74.45046 65.05066
#
# Poissons Ratio (x) = 0.27555 0.47792
# Poissons Ratio (y) = 0.13468 0.32486
# Poissons Ratio (z) = 0.26734 0.37180
#
# Static dielectric constant tensor:
#      x y z
#    x 1.605870 0.001110 0.031920 
#    y 0.001110 1.628660 0.007380 
#    z 0.031920 0.007380 1.615550 
# 
# From -- ./inp_files/354527.got.cif
#   From: 2010.05.17/outbox.cif.g08.bks.cpg/sg2_178_cif.got.tgz:354527.got - 2010.06.03 11:33:40.
