data_PCOD9108477
_publ_section_title
;
Structure prediction by ZEFSAII (Michael W. Deem and Ramdas Pophale) SiO2 
 PCOD9108477
Probable space group: P -1
;
_chemical_formula_sum "Si O2"
_cell_formula_units_Z 15
_cell_length_a 12.515539
_cell_length_b 8.086028
_cell_length_c 15.508396
_cell_angle_alpha 84.311374
_cell_angle_beta 137.130141
_cell_angle_gamma 62.992674
_cell_volume 667.422888
_symmetry_space_group_name_H-M "P -1"
_symmetry_group_IT_number 2
_symmetry_cell_setting 'triclinic'
loop_
_space_group_symop_operation_xyz
x,y,z
-x,-y,-z
loop_
_atom_site_type_symbol
_atom_site_label
_atom_site_fract_x
_atom_site_fract_y
_atom_site_fract_z
Si Si1 0.435850 0.916475 0.761398
Si Si2 0.063990 0.646847 0.878276
Si Si3 0.798634 0.037764 0.841455
Si Si4 0.647346 0.648133 0.310435
Si Si5 0.933423 0.925838 0.337554
Si Si6 0.386702 0.687794 0.005478
Si Si7 0.500000 0.500000 0.500000
Si Si8 0.724497 0.058759 0.516066
O O1 0.426441 0.892973 0.655042
O O2 0.306099 0.198463 0.688890
O O3 0.267413 0.921422 0.712709
O O4 0.718129 0.668290 0.975640
O O5 0.212546 0.700785 0.952228
O O6 0.925841 0.778499 0.880842
O O7 0.869769 0.806731 0.675694
O O8 0.610600 0.141392 0.799747
O O9 0.644286 0.260877 0.665561
O O10 0.000000 0.000000 0.000000
O O11 0.594847 0.591894 0.194833
O O12 0.855549 0.383474 0.502868
O O13 0.068271 0.991695 0.402936
O O14 0.788320 0.026111 0.155587
O O15 0.500000 0.500000 0.000000
O O16 0.564314 0.311662 0.468730
#
# Coordination Sequence:
#
# PCOD9108477 Si02
#       8
#     2   2   2   2   2   2   1   2
#     4  12  25  42  62  97 137 166 205 263 325 378
#     4  10  22  40  65  94 121 170 215 261 305 376
#     4  11  21  41  67  92 124 161 220 260 306 379
#     4  12  27  41  65  98 131 168 205 266 327 372
#     4  11  24  42  67  92 129 174 217 258 305 384
#     4  11  23  42  68  96 122 167 222 262 307 374
#     4  10  20  40  68  98 118 160 222 266 302 364
#     4  10  22  39  70  94 121 171 221 259 307 371
#
# _framework density 22.474506999999999
#
# number of rings (size 3 to 8) (size 9 to 14) (size 15 to 20)
#    0.000    1.067    4.000    2.400    3.733    2.133 
#    0.000    2.667    0.000    0.000    0.000    0.000 
#    0.000    0.000    0.000    0.000    0.000    0.000 
#
# Total GULP energy -83623.699924 kJ/mol
# GULP energy per Si atom -5574.913328 kJ/mol
# Density = 2.242335 g / cm^3
# Si number density = 22.474507 Si / 1000 Ang^3
#
#
#
# Elastic Constant Matrix: (Units=GPa)
#
#
# Indices 1 2 3 4 5 6 
#
# 1 43.4157 24.3849 18.9168 9.5833 -5.8132 -15.1578
# 2 24.3849 75.6303 19.5006 -11.4830 -11.9115 -10.3474
# 3 18.9168 19.5006 42.3684 -31.5718 -15.8765 16.4963
# 4 9.5833 -11.4830 -31.5718 34.4064 2.4631 -2.2993
# 5 -5.8132 -11.9115 -15.8765 2.4631 22.8765 -11.4528
# 6 -15.1578 -10.3474 16.4963 -2.2993 -11.4528 28.0421
#
#
#
# Elastic Compliance Matrix: (Units=1/GPa)
#
#
# Indices 1 2 3 4 5 6 
#
# 1 -0.001886 -0.005082 0.036926 0.030784 0.010216 -0.017921
# 2 -0.005082 0.020068 -0.003285 0.005018 0.012372 0.012055
# 3 0.036926 -0.003285 -0.029350 -0.036540 0.009764 0.037005
# 4 0.030784 0.005018 -0.036540 -0.009059 0.007164 0.042170
# 5 0.010216 0.012372 0.009764 0.007164 0.076960 0.036362
# 6 -0.017921 0.012055 0.037005 0.042170 0.036362 0.026962
#
#
# Mechanical properties :
#
#
# Convention : Reuss Voigt Hill
#
# Bulk Modulus (GPa) = 21.76313 31.89102 26.82708
# Shear Modulus (GPa) = 119.35036 23.63914 71.49475
#
# Velocity S-wave (km/s) = 7.29521 3.24670 5.64629
# Velocity P-wave (km/s) = 8.98135 5.31746 7.38038
#
# Compressibility (1/GPa) = 0.04594927
#
# Stress axis : x y z
#
# Youngs Moduli (GPa) = -530.31459 49.83132 -34.07146
#
# Poissons Ratio (x) = 0.25324 1.25813
# Poissons Ratio (y) = -2.69507 -0.11194
# Poissons Ratio (z) = 19.58243 0.16372
#
# Static dielectric constant tensor:
#      x y z
#    x 1.861630 0.011920 0.017760 
#    y 0.011920 1.839910 -0.037150 
#    z 0.017760 -0.037150 1.857940 
# 
# From -- ./inp_files/353280.got.cif
#   From: 2010.05.17/outbox.cif.g08.bks.cpg/sg2_177_cif.got.tgz:353280.got - 2010.06.03 11:33:40.
