data_PCOD9108291
_publ_section_title
;
Structure prediction by ZEFSAII (Michael W. Deem and Ramdas Pophale) SiO2 
 PCOD9108291
Probable space group: P -1
;
_chemical_formula_sum "Si O2"
_cell_formula_units_Z 15
_cell_length_a 7.171283
_cell_length_b 11.491228
_cell_length_c 9.652087
_cell_angle_alpha 94.400866
_cell_angle_beta 51.665391
_cell_angle_gamma 71.783899
_cell_volume 552.170089
_symmetry_space_group_name_H-M "P -1"
_symmetry_group_IT_number 2
_symmetry_cell_setting 'triclinic'
loop_
_space_group_symop_operation_xyz
x,y,z
-x,-y,-z
loop_
_atom_site_type_symbol
_atom_site_label
_atom_site_fract_x
_atom_site_fract_y
_atom_site_fract_z
Si Si1 0.279349 0.986284 0.511974
Si Si2 0.079241 0.715214 0.810544
Si Si3 0.000000 0.500000 0.000000
Si Si4 0.267959 0.307174 0.282624
Si Si5 0.525788 0.321336 0.589954
Si Si6 0.729789 0.210987 0.894102
Si Si7 0.828587 0.399757 0.693132
Si Si8 0.438835 0.078198 0.893131
O O1 0.332269 0.836704 0.476032
O O2 0.349841 0.011449 0.326330
O O3 0.500000 0.000000 0.500000
O O4 0.998105 0.085678 0.715221
O O5 0.376371 0.664125 0.607771
O O6 0.912647 0.724637 0.745853
O O7 0.068397 0.609465 0.907723
O O8 0.878346 0.856772 0.984090
O O9 0.785846 0.611082 0.222629
O O10 0.225191 0.451081 0.266627
O O11 0.133406 0.316851 0.492964
O O12 0.585609 0.219111 0.107225
O O13 0.647316 0.381456 0.655493
O O14 0.761779 0.339106 0.853178
O O15 0.512661 0.198960 0.890720
O O16 0.500000 0.000000 0.000000
#
# Coordination Sequence:
#
# PCOD9108291 Si02
#       8
#     2   2   1   2   2   2   2   2
#     4  12  27  45  67 105 145 178 235 294 350 415
#     4  10  22  41  69  97 133 173 232 286 344 418
#     4  12  22  42  68  92 140 182 226 274 356 430
#     4   9  21  38  64 104 125 167 228 294 327 401
#     4  11  23  43  66  96 132 190 225 280 351 418
#     4  11  22  39  71  95 133 186 222 284 348 413
#     4  10  20  40  67  97 133 164 242 280 333 408
#     4  11  23  45  77 100 134 187 239 286 344 418
#
# _framework density 27.165541000000001
#
# number of rings (size 3 to 8) (size 9 to 14) (size 15 to 20)
#    0.000    1.333    2.667    2.800    5.600    2.133 
#    0.000    4.000    0.000    0.000    0.000    0.000 
#    0.000    0.000    0.000    0.000    0.000    0.000 
#
# Total GULP energy -83717.287325 kJ/mol
# GULP energy per Si atom -5581.152488 kJ/mol
# Density = 2.710371 g / cm^3
# Si number density = 27.165541 Si / 1000 Ang^3
#
#
#
# Elastic Constant Matrix: (Units=GPa)
#
#
# Indices 1 2 3 4 5 6 
#
# 1 75.4781 -9.8259 14.0247 -2.3616 -11.6831 12.8654
# 2 -9.8259 93.4412 30.7795 -8.6714 2.2381 -6.1048
# 3 14.0247 30.7795 271.9310 -23.3101 -16.7461 -24.3478
# 4 -2.3616 -8.6714 -23.3101 62.9074 -2.9469 4.1102
# 5 -11.6831 2.2381 -16.7461 -2.9469 31.8603 -1.0534
# 6 12.8654 -6.1048 -24.3478 4.1102 -1.0534 20.1611
#
#
#
# Elastic Compliance Matrix: (Units=1/GPa)
#
#
# Indices 1 2 3 4 5 6 
#
# 1 0.016633 0.001516 -0.001725 0.001218 0.004794 -0.012236
# 2 0.001516 0.011444 -0.001266 0.001082 -0.000790 0.000707
# 3 -0.001725 -0.001266 0.004714 0.001203 0.002253 0.006283
# 4 0.001218 0.001082 0.001203 0.016803 0.002481 -0.002293
# 5 0.004794 -0.000790 0.002253 0.002481 0.034638 0.000726
# 6 -0.012236 0.000707 0.006283 -0.002293 0.000726 0.065717
#
#
# Mechanical properties :
#
#
# Convention : Reuss Voigt Hill
#
# Bulk Modulus (GPa) = 33.51207 56.75631 45.13419
# Shear Modulus (GPa) = 30.70391 50.04389 40.37390
#
# Velocity S-wave (km/s) = 3.36557 4.29672 3.85933
# Velocity P-wave (km/s) = 5.24078 6.74936 6.04234
#
# Compressibility (1/GPa) = 0.02983999
#
# Stress axis : x y z
#
# Youngs Moduli (GPa) = 60.12251 87.38266 212.12929
#
# Poissons Ratio (x) = -0.13249 0.36601
# Poissons Ratio (y) = -0.09115 0.26858
# Poissons Ratio (z) = 0.10374 0.11064
#
# Static dielectric constant tensor:
#      x y z
#    x 2.273690 0.038230 0.035810 
#    y 0.038230 2.084990 0.026260 
#    z 0.035810 0.026260 2.267990 
# 
# From -- ./inp_files/390142.got.cif
#   From: 2010.05.17/outbox.cif.g08.bks.cpg/sg2_196_cif.got.tgz:390142.got - 2010.06.03 11:33:40.
