data_PCOD9108371
_publ_section_title
;
Structure prediction by ZEFSAII (Michael W. Deem and Ramdas Pophale) SiO2 
 PCOD9108371
Probable space group: P -1
;
_chemical_formula_sum "Si O2"
_cell_formula_units_Z 14
_cell_length_a 8.850127
_cell_length_b 17.875188
_cell_length_c 9.562890
_cell_angle_alpha 57.646708
_cell_angle_beta 107.093571
_cell_angle_gamma 57.440466
_cell_volume 620.614642
_symmetry_space_group_name_H-M "P -1"
_symmetry_group_IT_number 2
_symmetry_cell_setting 'triclinic'
loop_
_space_group_symop_operation_xyz
x,y,z
-x,-y,-z
loop_
_atom_site_type_symbol
_atom_site_label
_atom_site_fract_x
_atom_site_fract_y
_atom_site_fract_z
Si Si1 0.881048 0.917218 0.138258
Si Si2 0.362642 0.310882 0.311717
Si Si3 0.684255 0.501582 0.052918
Si Si4 0.693276 0.042312 0.437982
Si Si5 0.306404 0.109144 0.622856
Si Si6 0.583246 0.271534 0.002581
Si Si7 0.364974 0.773547 0.243895
O O1 0.599821 0.013735 0.871338
O O2 0.845556 0.039312 0.042354
O O3 0.856291 0.873487 0.317832
O O4 0.177399 0.781858 0.251314
O O5 0.522225 0.156034 0.420127
O O6 0.426694 0.287267 0.516045
O O7 0.485666 0.344098 0.244485
O O8 0.000000 0.500000 0.000000
O O9 0.039522 0.307292 0.309247
O O10 0.500000 0.500000 0.000000
O O11 0.655023 0.557342 0.141998
O O12 0.608406 0.161515 0.185809
O O13 0.607099 0.993941 0.382452
O O14 0.063691 0.861970 0.749912
O O15 0.481515 0.324519 0.761790
#
# Coordination Sequence:
#
# PCOD9108371 Si02
#       7
#     2   2   2   2   2   2   2
#     4  10  22  37  66  94 126 164 208 267 312 361
#     4  11  25  44  65  93 126 166 208 263 316 372
#     4  11  22  41  64  93 130 165 206 261 310 370
#     4  10  20  40  68  90 125 170 216 245 309 390
#     4  11  21  41  63  97 128 162 214 262 308 372
#     4  10  21  38  68  95 120 175 211 248 312 383
#     4  11  21  43  63  93 126 166 211 258 312 384
#
# _framework density 22.558282999999999
#
# number of rings (size 3 to 8) (size 9 to 14) (size 15 to 20)
#    0.000    1.429    2.857    3.429    2.000    0.000 
#    7.714    5.714    0.000    0.000    0.000    0.000 
#    0.000    0.000    0.000    0.000    0.000    0.000 
#
# Total GULP energy -78225.240054 kJ/mol
# GULP energy per Si atom -5587.517147 kJ/mol
# Density = 2.250694 g / cm^3
# Si number density = 22.558283 Si / 1000 Ang^3
#
#
#
# Elastic Constant Matrix: (Units=GPa)
#
#
# Indices 1 2 3 4 5 6 
#
# 1 81.4992 29.9258 15.5993 4.5715 -1.2322 5.6627
# 2 29.9258 154.3735 37.0147 18.0879 -10.1290 8.1602
# 3 15.5993 37.0147 66.9237 9.6827 -0.2203 4.0063
# 4 4.5715 18.0879 9.6827 40.9171 -6.4892 -8.3633
# 5 -1.2322 -10.1290 -0.2203 -6.4892 35.2498 1.1600
# 6 5.6627 8.1602 4.0063 -8.3633 1.1600 34.9145
#
#
#
# Elastic Compliance Matrix: (Units=1/GPa)
#
#
# Indices 1 2 3 4 5 6 
#
# 1 0.013513 -0.002040 -0.001848 -0.000530 -0.000169 -0.001624
# 2 -0.002040 0.008269 -0.003592 -0.002670 0.001853 -0.001891
# 3 -0.001848 -0.003592 0.017883 -0.002996 -0.001485 -0.001581
# 4 -0.000530 -0.002670 -0.002996 0.028645 0.004213 0.007775
# 5 -0.000169 0.001853 -0.001485 0.004213 0.029669 -0.000212
# 6 -0.001624 -0.001891 -0.001581 0.007775 -0.000212 0.031398
#
#
# Mechanical properties :
#
#
# Convention : Reuss Voigt Hill
#
# Bulk Modulus (GPa) = 40.47876 51.98622 46.23249
# Shear Modulus (GPa) = 32.77132 36.90005 34.83569
#
# Velocity S-wave (km/s) = 3.81562 4.04885 3.93396
# Velocity P-wave (km/s) = 6.11514 6.70469 6.41669
#
# Compressibility (1/GPa) = 0.02470432
#
# Stress axis : x y z
#
# Youngs Moduli (GPa) = 74.00427 120.93499 55.91783
#
# Poissons Ratio (x) = 0.24665 0.10336
# Poissons Ratio (y) = 0.15093 0.20088
# Poissons Ratio (z) = 0.13679 0.43445
#
# Static dielectric constant tensor:
#      x y z
#    x 1.974110 -0.054400 -0.012110 
#    y -0.054400 1.835130 0.005740 
#    z -0.012110 0.005740 1.828740 
# 
# From -- ./inp_files/216386.got.cif
#   From: 2010.05.17/outbox.cif.g08.bks.cpg/sg2_109_cif.got.tgz:216386.got - 2010.06.03 11:33:40.
