data_PCOD9108576
_publ_section_title
;
Structure prediction by ZEFSAII (Michael W. Deem and Ramdas Pophale) SiO2 
 PCOD9108576
Probable space group: P -1
;
_chemical_formula_sum "Si O2"
_cell_formula_units_Z 14
_cell_length_a 16.565539
_cell_length_b 8.973264
_cell_length_c 9.574435
_cell_angle_alpha 32.315068
_cell_angle_beta 74.321315
_cell_angle_gamma 67.092942
_cell_volume 695.813606
_symmetry_space_group_name_H-M "P -1"
_symmetry_group_IT_number 2
_symmetry_cell_setting 'triclinic'
loop_
_space_group_symop_operation_xyz
x,y,z
-x,-y,-z
loop_
_atom_site_type_symbol
_atom_site_label
_atom_site_fract_x
_atom_site_fract_y
_atom_site_fract_z
Si Si1 0.258320 0.518005 0.417052
Si Si2 0.404183 0.731081 0.314003
Si Si3 0.191473 0.719115 0.999636
Si Si4 0.398381 0.074488 0.559123
Si Si5 0.655166 0.719420 0.889054
Si Si6 0.101481 0.403096 0.488535
Si Si7 0.516841 0.410200 0.887291
O O1 0.249260 0.701164 0.130151
O O2 0.309651 0.196568 0.590402
O O3 0.373635 0.119630 0.373893
O O4 0.159490 0.510957 0.494073
O O5 0.500000 0.500000 0.500000
O O6 0.361983 0.014874 0.204182
O O7 0.322789 0.599428 0.431052
O O8 0.432429 0.809913 0.085114
O O9 0.253423 0.529697 0.998155
O O10 0.122945 0.557211 0.216640
O O11 0.140336 0.054363 0.726098
O O12 0.453592 0.302255 0.379948
O O13 0.447543 0.763632 0.848960
O O14 0.585566 0.558723 0.099339
O O15 0.000000 0.500000 0.500000
#
# Coordination Sequence:
#
# PCOD9108576 Si02
#       7
#     2   2   2   2   2   2   2
#     4   8  21  36  62  84 124 158 205 247 304 363
#     4  11  24  42  57  91 133 181 214 245 296 368
#     4   9  22  37  64  93 119 152 203 261 314 362
#     4  10  22  37  60  82 118 162 217 263 295 344
#     4  11  22  37  60  89 127 165 211 265 304 354
#     4  10  20  40  69  94 114 147 205 264 317 378
#     4  11  23  40  56  83 121 174 220 249 291 353
#
# _framework density 20.120332000000001
#
# number of rings (size 3 to 8) (size 9 to 14) (size 15 to 20)
#    0.857    1.143    0.000    3.429    6.000    4.571 
#    2.571    0.000    0.000    1.714    0.000    0.000 
#    0.000    0.000    0.000    0.000    0.000    0.000 
#
# Total GULP energy -77980.444405 kJ/mol
# GULP energy per Si atom -5570.031743 kJ/mol
# Density = 2.007454 g / cm^3
# Si number density = 20.120332 Si / 1000 Ang^3
#
#
#
# Elastic Constant Matrix: (Units=GPa)
#
#
# Indices 1 2 3 4 5 6 
#
# 1 119.8834 74.0936 35.3525 -3.5854 -26.9618 -25.3335
# 2 74.0936 153.6922 48.1106 -15.3945 -21.1694 -12.9037
# 3 35.3525 48.1106 115.0472 -20.1067 -21.7254 -12.3142
# 4 -3.5854 -15.3945 -20.1067 29.5495 -4.6613 -2.2043
# 5 -26.9618 -21.1694 -21.7254 -4.6613 22.6209 9.2925
# 6 -25.3335 -12.9037 -12.3142 -2.2043 9.2925 39.4660
#
#
#
# Elastic Compliance Matrix: (Units=1/GPa)
#
#
# Indices 1 2 3 4 5 6 
#
# 1 0.015385 -0.005304 0.000727 0.001936 0.012165 0.005612
# 2 -0.005304 0.010288 -0.001454 0.004153 0.003181 -0.001012
# 3 0.000727 -0.001454 0.013966 0.011252 0.014605 0.001538
# 4 0.001936 0.004153 0.011252 0.048171 0.025807 0.002725
# 5 0.012165 0.003181 0.014605 0.025807 0.082952 -0.004684
# 6 0.005612 -0.001012 0.001538 0.002725 -0.004684 0.030345
#
#
# Mechanical properties :
#
#
# Convention : Reuss Voigt Hill
#
# Bulk Modulus (GPa) = 36.26321 78.19293 57.22807
# Shear Modulus (GPa) = 22.48592 33.73169 28.10880
#
# Velocity S-wave (km/s) = 3.34664 4.09895 3.74175
# Velocity P-wave (km/s) = 5.74418 7.83255 6.86820
#
# Compressibility (1/GPa) = 0.02757615
#
# Stress axis : x y z
#
# Youngs Moduli (GPa) = 64.99911 97.20304 71.60148
#
# Poissons Ratio (x) = 0.51553 -0.05202
# Poissons Ratio (y) = 0.34473 0.10412
# Poissons Ratio (z) = -0.04723 0.14135
#
# Static dielectric constant tensor:
#      x y z
#    x 1.779900 0.015290 0.004930 
#    y 0.015290 1.811200 -0.011630 
#    z 0.004930 -0.011630 1.773960 
# 
# From -- ./inp_files/448483.got.cif
#   From: 2010.05.17/outbox.cif.g08.bks.cpg/sg2_225_cif.got.tgz:448483.got - 2010.06.03 11:33:40.
