data_PCOD9108635
_publ_section_title
;
Structure prediction by ZEFSAII (Michael W. Deem and Ramdas Pophale) SiO2 
 PCOD9108635
Probable space group: P -1
;
_chemical_formula_sum "Si O2"
_cell_formula_units_Z 14
_cell_length_a 17.084781
_cell_length_b 8.614029
_cell_length_c 9.303958
_cell_angle_alpha 61.272645
_cell_angle_beta 62.128931
_cell_angle_gamma 32.844072
_cell_volume 645.353907
_symmetry_space_group_name_H-M "P -1"
_symmetry_group_IT_number 2
_symmetry_cell_setting 'triclinic'
loop_
_space_group_symop_operation_xyz
x,y,z
-x,-y,-z
loop_
_atom_site_type_symbol
_atom_site_label
_atom_site_fract_x
_atom_site_fract_y
_atom_site_fract_z
Si Si1 0.073573 0.218783 0.638132
Si Si2 0.581053 0.577503 0.723421
Si Si3 0.079037 0.223518 0.964705
Si Si4 0.358039 0.904415 0.003429
Si Si5 0.862155 0.251301 0.763718
Si Si6 0.347539 0.184063 0.121659
Si Si7 0.401403 0.818900 0.493086
O O1 0.038209 0.278527 0.810194
O O2 0.000000 0.500000 0.500000
O O3 0.995129 0.172943 0.657136
O O4 0.245413 0.976239 0.586133
O O5 0.598149 0.336760 0.832703
O O6 0.740854 0.411260 0.672255
O O7 0.483959 0.769740 0.582437
O O8 0.493359 0.766431 0.859699
O O9 0.000000 0.500000 0.000000
O O10 0.249030 0.005172 0.932061
O O11 0.070613 0.043554 0.121397
O O12 0.284888 0.161300 0.057081
O O13 0.765166 0.488635 0.872313
O O14 0.379130 0.005298 0.309298
O O15 0.500000 0.000000 0.000000
O O16 0.500000 0.500000 0.500000
#
# Coordination Sequence:
#
# PCOD9108635 Si02
#       7
#     2   2   2   2   2   2   2
#     4  12  26  48  71 107 152 190 240 304 371 432
#     4  10  21  43  71 103 138 188 241 297 349 427
#     4  11  25  46  74 100 141 199 248 293 365 437
#     4  10  20  40  70 101 141 183 240 296 354 422
#     4  11  25  46  74 104 148 187 246 302 364 434
#     4  12  24  42  73 109 146 185 245 300 372 430
#     4  12  26  46  76 106 148 196 243 300 367 430
#
# _framework density 21.693522999999999
#
# number of rings (size 3 to 8) (size 9 to 14) (size 15 to 20)
#    0.000    0.857    5.714    1.286    2.000    0.571 
#    2.571    1.429    0.000    0.000    0.000    0.000 
#    0.000    0.000    0.000    0.000    0.000    0.000 
#
# Total GULP energy -78222.435706 kJ/mol
# GULP energy per Si atom -5587.316836 kJ/mol
# Density = 2.164415 g / cm^3
# Si number density = 21.693523 Si / 1000 Ang^3
#
#
#
# Elastic Constant Matrix: (Units=GPa)
#
#
# Indices 1 2 3 4 5 6 
#
# 1 149.1447 42.2253 70.1274 -9.2853 -5.2159 -24.9034
# 2 42.2253 112.9451 28.7372 -0.7020 -14.8543 7.6647
# 3 70.1274 28.7372 77.3013 -7.9117 -8.4346 -18.2497
# 4 -9.2853 -0.7020 -7.9117 25.7687 -5.3771 -2.9795
# 5 -5.2159 -14.8543 -8.4346 -5.3771 32.5554 -2.0373
# 6 -24.9034 7.6647 -18.2497 -2.9795 -2.0373 48.8271
#
#
#
# Elastic Compliance Matrix: (Units=1/GPa)
#
#
# Indices 1 2 3 4 5 6 
#
# 1 0.012583 -0.002625 -0.009629 0.001635 -0.001201 0.003281
# 2 -0.002625 0.011186 -0.002414 -0.001076 0.003636 -0.003911
# 3 -0.009629 -0.002414 0.024996 0.005832 0.005132 0.005381
# 4 0.001635 -0.001076 0.005832 0.043733 0.008895 0.006222
# 5 -0.001201 0.003636 0.005132 0.008895 0.035154 0.002744
# 6 0.003281 -0.003911 0.005381 0.006222 0.002744 0.025273
#
#
# Mechanical properties :
#
#
# Convention : Reuss Voigt Hill
#
# Bulk Modulus (GPa) = 51.46613 69.06344 60.26479
# Shear Modulus (GPa) = 26.49200 34.65032 30.57116
#
# Velocity S-wave (km/s) = 3.49835 4.00092 3.75804
# Velocity P-wave (km/s) = 6.33195 7.29714 6.83161
#
# Compressibility (1/GPa) = 0.01943025
#
# Stress axis : x y z
#
# Youngs Moduli (GPa) = 79.47283 89.39548 40.00634
#
# Poissons Ratio (x) = 0.23464 0.38520
# Poissons Ratio (y) = 0.20860 0.09658
# Poissons Ratio (z) = 0.76521 0.21581
#
# Static dielectric constant tensor:
#      x y z
#    x 1.881960 -0.041590 0.016210 
#    y -0.041590 1.805730 0.003710 
#    z 0.016210 0.003710 1.754710 
# 
# From -- ./inp_files/185373.got.cif
#   From: 2010.05.17/outbox.cif.g08.bks.cpg/sg2_93_cif.got.tgz:185373.got - 2010.06.03 11:33:40.
