data_PCOD9108472
_publ_section_title
;
Structure prediction by ZEFSAII (Michael W. Deem and Ramdas Pophale) SiO2 
 PCOD9108472
Probable space group: P -1
;
_chemical_formula_sum "Si O2"
_cell_formula_units_Z 16
_cell_length_a 8.651889
_cell_length_b 15.610833
_cell_length_c 8.988939
_cell_angle_alpha 127.341898
_cell_angle_beta 130.051843
_cell_angle_gamma 61.101313
_cell_volume 730.176184
_symmetry_space_group_name_H-M "P -1"
_symmetry_group_IT_number 2
_symmetry_cell_setting 'triclinic'
loop_
_space_group_symop_operation_xyz
x,y,z
-x,-y,-z
loop_
_atom_site_type_symbol
_atom_site_label
_atom_site_fract_x
_atom_site_fract_y
_atom_site_fract_z
Si Si1 0.793407 0.891466 0.142212
Si Si2 0.874342 0.412870 0.398980
Si Si3 0.076698 0.598964 0.233016
Si Si4 0.794670 0.746786 0.716535
Si Si5 0.478167 0.443877 0.589905
Si Si6 0.670890 0.099489 0.074985
Si Si7 0.304516 0.049200 0.334366
Si Si8 0.000775 0.830998 0.488321
O O1 0.964699 0.890446 0.371378
O O2 0.738722 0.003865 0.136591
O O3 0.856204 0.798977 0.962011
O O4 0.573381 0.874166 0.055570
O O5 0.896402 0.425669 0.602057
O O6 0.634005 0.456685 0.271828
O O7 0.000000 0.500000 0.500000
O O8 0.999448 0.301549 0.296739
O O9 0.289138 0.608082 0.291049
O O10 0.936409 0.715776 0.279283
O O11 0.000000 0.500000 0.000000
O O12 0.658625 0.653014 0.575838
O O13 0.673086 0.847253 0.650139
O O14 0.500000 0.500000 0.500000
O O15 0.779795 0.193064 0.317114
O O16 0.745088 0.047083 0.907310
O O17 0.135011 0.097153 0.398738
O O18 0.500000 0.000000 0.500000
#
# Coordination Sequence:
#
# PCOD9108472 Si02
#       8
#     2   2   2   2   2   2   2   2
#     4  10  22  38  67  94 130 176 221 273 331 391
#     4   9  19  39  66  86 125 169 210 275 337 391
#     4  11  24  41  64  95 130 166 222 281 331 403
#     4  10  20  40  68  97 133 176 220 278 340 401
#     4   9  20  39  67  92 122 168 224 276 334 397
#     4  10  22  42  64  95 133 172 229 276 324 393
#     4  11  22  42  66  96 140 180 218 279 336 398
#     4  12  23  40  67  96 132 178 225 273 341 398
#
# _framework density 21.912517999999999
#
# number of rings (size 3 to 8) (size 9 to 14) (size 15 to 20)
#    0.000    1.750    2.500    1.500    5.250    0.000 
#    2.250    2.500    5.500    0.000    0.000    0.000 
#    0.000    0.000    0.000    0.000    0.000    0.000 
#
# Total GULP energy -89132.115173 kJ/mol
# GULP energy per Si atom -5570.757198 kJ/mol
# Density = 2.186264 g / cm^3
# Si number density = 21.912518 Si / 1000 Ang^3
#
#
#
# Elastic Constant Matrix: (Units=GPa)
#
#
# Indices 1 2 3 4 5 6 
#
# 1 99.3481 22.5456 39.2014 12.2352 -17.7705 -19.3216
# 2 22.5456 79.8666 40.6187 5.8720 -11.0959 -1.9942
# 3 39.2014 40.6187 128.0577 14.3828 -23.1318 -9.0414
# 4 12.2352 5.8720 14.3828 33.4358 -1.5160 -6.1967
# 5 -17.7705 -11.0959 -23.1318 -1.5160 28.3563 6.9875
# 6 -19.3216 -1.9942 -9.0414 -6.1967 6.9875 41.8644
#
#
#
# Elastic Compliance Matrix: (Units=1/GPa)
#
#
# Indices 1 2 3 4 5 6 
#
# 1 0.013309 -0.001749 -0.002052 -0.002644 0.004749 0.004432
# 2 -0.001749 0.015328 -0.004019 -0.000484 0.001928 -0.001338
# 3 -0.002052 -0.004019 0.011152 -0.003102 0.006125 -0.000211
# 4 -0.002644 -0.000484 -0.003102 0.032789 -0.003492 0.003523
# 5 0.004749 0.001928 0.006125 -0.003492 0.044891 -0.004403
# 6 0.004432 -0.001338 -0.000211 0.003523 -0.004403 0.027079
#
#
# Mechanical properties :
#
#
# Convention : Reuss Voigt Hill
#
# Bulk Modulus (GPa) = 41.40650 56.88931 49.14791
# Shear Modulus (GPa) = 29.72003 34.39175 32.05589
#
# Velocity S-wave (km/s) = 3.68680 3.96599 3.82894
# Velocity P-wave (km/s) = 6.08774 6.85496 6.48271
#
# Compressibility (1/GPa) = 0.02415080
#
# Stress axis : x y z
#
# Youngs Moduli (GPa) = 75.13645 65.23885 89.67336
#
# Poissons Ratio (x) = 0.11408 0.18400
# Poissons Ratio (y) = 0.13139 0.36036
# Poissons Ratio (z) = 0.15417 0.26217
#
# Static dielectric constant tensor:
#      x y z
#    x 1.846720 0.017650 0.033360 
#    y 0.017650 2.231490 -0.142950 
#    z 0.033360 -0.142950 1.889140 
# 
# From -- ./inp_files/218754.got.cif
#   From: 2010.05.17/outbox.cif.g08.bks.cpg/sg2_110_cif.got.tgz:218754.got - 2010.06.03 11:33:40.
