data_PCOD9108163
_publ_section_title
;
Structure prediction by ZEFSAII (Michael W. Deem and Ramdas Pophale) SiO2 
 PCOD9108163
Probable space group: P -1
;
_chemical_formula_sum "Si O2"
_cell_formula_units_Z 16
_cell_length_a 11.024236
_cell_length_b 18.322428
_cell_length_c 11.991831
_cell_angle_alpha 149.201059
_cell_angle_beta 41.980876
_cell_angle_gamma 147.006607
_cell_volume 673.083498
_symmetry_space_group_name_H-M "P -1"
_symmetry_group_IT_number 2
_symmetry_cell_setting 'triclinic'
loop_
_space_group_symop_operation_xyz
x,y,z
-x,-y,-z
loop_
_atom_site_type_symbol
_atom_site_label
_atom_site_fract_x
_atom_site_fract_y
_atom_site_fract_z
Si Si1 0.066768 0.495188 0.682542
Si Si2 0.021376 0.056307 0.721306
Si Si3 0.671844 0.248242 0.485285
Si Si4 0.496037 0.165394 0.247626
Si Si5 0.035769 0.742532 0.356002
Si Si6 0.797880 0.635550 0.158288
Si Si7 0.616356 0.705634 0.072056
Si Si8 0.518346 0.908618 0.256548
O O1 0.321971 0.658228 0.710590
O O2 0.032737 0.345161 0.591298
O O3 0.928317 0.401860 0.541479
O O4 0.940561 0.573577 0.924668
O O5 0.758004 0.916758 0.715361
O O6 0.105550 0.939182 0.547907
O O7 0.101530 0.171331 0.704552
O O8 0.140883 0.213146 0.937228
O O9 0.569828 0.221886 0.399082
O O10 0.525249 0.273954 0.708280
O O11 0.642008 0.066149 0.292715
O O12 0.500000 0.000000 0.000000
O O13 0.841944 0.634765 0.257316
O O14 0.265124 0.764321 0.200246
O O15 0.541087 0.497915 0.119386
O O16 0.627410 0.813778 0.099480
O O17 0.500000 0.000000 0.500000
#
# Coordination Sequence:
#
# PCOD9108163 Si02
#       8
#     2   2   2   2   2   2   2   2
#     4  11  23  44  63  90 125 172 207 243 304 379
#     4  12  24  41  61  93 131 159 206 255 314 366
#     4  10  20  39  67  92 120 159 211 253 308 369
#     4  12  27  42  60  88 125 176 209 248 299 374
#     4  12  22  38  68  98 123 158 205 260 316 356
#     4  11  23  38  65 101 127 153 202 265 313 361
#     4  10  21  37  66  99 123 157 196 264 320 357
#     4  10  16  35  64  99 118 152 197 252 320 362
#
# _framework density 23.771196
#
# number of rings (size 3 to 8) (size 9 to 14) (size 15 to 20)
#    0.000    1.000    7.500    2.250    1.750    0.500 
#    0.000    0.000    0.000    3.750    0.000    0.000 
#    0.000    0.000    0.000    0.000    0.000    0.000 
#
# Total GULP energy -89439.228391 kJ/mol
# GULP energy per Si atom -5589.951774 kJ/mol
# Density = 2.371709 g / cm^3
# Si number density = 23.771196 Si / 1000 Ang^3
#
#
#
# Elastic Constant Matrix: (Units=GPa)
#
#
# Indices 1 2 3 4 5 6 
#
# 1 153.2347 57.7332 31.7805 15.3758 5.5321 20.2453
# 2 57.7332 124.2575 19.6585 37.8583 8.7659 29.0931
# 3 31.7805 19.6585 59.0277 21.9954 0.7437 -2.3864
# 4 15.3758 37.8583 21.9954 29.0018 2.7536 2.2859
# 5 5.5321 8.7659 0.7437 2.7536 35.7820 20.1158
# 6 20.2453 29.0931 -2.3864 2.2859 20.1158 50.4303
#
#
#
# Elastic Compliance Matrix: (Units=1/GPa)
#
#
# Indices 1 2 3 4 5 6 
#
# 1 0.009065 -0.004697 -0.005453 0.005555 0.000315 -0.001564
# 2 -0.004697 0.019330 0.005585 -0.026552 0.002967 -0.008981
# 3 -0.005453 0.005585 0.027538 -0.025401 0.000075 0.001392
# 4 0.005555 -0.026552 -0.025401 0.085229 -0.006310 0.010539
# 5 0.000315 0.002967 0.000075 -0.006310 0.036772 -0.016216
# 6 -0.001564 -0.008981 0.001392 0.010539 -0.016216 0.031695
#
#
# Mechanical properties :
#
#
# Convention : Reuss Voigt Hill
#
# Bulk Modulus (GPa) = 21.36691 61.65159 41.50925
# Shear Modulus (GPa) = 21.33460 38.19932 29.76696
#
# Velocity S-wave (km/s) = 2.99908 4.01304 3.54252
# Velocity P-wave (km/s) = 4.58265 6.88944 5.85086
#
# Compressibility (1/GPa) = 0.04680134
#
# Stress axis : x y z
#
# Youngs Moduli (GPa) = 110.31859 51.73256 36.31374
#
# Poissons Ratio (x) = 0.24301 0.19803
# Poissons Ratio (y) = 0.51821 -0.20282
# Poissons Ratio (z) = 0.60160 -0.28893
#
# Static dielectric constant tensor:
#      x y z
#    x 1.942610 0.018740 0.002290 
#    y 0.018740 1.908320 -0.003020 
#    z 0.002290 -0.003020 1.988150 
# 
# From -- ./inp_files/523817.got.cif
#   From: 2010.05.17/outbox.cif.g08.bks.cpg/sg2_262_cif.got.tgz:523817.got - 2010.06.03 11:33:40.
