data_PCOD9108943
_publ_section_title
;
Structure prediction by ZEFSAII (Michael W. Deem and Ramdas Pophale) SiO2 
 PCOD9108943
Probable space group: P -1
;
_chemical_formula_sum "Si O2"
_cell_formula_units_Z 12
_cell_length_a 8.233367
_cell_length_b 11.406022
_cell_length_c 8.768990
_cell_angle_alpha 113.640308
_cell_angle_beta 50.808046
_cell_angle_gamma 98.009323
_cell_volume 577.081867
_symmetry_space_group_name_H-M "P -1"
_symmetry_group_IT_number 2
_symmetry_cell_setting 'triclinic'
loop_
_space_group_symop_operation_xyz
x,y,z
-x,-y,-z
loop_
_atom_site_type_symbol
_atom_site_label
_atom_site_fract_x
_atom_site_fract_y
_atom_site_fract_z
Si Si1 0.622270 0.177624 0.441761
Si Si2 0.902618 0.276196 0.073966
Si Si3 0.725916 0.528134 0.446759
Si Si4 0.982962 0.279342 0.696108
Si Si5 0.355538 0.579506 0.254048
Si Si6 0.202136 0.066970 0.626893
O O1 0.734164 0.213637 0.239900
O O2 0.548884 0.310086 0.648943
O O3 0.435609 0.097823 0.473515
O O4 0.782852 0.078639 0.400458
O O5 0.909760 0.409554 0.226413
O O6 0.851022 0.317993 0.950980
O O7 0.105815 0.165902 0.871716
O O8 0.500000 0.500000 0.500000
O O9 0.707111 0.519516 0.634678
O O10 0.804377 0.655088 0.402530
O O11 0.845559 0.337272 0.666768
O O12 0.057654 0.126599 0.601569
O O13 0.500000 0.500000 0.000000
#
# Coordination Sequence:
#
# PCOD9108943 Si02
#       6
#     2   2   2   2   2   2
#     4  10  20  41  60  89 114 157 198 242 285 341
#     4   9  20  34  63  84 114 150 196 242 280 348
#     4  11  21  37  61  85 117 155 199 242 287 348
#     4  10  21  36  56  89 116 152 190 240 300 343
#     4  11  24  36  57  85 123 155 189 243 297 350
#     4   9  21  36  66  83 118 149 207 238 283 348
#
# _framework density 20.794276
#
# number of rings (size 3 to 8) (size 9 to 14) (size 15 to 20)
#    1.000    1.000    0.000    4.500    2.333    0.667 
#    0.000    0.000    0.000    3.000    0.000    0.000 
#    0.000    0.000    0.000    0.000    0.000    0.000 
#
# Total GULP energy -66803.619295 kJ/mol
# GULP energy per Si atom -5566.968275 kJ/mol
# Density = 2.074695 g / cm^3
# Si number density = 20.794276 Si / 1000 Ang^3
#
#
#
# Elastic Constant Matrix: (Units=GPa)
#
#
# Indices 1 2 3 4 5 6 
#
# 1 70.7659 16.8333 16.5515 -18.5522 5.0293 -19.5869
# 2 16.8333 119.7472 59.5009 -18.1041 9.9446 -17.5450
# 3 16.5515 59.5009 73.2532 -8.4994 6.4692 -10.6862
# 4 -18.5522 -18.1041 -8.4994 38.6906 -12.2695 0.6053
# 5 5.0293 9.9446 6.4692 -12.2695 18.6694 -0.1957
# 6 -19.5869 -17.5450 -10.6862 0.6053 -0.1957 31.0525
#
#
#
# Elastic Compliance Matrix: (Units=1/GPa)
#
#
# Indices 1 2 3 4 5 6 
#
# 1 0.020596 0.002147 -0.003451 0.010386 0.001464 0.012823
# 2 0.002147 0.015569 -0.011514 0.005258 -0.001362 0.006077
# 3 -0.003451 -0.011514 0.023649 -0.002779 -0.002964 -0.000509
# 4 0.010386 0.005258 -0.002779 0.039298 0.021274 0.007933
# 5 0.001464 -0.001362 -0.002964 0.021274 0.068895 -0.000847
# 6 0.012823 0.006077 -0.000509 0.007933 -0.000847 0.043391
#
#
# Mechanical properties :
#
#
# Convention : Reuss Voigt Hill
#
# Bulk Modulus (GPa) = 29.25984 49.94863 39.60423
# Shear Modulus (GPa) = 20.12677 29.07453 24.60065
#
# Velocity S-wave (km/s) = 3.11448 3.74331 3.44328
# Velocity P-wave (km/s) = 5.19952 6.53878 5.90723
#
# Compressibility (1/GPa) = 0.03417654
#
# Stress axis : x y z
#
# Youngs Moduli (GPa) = 48.55424 64.23067 42.28569
#
# Poissons Ratio (x) = -0.13791 0.14593
# Poissons Ratio (y) = -0.10425 0.48689
# Poissons Ratio (z) = 0.16757 0.73957
#
# Static dielectric constant tensor:
#      x y z
#    x 1.824650 -0.033840 -0.018430 
#    y -0.033840 1.764790 0.016770 
#    z -0.018430 0.016770 1.738000 
# 
# From -- ./inp_files/189631.got.cif
#   From: 2010.05.17/outbox.cif.g08.bks.cpg/sg2_95_cif.got.tgz:189631.got - 2010.06.03 11:33:40.
