data_PCOD9108290
_publ_section_title
;
Structure prediction by ZEFSAII (Michael W. Deem and Ramdas Pophale) SiO2 
 PCOD9108290
Probable space group: P -1
;
_chemical_formula_sum "Si O2"
_cell_formula_units_Z 16
_cell_length_a 12.174381
_cell_length_b 9.196916
_cell_length_c 9.022773
_cell_angle_alpha 85.862042
_cell_angle_beta 90.050448
_cell_angle_gamma 51.432467
_cell_volume 786.465663
_symmetry_space_group_name_H-M "P -1"
_symmetry_group_IT_number 2
_symmetry_cell_setting 'triclinic'
loop_
_space_group_symop_operation_xyz
x,y,z
-x,-y,-z
loop_
_atom_site_type_symbol
_atom_site_label
_atom_site_fract_x
_atom_site_fract_y
_atom_site_fract_z
Si Si1 0.587958 0.196083 0.968823
Si Si2 0.218866 0.050990 0.755254
Si Si3 0.166146 0.332855 0.488170
Si Si4 0.320197 0.541928 0.075062
Si Si5 0.309205 0.790691 0.523673
Si Si6 0.372607 0.425835 0.429427
Si Si7 0.214587 0.067476 0.252366
Si Si8 0.001680 0.823116 0.011373
O O1 0.654898 0.304397 0.955272
O O2 0.642380 0.065867 0.834224
O O3 0.425573 0.364241 0.983693
O O4 0.653697 0.059436 0.120074
O O5 0.217064 0.184249 0.630673
O O6 0.078367 0.164890 0.843360
O O7 0.232735 0.893688 0.668020
O O8 0.263343 0.393847 0.478858
O O9 0.193983 0.225605 0.341497
O O10 0.000000 0.500000 0.500000
O O11 0.353651 0.477886 0.251167
O O12 0.160956 0.639588 0.027953
O O13 0.338456 0.598338 0.511114
O O14 0.462058 0.743375 0.532200
O O15 0.220823 0.928229 0.377590
O O16 0.088280 0.155011 0.130160
O O17 0.000000 0.000000 0.000000
#
# Coordination Sequence:
#
# PCOD9108290 Si02
#       8
#     2   2   2   2   2   2   2   2
#     4  10  20  40  67  97 132 166 222 284 331 381
#     4  10  21  40  68  93 135 170 213 278 334 395
#     4  11  26  46  63  94 144 183 217 265 341 416
#     4  11  20  37  68  99 132 167 224 281 332 378
#     4  10  21  41  70 100 126 165 231 285 324 386
#     4  11  22  40  68 101 129 172 223 279 333 387
#     4  10  22  42  66  92 133 175 214 275 332 396
#     4  11  20  38  67  97 131 173 223 277 328 390
#
# _framework density 20.344180999999999
#
# number of rings (size 3 to 8) (size 9 to 14) (size 15 to 20)
#    0.000    1.500    5.000    0.750    0.000    3.000 
#    2.250    9.375    0.000    0.000    0.000    0.000 
#    0.000    0.000    0.000    0.000    0.000    0.000 
#
# Total GULP energy -89415.788952 kJ/mol
# GULP energy per Si atom -5588.486810 kJ/mol
# Density = 2.029788 g / cm^3
# Si number density = 20.344181 Si / 1000 Ang^3
#
#
#
# Elastic Constant Matrix: (Units=GPa)
#
#
# Indices 1 2 3 4 5 6 
#
# 1 120.0021 57.6947 39.9054 7.7397 -2.0060 -18.7689
# 2 57.6947 122.9423 43.4587 22.1677 1.9922 -29.7980
# 3 39.9054 43.4587 114.2114 9.6250 2.1433 -8.4779
# 4 7.7397 22.1677 9.6250 27.9684 0.5165 -3.2465
# 5 -2.0060 1.9922 2.1433 0.5165 9.5041 -3.8960
# 6 -18.7689 -29.7980 -8.4779 -3.2465 -3.8960 39.7577
#
#
#
# Elastic Compliance Matrix: (Units=1/GPa)
#
#
# Indices 1 2 3 4 5 6 
#
# 1 0.011573 -0.004323 -0.002423 0.001234 0.004760 0.002274
# 2 -0.004323 0.014485 -0.002730 -0.008471 0.000228 0.007564
# 3 -0.002423 -0.002730 0.010679 -0.000935 -0.002815 -0.001265
# 4 0.001234 -0.008471 -0.000935 0.042164 -0.001124 -0.002633
# 5 0.004760 0.000228 -0.002815 -0.001124 0.112080 0.012709
# 6 0.002274 0.007564 -0.001265 -0.002633 0.012709 0.032655
#
#
# Mechanical properties :
#
#
# Convention : Reuss Voigt Hill
#
# Bulk Modulus (GPa) = 56.22974 71.03037 63.63005
# Shear Modulus (GPa) = 20.11937 29.85252 24.98594
#
# Velocity S-wave (km/s) = 3.14817 3.83479 3.50832
# Velocity P-wave (km/s) = 6.39639 7.38902 6.91055
#
# Compressibility (1/GPa) = 0.01778418
#
# Stress axis : x y z
#
# Youngs Moduli (GPa) = 86.40789 69.03912 93.64231
#
# Poissons Ratio (x) = 0.29845 0.22691
# Poissons Ratio (y) = 0.37353 0.25565
# Poissons Ratio (z) = 0.20938 0.18848
#
# Static dielectric constant tensor:
#      x y z
#    x 1.699440 -0.009890 -0.009980 
#    y -0.009890 1.726850 0.005610 
#    z -0.009980 0.005610 1.713740 
# 
# From -- ./inp_files/243536.got.cif
#   From: 2010.05.17/outbox.cif.g08.bks.cpg/sg2_122_cif.got.tgz:243536.got - 2010.06.03 11:33:40.
