data_PCOD9108389
_publ_section_title
;
Structure prediction by ZEFSAII (Michael W. Deem and Ramdas Pophale) SiO2 
 PCOD9108389
Probable space group: P -1
;
_chemical_formula_sum "Si O2"
_cell_formula_units_Z 16
_cell_length_a 7.484263
_cell_length_b 11.403715
_cell_length_c 9.343191
_cell_angle_alpha 100.209211
_cell_angle_beta 121.716777
_cell_angle_gamma 78.356035
_cell_volume 661.950650
_symmetry_space_group_name_H-M "P -1"
_symmetry_group_IT_number 2
_symmetry_cell_setting 'triclinic'
loop_
_space_group_symop_operation_xyz
x,y,z
-x,-y,-z
loop_
_atom_site_type_symbol
_atom_site_label
_atom_site_fract_x
_atom_site_fract_y
_atom_site_fract_z
Si Si1 0.805914 0.934576 0.853124
Si Si2 0.523494 0.567067 0.876790
Si Si3 0.732191 0.789636 0.045303
Si Si4 0.157651 0.627990 0.171782
Si Si5 0.974851 0.137584 0.566393
Si Si6 0.608430 0.159754 0.645568
Si Si7 0.269736 0.517335 0.484989
Si Si8 0.132078 0.255786 0.395007
O O1 0.902024 0.817728 0.778041
O O2 0.663945 0.034857 0.722810
O O3 0.683944 0.892312 0.929363
O O4 0.000000 0.000000 0.000000
O O5 0.738299 0.494722 0.882406
O O6 0.336663 0.555561 0.680402
O O7 0.500000 0.500000 0.000000
O O8 0.551018 0.704081 0.955140
O O9 0.830123 0.839884 0.241015
O O10 0.935001 0.700248 0.052815
O O11 0.320753 0.722548 0.224412
O O12 0.140306 0.601567 0.330060
O O13 0.980181 0.221916 0.449057
O O14 0.755303 0.155002 0.565271
O O15 0.000000 0.000000 0.500000
O O16 0.364178 0.191377 0.521969
O O17 0.500000 0.500000 0.500000
O O18 0.161397 0.395301 0.421824
#
# Coordination Sequence:
#
# PCOD9108389 Si02
#       8
#     2   2   2   2   2   2   2   2
#     4  12  22  41  66  97 129 172 217 273 329 381
#     4  11  22  40  64  96 133 161 209 278 320 374
#     4  11  24  41  68  92 130 173 210 271 336 372
#     4  10  21  42  66  88 129 175 215 253 326 401
#     4  11  23  43  66  98 133 167 225 271 313 396
#     4  11  23  43  71  93 131 178 221 262 329 397
#     4  10  20  40  68  92 127 172 220 258 317 404
#     4  12  23  42  73  91 129 182 214 265 336 386
#
# _framework density 24.170987
#
# number of rings (size 3 to 8) (size 9 to 14) (size 15 to 20)
#    0.000    1.000    6.250    3.000    0.000    0.000 
#    0.000    8.750    5.500    0.000    0.000    0.000 
#    0.000    0.000    0.000    0.000    0.000    0.000 
#
# Total GULP energy -89487.317018 kJ/mol
# GULP energy per Si atom -5592.957314 kJ/mol
# Density = 2.411597 g / cm^3
# Si number density = 24.170987 Si / 1000 Ang^3
#
#
#
# Elastic Constant Matrix: (Units=GPa)
#
#
# Indices 1 2 3 4 5 6 
#
# 1 45.0775 31.9994 35.3289 -10.9370 -5.8378 12.8287
# 2 31.9994 154.3318 60.8066 -1.0961 -6.7108 41.9579
# 3 35.3289 60.8066 114.8265 1.6109 -23.7030 22.0092
# 4 -10.9370 -1.0961 1.6109 63.8179 10.0264 -2.8435
# 5 -5.8378 -6.7108 -23.7030 10.0264 31.0459 -6.1309
# 6 12.8287 41.9579 22.0092 -2.8435 -6.1309 46.3209
#
#
#
# Elastic Compliance Matrix: (Units=1/GPa)
#
#
# Indices 1 2 3 4 5 6 
#
# 1 0.033003 -0.002687 -0.009148 0.006343 -0.003899 -0.002486
# 2 -0.002687 0.010386 -0.003823 -0.000103 -0.002566 -0.007193
# 3 -0.009148 -0.003823 0.015881 -0.003733 0.010713 -0.000361
# 4 0.006343 -0.000103 -0.003733 0.018031 -0.007458 0.000230
# 5 -0.003899 -0.002566 0.010713 -0.007458 0.042189 0.003440
# 6 -0.002486 -0.007193 -0.000361 0.000230 0.003440 0.029434
#
#
# Mechanical properties :
#
#
# Convention : Reuss Voigt Hill
#
# Bulk Modulus (GPa) = 35.77394 63.38950 49.58172
# Shear Modulus (GPa) = 26.37717 40.64367 33.51042
#
# Velocity S-wave (km/s) = 3.30703 4.10507 3.72747
# Velocity P-wave (km/s) = 5.42350 6.98220 6.25162
#
# Compressibility (1/GPa) = 0.02795331
#
# Stress axis : x y z
#
# Youngs Moduli (GPa) = 30.30038 96.28190 62.96946
#
# Poissons Ratio (x) = 0.25870 0.57607
# Poissons Ratio (y) = 0.08142 0.24072
# Poissons Ratio (z) = 0.27720 0.36807
#
# Static dielectric constant tensor:
#      x y z
#    x 1.899350 -0.015900 0.020950 
#    y -0.015900 1.948300 0.074430 
#    z 0.020950 0.074430 1.989430 
# 
# From -- ./inp_files/180703.got.cif
#   From: 2010.05.17/outbox.cif.g08.bks.cpg/sg2_91_cif.got.tgz:180703.got - 2010.06.03 11:33:40.
