data_PCOD9108310
_publ_section_title
;
Structure prediction by ZEFSAII (Michael W. Deem and Ramdas Pophale) SiO2 
 PCOD9108310
Probable space group: P -1
;
_chemical_formula_sum "Si O2"
_cell_formula_units_Z 16
_cell_length_a 9.766312
_cell_length_b 12.670139
_cell_length_c 22.960956
_cell_angle_alpha 21.893131
_cell_angle_beta 34.298266
_cell_angle_gamma 35.398883
_cell_volume 580.792316
_symmetry_space_group_name_H-M "P -1"
_symmetry_group_IT_number 2
_symmetry_cell_setting 'triclinic'
loop_
_space_group_symop_operation_xyz
x,y,z
-x,-y,-z
loop_
_atom_site_type_symbol
_atom_site_label
_atom_site_fract_x
_atom_site_fract_y
_atom_site_fract_z
Si Si1 0.290284 0.509561 0.458290
Si Si2 0.548474 0.040971 0.254151
Si Si3 0.902656 0.655005 0.229674
Si Si4 0.804750 0.414715 0.051153
Si Si5 0.876959 0.086251 0.588911
Si Si6 0.774288 0.264801 0.262627
Si Si7 0.338399 0.904424 0.996457
Si Si8 0.255000 0.630947 0.281084
O O1 0.467284 0.194519 0.569084
O O2 0.307349 0.711885 0.403221
O O3 0.312669 0.670232 0.308057
O O4 0.012301 0.446358 0.589501
O O5 0.734897 0.853410 0.237060
O O6 0.278300 0.128462 0.274265
O O7 0.324753 0.718782 0.886874
O O8 0.925006 0.318541 0.406766
O O9 0.171842 0.721840 0.111607
O O10 0.772968 0.774878 0.153524
O O11 0.072113 0.483113 0.911594
O O12 0.826292 0.195648 0.211281
O O13 0.618879 0.721653 0.978562
O O14 0.109993 0.951540 0.616175
O O15 0.479436 0.363804 0.320945
O O16 0.276516 0.871065 0.103023
#
# Coordination Sequence:
#
# PCOD9108310 Si02
#       8
#     2   2   2   2   2   2   2   2
#     4  10  22  41  71 106 133 177 231 284 347 406
#     4  11  23  43  69  99 142 183 227 282 341 415
#     4  10  21  38  66  99 135 184 227 274 344 403
#     4  10  24  44  67 101 136 188 230 278 350 406
#     4  11  23  42  70 102 142 179 225 284 347 408
#     4  10  24  44  69 100 140 181 230 288 341 410
#     4  10  20  40  67  98 139 178 227 283 336 405
#     4  10  21  42  72 103 133 179 231 284 344 401
#
# _framework density 27.548575
#
# number of rings (size 3 to 8) (size 9 to 14) (size 15 to 20)
#    0.000    1.750    2.500    2.250    3.500    3.500 
#    0.000   10.625    0.000    0.000    0.000    0.000 
#    0.000    0.000    0.000    0.250    0.000    0.000 
#
# Total GULP energy -89712.784382 kJ/mol
# GULP energy per Si atom -5607.049024 kJ/mol
# Density = 2.748587 g / cm^3
# Si number density = 27.548575 Si / 1000 Ang^3
#
#
#
# Elastic Constant Matrix: (Units=GPa)
#
#
# Indices 1 2 3 4 5 6 
#
# 1 154.3652 13.6408 52.2960 -8.8734 2.0995 -12.9679
# 2 13.6408 58.1961 34.7028 -6.9466 7.1778 -14.6529
# 3 52.2960 34.7028 130.2311 -23.6744 45.1439 -11.6483
# 4 -8.8734 -6.9466 -23.6744 32.2230 -9.8030 11.0136
# 5 2.0995 7.1778 45.1439 -9.8030 51.7870 -4.6585
# 6 -12.9679 -14.6529 -11.6483 11.0136 -4.6585 48.4005
#
#
#
# Elastic Compliance Matrix: (Units=1/GPa)
#
#
# Indices 1 2 3 4 5 6 
#
# 1 0.008055 0.000822 -0.004669 -0.000512 0.003691 0.001755
# 2 0.000822 0.022124 -0.007091 -0.001169 0.003383 0.005803
# 3 -0.004669 -0.007091 0.016712 0.006392 -0.012367 -0.002021
# 4 -0.000512 -0.001169 0.006392 0.038275 0.001177 -0.007549
# 5 0.003691 0.003383 -0.012367 0.001177 0.029843 0.001641
# 6 0.001755 0.005803 -0.002021 -0.007549 0.001641 0.024277
#
#
# Mechanical properties :
#
#
# Convention : Reuss Voigt Hill
#
# Bulk Modulus (GPa) = 39.97920 60.45240 50.21580
# Shear Modulus (GPa) = 29.49844 42.62563 36.06204
#
# Velocity S-wave (km/s) = 3.27583 3.93783 3.62198
# Velocity P-wave (km/s) = 5.37139 6.53199 5.97991
#
# Compressibility (1/GPa) = 0.02501301
#
# Stress axis : x y z
#
# Youngs Moduli (GPa) = 124.14465 45.20050 59.83901
#
# Poissons Ratio (x) = -0.03714 0.27939
# Poissons Ratio (y) = -0.10201 0.42434
# Poissons Ratio (z) = 0.57964 0.32053
#
# Static dielectric constant tensor:
#      x y z
#    x 2.076800 0.004580 0.032410 
#    y 0.004580 2.156890 -0.001170 
#    z 0.032410 -0.001170 2.217060 
# 
# From -- ./inp_files/417866.got.cif
#   From: 2010.05.17/outbox.cif.g08.bks.cpg/sg2_209_cif.got.tgz:417866.got - 2010.06.03 11:33:40.
