data_PCOD9108633
_publ_section_title
;
Structure prediction by ZEFSAII (Michael W. Deem and Ramdas Pophale) SiO2 
 PCOD9108633
Probable space group: P -1
;
_chemical_formula_sum "Si O2"
_cell_formula_units_Z 14
_cell_length_a 8.787142
_cell_length_b 16.752913
_cell_length_c 11.860733
_cell_angle_alpha 29.779032
_cell_angle_beta 142.627691
_cell_angle_gamma 129.226960
_cell_volume 516.747202
_symmetry_space_group_name_H-M "P -1"
_symmetry_group_IT_number 2
_symmetry_cell_setting 'triclinic'
loop_
_space_group_symop_operation_xyz
x,y,z
-x,-y,-z
loop_
_atom_site_type_symbol
_atom_site_label
_atom_site_fract_x
_atom_site_fract_y
_atom_site_fract_z
Si Si1 0.719670 0.698888 0.100265
Si Si2 0.637425 0.100743 0.772861
Si Si3 0.371484 0.503831 0.040509
Si Si4 0.948183 0.215139 0.614160
Si Si5 0.972671 0.359425 0.064016
Si Si6 0.118021 0.744113 0.089507
Si Si7 0.261021 0.940197 0.616787
O O1 0.571118 0.550019 0.188986
O O2 0.920642 0.687580 0.131430
O O3 0.495409 0.861098 0.768475
O O4 0.869749 0.704366 0.296406
O O5 0.887631 0.955695 0.118789
O O6 0.408868 0.005883 0.728243
O O7 0.649566 0.210679 0.756377
O O8 0.727774 0.178120 0.614767
O O9 0.148435 0.661466 0.693911
O O10 0.500000 0.500000 0.000000
O O11 0.258902 0.346273 0.198697
O O12 0.818224 0.376701 0.832244
O O13 0.877683 0.207535 0.249318
O O14 0.000000 0.500000 0.000000
O O15 0.944808 0.910329 0.733595
#
# Coordination Sequence:
#
# PCOD9108633 Si02
#       7
#     2   2   2   2   2   2   2
#     4  10  20  40  70 101 123 165 220 269 327 379
#     4   9  20  39  70 103 125 160 222 276 329 374
#     4  12  23  42  67  91 131 181 216 260 329 389
#     4   9  20  39  65 104 128 156 220 281 313 389
#     4  12  27  44  61  96 136 177 225 258 324 403
#     4  11  22  42  70  98 127 173 223 271 318 387
#     4  11  22  42  69  96 137 168 211 277 328 383
#
# _framework density 27.092552000000001
#
# number of rings (size 3 to 8) (size 9 to 14) (size 15 to 20)
#    0.000    1.429    2.857    3.429    0.000    1.143 
#    0.000    4.286    0.000    0.000    0.000    0.000 
#    0.000    0.000    0.000    0.000    0.000    0.000 
#
# Total GULP energy -78355.814097 kJ/mol
# GULP energy per Si atom -5596.843864 kJ/mol
# Density = 2.703089 g / cm^3
# Si number density = 27.092552 Si / 1000 Ang^3
#
#
#
# Elastic Constant Matrix: (Units=GPa)
#
#
# Indices 1 2 3 4 5 6 
#
# 1 79.3135 59.2464 34.9355 -0.6181 -10.7176 -8.4961
# 2 59.2464 273.4181 40.4761 11.8895 -30.4878 -2.6649
# 3 34.9355 40.4761 100.6408 -6.9779 -10.0628 7.8318
# 4 -0.6181 11.8895 -6.9779 41.0201 0.2147 -6.7399
# 5 -10.7176 -30.4878 -10.0628 0.2147 27.4468 -1.8690
# 6 -8.4961 -2.6649 7.8318 -6.7399 -1.8690 61.1240
#
#
#
# Elastic Compliance Matrix: (Units=1/GPa)
#
#
# Indices 1 2 3 4 5 6 
#
# 1 0.017512 -0.002836 -0.004918 0.000745 0.002089 0.003087
# 2 -0.002836 0.004897 -0.000678 -0.001623 0.004086 -0.000148
# 3 -0.004918 -0.000678 0.012376 0.001884 0.001711 -0.002039
# 4 0.000745 -0.001623 0.001884 0.025610 -0.000845 0.002590
# 5 0.002089 0.004086 0.001711 -0.000845 0.042522 0.001456
# 6 0.003087 -0.000148 -0.002039 0.002590 0.001456 0.017374
#
#
# Mechanical properties :
#
#
# Convention : Reuss Voigt Hill
#
# Bulk Modulus (GPa) = 55.79626 80.29869 68.04748
# Shear Modulus (GPa) = 34.93377 47.16581 41.04979
#
# Velocity S-wave (km/s) = 3.59475 4.17695 3.89674
# Velocity P-wave (km/s) = 6.15378 7.27775 6.73924
#
# Compressibility (1/GPa) = 0.01792235
#
# Stress axis : x y z
#
# Youngs Moduli (GPa) = 57.10532 204.20692 80.79968
#
# Poissons Ratio (x) = 0.57910 0.39736
# Poissons Ratio (y) = 0.16194 0.05474
# Poissons Ratio (z) = 0.28083 0.13835
#
# Static dielectric constant tensor:
#      x y z
#    x 2.211220 -0.044350 0.128040 
#    y -0.044350 2.115180 -0.040690 
#    z 0.128040 -0.040690 2.200990 
# 
# From -- ./inp_files/402770.got.cif
#   From: 2010.05.17/outbox.cif.g08.bks.cpg/sg2_202_cif.got.tgz:402770.got - 2010.06.03 11:33:40.
