data_PCOD9108418
_publ_section_title
;
Structure prediction by ZEFSAII (Michael W. Deem and Ramdas Pophale) SiO2 
 PCOD9108418
Probable space group: P -1
;
_chemical_formula_sum "Si O2"
_cell_formula_units_Z 16
_cell_length_a 7.053245
_cell_length_b 5.180516
_cell_length_c 21.360203
_cell_angle_alpha 96.991235
_cell_angle_beta 114.082299
_cell_angle_gamma 115.661615
_cell_volume 598.553745
_symmetry_space_group_name_H-M "P -1"
_symmetry_group_IT_number 2
_symmetry_cell_setting 'triclinic'
loop_
_space_group_symop_operation_xyz
x,y,z
-x,-y,-z
loop_
_atom_site_type_symbol
_atom_site_label
_atom_site_fract_x
_atom_site_fract_y
_atom_site_fract_z
Si Si1 0.538051 0.217471 0.829561
Si Si2 0.402546 0.336323 0.397733
Si Si3 0.030369 0.595604 0.609905
Si Si4 0.835449 0.647269 0.988542
Si Si5 0.309812 0.956982 0.541766
Si Si6 0.017761 0.190988 0.855652
Si Si7 0.111710 0.524162 0.754572
Si Si8 0.321040 0.445321 0.256890
O O1 0.783140 0.217407 0.842410
O O2 0.482345 0.332641 0.760843
O O3 0.321665 0.877050 0.807582
O O4 0.616903 0.449456 0.904994
O O5 0.155621 0.305467 0.387902
O O6 0.471792 0.111535 0.432350
O O7 0.394650 0.309731 0.320242
O O8 0.608377 0.694710 0.448951
O O9 0.897756 0.297178 0.538556
O O10 0.219653 0.867461 0.598340
O O11 0.128068 0.512618 0.681772
O O12 0.794448 0.656978 0.057386
O O13 0.000000 0.500000 0.000000
O O14 0.000000 0.000000 0.000000
O O15 0.125568 0.323268 0.805655
O O16 0.888323 0.827239 0.822188
O O17 0.830442 0.432767 0.724483
#
# Coordination Sequence:
#
# PCOD9108418 Si02
#       8
#     2   2   2   2   2   2   2   2
#     4  10  21  40  66  90 129 172 219 264 334 394
#     4  11  25  42  70  96 135 177 228 278 344 398
#     4  10  24  44  68  97 139 172 229 285 336 403
#     4  10  20  40  68  94 129 174 218 268 324 390
#     4  11  25  46  68  99 130 184 227 278 342 411
#     4  10  22  40  65  91 131 170 217 269 332 393
#     4  10  23  41  60  99 128 169 221 277 332 395
#     4  10  22  39  62  92 131 170 217 279 328 399
#
# _framework density 26.731099
#
# number of rings (size 3 to 8) (size 9 to 14) (size 15 to 20)
#    0.000    1.750    1.250    1.500    7.000    4.500 
#    4.500    0.625    0.000    0.000    0.000    0.000 
#    0.000    0.000    0.000    0.000    0.000    0.000 
#
# Total GULP energy -89648.887846 kJ/mol
# GULP energy per Si atom -5603.055490 kJ/mol
# Density = 2.667026 g / cm^3
# Si number density = 26.731099 Si / 1000 Ang^3
#
#
#
# Elastic Constant Matrix: (Units=GPa)
#
#
# Indices 1 2 3 4 5 6 
#
# 1 98.4378 15.6992 12.7447 -13.8617 -8.6819 0.9185
# 2 15.6992 141.0126 18.1881 -2.2231 -5.8041 1.6160
# 3 12.7447 18.1881 149.7250 1.7292 -17.4568 -3.9997
# 4 -13.8617 -2.2231 1.7292 51.2563 6.1853 -6.7856
# 5 -8.6819 -5.8041 -17.4568 6.1853 43.2894 -17.6276
# 6 0.9185 1.6160 -3.9997 -6.7856 -17.6276 34.5274
#
#
#
# Elastic Compliance Matrix: (Units=1/GPa)
#
#
# Indices 1 2 3 4 5 6 
#
# 1 0.010961 -0.001035 -0.000584 0.002871 0.001915 0.001231
# 2 -0.001035 0.007323 -0.000762 -0.000011 0.000383 -0.000210
# 3 -0.000584 -0.000762 0.007367 -0.000545 0.003982 0.002830
# 4 0.002871 -0.000011 -0.000545 0.020898 -0.001282 0.003313
# 5 0.001915 0.000383 0.003982 -0.001282 0.032044 0.016500
# 6 0.001231 -0.000210 0.002830 0.003313 0.016500 0.038342
#
#
# Mechanical properties :
#
#
# Convention : Reuss Voigt Hill
#
# Bulk Modulus (GPa) = 47.87340 53.60438 50.73889
# Shear Modulus (GPa) = 38.86174 48.65085 43.75630
#
# Velocity S-wave (km/s) = 3.81701 4.27079 4.05026
# Velocity P-wave (km/s) = 6.11345 6.66455 6.39494
#
# Compressibility (1/GPa) = 0.02088843
#
# Stress axis : x y z
#
# Youngs Moduli (GPa) = 91.23172 136.55388 135.73217
#
# Poissons Ratio (x) = 0.14133 0.07931
# Poissons Ratio (y) = 0.09442 0.10348
# Poissons Ratio (z) = 0.05331 0.10410
#
# Static dielectric constant tensor:
#      x y z
#    x 2.131360 -0.025120 0.001800 
#    y -0.025120 2.017330 -0.010480 
#    z 0.001800 -0.010480 2.112300 
# 
# From -- ./inp_files/585277.got.cif
#   From: 2010.05.17/outbox.cif.g08.bks.cpg/sg2_293_cif.got.tgz:585277.got - 2010.06.03 11:33:40.
