data_PCOD9108351
_publ_section_title
;
Structure prediction by ZEFSAII (Michael W. Deem and Ramdas Pophale) SiO2 
 PCOD9108351
Probable space group: P -1
;
_chemical_formula_sum "Si O2"
_cell_formula_units_Z 11
_cell_length_a 9.394632
_cell_length_b 10.279667
_cell_length_c 8.473278
_cell_angle_alpha 92.999172
_cell_angle_beta 133.840329
_cell_angle_gamma 120.489570
_cell_volume 386.669997
_symmetry_space_group_name_H-M "P -1"
_symmetry_group_IT_number 2
_symmetry_cell_setting 'triclinic'
loop_
_space_group_symop_operation_xyz
x,y,z
-x,-y,-z
loop_
_atom_site_type_symbol
_atom_site_label
_atom_site_fract_x
_atom_site_fract_y
_atom_site_fract_z
Si Si1 0.123600 0.746693 0.862225
Si Si2 0.626523 0.225155 0.264090
Si Si3 0.562421 0.646751 0.385428
Si Si4 0.721854 0.679089 0.060918
Si Si5 0.000000 0.000000 0.500000
Si Si6 0.672229 0.225358 0.644922
O O1 0.173335 0.695032 0.733127
O O2 0.804257 0.658035 0.617662
O O3 0.171258 0.692477 0.057128
O O4 0.369098 0.985198 0.053437
O O5 0.430812 0.258991 0.097728
O O6 0.792986 0.300421 0.563670
O O7 0.277557 0.419747 0.091648
O O8 0.720923 0.800565 0.371434
O O9 0.525724 0.740850 0.491420
O O10 0.500000 0.500000 0.000000
O O11 0.013598 0.871961 0.391129
O O12 0.500000 0.000000 0.500000
#
# Coordination Sequence:
#
# PCOD9108351 Si02
#       6
#     2   2   2   2   1   2
#     4  10  21  42  68  99 141 183 233 288 346 414
#     4  10  21  41  67  99 142 185 228 289 354 408
#     4  11  23  40  72 101 135 184 239 282 346 419
#     4  10  21  39  67 106 139 179 234 286 344 423
#     4  10  20  40  68 104 134 182 224 284 348 408
#     4  10  24  42  68 105 141 181 237 289 345 421
#
# _framework density 28.448028999999998
#
# number of rings (size 3 to 8) (size 9 to 14) (size 15 to 20)
#    0.000    1.818    1.818    2.182    5.091    4.364 
#    0.000    2.727    0.000    0.000    0.000    0.000 
#    0.000    0.000    0.000    0.000    0.000    0.000 
#
# Total GULP energy -61421.019256 kJ/mol
# GULP energy per Si atom -5583.729023 kJ/mol
# Density = 2.838328 g / cm^3
# Si number density = 28.448029 Si / 1000 Ang^3
#
#
#
# Elastic Constant Matrix: (Units=GPa)
#
#
# Indices 1 2 3 4 5 6 
#
# 1 190.2495 58.2738 30.0689 -20.2783 -54.2694 -10.3103
# 2 58.2738 161.4103 13.4009 4.6029 -33.7884 15.0578
# 3 30.0689 13.4009 42.0945 -17.9706 -34.3479 17.3248
# 4 -20.2783 4.6029 -17.9706 61.1880 -11.8354 -12.2502
# 5 -54.2694 -33.7884 -34.3479 -11.8354 52.3572 -5.8892
# 6 -10.3103 15.0578 17.3248 -12.2502 -5.8892 49.8748
#
#
#
# Elastic Compliance Matrix: (Units=1/GPa)
#
#
# Indices 1 2 3 4 5 6 
#
# 1 0.014880 -0.000029 0.033738 0.023640 0.043137 0.002265
# 2 -0.000029 0.008536 0.014291 0.005716 0.015663 -0.004294
# 3 0.033738 0.014291 0.242985 0.120523 0.228007 -0.025219
# 4 0.023640 0.005716 0.120523 0.082718 0.125557 -0.003562
# 5 0.043137 0.015663 0.228007 0.125557 0.250237 -0.014626
# 6 0.002265 -0.004294 -0.025219 -0.003562 -0.014626 0.027973
#
#
# Mechanical properties :
#
#
# Convention : Reuss Voigt Hill
#
# Bulk Modulus (GPa) = 2.75937 66.36016 34.55976
# Shear Modulus (GPa) = 7.66720 52.15137 29.90929
#
# Velocity S-wave (km/s) = 1.64348 4.28625 3.24600
# Velocity P-wave (km/s) = 2.13856 6.91906 5.12088
#
# Compressibility (1/GPa) = 0.36240220
#
# Stress axis : x y z
#
# Youngs Moduli (GPa) = 67.20312 117.15631 4.11547
#
# Poissons Ratio (x) = 0.00337 -0.13885
# Poissons Ratio (y) = 0.00193 -0.05881
# Poissons Ratio (z) = -2.26733 -1.67426
#
# Static dielectric constant tensor:
#      x y z
#    x 2.290700 -0.076400 0.011440 
#    y -0.076400 2.132220 -0.090060 
#    z 0.011440 -0.090060 2.446400 
# 
# From -- ./inp_files/155732.got.cif
#   From: 2010.05.17/outbox.cif.g08.bks.cpg/sg2_78_cif.got.tgz:155732.got - 2010.06.03 11:33:40.
