data_PCOD9108108
_publ_section_title
;
Structure prediction by ZEFSAII (Michael W. Deem and Ramdas Pophale) SiO2 
 PCOD9108108
Probable space group: P -1
;
_chemical_formula_sum "Si O2"
_cell_formula_units_Z 14
_cell_length_a 9.115635
_cell_length_b 11.269151
_cell_length_c 8.454411
_cell_angle_alpha 65.386097
_cell_angle_beta 106.295862
_cell_angle_gamma 71.348025
_cell_volume 656.123809
_symmetry_space_group_name_H-M "P -1"
_symmetry_group_IT_number 2
_symmetry_cell_setting 'triclinic'
loop_
_space_group_symop_operation_xyz
x,y,z
-x,-y,-z
loop_
_atom_site_type_symbol
_atom_site_label
_atom_site_fract_x
_atom_site_fract_y
_atom_site_fract_z
Si Si1 0.672693 0.265075 0.570129
Si Si2 0.701945 0.899001 0.155477
Si Si3 0.987791 0.356301 0.133365
Si Si4 0.872296 0.601019 0.540401
Si Si5 0.976279 0.953700 0.342804
Si Si6 0.824805 0.930818 0.839102
Si Si7 0.685148 0.449641 0.760854
O O1 0.857690 0.209110 0.565381
O O2 0.674820 0.327698 0.711413
O O3 0.508549 0.404441 0.356845
O O4 0.672698 0.105601 0.668684
O O5 0.728143 0.749143 0.327004
O O6 0.788359 0.967573 0.260145
O O7 0.810202 0.877149 0.037896
O O8 0.500000 0.000000 0.000000
O O9 0.020643 0.354442 0.329281
O O10 0.147897 0.201914 0.196227
O O11 0.802783 0.383412 0.990950
O O12 0.000000 0.500000 0.000000
O O13 0.788256 0.514585 0.652459
O O14 0.000000 0.500000 0.500000
O O15 0.004648 0.053730 0.162439
O O16 0.000000 0.000000 0.500000
#
# Coordination Sequence:
#
# PCOD9108108 Si02
#       7
#     2   2   2   2   2   2   2
#     4   9  21  39  71  93 133 168 227 275 340 392
#     4  12  24  41  64  99 133 173 228 277 336 405
#     4  10  21  39  64  96 129 177 221 272 342 400
#     4  11  23  41  61  90 141 174 216 273 347 393
#     4  10  22  42  65  96 135 174 222 280 345 397
#     4  10  22  41  69  95 131 182 219 273 343 409
#     4  10  20  40  66  99 127 176 226 274 330 408
#
# _framework density 21.337437000000001
#
# number of rings (size 3 to 8) (size 9 to 14) (size 15 to 20)
#    0.857    0.857    0.000    5.571    2.000    0.000 
#    7.714    4.286    0.000    3.429    0.000    0.000 
#    0.000    0.000    0.000    0.000    0.000    0.000 
#
# Total GULP energy -78052.138479 kJ/mol
# GULP energy per Si atom -5575.152749 kJ/mol
# Density = 2.128887 g / cm^3
# Si number density = 21.337437 Si / 1000 Ang^3
#
#
#
# Elastic Constant Matrix: (Units=GPa)
#
#
# Indices 1 2 3 4 5 6 
#
# 1 66.0397 22.0140 25.5958 1.4077 13.3100 -2.8684
# 2 22.0140 155.5046 59.0796 1.5902 23.7415 -13.7233
# 3 25.5958 59.0796 114.4366 4.4384 24.0925 -23.2005
# 4 1.4077 1.5902 4.4384 40.5810 2.2328 0.6361
# 5 13.3100 23.7415 24.0925 2.2328 45.4449 -9.3817
# 6 -2.8684 -13.7233 -23.2005 0.6361 -9.3817 14.2607
#
#
#
# Elastic Compliance Matrix: (Units=1/GPa)
#
#
# Indices 1 2 3 4 5 6 
#
# 1 0.017467 -0.000967 -0.003871 0.000166 -0.003859 -0.006261
# 2 -0.000967 0.008264 -0.003475 0.000191 -0.002047 0.000751
# 3 -0.003871 -0.003475 0.016007 -0.001756 -0.001053 0.021306
# 4 0.000166 0.000191 -0.001756 0.024972 -0.001411 -0.004682
# 5 -0.003859 -0.002047 -0.001053 -0.001411 0.027684 0.013817
# 6 -0.006261 0.000751 0.021306 -0.004682 0.013817 0.113546
#
#
# Mechanical properties :
#
#
# Convention : Reuss Voigt Hill
#
# Bulk Modulus (GPa) = 39.81892 61.03997 50.42945
# Shear Modulus (GPa) = 21.46494 35.34343 28.40419
#
# Velocity S-wave (km/s) = 3.17515 4.07431 3.65251
# Velocity P-wave (km/s) = 5.66958 7.12758 6.43998
#
# Compressibility (1/GPa) = 0.02511369
#
# Stress axis : x y z
#
# Youngs Moduli (GPa) = 57.24947 121.00016 62.47177
#
# Poissons Ratio (x) = 0.11703 0.24182
# Poissons Ratio (y) = 0.05537 0.21707
# Poissons Ratio (z) = 0.22161 0.42043
#
# Static dielectric constant tensor:
#      x y z
#    x 1.796210 0.028700 0.010480 
#    y 0.028700 1.784690 -0.017250 
#    z 0.010480 -0.017250 1.808630 
# 
# From -- ./inp_files/175445.got.cif
#   From: 2010.05.17/outbox.cif.g08.bks.cpg/sg2_88_cif.got.tgz:175445.got - 2010.06.03 11:33:40.
