data_PCOD9108533
_publ_section_title
;
Structure prediction by ZEFSAII (Michael W. Deem and Ramdas Pophale) SiO2 
 PCOD9108533
Probable space group: P -1
;
_chemical_formula_sum "Si O2"
_cell_formula_units_Z 16
_cell_length_a 18.633166
_cell_length_b 9.654085
_cell_length_c 5.057619
_cell_angle_alpha 75.950223
_cell_angle_beta 81.243150
_cell_angle_gamma 41.587189
_cell_volume 585.211768
_symmetry_space_group_name_H-M "P -1"
_symmetry_group_IT_number 2
_symmetry_cell_setting 'triclinic'
loop_
_space_group_symop_operation_xyz
x,y,z
-x,-y,-z
loop_
_atom_site_type_symbol
_atom_site_label
_atom_site_fract_x
_atom_site_fract_y
_atom_site_fract_z
Si Si1 0.243296 0.262622 0.916161
Si Si2 0.994115 0.822791 0.908086
Si Si3 0.906884 0.701123 0.644597
Si Si4 0.751597 0.287098 0.851198
Si Si5 0.426195 0.881877 0.676518
Si Si6 0.701706 0.185340 0.418882
Si Si7 0.404190 0.187180 0.167283
Si Si8 0.136409 0.621338 0.444941
O O1 0.181434 0.405586 0.626612
O O2 0.339076 0.015654 0.900649
O O3 0.163494 0.307628 0.144644
O O4 0.298465 0.321821 0.984901
O O5 0.960575 0.725216 0.825628
O O6 0.054073 0.725577 0.199474
O O7 0.075065 0.772814 0.668119
O O8 0.881768 0.067412 0.894058
O O9 0.000000 0.500000 0.500000
O O10 0.815287 0.930814 0.441236
O O11 0.703844 0.252247 0.673233
O O12 0.760460 0.434945 0.669155
O O13 0.704101 0.308118 0.146628
O O14 0.396531 0.781583 0.587159
O O15 0.546905 0.737119 0.777937
O O16 0.400994 0.061767 0.437571
O O17 0.500000 0.000000 0.000000
#
# Coordination Sequence:
#
# PCOD9108533 Si02
#       8
#     2   2   2   2   2   2   2   2
#     4  11  25  41  68 100 145 173 222 280 352 410
#     4  11  25  42  63  90 127 186 237 284 321 389
#     4  11  26  45  63 101 145 183 223 276 353 403
#     4  11  24  46  64  91 126 183 243 278 322 382
#     4  10  20  40  69 105 133 167 224 273 356 410
#     4  11  23  42  70  93 133 176 228 284 324 404
#     4   9  20  39  67 102 135 173 207 278 350 426
#     4  12  27  43  66  91 132 181 234 285 328 393
#
# _framework density 27.340532
#
# number of rings (size 3 to 8) (size 9 to 14) (size 15 to 20)
#    0.000    1.250    1.250    4.500    8.750    1.000 
#    2.250    0.000    0.000    1.500    0.000    0.000 
#    0.000    0.000    0.000    0.000    0.000    0.000 
#
# Total GULP energy -89772.976359 kJ/mol
# GULP energy per Si atom -5610.811022 kJ/mol
# Density = 2.727830 g / cm^3
# Si number density = 27.340532 Si / 1000 Ang^3
#
#
#
# Elastic Constant Matrix: (Units=GPa)
#
#
# Indices 1 2 3 4 5 6 
#
# 1 212.3116 17.6078 60.2661 -5.0289 13.6354 -22.1071
# 2 17.6078 46.1524 21.1679 9.2113 -2.1537 -6.6299
# 3 60.2661 21.1679 170.4315 -0.5981 2.4858 -11.8473
# 4 -5.0289 9.2113 -0.5981 38.8888 -0.4231 -1.9472
# 5 13.6354 -2.1537 2.4858 -0.4231 53.2934 1.2686
# 6 -22.1071 -6.6299 -11.8473 -1.9472 1.2686 43.0315
#
#
#
# Elastic Compliance Matrix: (Units=1/GPa)
#
#
# Indices 1 2 3 4 5 6 
#
# 1 0.005654 -0.001362 -0.001642 0.001130 -0.001472 0.002337
# 2 -0.001362 0.024902 -0.002504 -0.005991 0.001373 0.002136
# 3 -0.001642 -0.002504 0.006808 0.000519 -0.000010 0.000669
# 4 0.001130 -0.005991 0.000519 0.027336 -0.000363 0.001048
# 5 -0.001472 0.001373 -0.000010 -0.000363 0.019221 -0.001130
# 6 0.002337 0.002136 0.000669 0.001048 -0.001130 0.025033
#
#
# Mechanical properties :
#
#
# Convention : Reuss Voigt Hill
#
# Bulk Modulus (GPa) = 37.95476 69.66435 53.80956
# Shear Modulus (GPa) = 38.83436 49.03299 43.93367
#
# Velocity S-wave (km/s) = 3.77290 4.23947 4.01297
# Velocity P-wave (km/s) = 5.73516 7.03560 6.41840
#
# Compressibility (1/GPa) = 0.02634715
#
# Stress axis : x y z
#
# Youngs Moduli (GPa) = 176.87255 40.15734 146.89549
#
# Poissons Ratio (x) = 0.05470 0.24123
# Poissons Ratio (y) = 0.24094 0.36779
# Poissons Ratio (z) = 0.29045 0.10054
#
# Static dielectric constant tensor:
#      x y z
#    x 2.179890 0.079860 -0.018860 
#    y 0.079860 2.260600 -0.049080 
#    z -0.018860 -0.049080 2.130800 
# 
# From -- ./inp_files/118072.got.cif
#   From: 2010.05.17/outbox.cif.g08.bks.cpg/sg2_60_cif.got.tgz:118072.got - 2010.06.03 11:33:40.
