data_PCOD9108619
_publ_section_title
;
Structure prediction by ZEFSAII (Michael W. Deem and Ramdas Pophale) SiO2 
 PCOD9108619
Probable space group: P -1
;
_chemical_formula_sum "Si O2"
_cell_formula_units_Z 13
_cell_length_a 4.926389
_cell_length_b 16.005581
_cell_length_c 8.900960
_cell_angle_alpha 44.925425
_cell_angle_beta 86.267740
_cell_angle_gamma 95.055869
_cell_volume 485.523682
_symmetry_space_group_name_H-M "P -1"
_symmetry_group_IT_number 2
_symmetry_cell_setting 'triclinic'
loop_
_space_group_symop_operation_xyz
x,y,z
-x,-y,-z
loop_
_atom_site_type_symbol
_atom_site_label
_atom_site_fract_x
_atom_site_fract_y
_atom_site_fract_z
Si Si1 0.136891 0.034064 0.291426
Si Si2 0.793030 0.578740 0.844043
Si Si3 0.698175 0.774658 0.322658
Si Si4 0.601831 0.693877 0.100154
Si Si5 0.199787 0.797268 0.481975
Si Si6 0.037475 0.540746 0.276531
Si Si7 0.000000 0.000000 0.000000
O O1 0.297738 0.923871 0.395078
O O2 0.289303 0.171413 0.125454
O O3 0.000000 0.000000 0.500000
O O4 0.950861 0.025601 0.156725
O O5 0.856127 0.565999 0.679716
O O6 0.952829 0.715401 0.691340
O O7 0.500000 0.500000 0.000000
O O8 0.000000 0.500000 0.000000
O O9 0.632575 0.695875 0.277636
O O10 0.459487 0.736164 0.505564
O O11 0.688114 0.911852 0.106259
O O12 0.025830 0.814753 0.311755
O O13 0.288125 0.652931 0.115373
O O14 0.770366 0.592173 0.167840
O O15 0.000000 0.500000 0.500000
#
# Coordination Sequence:
#
# PCOD9108619 Si02
#       7
#     2   2   2   2   2   2   1
#     4  10  24  43  73 104 152 193 241 310 372 447
#     4  12  27  46  71  98 141 191 240 300 357 434
#     4  10  20  40  69  99 140 180 234 292 356 436
#     4  11  24  43  72 110 145 183 242 304 373 443
#     4  11  24  44  69 100 138 192 242 288 371 438
#     4  12  26  46  76 105 144 189 246 309 366 438
#     4   8  20  40  64 102 136 190 240 284 360 438
#
# _framework density 26.775210999999999
#
# number of rings (size 3 to 8) (size 9 to 14) (size 15 to 20)
#    0.000    1.231    0.000    5.077    4.308    9.231 
#    0.000    3.846    0.000    0.000    0.000    0.000 
#    0.000    0.000    0.000    0.000    0.000    0.000 
#
# Total GULP energy -72398.085966 kJ/mol
# GULP energy per Si atom -5569.083536 kJ/mol
# Density = 2.671427 g / cm^3
# Si number density = 26.775211 Si / 1000 Ang^3
#
#
#
# Elastic Constant Matrix: (Units=GPa)
#
#
# Indices 1 2 3 4 5 6 
#
# 1 109.0764 5.4076 10.8987 -1.9149 -27.2548 4.3759
# 2 5.4076 104.9951 10.8719 -2.1417 -21.5114 -8.8413
# 3 10.8987 10.8719 121.1419 -1.1775 -24.6995 -0.5685
# 4 -1.9149 -2.1417 -1.1775 50.3351 4.3276 -3.7625
# 5 -27.2548 -21.5114 -24.6995 4.3276 37.6277 3.0480
# 6 4.3759 -8.8413 -0.5685 -3.7625 3.0480 34.6860
#
#
#
# Elastic Compliance Matrix: (Units=1/GPa)
#
#
# Indices 1 2 3 4 5 6 
#
# 1 0.011548 0.001140 0.000841 -0.000489 0.009792 -0.002066
# 2 0.001140 0.011084 0.000390 0.000055 0.007246 0.002057
# 3 0.000841 0.000390 0.009612 -0.000387 0.007229 -0.000526
# 4 -0.000489 0.000055 -0.000387 0.020300 -0.003118 0.002545
# 5 0.009792 0.007246 0.007229 -0.003118 0.043191 -0.003403
# 6 -0.002066 0.002057 -0.000526 0.002545 -0.003403 0.030182
#
#
# Mechanical properties :
#
#
# Convention : Reuss Voigt Hill
#
# Bulk Modulus (GPa) = 27.03648 43.28552 35.16100
# Shear Modulus (GPa) = 37.45253 45.06545 41.25899
#
# Velocity S-wave (km/s) = 3.74408 4.10702 3.92974
# Velocity P-wave (km/s) = 5.36753 6.22025 5.80955
#
# Compressibility (1/GPa) = 0.03698706
#
# Stress axis : x y z
#
# Youngs Moduli (GPa) = 86.59178 90.22027 104.03979
#
# Poissons Ratio (x) = -0.10289 -0.08747
# Poissons Ratio (y) = -0.09876 -0.04060
# Poissons Ratio (z) = -0.07280 -0.03520
#
# Static dielectric constant tensor:
#      x y z
#    x 1.914120 0.067760 -0.231390 
#    y 0.067760 1.995560 0.373990 
#    z -0.231390 0.373990 1.875420 
# 
# From -- ./inp_files/50583.got.cif
#   From: 2010.05.17/outbox.cif.g08.bks.cpg/sg2_26_cif.got.tgz:50583.got - 2010.06.03 11:33:40.
