data_PCOD9108726
_publ_section_title
;
Structure prediction by ZEFSAII (Michael W. Deem and Ramdas Pophale) SiO2 
 PCOD9108726
Probable space group: P -1
;
_chemical_formula_sum "Si O2"
_cell_formula_units_Z 10
_cell_length_a 14.390383
_cell_length_b 10.090705
_cell_length_c 18.069905
_cell_angle_alpha 25.630427
_cell_angle_beta 156.374680
_cell_angle_gamma 154.105118
_cell_volume 411.876723
_symmetry_space_group_name_H-M "P -1"
_symmetry_group_IT_number 2
_symmetry_cell_setting 'triclinic'
loop_
_space_group_symop_operation_xyz
x,y,z
-x,-y,-z
loop_
_atom_site_type_symbol
_atom_site_label
_atom_site_fract_x
_atom_site_fract_y
_atom_site_fract_z
Si Si1 0.510205 0.757417 0.976100
Si Si2 0.803790 0.348692 0.000630
Si Si3 0.566715 0.376435 0.334642
Si Si4 0.293894 0.649227 0.293212
Si Si5 0.949996 0.650362 0.597710
O O1 0.213751 0.613400 0.811794
O O2 0.586218 0.016854 0.971404
O O3 0.647086 0.001992 0.883191
O O4 0.576843 0.470740 0.207232
O O5 0.657244 0.553224 0.824534
O O6 0.000000 0.500000 0.000000
O O7 0.012978 0.378627 0.199028
O O8 0.834158 0.615338 0.449156
O O9 0.500000 0.000000 0.500000
O O10 0.500000 0.500000 0.500000
O O11 0.264045 0.646556 0.360476
O O12 0.000000 0.000000 0.500000
#
# Coordination Sequence:
#
# PCOD9108726 Si02
#       5
#     2   2   2   2   2
#     4  11  23  41  69  99 131 180 231 276 326 409
#     4  10  20  40  70  98 131 175 231 275 326 405
#     4  12  26  44  67 102 143 178 218 285 349 393
#     4  11  21  36  67 106 128 166 230 289 322 385
#     4  12  21  41  72  98 129 179 233 274 329 405
#
# _framework density 24.279108999999998
#
# number of rings (size 3 to 8) (size 9 to 14) (size 15 to 20)
#    0.000    0.800    6.000    3.000    0.000    0.800 
#    0.000    5.000    0.000    0.000    0.000    0.000 
#    0.000    0.000    0.000    0.000    0.000    0.000 
#
# Total GULP energy -55814.591472 kJ/mol
# GULP energy per Si atom -5581.459147 kJ/mol
# Density = 2.422385 g / cm^3
# Si number density = 24.279109 Si / 1000 Ang^3
#
#
#
# Elastic Constant Matrix: (Units=GPa)
#
#
# Indices 1 2 3 4 5 6 
#
# 1 70.1191 20.1290 37.7481 -7.3009 -33.0241 24.1844
# 2 20.1290 98.4783 73.0920 5.9792 1.4904 12.4976
# 3 37.7481 73.0920 163.5174 15.6350 -35.8992 14.4629
# 4 -7.3009 5.9792 15.6350 69.8643 13.2275 -13.1246
# 5 -33.0241 1.4904 -35.8992 13.2275 47.6650 -4.5777
# 6 24.1844 12.4976 14.4629 -13.1246 -4.5777 33.5877
#
#
#
# Elastic Compliance Matrix: (Units=1/GPa)
#
#
# Indices 1 2 3 4 5 6 
#
# 1 0.032906 -0.006352 0.003094 -0.005422 0.024777 -0.021404
# 2 -0.006352 0.019032 -0.010375 0.002810 -0.013473 0.001221
# 3 0.003094 -0.010375 0.014083 -0.005493 0.014152 -0.004649
# 4 -0.005422 0.002810 -0.005493 0.019123 -0.012229 0.011030
# 5 0.024777 -0.013473 0.014152 -0.012229 0.051011 -0.016747
# 6 -0.021404 0.001221 -0.004649 0.011030 -0.016747 0.048760
#
#
# Mechanical properties :
#
#
# Convention : Reuss Voigt Hill
#
# Bulk Modulus (GPa) = 25.80361 66.00588 45.90475
# Shear Modulus (GPa) = 22.21242 43.63313 32.92278
#
# Velocity S-wave (km/s) = 3.02798 4.24388 3.68640
# Velocity P-wave (km/s) = 4.78287 7.15956 6.08831
#
# Compressibility (1/GPa) = 0.03875426
#
# Stress axis : x y z
#
# Youngs Moduli (GPa) = 30.38940 52.54334 71.00981
#
# Poissons Ratio (x) = 0.33375 -0.21971
# Poissons Ratio (y) = 0.19303 0.73675
# Poissons Ratio (z) = -0.09403 0.54516
#
# Static dielectric constant tensor:
#      x y z
#    x 1.779340 0.081720 -0.042570 
#    y 0.081720 1.966760 -0.077510 
#    z -0.042570 -0.077510 1.990520 
# 
# From -- ./inp_files/167490.got.cif
#   From: 2010.05.17/outbox.cif.g08.bks.cpg/sg2_84_cif.got.tgz:167490.got - 2010.06.03 11:33:40.
