data_PCOD9108613
_publ_section_title
;
Structure prediction by ZEFSAII (Michael W. Deem and Ramdas Pophale) SiO2 
 PCOD9108613
Probable space group: P -1
;
_chemical_formula_sum "Si O2"
_cell_formula_units_Z 16
_cell_length_a 12.725557
_cell_length_b 13.043549
_cell_length_c 10.779827
_cell_angle_alpha 33.948000
_cell_angle_beta 108.840120
_cell_angle_gamma 129.635494
_cell_volume 675.261406
_symmetry_space_group_name_H-M "P -1"
_symmetry_group_IT_number 2
_symmetry_cell_setting 'triclinic'
loop_
_space_group_symop_operation_xyz
x,y,z
-x,-y,-z
loop_
_atom_site_type_symbol
_atom_site_label
_atom_site_fract_x
_atom_site_fract_y
_atom_site_fract_z
Si Si1 0.486111 0.973741 0.876406
Si Si2 0.620722 0.600155 0.833053
Si Si3 0.887317 0.180900 0.355658
Si Si4 0.204493 0.568325 0.582374
Si Si5 0.674060 0.269629 0.266831
Si Si6 0.452838 0.387080 0.736147
Si Si7 0.141778 0.703946 0.026904
Si Si8 0.128920 0.865922 0.136215
O O1 0.511828 0.787920 0.052309
O O2 0.316847 0.855727 0.904668
O O3 0.500000 0.000000 0.000000
O O4 0.628668 0.256726 0.593724
O O5 0.547238 0.582778 0.691475
O O6 0.785053 0.885364 0.636761
O O7 0.500000 0.500000 0.000000
O O8 0.655049 0.424072 0.020119
O O9 0.770472 0.212019 0.310663
O O10 0.923481 0.239001 0.164114
O O11 0.037206 0.399436 0.276757
O O12 0.238035 0.569564 0.736450
O O13 0.163598 0.737286 0.372814
O O14 0.050368 0.286902 0.760858
O O15 0.500000 0.000000 0.500000
O O16 0.500000 0.500000 0.500000
O O17 0.265142 0.173013 0.891738
O O18 0.138442 0.788589 0.077440
#
# Coordination Sequence:
#
# PCOD9108613 Si02
#       8
#     2   2   2   2   2   2   2   2
#     4  11  22  40  69 101 128 177 234 285 343 421
#     4  12  27  43  68 108 143 182 234 289 347 423
#     4  11  25  42  70  99 139 182 232 285 347 418
#     4  10  21  36  68  99 129 172 230 281 338 411
#     4  12  22  43  69  98 138 186 226 280 351 410
#     4  11  24  44  68  99 141 181 230 291 351 410
#     4  11  21  43  68 102 133 182 233 282 349 417
#     4  10  20  40  69  99 132 175 235 282 345 412
#
# _framework density 23.694527000000001
#
# number of rings (size 3 to 8) (size 9 to 14) (size 15 to 20)
#    0.000    1.000    5.000    3.750    0.000    0.000 
#    2.250    3.125    0.000    2.250    0.000    0.000 
#    0.000    0.000    0.000    0.000    0.000    0.000 
#
# Total GULP energy -89435.436954 kJ/mol
# GULP energy per Si atom -5589.714810 kJ/mol
# Density = 2.364060 g / cm^3
# Si number density = 23.694527 Si / 1000 Ang^3
#
#
#
# Elastic Constant Matrix: (Units=GPa)
#
#
# Indices 1 2 3 4 5 6 
#
# 1 76.7801 14.6982 22.4091 -7.3407 -11.9849 19.1265
# 2 14.6982 129.9859 28.9217 -2.0224 -17.5900 18.2199
# 3 22.4091 28.9217 124.2751 -24.1000 -14.7167 17.7275
# 4 -7.3407 -2.0224 -24.1000 50.1842 6.9613 -15.6687
# 5 -11.9849 -17.5900 -14.7167 6.9613 34.4796 -5.1342
# 6 19.1265 18.2199 17.7275 -15.6687 -5.1342 33.6875
#
#
#
# Elastic Compliance Matrix: (Units=1/GPa)
#
#
# Indices 1 2 3 4 5 6 
#
# 1 0.016048 0.000264 -0.001565 -0.001637 0.004100 -0.008567
# 2 0.000264 0.009159 -0.001487 -0.002351 0.003886 -0.004822
# 3 -0.001565 -0.001487 0.009831 0.003708 0.001927 -0.001462
# 4 -0.001637 -0.002351 0.003708 0.025481 -0.003610 0.011551
# 5 0.004100 0.003886 0.001927 -0.003610 0.033665 -0.001992
# 6 -0.008567 -0.004822 -0.001462 0.011551 -0.001992 0.042995
#
#
# Mechanical properties :
#
#
# Convention : Reuss Voigt Hill
#
# Bulk Modulus (GPa) = 33.94246 51.45547 42.69896
# Shear Modulus (GPa) = 32.77054 41.33774 37.05414
#
# Velocity S-wave (km/s) = 3.72296 4.18139 3.95882
# Velocity P-wave (km/s) = 5.73033 6.71382 6.24148
#
# Compressibility (1/GPa) = 0.02946162
#
# Stress axis : x y z
#
# Youngs Moduli (GPa) = 62.31293 109.17692 101.72079
#
# Poissons Ratio (x) = -0.02879 0.15920
# Poissons Ratio (y) = -0.01643 0.15126
# Poissons Ratio (z) = 0.09752 0.16235
#
# Static dielectric constant tensor:
#      x y z
#    x 1.882240 -0.060420 -0.058430 
#    y -0.060420 1.880170 -0.095350 
#    z -0.058430 -0.095350 1.864450 
# 
# From -- ./inp_files/455417.got.cif
#   From: 2010.05.17/outbox.cif.g08.bks.cpg/sg2_228_cif.got.tgz:455417.got - 2010.06.03 11:33:40.
