data_PCOD9108051
_publ_section_title
;
Structure prediction by ZEFSAII (Michael W. Deem and Ramdas Pophale) SiO2 
 PCOD9108051
Probable space group: P -1
;
_chemical_formula_sum "Si O2"
_cell_formula_units_Z 14
_cell_length_a 23.102890
_cell_length_b 5.418326
_cell_length_c 14.944901
_cell_angle_alpha 88.562234
_cell_angle_beta 20.472877
_cell_angle_gamma 80.218551
_cell_volume 594.043496
_symmetry_space_group_name_H-M "P -1"
_symmetry_group_IT_number 2
_symmetry_cell_setting 'triclinic'
loop_
_space_group_symop_operation_xyz
x,y,z
-x,-y,-z
loop_
_atom_site_type_symbol
_atom_site_label
_atom_site_fract_x
_atom_site_fract_y
_atom_site_fract_z
Si Si1 0.524544 0.247511 0.214801
Si Si2 0.833901 0.375302 0.712532
Si Si3 0.272606 0.568084 0.436818
Si Si4 0.572982 0.743308 0.961612
Si Si5 0.193045 0.252357 0.105206
Si Si6 0.635636 0.399129 0.390478
Si Si7 0.846904 0.768455 0.048480
O O1 0.361026 0.320069 0.381383
O O2 0.470479 0.485026 0.364797
O O3 0.689562 0.249162 0.916032
O O4 0.610627 0.970425 0.147576
O O5 0.847099 0.457290 0.794911
O O6 0.025887 0.203199 0.391196
O O7 0.730622 0.667349 0.808271
O O8 0.396653 0.735760 0.266097
O O9 0.318991 0.487182 0.266724
O O10 0.058366 0.697727 0.760678
O O11 0.500000 0.000000 0.000000
O O12 0.178679 0.238316 0.021046
O O13 0.500000 0.500000 0.500000
O O14 0.776065 0.544849 0.185623
O O15 0.732074 0.073441 0.247778
#
# Coordination Sequence:
#
# PCOD9108051 Si02
#       7
#     2   2   2   2   2   2   2
#     4  11  24  43  67  94 139 179 232 286 344 416
#     4  10  22  39  65 103 130 179 227 287 351 411
#     4  10  24  42  64 103 135 182 229 285 350 411
#     4  10  20  40  66  95 144 181 225 277 356 421
#     4  11  22  40  68  99 136 174 233 286 350 409
#     4  12  27  48  75 101 138 188 237 288 346 405
#     4  12  27  47  74 104 140 184 237 288 342 416
#
# _framework density 23.567298000000001
#
# number of rings (size 3 to 8) (size 9 to 14) (size 15 to 20)
#    0.000    1.143    2.857    2.571    4.000    1.143 
#    2.571    0.000    0.000    0.000    0.000    0.000 
#    0.000    0.000    0.000    0.000    0.000    0.000 
#
# Total GULP energy -78167.375373 kJ/mol
# GULP energy per Si atom -5583.383955 kJ/mol
# Density = 2.351366 g / cm^3
# Si number density = 23.567298 Si / 1000 Ang^3
#
#
#
# Elastic Constant Matrix: (Units=GPa)
#
#
# Indices 1 2 3 4 5 6 
#
# 1 96.4098 10.7836 35.9090 14.7786 -3.3175 -1.6071
# 2 10.7836 88.5633 45.3602 4.3972 -6.9194 5.3908
# 3 35.9090 45.3602 131.8148 -8.8449 -15.2376 -5.2768
# 4 14.7786 4.3972 -8.8449 31.1313 -0.8272 3.7452
# 5 -3.3175 -6.9194 -15.2376 -0.8272 48.3967 13.6954
# 6 -1.6071 5.3908 -5.2768 3.7452 13.6954 28.3341
#
#
#
# Elastic Compliance Matrix: (Units=1/GPa)
#
#
# Indices 1 2 3 4 5 6 
#
# 1 0.013117 0.000943 -0.004471 -0.007793 -0.000837 0.001167
# 2 0.000943 0.014515 -0.005477 -0.003537 0.001480 -0.003976
# 3 -0.004471 -0.005477 0.011406 0.006080 0.002327 0.000984
# 4 -0.007793 -0.003537 0.006080 0.038756 0.003013 -0.005216
# 5 -0.000837 0.001480 0.002327 0.003013 0.025120 -0.012436
# 6 0.001167 -0.003976 0.000984 -0.005216 -0.012436 0.043000
#
#
# Mechanical properties :
#
#
# Convention : Reuss Voigt Hill
#
# Bulk Modulus (GPa) = 47.55548 55.65486 51.60517
# Shear Modulus (GPa) = 29.25115 36.55476 32.90296
#
# Velocity S-wave (km/s) = 3.52685 3.94265 3.74053
# Velocity P-wave (km/s) = 6.06690 6.66277 6.37181
#
# Compressibility (1/GPa) = 0.02102807
#
# Stress axis : x y z
#
# Youngs Moduli (GPa) = 76.23434 68.89372 87.67599
#
# Poissons Ratio (x) = -0.06499 0.39200
# Poissons Ratio (y) = -0.07191 0.48023
# Poissons Ratio (z) = 0.34085 0.37735
#
# Static dielectric constant tensor:
#      x y z
#    x 1.909060 0.012350 -0.013950 
#    y 0.012350 2.025860 -0.011620 
#    z -0.013950 -0.011620 1.869800 
# 
# From -- ./inp_files/65495.got.cif
#   From: 2010.05.17/outbox.cif.g08.bks.cpg/sg2_33_cif.got.tgz:65495.got - 2010.06.03 11:33:40.
