data_PCOD9108006
_publ_section_title
;
Structure prediction by ZEFSAII (Michael W. Deem and Ramdas Pophale) SiO2 
 PCOD9108006
Probable space group: P -1
;
_chemical_formula_sum "Si O2"
_cell_formula_units_Z 15
_cell_length_a 9.884749
_cell_length_b 9.265156
_cell_length_c 10.981806
_cell_angle_alpha 96.893076
_cell_angle_beta 97.751810
_cell_angle_gamma 42.306137
_cell_volume 670.469268
_symmetry_space_group_name_H-M "P -1"
_symmetry_group_IT_number 2
_symmetry_cell_setting 'triclinic'
loop_
_space_group_symop_operation_xyz
x,y,z
-x,-y,-z
loop_
_atom_site_type_symbol
_atom_site_label
_atom_site_fract_x
_atom_site_fract_y
_atom_site_fract_z
Si Si1 0.050344 0.789163 0.123058
Si Si2 0.561260 0.422070 0.737994
Si Si3 0.550282 0.924995 0.696317
Si Si4 0.296105 0.467316 0.913404
Si Si5 0.997106 0.469300 0.760784
Si Si6 0.000000 0.500000 0.500000
Si Si7 0.410706 0.832452 0.862957
Si Si8 0.566133 0.721586 0.444372
O O1 0.203828 0.766752 0.216982
O O2 0.048323 0.630079 0.168242
O O3 0.152075 0.688980 0.994024
O O4 0.819961 0.016252 0.117625
O O5 0.425050 0.451243 0.827529
O O6 0.496261 0.640747 0.763917
O O7 0.515063 0.373615 0.604094
O O8 0.788634 0.717871 0.729999
O O9 0.435669 0.963711 0.806677
O O10 0.497213 0.857088 0.572197
O O11 0.511930 0.114233 0.658597
O O12 0.152882 0.457637 0.838455
O O13 0.451217 0.280980 0.012397
O O14 0.063701 0.369313 0.623992
O O15 0.807496 0.540095 0.462177
#
# Coordination Sequence:
#
# PCOD9108006 Si02
#       8
#     2   2   2   2   2   1   2   2
#     4  11  24  42  66  96 137 175 220 272 329 397
#     4  11  24  45  64  98 137 173 218 277 335 390
#     4  10  22  42  68  97 130 173 222 275 327 396
#     4  11  24  42  66  99 134 174 227 272 326 391
#     4  11  21  42  67  98 131 170 224 274 328 385
#     4  10  20  40  66  94 128 168 208 280 320 388
#     4  11  24  42  67  95 137 175 221 271 332 393
#     4  10  22  42  68  96 133 169 221 274 335 388
#
# _framework density 22.372391
#
# number of rings (size 3 to 8) (size 9 to 14) (size 15 to 20)
#    0.000    1.333    4.000    2.800    0.000    5.333 
#    2.400    0.667    0.000    0.000    0.000    0.000 
#    0.000    0.000    0.000    0.000    0.000    0.000 
#
# Total GULP energy -83626.455354 kJ/mol
# GULP energy per Si atom -5575.097024 kJ/mol
# Density = 2.232147 g / cm^3
# Si number density = 22.372391 Si / 1000 Ang^3
#
#
#
# Elastic Constant Matrix: (Units=GPa)
#
#
# Indices 1 2 3 4 5 6 
#
# 1 107.7780 24.1484 29.6104 -13.5861 26.2838 -10.1944
# 2 24.1484 79.4332 37.7857 -11.4178 21.7704 -18.8896
# 3 29.6104 37.7857 43.3635 -12.0152 19.7781 6.0652
# 4 -13.5861 -11.4178 -12.0152 19.7450 2.7858 -0.5756
# 5 26.2838 21.7704 19.7781 2.7858 54.9370 -10.1014
# 6 -10.1944 -18.8896 6.0652 -0.5756 -10.1014 38.7995
#
#
#
# Elastic Compliance Matrix: (Units=1/GPa)
#
#
# Indices 1 2 3 4 5 6 
#
# 1 0.013426 0.004300 -0.010620 0.005932 -0.003413 0.006480
# 2 0.004300 0.033878 -0.036503 0.000748 0.002009 0.023864
# 3 -0.010620 -0.036503 0.082000 0.022933 -0.018078 -0.037747
# 4 0.005932 0.000748 0.022933 0.071216 -0.015873 -0.004738
# 5 -0.003413 0.002009 -0.018078 -0.015873 0.028193 0.010012
# 6 0.006480 0.023864 -0.037747 -0.004738 0.010012 0.047531
#
#
# Mechanical properties :
#
#
# Convention : Reuss Voigt Hill
#
# Bulk Modulus (GPa) = 22.90651 45.96265 34.43458
# Shear Modulus (GPa) = 13.28214 31.96498 22.62356
#
# Velocity S-wave (km/s) = 2.43921 3.78401 3.18343
# Velocity P-wave (km/s) = 4.26544 6.29925 5.37934
#
# Compressibility (1/GPa) = 0.04365570
#
# Stress axis : x y z
#
# Youngs Moduli (GPa) = 74.48331 29.51749 12.19512
#
# Poissons Ratio (x) = -0.12691 0.12952
# Poissons Ratio (y) = -0.32025 0.44516
# Poissons Ratio (z) = 0.79104 1.07749
#
# Static dielectric constant tensor:
#      x y z
#    x 1.706110 0.065610 -0.049420 
#    y 0.065610 1.771540 0.048410 
#    z -0.049420 0.048410 1.851630 
# 
# From -- ./inp_files/201317.got.cif
#   From: 2010.05.17/outbox.cif.g08.bks.cpg/sg2_101_cif.got.tgz:201317.got - 2010.06.03 11:33:40.
