data_PCOD9108752
_publ_section_title
;
Structure prediction by ZEFSAII (Michael W. Deem and Ramdas Pophale) SiO2 
 PCOD9108752
Probable space group: P -1
;
_chemical_formula_sum "Si O2"
_cell_formula_units_Z 14
_cell_length_a 9.239518
_cell_length_b 7.920762
_cell_length_c 9.618552
_cell_angle_alpha 87.387160
_cell_angle_beta 62.620686
_cell_angle_gamma 62.130594
_cell_volume 539.555174
_symmetry_space_group_name_H-M "P -1"
_symmetry_group_IT_number 2
_symmetry_cell_setting 'triclinic'
loop_
_space_group_symop_operation_xyz
x,y,z
-x,-y,-z
loop_
_atom_site_type_symbol
_atom_site_label
_atom_site_fract_x
_atom_site_fract_y
_atom_site_fract_z
Si Si1 0.463834 0.341066 0.598737
Si Si2 0.238930 0.966292 0.301612
Si Si3 0.704707 0.872507 0.000936
Si Si4 0.855643 0.302102 0.131318
Si Si5 0.671653 0.038514 0.300436
Si Si6 0.985359 0.779770 0.375407
Si Si7 0.301746 0.504143 0.083243
O O1 0.500000 0.500000 0.500000
O O2 0.619313 0.211264 0.652521
O O3 0.263872 0.483266 0.753006
O O4 0.499365 0.182396 0.471075
O O5 0.335080 0.993623 0.122370
O O6 0.078545 0.918227 0.327200
O O7 0.128441 0.165747 0.432002
O O8 0.616189 0.979654 0.182592
O O9 0.684111 0.690029 0.973872
O O10 0.927495 0.788110 0.930198
O O11 0.772782 0.165101 0.218387
O O12 0.817996 0.331347 0.983511
O O13 0.827478 0.852268 0.323602
O O14 0.170475 0.570509 0.275647
O O15 0.500000 0.500000 0.000000
#
# Coordination Sequence:
#
# PCOD9108752 Si02
#       7
#     2   2   2   2   2   2   2
#     4   9  21  40  70 108 153 192 229 285 363 438
#     4  10  21  40  74 108 143 188 243 292 358 437
#     4  12  24  43  77 107 142 191 251 299 352 430
#     4  11  21  42  73 106 142 188 240 294 360 429
#     4  10  20  41  74 107 141 188 232 292 363 434
#     4  10  20  40  71 102 143 189 230 289 366 433
#     4  12  27  45  69 101 149 195 246 303 366 420
#
# _framework density 25.947301
#
# number of rings (size 3 to 8) (size 9 to 14) (size 15 to 20)
#    0.000    1.429    2.857    2.571    2.000    0.571 
#    0.000    9.286    6.286    0.000    0.000    0.000 
#    0.000    0.000    0.000    0.000    0.000    0.000 
#
# Total GULP energy -78447.955121 kJ/mol
# GULP energy per Si atom -5603.425366 kJ/mol
# Density = 2.588824 g / cm^3
# Si number density = 25.947301 Si / 1000 Ang^3
#
#
#
# Elastic Constant Matrix: (Units=GPa)
#
#
# Indices 1 2 3 4 5 6 
#
# 1 144.5456 69.3099 47.3881 6.8736 18.8735 7.8457
# 2 69.3099 82.2606 30.8875 1.6879 2.2419 3.1499
# 3 47.3881 30.8875 153.3223 33.3442 25.6515 -6.3313
# 4 6.8736 1.6879 33.3442 57.5218 3.6837 0.5298
# 5 18.8735 2.2419 25.6515 3.6837 43.2600 1.2165
# 6 7.8457 3.1499 -6.3313 0.5298 1.2165 44.6169
#
#
#
# Elastic Compliance Matrix: (Units=1/GPa)
#
#
# Indices 1 2 3 4 5 6 
#
# 1 0.012869 -0.010203 -0.001215 -0.000244 -0.004299 -0.001595
# 2 -0.010203 0.021465 -0.002297 0.001630 0.004568 -0.000191
# 3 -0.001215 -0.002297 0.009247 -0.004878 -0.004471 0.001868
# 4 -0.000244 0.001630 -0.004878 0.020125 0.001230 -0.001037
# 5 -0.004299 0.004568 -0.004471 0.001230 0.027328 -0.000961
# 6 -0.001595 -0.000191 0.001868 -0.001037 -0.000961 0.023011
#
#
# Mechanical properties :
#
#
# Convention : Reuss Voigt Hill
#
# Bulk Modulus (GPa) = 61.92455 75.03328 68.47891
# Shear Modulus (GPa) = 34.04629 44.58260 39.31444
#
# Velocity S-wave (km/s) = 3.62627 4.14961 3.89673
# Velocity P-wave (km/s) = 6.43820 7.20690 6.83337
#
# Compressibility (1/GPa) = 0.01614868
#
# Stress axis : x y z
#
# Youngs Moduli (GPa) = 77.70857 46.58702 108.14581
#
# Poissons Ratio (x) = 0.47533 0.13145
# Poissons Ratio (y) = 0.79286 0.24846
# Poissons Ratio (z) = 0.09445 0.10703
#
# Static dielectric constant tensor:
#      x y z
#    x 2.032400 -0.012220 0.006210 
#    y -0.012220 2.032680 0.001650 
#    z 0.006210 0.001650 2.128220 
# 
# From -- ./inp_files/237472.got.cif
#   From: 2010.05.17/outbox.cif.g08.bks.cpg/sg2_119_cif.got.tgz:237472.got - 2010.06.03 11:33:40.
