data_PCOD9108742
_publ_section_title
;
Structure prediction by ZEFSAII (Michael W. Deem and Ramdas Pophale) SiO2 
 PCOD9108742
Probable space group: P -1
;
_chemical_formula_sum "Si O2"
_cell_formula_units_Z 16
_cell_length_a 8.961189
_cell_length_b 26.323506
_cell_length_c 21.155495
_cell_angle_alpha 20.074241
_cell_angle_beta 151.711075
_cell_angle_gamma 139.725510
_cell_volume 746.045345
_symmetry_space_group_name_H-M "P -1"
_symmetry_group_IT_number 2
_symmetry_cell_setting 'triclinic'
loop_
_space_group_symop_operation_xyz
x,y,z
-x,-y,-z
loop_
_atom_site_type_symbol
_atom_site_label
_atom_site_fract_x
_atom_site_fract_y
_atom_site_fract_z
Si Si1 0.895497 0.881405 0.276848
Si Si2 0.691215 0.367326 0.780382
Si Si3 0.346264 0.828993 0.893826
Si Si4 0.293728 0.839087 0.722101
Si Si5 0.802175 0.937970 0.736075
Si Si6 0.726299 0.064074 0.768969
Si Si7 0.072058 0.353571 0.245302
Si Si8 0.094533 0.541365 0.797149
O O1 0.084993 0.898313 0.264279
O O2 0.926772 0.701573 0.505868
O O3 0.109612 0.921784 0.365078
O O4 0.500000 0.000000 0.000000
O O5 0.500000 0.500000 0.500000
O O6 0.984040 0.411076 0.873501
O O7 0.516083 0.316514 0.834667
O O8 0.858893 0.197504 0.006290
O O9 0.272686 0.778758 0.855536
O O10 0.591779 0.924827 0.866087
O O11 0.987143 0.977326 0.604710
O O12 0.657237 0.847799 0.837846
O O13 0.211335 0.723575 0.778046
O O14 0.500000 0.000000 0.500000
O O15 0.414122 0.213984 0.508085
O O16 0.000000 0.000000 0.000000
O O17 0.062314 0.413225 0.243782
O O18 0.000000 0.500000 0.000000
O O19 0.500000 0.500000 0.000000
#
# Coordination Sequence:
#
# PCOD9108742 Si02
#       8
#     2   2   2   2   2   2   2   2
#     4  12  26  45  71 102 139 178 233 288 350 419
#     4  12  27  44  67 100 149 187 224 289 355 411
#     4  10  22  42  68  99 138 172 232 284 342 410
#     4  10  20  40  71 100 125 176 234 289 330 402
#     4  12  23  42  72 101 129 182 239 279 339 414
#     4  11  25  42  70  99 133 185 228 282 345 415
#     4  11  23  42  69 101 140 174 227 288 351 405
#     4  12  26  44  69 104 141 185 233 286 349 414
#
# _framework density 21.446417
#
# number of rings (size 3 to 8) (size 9 to 14) (size 15 to 20)
#    0.000    0.750    2.500    5.250    5.250    0.000 
#    0.000    0.625    0.000    0.000    0.000    0.000 
#    0.000    0.000    0.000    0.000    0.000    0.000 
#
# Total GULP energy -89376.486889 kJ/mol
# GULP energy per Si atom -5586.030431 kJ/mol
# Density = 2.139760 g / cm^3
# Si number density = 21.446417 Si / 1000 Ang^3
#
#
#
# Elastic Constant Matrix: (Units=GPa)
#
#
# Indices 1 2 3 4 5 6 
#
# 1 118.0867 18.6435 28.3563 3.5301 -24.5041 2.5754
# 2 18.6435 65.2652 -5.3137 3.5167 0.8258 -12.1488
# 3 28.3563 -5.3137 83.4435 4.7796 -22.6708 -0.5109
# 4 3.5301 3.5167 4.7796 29.2153 2.2746 -2.6460
# 5 -24.5041 0.8258 -22.6708 2.2746 36.1295 3.2283
# 6 2.5754 -12.1488 -0.5109 -2.6460 3.2283 38.0719
#
#
#
# Elastic Compliance Matrix: (Units=1/GPa)
#
#
# Indices 1 2 3 4 5 6 
#
# 1 0.011046 -0.003838 -0.002166 -0.001267 0.006537 -0.002643
# 2 -0.003838 0.017803 0.001934 -0.001270 -0.002259 0.006070
# 3 -0.002166 0.001934 0.015265 -0.003106 0.008256 0.000053
# 4 -0.001267 -0.001270 -0.003106 0.035684 -0.005255 0.002564
# 5 0.006537 -0.002259 0.008256 -0.005255 0.038090 -0.004647
# 6 -0.002643 0.006070 0.000053 0.002564 -0.004647 0.028955
#
#
# Mechanical properties :
#
#
# Convention : Reuss Voigt Hill
#
# Bulk Modulus (GPa) = 27.79796 38.90752 33.35274
# Shear Modulus (GPa) = 29.94473 35.69062 32.81768
#
# Velocity S-wave (km/s) = 3.74071 4.08386 3.91604
# Velocity P-wave (km/s) = 5.62556 6.35754 6.00272
#
# Compressibility (1/GPa) = 0.03597386
#
# Stress axis : x y z
#
# Youngs Moduli (GPa) = 90.52731 56.17060 65.51038
#
# Poissons Ratio (x) = 0.21560 0.14189
# Poissons Ratio (y) = 0.34748 -0.12671
# Poissons Ratio (z) = 0.19608 -0.10865
#
# Static dielectric constant tensor:
#      x y z
#    x 1.824540 0.004100 -0.032390 
#    y 0.004100 1.710230 -0.000590 
#    z -0.032390 -0.000590 1.763720 
# 
# From -- ./inp_files/592082.got.cif
#   From: 2010.05.17/outbox.cif.g08.bks.cpg/sg2_297_cif.got.tgz:592082.got - 2010.06.03 11:33:40.
