data_PCOD9108920
_publ_section_title
;
Structure prediction by ZEFSAII (Michael W. Deem and Ramdas Pophale) SiO2 
 PCOD9108920
Probable space group: P -1
;
_chemical_formula_sum "Si O2"
_cell_formula_units_Z 16
_cell_length_a 7.159618
_cell_length_b 7.323566
_cell_length_c 14.059865
_cell_angle_alpha 101.528022
_cell_angle_beta 78.774776
_cell_angle_gamma 118.104130
_cell_volume 632.848793
_symmetry_space_group_name_H-M "P -1"
_symmetry_group_IT_number 2
_symmetry_cell_setting 'triclinic'
loop_
_space_group_symop_operation_xyz
x,y,z
-x,-y,-z
loop_
_atom_site_type_symbol
_atom_site_label
_atom_site_fract_x
_atom_site_fract_y
_atom_site_fract_z
Si Si1 0.878447 0.539595 0.299380
Si Si2 0.672926 0.739402 0.831759
Si Si3 0.033512 0.235404 0.499870
Si Si4 0.229215 0.705633 0.898140
Si Si5 0.645961 0.977546 0.402651
Si Si6 0.146863 0.093515 0.786956
Si Si7 0.169861 0.312849 0.990270
Si Si8 0.459926 0.488671 0.370199
O O1 0.014064 0.657790 0.391546
O O2 0.898956 0.397962 0.198807
O O3 0.872841 0.727489 0.256376
O O4 0.640577 0.409761 0.352402
O O5 0.482319 0.810444 0.861869
O O6 0.611128 0.563231 0.737948
O O7 0.700618 0.660864 0.924023
O O8 0.904193 0.917184 0.797969
O O9 0.261825 0.372867 0.445955
O O10 0.000000 0.000000 0.500000
O O11 0.864472 0.180658 0.427619
O O12 0.211255 0.525836 0.955322
O O13 0.084569 0.799541 0.971428
O O14 0.682905 0.969654 0.285275
O O15 0.581628 0.733115 0.404494
O O16 0.500000 0.000000 0.500000
O O17 0.222405 0.185150 0.892324
#
# Coordination Sequence:
#
# PCOD9108920 Si02
#       8
#     2   2   2   2   2   2   2   2
#     4   9  19  36  61  87 121 163 206 259 315 379
#     4  11  20  38  65  90 126 168 204 262 328 374
#     4  12  20  38  65  89 120 170 208 256 324 376
#     4   9  21  38  58  95 119 160 218 257 308 395
#     4  11  25  42  59  89 129 166 213 266 314 382
#     4  10  20  41  59  87 127 161 208 265 313 383
#     4  10  21  39  64  86 127 164 207 263 319 380
#     4  10  21  38  63  89 126 163 211 259 319 383
#
# _framework density 25.282499000000001
#
# number of rings (size 3 to 8) (size 9 to 14) (size 15 to 20)
#    0.000    1.750    3.750    1.875    0.000    2.000 
#    2.250    2.500    0.000    0.000    0.000    0.000 
#    0.000    0.000    0.000    0.000    0.000    0.000 
#
# Total GULP energy -89219.833730 kJ/mol
# GULP energy per Si atom -5576.239608 kJ/mol
# Density = 2.522496 g / cm^3
# Si number density = 25.282499 Si / 1000 Ang^3
#
#
#
# Elastic Constant Matrix: (Units=GPa)
#
#
# Indices 1 2 3 4 5 6 
#
# 1 59.1413 16.7872 54.8577 0.7270 -7.1161 4.7199
# 2 16.7872 74.0580 21.3027 -22.1303 2.5179 14.5375
# 3 54.8577 21.3027 231.1599 17.1612 -3.0396 0.3151
# 4 0.7270 -22.1303 17.1612 32.0796 13.2592 -0.7942
# 5 -7.1161 2.5179 -3.0396 13.2592 51.5622 -0.6505
# 6 4.7199 14.5375 0.3151 -0.7942 -0.6505 29.6680
#
#
#
# Elastic Compliance Matrix: (Units=1/GPa)
#
#
# Indices 1 2 3 4 5 6 
#
# 1 0.023314 -0.004533 -0.004865 -0.002667 0.003820 -0.001424
# 2 -0.004533 0.023891 -0.002760 0.020881 -0.007458 -0.010561
# 3 -0.004865 -0.002760 0.006163 -0.005573 0.001284 0.001940
# 4 -0.002667 0.020881 -0.005573 0.055007 -0.015970 -0.008626
# 5 0.003820 -0.007458 0.001284 -0.015970 0.024507 0.003143
# 6 -0.001424 -0.010561 0.001940 -0.008626 0.003143 0.038925
#
#
# Mechanical properties :
#
#
# Convention : Reuss Voigt Hill
#
# Bulk Modulus (GPa) = 34.42025 61.13938 47.77981
# Shear Modulus (GPa) = 24.29477 40.75606 32.52542
#
# Velocity S-wave (km/s) = 3.10325 4.01936 3.59064
# Velocity P-wave (km/s) = 5.14627 6.76575 6.01080
#
# Compressibility (1/GPa) = 0.02905267
#
# Stress axis : x y z
#
# Youngs Moduli (GPa) = 42.89318 41.85723 162.26226
#
# Poissons Ratio (x) = 0.18972 0.78938
# Poissons Ratio (y) = 0.19442 0.44783
# Poissons Ratio (z) = 0.20867 0.11552
#
# Static dielectric constant tensor:
#      x y z
#    x 2.175920 -0.030030 0.019230 
#    y -0.030030 2.012450 0.017930 
#    z 0.019230 0.017930 1.911390 
# 
# From -- ./inp_files/493366.got.cif
#   From: 2010.05.17/outbox.cif.g08.bks.cpg/sg2_247_cif.got.tgz:493366.got - 2010.06.03 11:33:40.
