data_PCOD9108893
_publ_section_title
;
Structure prediction by ZEFSAII (Michael W. Deem and Ramdas Pophale) SiO2 
 PCOD9108893
Probable space group: P -1
;
_chemical_formula_sum "Si O2"
_cell_formula_units_Z 14
_cell_length_a 9.450510
_cell_length_b 12.678049
_cell_length_c 11.259427
_cell_angle_alpha 143.175102
_cell_angle_beta 125.017837
_cell_angle_gamma 41.105774
_cell_volume 530.124606
_symmetry_space_group_name_H-M "P -1"
_symmetry_group_IT_number 2
_symmetry_cell_setting 'triclinic'
loop_
_space_group_symop_operation_xyz
x,y,z
-x,-y,-z
loop_
_atom_site_type_symbol
_atom_site_label
_atom_site_fract_x
_atom_site_fract_y
_atom_site_fract_z
Si Si1 0.198554 0.223468 0.175294
Si Si2 0.217758 0.622283 0.761725
Si Si3 0.370148 0.901229 0.171506
Si Si4 0.167893 0.283484 0.811776
Si Si5 0.146233 0.621951 0.454769
Si Si6 0.859054 0.990835 0.262281
Si Si7 0.372808 0.711001 0.221439
O O1 0.278823 0.358776 0.283197
O O2 0.944371 0.378417 0.228153
O O3 0.301014 0.108056 0.245896
O O4 0.223832 0.060258 0.940458
O O5 0.124760 0.672511 0.629750
O O6 0.457605 0.396030 0.686288
O O7 0.236384 0.815293 0.982146
O O8 0.620393 0.729966 0.107434
O O9 0.358875 0.896929 0.303828
O O10 0.206180 0.079978 0.718229
O O11 0.061304 0.305802 0.655650
O O12 0.000000 0.500000 0.000000
O O13 0.218424 0.760493 0.555499
O O14 0.123959 0.821921 0.231528
O O15 0.500000 0.500000 0.000000
#
# Coordination Sequence:
#
# PCOD9108893 Si02
#       7
#     2   2   2   2   2   2   2
#     4  12  23  45  74 106 145 183 231 300 356 413
#     4  11  22  43  73 111 142 178 238 295 352 414
#     4  11  23  43  76 103 140 193 231 282 365 420
#     4  12  26  49  73 103 143 192 238 289 358 427
#     4  12  27  45  71 107 142 188 240 294 348 423
#     4  12  24  48  74 101 149 187 233 295 353 417
#     4  10  20  40  76 104 137 191 230 279 360 418
#
# _framework density 26.408888000000001
#
# number of rings (size 3 to 8) (size 9 to 14) (size 15 to 20)
#    0.000    0.571    5.714    4.714    0.000    1.714 
#    0.000    7.857    0.000    0.000    0.000    0.000 
#    0.000    0.000    0.000    0.000    0.000    0.000 
#
# Total GULP energy -78415.606265 kJ/mol
# GULP energy per Si atom -5601.114733 kJ/mol
# Density = 2.634878 g / cm^3
# Si number density = 26.408888 Si / 1000 Ang^3
#
#
#
# Elastic Constant Matrix: (Units=GPa)
#
#
# Indices 1 2 3 4 5 6 
#
# 1 122.9037 53.9591 26.7711 5.5519 14.4344 2.1412
# 2 53.9591 132.4877 31.5803 7.6377 11.9851 43.7789
# 3 26.7711 31.5803 102.7388 13.4303 24.1774 5.7359
# 4 5.5519 7.6377 13.4303 39.6259 12.8649 3.9928
# 5 14.4344 11.9851 24.1774 12.8649 34.0567 10.5097
# 6 2.1412 43.7789 5.7359 3.9928 10.5097 48.6466
#
#
#
# Elastic Compliance Matrix: (Units=1/GPa)
#
#
# Indices 1 2 3 4 5 6 
#
# 1 0.011292 -0.006091 -0.000447 0.000564 -0.004370 0.005935
# 2 -0.006091 0.014952 -0.003083 -0.000930 0.004065 -0.013626
# 3 -0.000447 -0.003083 0.012733 -0.001299 -0.008256 0.003183
# 4 0.000564 -0.000930 -0.001299 0.029005 -0.010189 0.000786
# 5 -0.004370 0.004065 -0.008256 -0.010189 0.042863 -0.010916
# 6 0.005935 -0.013626 0.003183 0.000786 -0.010916 0.034476
#
#
# Mechanical properties :
#
#
# Convention : Reuss Voigt Hill
#
# Bulk Modulus (GPa) = 50.67145 64.75015 57.71080
# Shear Modulus (GPa) = 29.21567 40.85382 35.03475
#
# Velocity S-wave (km/s) = 3.32969 3.93742 3.64624
# Velocity P-wave (km/s) = 5.83193 6.72626 6.29500
#
# Compressibility (1/GPa) = 0.01973498
#
# Stress axis : x y z
#
# Youngs Moduli (GPa) = 88.55659 66.88157 78.53863
#
# Poissons Ratio (x) = 0.40736 0.03511
# Poissons Ratio (y) = 0.53938 0.24214
# Poissons Ratio (z) = 0.03958 0.20620
#
# Static dielectric constant tensor:
#      x y z
#    x 1.990970 -0.018860 -0.010070 
#    y -0.018860 2.126910 0.057250 
#    z -0.010070 0.057250 2.122190 
# 
# From -- ./inp_files/393317.got.cif
#   From: 2010.05.17/outbox.cif.g08.bks.cpg/sg2_197_cif.got.tgz:393317.got - 2010.06.03 11:33:40.
