data_PCOD9108049
_publ_section_title
;
Structure prediction by ZEFSAII (Michael W. Deem and Ramdas Pophale) SiO2 
 PCOD9108049
Probable space group: P -1
;
_chemical_formula_sum "Si O2"
_cell_formula_units_Z 16
_cell_length_a 12.199278
_cell_length_b 9.267865
_cell_length_c 11.170206
_cell_angle_alpha 61.405713
_cell_angle_beta 143.805030
_cell_angle_gamma 119.815460
_cell_volume 639.660227
_symmetry_space_group_name_H-M "P -1"
_symmetry_group_IT_number 2
_symmetry_cell_setting 'triclinic'
loop_
_space_group_symop_operation_xyz
x,y,z
-x,-y,-z
loop_
_atom_site_type_symbol
_atom_site_label
_atom_site_fract_x
_atom_site_fract_y
_atom_site_fract_z
Si Si1 0.905508 0.635391 0.516488
Si Si2 0.225013 0.884567 0.279726
Si Si3 0.827958 0.735255 0.927339
Si Si4 0.165784 0.237384 0.336513
Si Si5 0.656293 0.216584 0.123786
Si Si6 0.540925 0.995464 0.335048
Si Si7 0.137033 0.023665 0.728901
Si Si8 0.522060 0.490522 0.164609
O O1 0.862103 0.665411 0.606145
O O2 0.135083 0.667772 0.700547
O O3 0.848461 0.779652 0.321766
O O4 0.736397 0.482136 0.390976
O O5 0.179989 0.070369 0.172431
O O6 0.347078 0.891984 0.262925
O O7 0.355183 0.892263 0.507986
O O8 0.032978 0.742425 0.163486
O O9 0.815107 0.662524 0.810084
O O10 0.645829 0.651044 0.874906
O O11 0.978949 0.085234 0.225559
O O12 0.336601 0.140534 0.540001
O O13 0.547819 0.122899 0.180596
O O14 0.704103 0.073172 0.135693
O O15 0.535932 0.336895 0.908572
O O16 0.000000 0.000000 0.500000
O O17 0.500000 0.500000 0.000000
#
# Coordination Sequence:
#
# PCOD9108049 Si02
#       8
#     2   2   2   2   2   2   2   2
#     4  10  21  42  64  94 125 165 201 260 311 358
#     4   9  21  35  63  85 121 159 207 258 300 356
#     4  10  22  42  55  88 125 163 204 256 303 361
#     4   9  17  37  66  86 121 152 205 261 304 353
#     4  10  20  40  65  91 125 157 205 257 305 368
#     4  10  16  35  62  96 111 154 211 249 310 361
#     4   8  15  35  64  94 113 150 205 251 308 347
#     4  12  28  41  58  93 129 167 211 241 313 384
#
# _framework density 25.013280000000002
#
# number of rings (size 3 to 8) (size 9 to 14) (size 15 to 20)
#    0.000    2.500    3.750    0.750    1.750    3.500 
#   11.250    2.500    0.000    0.000    0.000    0.000 
#    0.000    0.000    0.000    0.000    0.000    0.000 
#
# Total GULP energy -89389.285766 kJ/mol
# GULP energy per Si atom -5586.830360 kJ/mol
# Density = 2.495635 g / cm^3
# Si number density = 25.013280 Si / 1000 Ang^3
#
#
#
# Elastic Constant Matrix: (Units=GPa)
#
#
# Indices 1 2 3 4 5 6 
#
# 1 118.2829 14.1607 11.7005 7.2766 -10.7652 29.3468
# 2 14.1607 58.9203 31.3492 20.8594 -8.6686 25.6754
# 3 11.7005 31.3492 100.1211 21.9006 2.9693 12.5961
# 4 7.2766 20.8594 21.9006 35.1781 2.5301 18.2987
# 5 -10.7652 -8.6686 2.9693 2.5301 35.5890 -8.0202
# 6 29.3468 25.6754 12.5961 18.2987 -8.0202 40.7623
#
#
#
# Elastic Compliance Matrix: (Units=1/GPa)
#
#
# Indices 1 2 3 4 5 6 
#
# 1 0.010586 0.001300 -0.001055 0.002167 0.001470 -0.008798
# 2 0.001300 0.028967 -0.006168 -0.007293 0.005574 -0.012905
# 3 -0.001055 -0.006168 0.012952 -0.005468 -0.001900 0.002723
# 4 0.002167 -0.007293 -0.005468 0.045135 -0.007717 -0.017056
# 5 0.001470 0.005574 -0.001900 -0.007717 0.031906 0.005760
# 6 -0.008798 -0.012905 0.002723 -0.017056 0.005760 0.046944
#
#
# Mechanical properties :
#
#
# Convention : Reuss Voigt Hill
#
# Bulk Modulus (GPa) = 24.59452 43.52722 34.06087
# Shear Modulus (GPa) = 24.76596 36.98014 30.87305
#
# Velocity S-wave (km/s) = 3.15002 3.84919 3.51702
# Velocity P-wave (km/s) = 4.80459 6.09873 5.48993
#
# Compressibility (1/GPa) = 0.04065947
#
# Stress axis : x y z
#
# Youngs Moduli (GPa) = 94.46108 34.52183 77.20618
#
# Poissons Ratio (x) = -0.04488 0.08145
# Poissons Ratio (y) = -0.12280 0.47623
# Poissons Ratio (z) = 0.09965 0.21294
#
# Static dielectric constant tensor:
#      x y z
#    x 1.981390 -0.037410 0.025020 
#    y -0.037410 2.130090 0.024790 
#    z 0.025020 0.024790 2.055110 
# 
# From -- ./inp_files/427907.got.cif
#   From: 2010.05.17/outbox.cif.g08.bks.cpg/sg2_214_cif.got.tgz:427907.got - 2010.06.03 11:33:40.
