data_PCOD9108192
_publ_section_title
;
Structure prediction by ZEFSAII (Michael W. Deem and Ramdas Pophale) SiO2 
 PCOD9108192
Probable space group: P -1
;
_chemical_formula_sum "Si O2"
_cell_formula_units_Z 13
_cell_length_a 10.154838
_cell_length_b 7.451914
_cell_length_c 16.376733
_cell_angle_alpha 134.955921
_cell_angle_beta 135.807949
_cell_angle_gamma 78.118213
_cell_volume 484.576164
_symmetry_space_group_name_H-M "P -1"
_symmetry_group_IT_number 2
_symmetry_cell_setting 'triclinic'
loop_
_space_group_symop_operation_xyz
x,y,z
-x,-y,-z
loop_
_atom_site_type_symbol
_atom_site_label
_atom_site_fract_x
_atom_site_fract_y
_atom_site_fract_z
Si Si1 0.796484 0.390435 0.002028
Si Si2 0.568591 0.278454 0.291748
Si Si3 0.500000 0.000000 0.000000
Si Si4 0.018631 0.768286 0.751874
Si Si5 0.984839 0.178097 0.624853
Si Si6 0.772568 0.609783 0.743602
Si Si7 0.488635 0.930605 0.376300
O O1 0.560418 0.065548 0.830902
O O2 0.733046 0.344223 0.863349
O O3 0.852964 0.683141 0.176985
O O4 0.032130 0.411080 0.131650
O O5 0.616480 0.218997 0.203990
O O6 0.813260 0.577915 0.533910
O O7 0.373971 0.337377 0.243267
O O8 0.720359 0.969803 0.079831
O O9 0.050367 0.506663 0.719540
O O10 0.921854 0.851133 0.812419
O O11 0.713774 0.941580 0.458738
O O12 0.000000 0.000000 0.500000
O O13 0.579049 0.283984 0.502379
O O14 0.500000 0.000000 0.500000
#
# Coordination Sequence:
#
# PCOD9108192 Si02
#       7
#     2   2   1   2   2   2   2
#     4  10  20  40  67  91 130 167 212 270 328 376
#     4  12  21  40  64  95 130 169 210 263 332 387
#     4  12  24  36  58  92 140 160 214 256 312 398
#     4  10  22  40  60  95 126 170 213 265 315 382
#     4  10  22  41  64  88 125 175 221 258 320 389
#     4  10  22  37  68  94 124 171 214 260 330 393
#     4  10  22  41  62  94 127 164 222 274 307 384
#
# _framework density 26.827567999999999
#
# number of rings (size 3 to 8) (size 9 to 14) (size 15 to 20)
#    0.000    1.846    6.154    1.385    0.000    4.308 
#    0.000    1.538    0.000    1.846    0.000    0.000 
#    0.000    0.000    0.000    0.000    0.000    0.000 
#
# Total GULP energy -72373.257574 kJ/mol
# GULP energy per Si atom -5567.173660 kJ/mol
# Density = 2.676651 g / cm^3
# Si number density = 26.827568 Si / 1000 Ang^3
#
#
#
# Elastic Constant Matrix: (Units=GPa)
#
#
# Indices 1 2 3 4 5 6 
#
# 1 170.1345 8.9805 54.0507 -15.1908 -46.0223 -11.5204
# 2 8.9805 44.0418 19.4753 -5.9542 -13.0927 2.4112
# 3 54.0507 19.4753 190.2880 -38.3584 -27.7892 7.9950
# 4 -15.1908 -5.9542 -38.3584 37.6659 -2.4889 -9.5581
# 5 -46.0223 -13.0927 -27.7892 -2.4889 59.7303 1.2677
# 6 -11.5204 2.4112 7.9950 -9.5581 1.2677 15.5942
#
#
#
# Elastic Compliance Matrix: (Units=1/GPa)
#
#
# Indices 1 2 3 4 5 6 
#
# 1 0.009216 0.000820 -0.000926 0.005959 0.006880 0.010249
# 2 0.000820 0.025302 -0.001321 0.003053 0.005717 -0.001223
# 3 -0.000926 -0.001321 0.007527 0.007234 0.002803 -0.000133
# 4 0.005959 0.003053 0.007234 0.044180 0.009904 0.026495
# 5 0.006880 0.005717 0.002803 0.009904 0.024868 0.006811
# 6 0.010249 -0.001223 -0.000133 0.026495 0.006811 0.087641
#
#
# Mechanical properties :
#
#
# Convention : Reuss Voigt Hill
#
# Bulk Modulus (GPa) = 25.51662 63.27525 44.39594
# Shear Modulus (GPa) = 23.29366 44.06195 33.67780
#
# Velocity S-wave (km/s) = 2.94984 4.05707 3.54693
# Velocity P-wave (km/s) = 4.59718 6.75155 5.77571
#
# Compressibility (1/GPa) = 0.03919014
#
# Stress axis : x y z
#
# Youngs Moduli (GPa) = 108.50740 39.52309 132.86130
#
# Poissons Ratio (x) = -0.03242 0.12308
# Poissons Ratio (y) = -0.08901 0.17550
# Poissons Ratio (z) = 0.10052 0.05221
#
# Static dielectric constant tensor:
#      x y z
#    x 2.235760 0.179890 0.094830 
#    y 0.179890 2.434780 0.077410 
#    z 0.094830 0.077410 2.075320 
# 
# From -- ./inp_files/565603.got.cif
#   From: 2010.05.17/outbox.cif.g08.bks.cpg/sg2_283_cif.got.tgz:565603.got - 2010.06.03 11:33:40.
