data_PCOD9108880
_publ_section_title
;
Structure prediction by ZEFSAII (Michael W. Deem and Ramdas Pophale) SiO2 
 PCOD9108880
Probable space group: P -1
;
_chemical_formula_sum "Si O2"
_cell_formula_units_Z 15
_cell_length_a 10.158435
_cell_length_b 12.580766
_cell_length_c 9.266804
_cell_angle_alpha 51.823690
_cell_angle_beta 124.292540
_cell_angle_gamma 133.310946
_cell_volume 656.996320
_symmetry_space_group_name_H-M "P -1"
_symmetry_group_IT_number 2
_symmetry_cell_setting 'triclinic'
loop_
_space_group_symop_operation_xyz
x,y,z
-x,-y,-z
loop_
_atom_site_type_symbol
_atom_site_label
_atom_site_fract_x
_atom_site_fract_y
_atom_site_fract_z
Si Si1 0.994096 0.990041 0.332084
Si Si2 0.339671 0.826064 0.002480
Si Si3 0.148910 0.772817 0.637897
Si Si4 0.500000 0.000000 0.500000
Si Si5 0.362404 0.207514 0.245261
Si Si6 0.071823 0.586406 0.270649
Si Si7 0.273728 0.481825 0.707513
Si Si8 0.349715 0.208792 0.902377
O O1 0.803144 0.928426 0.179842
O O2 0.034732 0.849148 0.444014
O O3 0.000000 0.000000 0.500000
O O4 0.161470 0.153772 0.231884
O O5 0.203755 0.728714 0.129188
O O6 0.449362 0.743184 0.076713
O O7 0.221726 0.832433 0.792562
O O8 0.500000 0.000000 0.000000
O O9 0.031302 0.583699 0.728537
O O10 0.323428 0.830873 0.590758
O O11 0.418296 0.094844 0.456797
O O12 0.528884 0.386238 0.212438
O O13 0.336067 0.150625 0.109029
O O14 0.204092 0.566936 0.483025
O O15 0.905401 0.600755 0.227256
O O16 0.313657 0.352942 0.771837
#
# Coordination Sequence:
#
# PCOD9108880 Si02
#       8
#     2   2   2   1   2   2   2   2
#     4  11  26  43  68 103 146 186 238 290 362 422
#     4  12  28  43  72 105 143 185 245 298 363 422
#     4  11  22  45  67 100 137 190 226 291 355 426
#     4  10  20  40  74  96 132 178 236 276 348 416
#     4  11  24  42  73 101 145 183 237 297 350 431
#     4  11  25  45  71 103 146 188 238 294 359 440
#     4  11  25  44  73 107 139 194 239 295 364 425
#     4  12  25  47  70 108 141 188 243 299 362 421
#
# _framework density 22.83118
#
# number of rings (size 3 to 8) (size 9 to 14) (size 15 to 20)
#    0.000    0.800    4.000    2.000    5.600    4.800 
#    0.000    0.000    0.000    0.000    0.000    0.000 
#    0.000    0.000    0.000    0.000    0.000    0.000 
#
# Total GULP energy -83615.704842 kJ/mol
# GULP energy per Si atom -5574.380323 kJ/mol
# Density = 2.277921 g / cm^3
# Si number density = 22.831180 Si / 1000 Ang^3
#
#
#
# Elastic Constant Matrix: (Units=GPa)
#
#
# Indices 1 2 3 4 5 6 
#
# 1 99.0845 37.8897 55.8705 -7.7265 -8.4292 21.7820
# 2 37.8897 135.2735 40.7838 5.4706 -11.6884 18.0683
# 3 55.8705 40.7838 58.0997 3.7299 -8.2340 17.3806
# 4 -7.7265 5.4706 3.7299 41.9923 -3.1335 -2.4208
# 5 -8.4292 -11.6884 -8.2340 -3.1335 41.8391 -9.8191
# 6 21.7820 18.0683 17.3806 -2.4208 -9.8191 41.6300
#
#
#
# Elastic Compliance Matrix: (Units=1/GPa)
#
#
# Indices 1 2 3 4 5 6 
#
# 1 0.023920 0.000295 -0.022761 0.006247 0.000252 -0.002718
# 2 0.000295 0.009536 -0.006358 -0.000623 0.001093 -0.001417
# 3 -0.022761 -0.006358 0.045553 -0.007597 0.000963 -0.004564
# 4 0.006247 -0.000623 -0.007597 0.025997 0.002045 0.002168
# 5 0.000252 0.001093 0.000963 0.002045 0.025820 0.005201
# 6 -0.002718 -0.001417 -0.004564 0.002168 0.005201 0.029316
#
#
# Mechanical properties :
#
#
# Convention : Reuss Voigt Hill
#
# Bulk Modulus (GPa) = 46.82018 62.39395 54.60707
# Shear Modulus (GPa) = 22.23090 35.61986 28.92538
#
# Velocity S-wave (km/s) = 3.12381 3.95415 3.56325
# Velocity P-wave (km/s) = 5.79332 6.94513 6.39521
#
# Compressibility (1/GPa) = 0.02135831
#
# Stress axis : x y z
#
# Youngs Moduli (GPa) = 41.80563 104.86830 21.95259
#
# Poissons Ratio (x) = -0.03089 0.49967
# Poissons Ratio (y) = -0.01232 0.13958
# Poissons Ratio (z) = 0.95156 0.66679
#
# Static dielectric constant tensor:
#      x y z
#    x 1.876580 0.007780 0.063860 
#    y 0.007780 1.870290 0.016360 
#    z 0.063860 0.016360 1.953470 
# 
# From -- ./inp_files/185430.got.cif
#   From: 2010.05.17/outbox.cif.g08.bks.cpg/sg2_93_cif.got.tgz:185430.got - 2010.06.03 11:33:40.
