data_PCOD9108002
_publ_section_title
;
Structure prediction by ZEFSAII (Michael W. Deem and Ramdas Pophale) SiO2 
 PCOD9108002
Probable space group: P -1
;
_chemical_formula_sum "Si O2"
_cell_formula_units_Z 14
_cell_length_a 8.363451
_cell_length_b 9.100744
_cell_length_c 18.378661
_cell_angle_alpha 46.415741
_cell_angle_beta 59.436422
_cell_angle_gamma 91.359407
_cell_volume 697.944068
_symmetry_space_group_name_H-M "P -1"
_symmetry_group_IT_number 2
_symmetry_cell_setting 'triclinic'
loop_
_space_group_symop_operation_xyz
x,y,z
-x,-y,-z
loop_
_atom_site_type_symbol
_atom_site_label
_atom_site_fract_x
_atom_site_fract_y
_atom_site_fract_z
Si Si1 0.662295 0.502516 0.900523
Si Si2 0.985694 0.041366 0.573418
Si Si3 0.696957 0.072136 0.086442
Si Si4 0.658130 0.902757 0.999345
Si Si5 0.374151 0.374859 0.483783
Si Si6 0.836298 0.846428 0.246029
Si Si7 0.245690 0.731086 0.393413
O O1 0.870535 0.784357 0.733166
O O2 0.500000 0.500000 0.000000
O O3 0.755296 0.341712 0.959594
O O4 0.500165 0.364239 0.913848
O O5 0.810592 0.117090 0.595350
O O6 0.000000 0.000000 0.500000
O O7 0.230690 0.255025 0.483497
O O8 0.826014 0.045438 0.132285
O O9 0.427154 0.910745 0.228027
O O10 0.715131 0.931842 0.061741
O O11 0.904429 0.071449 0.843964
O O12 0.500000 0.000000 0.000000
O O13 0.652864 0.564450 0.348983
O O14 0.246622 0.165988 0.647880
O O15 0.342452 0.584255 0.450752
O O16 0.000000 0.500000 0.500000
#
# Coordination Sequence:
#
# PCOD9108002 Si02
#       7
#     2   2   2   2   2   2   2
#     4  11  22  39  62  91 134 165 208 262 319 386
#     4  11  23  38  63  96 130 165 214 264 318 377
#     4  10  21  39  60  94 119 171 213 263 318 367
#     4  10  23  36  64  92 123 162 216 263 309 372
#     4   9  21  39  67  87 125 171 212 260 318 375
#     4  10  20  40  66  94 125 162 221 264 314 375
#     4   9  19  34  62  84 121 162 218 254 304 366
#
# _framework density 20.058914000000001
#
# number of rings (size 3 to 8) (size 9 to 14) (size 15 to 20)
#    0.000    2.000    1.429    1.286   12.000    1.143 
#    0.000    2.857    0.000   11.143    0.000    0.000 
#    0.000    0.000    0.000    0.000    0.000    0.000 
#
# Total GULP energy -77956.731720 kJ/mol
# GULP energy per Si atom -5568.337980 kJ/mol
# Density = 2.001326 g / cm^3
# Si number density = 20.058914 Si / 1000 Ang^3
#
#
#
# Elastic Constant Matrix: (Units=GPa)
#
#
# Indices 1 2 3 4 5 6 
#
# 1 68.9032 14.7837 25.0870 -6.0744 2.1602 5.2759
# 2 14.7837 102.9786 18.1277 -0.2039 6.9785 3.8535
# 3 25.0870 18.1277 73.5207 -10.5244 -4.2680 -9.3936
# 4 -6.0744 -0.2039 -10.5244 25.9320 1.6560 1.6287
# 5 2.1602 6.9785 -4.2680 1.6560 48.8668 0.2871
# 6 5.2759 3.8535 -9.3936 1.6287 0.2871 24.0222
#
#
#
# Elastic Compliance Matrix: (Units=1/GPa)
#
#
# Indices 1 2 3 4 5 6 
#
# 1 0.017778 -0.001104 -0.006384 0.002041 -0.001218 -0.006347
# 2 -0.001104 0.010561 -0.002786 -0.001047 -0.001653 -0.002450
# 3 -0.006384 -0.002786 0.018454 0.005295 0.002061 0.008681
# 4 0.002041 -0.001047 0.005295 0.041300 -0.000872 -0.000999
# 5 -0.001218 -0.001653 0.002061 -0.000872 0.020957 0.001147
# 6 -0.006347 -0.002450 0.008681 -0.000999 0.001147 0.046864
#
#
# Mechanical properties :
#
#
# Convention : Reuss Voigt Hill
#
# Bulk Modulus (GPa) = 38.10219 40.15548 39.12883
# Shear Modulus (GPa) = 26.99629 32.25780 29.62705
#
# Velocity S-wave (km/s) = 3.67256 4.01453 3.84735
# Velocity P-wave (km/s) = 6.08441 6.44599 6.26781
#
# Compressibility (1/GPa) = 0.02624521
#
# Stress axis : x y z
#
# Youngs Moduli (GPa) = 56.24792 94.68450 54.18985
#
# Poissons Ratio (x) = 0.10458 0.34592
# Poissons Ratio (y) = 0.06213 0.15098
# Poissons Ratio (z) = 0.35906 0.26380
#
# Static dielectric constant tensor:
#      x y z
#    x 1.760440 0.025110 0.037400 
#    y 0.025110 1.719500 -0.001520 
#    z 0.037400 -0.001520 1.755870 
# 
# From -- ./inp_files/180261.got.cif
#   From: 2010.05.17/outbox.cif.g08.bks.cpg/sg2_91_cif.got.tgz:180261.got - 2010.06.03 11:33:40.
