data_PCOD9108510
_publ_section_title
;
Structure prediction by ZEFSAII (Michael W. Deem and Ramdas Pophale) SiO2 
 PCOD9108510
Probable space group: P -1
;
_chemical_formula_sum "Si O2"
_cell_formula_units_Z 16
_cell_length_a 18.129980
_cell_length_b 12.968330
_cell_length_c 9.221269
_cell_angle_alpha 62.333058
_cell_angle_beta 120.972740
_cell_angle_gamma 160.241447
_cell_volume 626.925004
_symmetry_space_group_name_H-M "P -1"
_symmetry_group_IT_number 2
_symmetry_cell_setting 'triclinic'
loop_
_space_group_symop_operation_xyz
x,y,z
-x,-y,-z
loop_
_atom_site_type_symbol
_atom_site_label
_atom_site_fract_x
_atom_site_fract_y
_atom_site_fract_z
Si Si1 0.947258 0.193073 0.529915
Si Si2 0.065086 0.406098 0.075004
Si Si3 0.630985 0.877057 0.634796
Si Si4 0.270635 0.451401 0.122429
Si Si5 0.377680 0.635624 0.802900
Si Si6 0.512764 0.055473 0.644043
Si Si7 0.222785 0.235843 0.487532
Si Si8 0.781844 0.165297 0.179361
O O1 0.941371 0.309589 0.369611
O O2 0.176626 0.408996 0.633410
O O3 0.857748 0.101609 0.661040
O O4 0.784677 0.911639 0.447962
O O5 0.845836 0.176630 0.088418
O O6 0.248917 0.620541 0.251046
O O7 0.150576 0.617838 0.922184
O O8 0.078059 0.303698 0.066478
O O9 0.577009 0.832202 0.777530
O O10 0.433862 0.549076 0.584666
O O11 0.617053 0.985233 0.470033
O O12 0.232388 0.298527 0.293454
O O13 0.517918 0.816625 0.170069
O O14 0.289879 0.452427 0.969843
O O15 0.430318 0.833308 0.783021
O O16 0.500000 0.000000 0.500000
O O17 0.000000 0.000000 0.500000
#
# Coordination Sequence:
#
# PCOD9108510 Si02
#       8
#     2   2   2   2   2   2   2   2
#     4  12  25  44  70 102 131 187 237 271 343 412
#     4  11  22  41  66 104 141 178 226 283 341 413
#     4  11  23  44  68 100 137 180 230 282 337 408
#     4  12  25  44  70 100 136 183 230 282 344 403
#     4  11  26  44  66 103 145 176 222 285 354 406
#     4  10  20  40  68  99 144 180 214 280 350 404
#     4  12  24  47  78  94 133 185 240 285 331 408
#     4  11  23  39  70  99 137 173 231 281 336 408
#
# _framework density 25.521394000000001
#
# number of rings (size 3 to 8) (size 9 to 14) (size 15 to 20)
#    0.000    0.750    5.000    3.000    1.750    2.000 
#    2.250    0.625    0.000    0.000    0.000    0.000 
#    0.000    0.000    0.000    0.000    0.000    0.000 
#
# Total GULP energy -89557.890425 kJ/mol
# GULP energy per Si atom -5597.368152 kJ/mol
# Density = 2.546331 g / cm^3
# Si number density = 25.521394 Si / 1000 Ang^3
#
#
#
# Elastic Constant Matrix: (Units=GPa)
#
#
# Indices 1 2 3 4 5 6 
#
# 1 96.0448 6.7952 -1.6476 -5.1740 -26.3241 16.4672
# 2 6.7952 33.9033 0.1524 -7.4502 -5.1149 2.7458
# 3 -1.6476 0.1524 133.4883 -6.3123 -19.9433 -5.0014
# 4 -5.1740 -7.4502 -6.3123 35.4904 -3.3968 -8.1817
# 5 -26.3241 -5.1149 -19.9433 -3.3968 29.0352 -6.3592
# 6 16.4672 2.7458 -5.0014 -8.1817 -6.3592 35.5009
#
#
#
# Elastic Compliance Matrix: (Units=1/GPa)
#
#
# Indices 1 2 3 4 5 6 
#
# 1 0.015422 0.000262 0.002546 0.003491 0.015476 -0.003238
# 2 0.000262 0.032383 0.001612 0.008126 0.008206 0.000944
# 3 0.002546 0.001612 0.009310 0.003953 0.010044 0.002716
# 4 0.003491 0.008126 0.003953 0.034339 0.013210 0.008589
# 5 0.015476 0.008206 0.010044 0.013210 0.059981 0.007390
# 6 -0.003238 0.000944 0.002716 0.008589 0.007390 0.033284
#
#
# Mechanical properties :
#
#
# Convention : Reuss Voigt Hill
#
# Bulk Modulus (GPa) = 15.16201 30.44848 22.80524
# Shear Modulus (GPa) = 25.26985 37.21439 31.24212
#
# Velocity S-wave (km/s) = 3.15007 3.82273 3.50259
# Velocity P-wave (km/s) = 4.38000 5.60722 5.03117
#
# Compressibility (1/GPa) = 0.06595432
#
# Stress axis : x y z
#
# Youngs Moduli (GPa) = 64.84289 30.88017 107.40878
#
# Poissons Ratio (x) = -0.00808 -0.27345
# Poissons Ratio (y) = -0.01697 -0.17313
# Poissons Ratio (z) = -0.16508 -0.04978
#
# Static dielectric constant tensor:
#      x y z
#    x 1.984740 0.005180 -0.042400 
#    y 0.005180 2.040570 0.002420 
#    z -0.042400 0.002420 2.012100 
# 
# From -- ./inp_files/347545.got.cif
#   From: 2010.05.17/outbox.cif.g08.bks.cpg/sg2_174_cif.got.tgz:347545.got - 2010.06.03 11:33:40.
