data_PCOD9108068
_publ_section_title
;
Structure prediction by ZEFSAII (Michael W. Deem and Ramdas Pophale) SiO2 
 PCOD9108068
Probable space group: P -1
;
_chemical_formula_sum "Si O2"
_cell_formula_units_Z 12
_cell_length_a 10.492759
_cell_length_b 8.779790
_cell_length_c 4.695420
_cell_angle_alpha 92.395455
_cell_angle_beta 85.136771
_cell_angle_gamma 71.037099
_cell_volume 406.508470
_symmetry_space_group_name_H-M "P -1"
_symmetry_group_IT_number 2
_symmetry_cell_setting 'triclinic'
loop_
_space_group_symop_operation_xyz
x,y,z
-x,-y,-z
loop_
_atom_site_type_symbol
_atom_site_label
_atom_site_fract_x
_atom_site_fract_y
_atom_site_fract_z
Si Si1 0.299189 0.218541 0.160271
Si Si2 0.292703 0.417102 0.674007
Si Si3 0.500000 0.500000 0.000000
Si Si4 0.169730 0.913407 0.779167
Si Si5 0.021552 0.243340 0.510290
Si Si6 0.655587 0.134550 0.748171
Si Si7 0.000000 0.500000 0.000000
O O1 0.336938 0.357233 0.340724
O O2 0.137333 0.266686 0.272565
O O3 0.372264 0.033582 0.208832
O O4 0.318480 0.249588 0.831425
O O5 0.134673 0.492415 0.779533
O O6 0.374810 0.522359 0.796027
O O7 0.437856 0.691522 0.126924
O O8 0.313182 0.860311 0.588247
O O9 0.081074 0.812848 0.664561
O O10 0.099151 0.094710 0.693504
O O11 0.202751 0.900651 0.103916
O O12 0.959981 0.386999 0.752802
#
# Coordination Sequence:
#
# PCOD9108068 Si02
#       7
#     2   2   1   2   2   2   1
#     4  10  23  44  68  94 131 178 228 271 332 406
#     4  11  26  45  68 100 135 178 223 276 337 401
#     4  12  30  46  70 102 138 178 228 284 342 394
#     4  10  22  40  66  99 138 178 223 274 338 404
#     4   9  20  37  67 101 135 178 223 275 336 402
#     4  11  24  44  67  97 135 179 228 281 333 400
#     4  10  20  40  66  96 134 168 218 276 330 386
#
# _framework density 29.519677999999999
#
# number of rings (size 3 to 8) (size 9 to 14) (size 15 to 20)
#    0.000    1.667    0.000    4.000    0.000   19.333 
#    0.000    0.000    0.000    0.000    0.000    0.000 
#    0.000    0.000    0.000    0.000    0.000    0.000 
#
# Total GULP energy -66953.301312 kJ/mol
# GULP energy per Si atom -5579.441776 kJ/mol
# Density = 2.945249 g / cm^3
# Si number density = 29.519678 Si / 1000 Ang^3
#
#
#
# Elastic Constant Matrix: (Units=GPa)
#
#
# Indices 1 2 3 4 5 6 
#
# 1 88.4842 -14.2572 9.8776 27.2063 20.0361 -0.4434
# 2 -14.2572 171.3531 28.9087 28.4192 -13.2143 -6.6163
# 3 9.8776 28.9087 146.9925 30.9315 4.1907 1.5011
# 4 27.2063 28.4192 30.9315 65.6588 8.5310 3.2861
# 5 20.0361 -13.2143 4.1907 8.5310 51.7229 20.0101
# 6 -0.4434 -6.6163 1.5011 3.2861 20.0101 30.2125
#
#
#
# Elastic Compliance Matrix: (Units=1/GPa)
#
#
# Indices 1 2 3 4 5 6 
#
# 1 0.015164 0.002073 0.000104 -0.006676 -0.006443 0.005665
# 2 0.002073 0.006885 -0.000762 -0.003691 0.001158 0.001211
# 3 0.000104 -0.000762 0.007644 -0.003273 -0.000324 0.000026
# 4 -0.006676 -0.003691 -0.003273 0.021345 -0.000573 -0.002686
# 5 -0.006443 0.001158 -0.000324 -0.000573 0.029787 -0.019491
# 6 0.005665 0.001211 0.000026 -0.002686 -0.019491 0.046647
#
#
# Mechanical properties :
#
#
# Convention : Reuss Voigt Hill
#
# Bulk Modulus (GPa) = 30.74726 50.65421 40.70073
# Shear Modulus (GPa) = 36.90508 55.00555 45.95532
#
# Velocity S-wave (km/s) = 3.53963 4.32134 3.94987
# Velocity P-wave (km/s) = 5.20997 6.48809 5.88384
#
# Compressibility (1/GPa) = 0.03252323
#
# Stress axis : x y z
#
# Youngs Moduli (GPa) = 65.94568 145.23845 130.82604
#
# Poissons Ratio (x) = -0.30111 -0.01360
# Poissons Ratio (y) = -0.13672 0.09970
# Poissons Ratio (z) = -0.00686 0.11068
#
# Static dielectric constant tensor:
#      x y z
#    x 2.751670 -0.786450 0.168870 
#    y -0.786450 3.883880 -0.509830 
#    z 0.168870 -0.509830 2.221770 
# 
# From -- ./inp_files/49924.got.cif
#   From: 2010.05.17/outbox.cif.g08.bks.cpg/sg2_25_cif.got.tgz:49924.got - 2010.06.03 11:33:40.
