data_PCOD9108778
_publ_section_title
;
Structure prediction by ZEFSAII (Michael W. Deem and Ramdas Pophale) SiO2 
 PCOD9108778
Probable space group: P -1
;
_chemical_formula_sum "Si O2"
_cell_formula_units_Z 14
_cell_length_a 8.434619
_cell_length_b 17.289826
_cell_length_c 19.944042
_cell_angle_alpha 22.510233
_cell_angle_beta 140.916227
_cell_angle_gamma 129.457146
_cell_volume 660.703848
_symmetry_space_group_name_H-M "P -1"
_symmetry_group_IT_number 2
_symmetry_cell_setting 'triclinic'
loop_
_space_group_symop_operation_xyz
x,y,z
-x,-y,-z
loop_
_atom_site_type_symbol
_atom_site_label
_atom_site_fract_x
_atom_site_fract_y
_atom_site_fract_z
Si Si1 0.576283 0.760951 0.946801
Si Si2 0.072718 0.623591 0.704884
Si Si3 0.113616 0.782312 0.169990
Si Si4 0.190996 0.035553 0.382391
Si Si5 0.305833 0.621782 0.094405
Si Si6 0.784300 0.810843 0.585877
Si Si7 0.585721 0.436090 0.676501
O O1 0.420530 0.991526 0.679572
O O2 0.672849 0.581402 0.064731
O O3 0.411291 0.706626 0.996132
O O4 0.850523 0.748221 0.082951
O O5 0.033240 0.697274 0.710042
O O6 0.802882 0.564774 0.647534
O O7 0.107429 0.824361 0.515344
O O8 0.306423 0.596415 0.429164
O O9 0.296100 0.757283 0.182866
O O10 0.000000 0.000000 0.000000
O O11 0.139646 0.108749 0.384173
O O12 0.500000 0.000000 0.500000
O O13 0.004082 0.228870 0.121289
O O14 0.338462 0.375012 0.290969
O O15 0.436470 0.636001 0.197335
#
# Coordination Sequence:
#
# PCOD9108778 Si02
#       7
#     2   2   2   2   2   2   2
#     4  11  24  43  71  97 133 175 213 269 328 387
#     4  10  22  43  66  93 133 175 216 263 325 380
#     4  10  20  40  71  96 123 172 215 258 335 388
#     4  12  26  41  67  98 132 176 225 268 323 382
#     4  11  24  45  64  97 139 167 221 272 319 387
#     4  11  24  44  66  96 134 179 215 270 317 384
#     4   9  22  42  65  94 133 166 211 274 319 388
#
# _framework density 21.189526000000001
#
# number of rings (size 3 to 8) (size 9 to 14) (size 15 to 20)
#    0.000    1.429    1.429    3.429    6.000    1.143 
#    2.571    0.714    0.000    0.000    0.000    0.000 
#    0.000    0.000    0.000    0.000    0.000    0.000 
#
# Total GULP energy -78199.398037 kJ/mol
# GULP energy per Si atom -5585.671288 kJ/mol
# Density = 2.114130 g / cm^3
# Si number density = 21.189526 Si / 1000 Ang^3
#
#
#
# Elastic Constant Matrix: (Units=GPa)
#
#
# Indices 1 2 3 4 5 6 
#
# 1 71.7383 24.7753 52.0865 4.1508 16.5406 -12.8104
# 2 24.7753 50.2813 32.3189 4.4916 12.1605 -15.0026
# 3 52.0865 32.3189 135.3256 1.6162 9.5505 2.2758
# 4 4.1508 4.4916 1.6162 41.8589 -4.3904 6.4235
# 5 16.5406 12.1605 9.5505 -4.3904 40.1861 -8.3116
# 6 -12.8104 -15.0026 2.2758 6.4235 -8.3116 23.6864
#
#
#
# Elastic Compliance Matrix: (Units=1/GPa)
#
#
# Indices 1 2 3 4 5 6 
#
# 1 0.024676 -0.000612 -0.009122 -0.004630 -0.005594 0.013127
# 2 -0.000612 0.033354 -0.007717 -0.007034 -0.004234 0.021958
# 3 -0.009122 -0.007717 0.012831 0.003114 0.000992 -0.011550
# 4 -0.004630 -0.007034 0.003114 0.027417 0.003505 -0.013464
# 5 -0.005594 -0.004234 0.000992 0.003505 0.029349 0.003545
# 6 0.013127 0.021958 -0.011550 -0.013464 0.003545 0.069231
#
#
# Mechanical properties :
#
#
# Convention : Reuss Voigt Hill
#
# Bulk Modulus (GPa) = 27.80947 52.85630 40.33288
# Shear Modulus (GPa) = 20.51322 31.02391 25.76857
#
# Velocity S-wave (km/s) = 3.11478 3.83053 3.49104
# Velocity P-wave (km/s) = 5.10768 6.67552 5.94353
#
# Compressibility (1/GPa) = 0.03595898
#
# Stress axis : x y z
#
# Youngs Moduli (GPa) = 40.52489 29.98180 77.93805
#
# Poissons Ratio (x) = 0.01835 0.71098
# Poissons Ratio (y) = 0.02480 0.60141
# Poissons Ratio (z) = 0.36968 0.23136
#
# Static dielectric constant tensor:
#      x y z
#    x 1.832260 0.053990 0.028210 
#    y 0.053990 1.937200 -0.005290 
#    z 0.028210 -0.005290 1.751840 
# 
# From -- ./inp_files/293523.got.cif
#   From: 2010.05.17/outbox.cif.g08.bks.cpg/sg2_147_cif.got.tgz:293523.got - 2010.06.03 11:33:40.
