data_PCOD9108724
_publ_section_title
;
Structure prediction by ZEFSAII (Michael W. Deem and Ramdas Pophale) SiO2 
 PCOD9108724
Probable space group: P -1
;
_chemical_formula_sum "Si O2"
_cell_formula_units_Z 16
_cell_length_a 8.337144
_cell_length_b 9.393977
_cell_length_c 22.792811
_cell_angle_alpha 121.629079
_cell_angle_beta 31.156998
_cell_angle_gamma 124.245939
_cell_volume 759.624581
_symmetry_space_group_name_H-M "P -1"
_symmetry_group_IT_number 2
_symmetry_cell_setting 'triclinic'
loop_
_space_group_symop_operation_xyz
x,y,z
-x,-y,-z
loop_
_atom_site_type_symbol
_atom_site_label
_atom_site_fract_x
_atom_site_fract_y
_atom_site_fract_z
Si Si1 0.748728 0.378889 0.773068
Si Si2 0.720360 0.014750 0.546285
Si Si3 0.830518 0.435727 0.224357
Si Si4 0.944869 0.056557 0.679979
Si Si5 0.676378 0.365030 0.387332
Si Si6 0.973098 0.694862 0.056877
Si Si7 0.727170 0.756115 0.267490
Si Si8 0.234940 0.876197 0.905443
O O1 0.919187 0.222517 0.685082
O O2 0.379752 0.313099 0.860087
O O3 0.834810 0.451485 0.827928
O O4 0.943253 0.537564 0.705857
O O5 0.454080 0.828833 0.590430
O O6 0.871524 0.047167 0.441091
O O7 0.564265 0.169074 0.646372
O O8 0.000000 0.000000 0.500000
O O9 0.635820 0.359116 0.327645
O O10 0.654800 0.561772 0.273045
O O11 0.891721 0.293849 0.131046
O O12 0.586004 0.960546 0.789069
O O13 0.127473 0.124439 0.697169
O O14 0.500000 0.500000 0.500000
O O15 0.968407 0.757908 0.138508
O O16 0.000000 0.500000 0.000000
O O17 0.232045 0.818548 0.961310
O O18 0.000000 0.000000 0.000000
#
# Coordination Sequence:
#
# PCOD9108724 Si02
#       8
#     2   2   2   2   2   2   2   2
#     4   9  21  41  69  91 134 171 220 270 335 390
#     4  12  24  42  74 101 138 171 223 281 337 403
#     4   9  22  44  64  97 131 171 225 265 341 399
#     4  11  23  45  66 101 136 178 221 279 337 395
#     4  10  20  40  70  98 128 169 223 264 338 407
#     4  12  25  43  66  99 136 176 229 281 326 397
#     4  11  25  44  67  97 138 178 219 280 343 396
#     4  12  25  42  71  98 134 178 235 273 334 399
#
# _framework density 21.063036
#
# number of rings (size 3 to 8) (size 9 to 14) (size 15 to 20)
#    0.750    0.500    3.750    1.875    1.750    3.000 
#    0.000    2.500    0.000    0.000    0.000    0.000 
#    0.000    0.000    0.000    0.000    0.000    0.000 
#
# Total GULP energy -89294.360734 kJ/mol
# GULP energy per Si atom -5580.897546 kJ/mol
# Density = 2.101510 g / cm^3
# Si number density = 21.063036 Si / 1000 Ang^3
#
#
#
# Elastic Constant Matrix: (Units=GPa)
#
#
# Indices 1 2 3 4 5 6 
#
# 1 55.9259 1.6371 16.1770 7.5514 17.6563 -4.5653
# 2 1.6371 74.0723 36.0506 -1.5892 3.7325 -12.9746
# 3 16.1770 36.0506 96.2597 0.4802 42.1173 -7.8737
# 4 7.5514 -1.5892 0.4802 49.1806 4.4985 4.1447
# 5 17.6563 3.7325 42.1173 4.4985 36.8305 -4.3256
# 6 -4.5653 -12.9746 -7.8737 4.1447 -4.3256 27.9521
#
#
#
# Elastic Compliance Matrix: (Units=1/GPa)
#
#
# Indices 1 2 3 4 5 6 
#
# 1 0.021644 -0.000501 0.002044 -0.002454 -0.012084 0.002372
# 2 -0.000501 0.020668 -0.013312 -0.001137 0.014467 0.008169
# 3 0.002044 -0.013312 0.029799 0.002371 -0.034363 -0.003121
# 4 -0.002454 -0.001137 0.002371 0.021412 -0.004521 -0.004135
# 5 -0.012084 0.014467 -0.034363 -0.004521 0.072137 0.006895
# 6 0.002372 0.008169 -0.003121 -0.004135 0.006895 0.040756
#
#
# Mechanical properties :
#
#
# Convention : Reuss Voigt Hill
#
# Bulk Modulus (GPa) = 20.58809 37.10970 28.84890
# Shear Modulus (GPa) = 20.31315 34.28553 27.29934
#
# Velocity S-wave (km/s) = 3.10884 4.03893 3.60401
# Velocity P-wave (km/s) = 4.76259 6.27752 5.57178
#
# Compressibility (1/GPa) = 0.04857176
#
# Stress axis : x y z
#
# Youngs Moduli (GPa) = 46.20136 48.38414 33.55825
#
# Poissons Ratio (x) = 0.02426 -0.06859
# Poissons Ratio (y) = 0.02317 0.44674
# Poissons Ratio (z) = -0.09444 0.64411
#
# Static dielectric constant tensor:
#      x y z
#    x 1.780220 -0.008960 0.007210 
#    y -0.008960 1.793970 -0.022120 
#    z 0.007210 -0.022120 1.758130 
# 
# From -- ./inp_files/606430.got.cif
#   From: 2010.05.17/outbox.cif.g08.bks.cpg/sg2_304_cif.got.tgz:606430.got - 2010.06.03 11:33:40.
