data_PCOD9108603
_publ_section_title
;
Structure prediction by ZEFSAII (Michael W. Deem and Ramdas Pophale) SiO2 
 PCOD9108603
Probable space group: P -1
;
_chemical_formula_sum "Si O2"
_cell_formula_units_Z 16
_cell_length_a 11.954797
_cell_length_b 12.576650
_cell_length_c 10.481554
_cell_angle_alpha 43.200942
_cell_angle_beta 104.640422
_cell_angle_gamma 132.144849
_cell_volume 707.842010
_symmetry_space_group_name_H-M "P -1"
_symmetry_group_IT_number 2
_symmetry_cell_setting 'triclinic'
loop_
_space_group_symop_operation_xyz
x,y,z
-x,-y,-z
loop_
_atom_site_type_symbol
_atom_site_label
_atom_site_fract_x
_atom_site_fract_y
_atom_site_fract_z
Si Si1 0.161295 0.175755 0.239284
Si Si2 0.097609 0.611941 0.116166
Si Si3 0.368893 0.937251 0.122051
Si Si4 0.530572 0.584010 0.575218
Si Si5 0.834775 0.041892 0.337460
Si Si6 0.135735 0.571277 0.580359
Si Si7 0.665298 0.430871 0.876332
Si Si8 0.166408 0.236152 0.906702
O O1 0.972191 0.059147 0.301399
O O2 0.177669 0.038002 0.452003
O O3 0.717525 0.558704 0.914610
O O4 0.190629 0.175362 0.101244
O O5 0.197078 0.554954 0.150678
O O6 0.095571 0.723819 0.896001
O O7 0.208947 0.805203 0.094410
O O8 0.919339 0.405904 0.319644
O O9 0.305142 0.772300 0.368763
O O10 0.477990 0.177791 0.014673
O O11 0.500000 0.000000 0.000000
O O12 0.500000 0.500000 0.500000
O O13 0.642400 0.847252 0.397148
O O14 0.347672 0.402565 0.744983
O O15 0.662207 0.585561 0.661600
O O16 0.132085 0.386015 0.773353
O O17 0.000000 0.500000 0.500000
O O18 0.000000 0.000000 0.000000
#
# Coordination Sequence:
#
# PCOD9108603 Si02
#       8
#     2   2   2   2   2   2   2   2
#     4  10  23  47  64  98 138 174 227 272 341 403
#     4  10  20  40  69  98 136 173 230 272 332 397
#     4   9  20  38  65  97 137 173 221 274 325 395
#     4  11  25  39  70 101 130 177 230 272 338 398
#     4  10  21  42  67  95 135 177 221 272 327 402
#     4  10  23  41  66 102 136 173 224 284 334 391
#     4  10  23  40  67  98 137 181 216 275 335 396
#     4  12  27  46  71  99 134 176 225 286 335 399
#
# _framework density 22.603912999999999
#
# number of rings (size 3 to 8) (size 9 to 14) (size 15 to 20)
#    0.000    1.750    1.250    1.500   12.250    2.500 
#    0.000    1.875    0.000    0.000    0.000    0.000 
#    0.000    0.000    0.000    0.000    0.000    0.000 
#
# Total GULP energy -89092.988415 kJ/mol
# GULP energy per Si atom -5568.311776 kJ/mol
# Density = 2.255247 g / cm^3
# Si number density = 22.603913 Si / 1000 Ang^3
#
#
#
# Elastic Constant Matrix: (Units=GPa)
#
#
# Indices 1 2 3 4 5 6 
#
# 1 83.6765 6.4059 19.6068 8.6826 10.6106 -2.8595
# 2 6.4059 113.6278 30.1423 -5.5362 -16.1141 9.7891
# 3 19.6068 30.1423 119.9574 12.9324 -7.6864 -9.0546
# 4 8.6826 -5.5362 12.9324 36.4073 -2.1438 -3.6098
# 5 10.6106 -16.1141 -7.6864 -2.1438 19.1652 -1.3330
# 6 -2.8595 9.7891 -9.0546 -3.6098 -1.3330 20.2819
#
#
#
# Elastic Compliance Matrix: (Units=1/GPa)
#
#
# Indices 1 2 3 4 5 6 
#
# 1 0.014366 -0.002028 -0.002096 -0.003557 -0.010847 0.000723
# 2 -0.002028 0.011715 -0.002783 0.003240 0.009804 -0.005962
# 3 -0.002096 -0.002783 0.010281 -0.002872 0.002992 0.005324
# 4 -0.003557 0.003240 -0.002872 0.030501 0.007131 0.002550
# 5 -0.010847 0.009804 0.002992 0.007131 0.068483 0.000845
# 6 0.000723 -0.005962 0.005324 0.002550 0.000845 0.055170
#
#
# Mechanical properties :
#
#
# Convention : Reuss Voigt Hill
#
# Bulk Modulus (GPa) = 44.34732 47.73019 46.03876
# Shear Modulus (GPa) = 23.60194 32.57799 28.08996
#
# Velocity S-wave (km/s) = 3.23484 3.80050 3.52902
# Velocity P-wave (km/s) = 5.79777 6.35769 6.08417
#
# Compressibility (1/GPa) = 0.02254927
#
# Stress axis : x y z
#
# Youngs Moduli (GPa) = 69.60746 85.35915 97.26339
#
# Poissons Ratio (x) = 0.17309 0.20382
# Poissons Ratio (y) = 0.14115 0.27072
# Poissons Ratio (z) = 0.14587 0.23759
#
# Static dielectric constant tensor:
#      x y z
#    x 1.905400 -0.015830 -0.029750 
#    y -0.015830 1.826260 -0.025570 
#    z -0.029750 -0.025570 1.895120 
# 
# From -- ./inp_files/261631.got.cif
#   From: 2010.05.17/outbox.cif.g08.bks.cpg/sg2_131_cif.got.tgz:261631.got - 2010.06.03 11:33:40.
