data_PCOD9108050
_publ_section_title
;
Structure prediction by ZEFSAII (Michael W. Deem and Ramdas Pophale) SiO2 
 PCOD9108050
Probable space group: P -1
;
_chemical_formula_sum "Si O2"
_cell_formula_units_Z 16
_cell_length_a 6.071270
_cell_length_b 5.394118
_cell_length_c 20.018275
_cell_angle_alpha 81.939386
_cell_angle_beta 82.189093
_cell_angle_gamma 107.324778
_cell_volume 608.611609
_symmetry_space_group_name_H-M "P -1"
_symmetry_group_IT_number 2
_symmetry_cell_setting 'triclinic'
loop_
_space_group_symop_operation_xyz
x,y,z
-x,-y,-z
loop_
_atom_site_type_symbol
_atom_site_label
_atom_site_fract_x
_atom_site_fract_y
_atom_site_fract_z
Si Si1 0.045026 0.743871 0.540007
Si Si2 0.600169 0.978637 0.379937
Si Si3 0.397919 0.418062 0.358720
Si Si4 0.177071 0.932512 0.150137
Si Si5 0.885137 0.173689 0.225774
Si Si6 0.597142 0.404850 0.791301
Si Si7 0.634621 0.383862 0.110737
Si Si8 0.209144 0.856381 0.009714
O O1 0.288389 0.877722 0.562054
O O2 0.000000 0.500000 0.500000
O O3 0.869175 0.616540 0.612860
O O4 0.000000 0.000000 0.500000
O O5 0.402694 0.118749 0.372909
O O6 0.765196 0.081623 0.304683
O O7 0.533622 0.660415 0.394015
O O8 0.489076 0.529143 0.278182
O O9 0.321465 0.849539 0.205458
O O10 0.365640 0.207703 0.109381
O O11 0.138716 0.755886 0.092003
O O12 0.940712 0.943416 0.190915
O O13 0.738483 0.288023 0.176045
O O14 0.148344 0.371750 0.218534
O O15 0.430267 0.370061 0.864513
O O16 0.785193 0.343254 0.043334
O O17 0.500000 0.000000 0.000000
O O18 0.000000 0.000000 0.000000
#
# Coordination Sequence:
#
# PCOD9108050 Si02
#       8
#     2   2   2   2   2   2   2   2
#     4  12  28  51  78 110 153 195 244 305 372 461
#     4  12  27  46  77 110 148 200 246 309 384 450
#     4  12  27  47  75 111 151 193 255 309 375 461
#     4  10  23  38  65  94 138 193 244 317 381 457
#     4  11  22  40  66  98 138 186 245 308 377 449
#     4  11  24  40  65 102 139 185 249 319 373 450
#     4  10  21  41  63  93 137 182 250 306 384 451
#     4  10  20  40  66  95 140 197 254 318 400 479
#
# _framework density 26.289345000000001
#
# number of rings (size 3 to 8) (size 9 to 14) (size 15 to 20)
#    0.000    1.000    3.750    2.250    3.500    5.500 
#    0.000    0.625    0.000    0.000    0.000    0.000 
#    0.000    0.000    0.000    0.000    0.000    0.000 
#
# Total GULP energy -89163.915699 kJ/mol
# GULP energy per Si atom -5572.744731 kJ/mol
# Density = 2.622951 g / cm^3
# Si number density = 26.289345 Si / 1000 Ang^3
#
#
#
# Elastic Constant Matrix: (Units=GPa)
#
#
# Indices 1 2 3 4 5 6 
#
# 1 92.9187 24.8791 36.6775 15.4656 -22.6238 -4.2310
# 2 24.8791 97.8540 21.2177 27.4742 -4.1663 8.2965
# 3 36.6775 21.2177 109.7808 23.5163 -20.4006 -1.0809
# 4 15.4656 27.4742 23.5163 41.7466 0.0569 6.8731
# 5 -22.6238 -4.1663 -20.4006 0.0569 53.7202 2.4045
# 6 -4.2310 8.2965 -1.0809 6.8731 2.4045 56.6013
#
#
#
# Elastic Compliance Matrix: (Units=1/GPa)
#
#
# Indices 1 2 3 4 5 6 
#
# 1 0.014075 -0.002210 -0.002901 -0.002365 0.004594 0.001413
# 2 -0.002210 0.013015 -0.000179 -0.007453 0.000071 -0.001174
# 3 -0.002901 -0.000179 0.011933 -0.005630 0.003276 0.000582
# 4 -0.002365 -0.007453 -0.005630 0.033421 -0.003609 -0.003097
# 5 0.004594 0.000071 0.003276 -0.003609 0.021807 -0.000093
# 6 0.001413 -0.001174 0.000582 -0.003097 -0.000093 0.018336
#
#
# Mechanical properties :
#
#
# Convention : Reuss Voigt Hill
#
# Bulk Modulus (GPa) = 35.15751 51.78911 43.47331
# Shear Modulus (GPa) = 37.69324 44.93223 41.31273
#
# Velocity S-wave (km/s) = 3.79064 4.13866 3.96847
# Velocity P-wave (km/s) = 5.70622 6.52537 6.12949
#
# Compressibility (1/GPa) = 0.02844342
#
# Stress axis : x y z
#
# Youngs Moduli (GPa) = 71.04589 76.83431 83.79789
#
# Poissons Ratio (x) = 0.16979 0.24313
# Poissons Ratio (y) = 0.15700 0.01501
# Poissons Ratio (z) = 0.20613 0.01376
#
# Static dielectric constant tensor:
#      x y z
#    x 2.172900 0.036570 0.033190 
#    y 0.036570 2.242750 0.021980 
#    z 0.033190 0.021980 2.046210 
# 
# From -- ./inp_files/10557.got.cif
#   From: 2010.05.17/outbox.cif.g08.bks.cpg/sg2_6_cif.got.tgz:10557.got - 2010.06.03 11:33:40.
