data_PCOD9108314
_publ_section_title
;
Structure prediction by ZEFSAII (Michael W. Deem and Ramdas Pophale) SiO2 
 PCOD9108314
Probable space group: P -1
;
_chemical_formula_sum "Si O2"
_cell_formula_units_Z 16
_cell_length_a 9.395518
_cell_length_b 12.025062
_cell_length_c 13.644206
_cell_angle_alpha 111.503315
_cell_angle_beta 43.548883
_cell_angle_gamma 130.499932
_cell_volume 791.494107
_symmetry_space_group_name_H-M "P -1"
_symmetry_group_IT_number 2
_symmetry_cell_setting 'triclinic'
loop_
_space_group_symop_operation_xyz
x,y,z
-x,-y,-z
loop_
_atom_site_type_symbol
_atom_site_label
_atom_site_fract_x
_atom_site_fract_y
_atom_site_fract_z
Si Si1 0.599483 0.363806 0.331918
Si Si2 0.755230 0.192626 0.074338
Si Si3 0.713859 0.910664 0.070022
Si Si4 0.250040 0.743613 0.392607
Si Si5 0.579737 0.770525 0.883913
Si Si6 0.320700 0.449575 0.818183
Si Si7 0.267051 0.579699 0.491930
Si Si8 0.062256 0.133631 0.443573
O O1 0.671708 0.258201 0.220850
O O2 0.753121 0.509814 0.234207
O O3 0.641072 0.390112 0.433284
O O4 0.301728 0.282012 0.425686
O O5 0.614806 0.194367 0.047354
O O6 0.674093 0.032537 0.091996
O O7 0.062789 0.305379 0.944194
O O8 0.505393 0.809311 0.224398
O O9 0.663716 0.813659 0.967322
O O10 0.000000 0.000000 0.000000
O O11 0.274320 0.713904 0.484247
O O12 0.016358 0.576588 0.420396
O O13 0.162270 0.849119 0.454091
O O14 0.439976 0.595983 0.873391
O O15 0.823278 0.863447 0.718277
O O16 0.540941 0.431431 0.675374
O O17 0.000000 0.000000 0.500000
#
# Coordination Sequence:
#
# PCOD9108314 Si02
#       8
#     2   2   2   2   2   2   2   2
#     4  10  21  38  64  99 124 159 215 260 320 376
#     4  10  22  41  65  98 124 162 209 264 323 383
#     4  12  27  44  60  91 128 174 215 261 320 387
#     4  11  24  42  62  89 132 165 218 255 323 374
#     4  10  22  42  64  93 127 164 213 263 317 374
#     4  10  20  40  67  99 127 157 216 264 317 382
#     4  11  23  40  64  96 127 170 209 267 315 382
#     4  10  21  41  66  95 128 168 211 264 320 384
#
# _framework density 20.214934
#
# number of rings (size 3 to 8) (size 9 to 14) (size 15 to 20)
#    0.000    1.750    2.500    4.500    3.500    3.000 
#    0.000    3.125    0.000    0.000    0.000    0.000 
#    0.000    0.000    0.000    0.000    0.000    0.000 
#
# Total GULP energy -89381.168574 kJ/mol
# GULP energy per Si atom -5586.323036 kJ/mol
# Density = 2.016892 g / cm^3
# Si number density = 20.214934 Si / 1000 Ang^3
#
#
#
# Elastic Constant Matrix: (Units=GPa)
#
#
# Indices 1 2 3 4 5 6 
#
# 1 77.1749 32.0364 36.8485 3.6568 -5.8468 2.0955
# 2 32.0364 56.6080 40.7389 -11.2435 9.9901 -11.0884
# 3 36.8485 40.7389 94.2367 -22.7388 -9.8597 13.1099
# 4 3.6568 -11.2435 -22.7388 22.1152 -1.9559 -1.5436
# 5 -5.8468 9.9901 -9.8597 -1.9559 25.1884 -5.8010
# 6 2.0955 -11.0884 13.1099 -1.5436 -5.8010 29.8956
#
#
#
# Elastic Compliance Matrix: (Units=1/GPa)
#
#
# Indices 1 2 3 4 5 6 
#
# 1 0.022843 -0.014143 -0.005518 -0.016340 0.006563 -0.003998
# 2 -0.014143 0.052058 -0.021805 0.005815 -0.026240 0.025070
# 3 -0.005518 -0.021805 0.032009 0.023115 0.017754 -0.017099
# 4 -0.016340 0.005815 0.023115 0.075304 0.008498 -0.001297
# 5 0.006563 -0.026240 0.017754 0.008498 0.057784 -0.006327
# 6 -0.003998 0.025070 -0.017099 -0.001297 -0.006327 0.049232
#
#
# Mechanical properties :
#
#
# Convention : Reuss Voigt Hill
#
# Bulk Modulus (GPa) = 41.70311 49.69635 45.69973
# Shear Modulus (GPa) = 13.15251 23.33288 18.24270
#
# Velocity S-wave (km/s) = 2.55352 3.40110 3.00732
# Velocity P-wave (km/s) = 5.41928 6.32935 5.89191
#
# Compressibility (1/GPa) = 0.02397903
#
# Stress axis : x y z
#
# Youngs Moduli (GPa) = 43.77659 19.20927 31.24097
#
# Poissons Ratio (x) = 0.27168 0.17238
# Poissons Ratio (y) = 0.61915 0.68120
# Poissons Ratio (z) = 0.24156 0.41885
#
# Static dielectric constant tensor:
#      x y z
#    x 1.757300 -0.027730 -0.016600 
#    y -0.027730 1.724960 -0.002390 
#    z -0.016600 -0.002390 1.706900 
# 
# From -- ./inp_files/392721.got.cif
#   From: 2010.05.17/outbox.cif.g08.bks.cpg/sg2_197_cif.got.tgz:392721.got - 2010.06.03 11:33:40.
