data_PCOD9108905
_publ_section_title
;
Structure prediction by ZEFSAII (Michael W. Deem and Ramdas Pophale) SiO2 
 PCOD9108905
Probable space group: P -1
;
_chemical_formula_sum "Si O2"
_cell_formula_units_Z 16
_cell_length_a 5.641016
_cell_length_b 5.500207
_cell_length_c 25.285124
_cell_angle_alpha 93.982118
_cell_angle_beta 119.231157
_cell_angle_gamma 105.079629
_cell_volume 642.813403
_symmetry_space_group_name_H-M "P -1"
_symmetry_group_IT_number 2
_symmetry_cell_setting 'triclinic'
loop_
_space_group_symop_operation_xyz
x,y,z
-x,-y,-z
loop_
_atom_site_type_symbol
_atom_site_label
_atom_site_fract_x
_atom_site_fract_y
_atom_site_fract_z
Si Si1 0.697697 0.729370 0.713532
Si Si2 0.993391 0.598836 0.113723
Si Si3 0.200287 0.540757 0.795345
Si Si4 0.482428 0.994300 0.221080
Si Si5 0.845245 0.773624 0.317474
Si Si6 0.156373 0.960739 0.962058
Si Si7 0.141628 0.680481 0.446406
Si Si8 0.484461 0.637629 0.574505
O O1 0.433268 0.465045 0.695448
O O2 0.641542 0.768931 0.646842
O O3 0.970817 0.685700 0.767462
O O4 0.710309 0.980006 0.751472
O O5 0.806339 0.540795 0.146495
O O6 0.965730 0.337251 0.075819
O O7 0.329800 0.732258 0.169740
O O8 0.899789 0.818006 0.077201
O O9 0.092079 0.348008 0.731459
O O10 0.484159 0.769252 0.810555
O O11 0.756225 0.004573 0.286737
O O12 0.064216 0.831197 0.390950
O O13 0.500000 0.000000 0.000000
O O14 0.000000 0.000000 0.000000
O O15 0.365234 0.793816 0.520478
O O16 0.297521 0.491000 0.432170
O O17 0.827422 0.557871 0.439757
#
# Coordination Sequence:
#
# PCOD9108905 Si02
#       8
#     2   2   2   2   2   2   2   2
#     4  10  20  41  57  97 139 195 243 321 383 455
#     4  12  28  52  83 120 159 205 261 309 378 459
#     4  11  24  42  70 104 149 196 244 313 387 450
#     4  11  26  41  68 109 151 192 249 317 386 452
#     4  10  21  37  63  94 143 185 251 312 389 447
#     4  12  31  59  89 121 164 210 255 312 371 446
#     4   9  17  32  57  91 121 192 248 318 374 464
#     4   9  17  32  59  84 130 183 258 307 386 452
#
# _framework density 24.890582999999999
#
# number of rings (size 3 to 8) (size 9 to 14) (size 15 to 20)
#    0.000    1.500    2.500    1.500    7.000    0.000 
#    0.000    0.625    0.000    0.750    0.000    0.000 
#    0.000    0.000    0.000    0.000    0.000    0.000 
#
# Total GULP energy -89195.327989 kJ/mol
# GULP energy per Si atom -5574.707999 kJ/mol
# Density = 2.483393 g / cm^3
# Si number density = 24.890583 Si / 1000 Ang^3
#
#
#
# Elastic Constant Matrix: (Units=GPa)
#
#
# Indices 1 2 3 4 5 6 
#
# 1 94.8206 10.8310 28.4946 -14.4413 -10.9880 4.0455
# 2 10.8310 110.0549 79.4026 -19.9730 -1.8928 9.3423
# 3 28.4946 79.4026 166.6226 -19.7585 -1.6052 8.4387
# 4 -14.4413 -19.9730 -19.7585 71.6176 11.4430 -6.0331
# 5 -10.9880 -1.8928 -1.6052 11.4430 57.3092 -8.4096
# 6 4.0455 9.3423 8.4387 -6.0331 -8.4096 49.3176
#
#
#
# Elastic Compliance Matrix: (Units=1/GPa)
#
#
# Indices 1 2 3 4 5 6 
#
# 1 0.011565 0.000725 -0.002100 0.001646 0.001822 -0.000215
# 2 0.000725 0.014301 -0.006606 0.002230 -0.000225 -0.001404
# 3 -0.002100 -0.006606 0.009567 0.000429 -0.000474 -0.000242
# 4 0.001646 0.002230 0.000429 0.015516 -0.002575 0.000828
# 5 0.001822 -0.000225 -0.000474 -0.002575 0.018710 0.002850
# 6 -0.000215 -0.001404 -0.000242 0.000828 0.002850 0.021189
#
#
# Mechanical properties :
#
#
# Convention : Reuss Voigt Hill
#
# Bulk Modulus (GPa) = 51.35428 67.66162 59.50795
# Shear Modulus (GPa) = 44.13049 52.50021 48.31535
#
# Velocity S-wave (km/s) = 4.21524 4.59763 4.41058
# Velocity P-wave (km/s) = 6.66092 7.44492 7.06381
#
# Compressibility (1/GPa) = 0.01947257
#
# Stress axis : x y z
#
# Youngs Moduli (GPa) = 86.46476 69.92631 104.52532
#
# Poissons Ratio (x) = -0.05069 0.21947
# Poissons Ratio (y) = -0.06268 0.69045
# Poissons Ratio (z) = 0.18155 0.46190
#
# Static dielectric constant tensor:
#      x y z
#    x 1.760990 0.093910 -0.011370 
#    y 0.093910 2.057820 0.005660 
#    z -0.011370 0.005660 1.906660 
# 
# From -- ./inp_files/603295.got.cif
#   From: 2010.05.17/outbox.cif.g08.bks.cpg/sg2_302_cif.got.tgz:603295.got - 2010.06.03 11:33:40.
