data_PCOD9108468
_publ_section_title
;
Structure prediction by ZEFSAII (Michael W. Deem and Ramdas Pophale) SiO2 
 PCOD9108468
Probable space group: P -1
;
_chemical_formula_sum "Si O2"
_cell_formula_units_Z 14
_cell_length_a 15.300544
_cell_length_b 8.989972
_cell_length_c 9.873730
_cell_angle_alpha 64.734705
_cell_angle_beta 34.371942
_cell_angle_gamma 80.057851
_cell_volume 649.076724
_symmetry_space_group_name_H-M "P -1"
_symmetry_group_IT_number 2
_symmetry_cell_setting 'triclinic'
loop_
_space_group_symop_operation_xyz
x,y,z
-x,-y,-z
loop_
_atom_site_type_symbol
_atom_site_label
_atom_site_fract_x
_atom_site_fract_y
_atom_site_fract_z
Si Si1 0.986660 0.532235 0.166732
Si Si2 0.404279 0.292956 0.168867
Si Si3 0.328735 0.290180 0.752687
Si Si4 0.698774 0.195552 0.697121
Si Si5 0.339400 0.675298 0.598699
Si Si6 0.184105 0.121334 0.272315
Si Si7 0.158921 0.166058 0.759516
O O1 0.875389 0.348178 0.442717
O O2 0.891085 0.663572 0.265184
O O3 0.000000 0.500000 0.000000
O O4 0.178528 0.624872 0.918027
O O5 0.247371 0.236169 0.285263
O O6 0.318157 0.191942 0.453972
O O7 0.500000 0.500000 0.000000
O O8 0.548057 0.230400 0.949396
O O9 0.354253 0.489956 0.599738
O O10 0.494766 0.246619 0.559288
O O11 0.200660 0.164267 0.863706
O O12 0.258402 0.259637 0.004591
O O13 0.674836 0.215137 0.557687
O O14 0.720139 0.016400 0.781771
O O15 0.000000 0.000000 0.500000
O O16 0.000000 0.000000 0.000000
#
# Coordination Sequence:
#
# PCOD9108468 Si02
#       7
#     2   2   2   2   2   2   2
#     4  10  20  40  68  97 130 186 236 270 344 436
#     4  12  25  47  72 105 151 190 228 298 375 425
#     4  11  22  43  66 105 130 180 242 283 333 428
#     4  11  22  46  71 104 135 196 234 284 360 437
#     4  10  21  38  74  95 131 175 246 274 333 418
#     4  12  27  43  76 105 140 182 252 296 342 426
#     4  12  26  43  70 103 146 185 228 293 371 415
#
# _framework density 21.569098
#
# number of rings (size 3 to 8) (size 9 to 14) (size 15 to 20)
#    0.000    0.857    5.714    2.143    8.000    0.000 
#    0.000    5.000    0.000    0.000    0.000    0.000 
#    0.000    0.000    0.000    0.000    0.000    0.000 
#
# Total GULP energy -78117.065529 kJ/mol
# GULP energy per Si atom -5579.790395 kJ/mol
# Density = 2.152001 g / cm^3
# Si number density = 21.569098 Si / 1000 Ang^3
#
#
#
# Elastic Constant Matrix: (Units=GPa)
#
#
# Indices 1 2 3 4 5 6 
#
# 1 82.6734 29.9589 -16.1327 -4.3039 -9.8876 -2.9455
# 2 29.9589 66.8289 21.1583 -6.6174 -3.6738 4.1797
# 3 -16.1327 21.1583 70.3462 4.2806 -8.1302 -9.5583
# 4 -4.3039 -6.6174 4.2806 32.2367 -2.8818 -9.1503
# 5 -9.8876 -3.6738 -8.1302 -2.8818 41.6556 1.0396
# 6 -2.9455 4.1797 -9.5583 -9.1503 1.0396 27.8586
#
#
#
# Elastic Compliance Matrix: (Units=1/GPa)
#
#
# Indices 1 2 3 4 5 6 
#
# 1 0.019050 -0.011513 0.009331 0.001462 0.005248 0.007227
# 2 -0.011513 0.024368 -0.011479 0.002531 -0.002452 -0.007889
# 3 0.009331 -0.011479 0.021773 -0.000779 0.005156 0.009731
# 4 0.001462 0.002531 -0.000779 0.035182 0.002578 0.010967
# 5 0.005248 -0.002452 0.005156 0.002578 0.026157 0.002563
# 6 0.007227 -0.007889 0.009731 0.010967 0.002563 0.044689
#
#
# Mechanical properties :
#
#
# Convention : Reuss Voigt Hill
#
# Bulk Modulus (GPa) = 26.40599 32.20195 29.30397
# Shear Modulus (GPa) = 23.67825 32.67446 28.17635
#
# Velocity S-wave (km/s) = 3.31688 3.89636 3.61824
# Velocity P-wave (km/s) = 5.19018 5.93332 5.57415
#
# Compressibility (1/GPa) = 0.03787019
#
# Stress axis : x y z
#
# Youngs Moduli (GPa) = 52.49330 41.03680 45.92744
#
# Poissons Ratio (x) = 0.47246 -0.42856
# Poissons Ratio (y) = 0.60436 0.52720
# Poissons Ratio (z) = -0.48983 0.47106
#
# Static dielectric constant tensor:
#      x y z
#    x 1.833000 0.025320 -0.081570 
#    y 0.025320 1.819670 -0.012660 
#    z -0.081570 -0.012660 1.823360 
# 
# From -- ./inp_files/218587.got.cif
#   From: 2010.05.17/outbox.cif.g08.bks.cpg/sg2_110_cif.got.tgz:218587.got - 2010.06.03 11:33:40.
