data_PCOD9108387
_publ_section_title
;
Structure prediction by ZEFSAII (Michael W. Deem and Ramdas Pophale) SiO2 
 PCOD9108387
Probable space group: P -1
;
_chemical_formula_sum "Si O2"
_cell_formula_units_Z 16
_cell_length_a 13.936990
_cell_length_b 11.397555
_cell_length_c 14.078371
_cell_angle_alpha 62.779622
_cell_angle_beta 42.452943
_cell_angle_gamma 31.648634
_cell_volume 693.985673
_symmetry_space_group_name_H-M "P -1"
_symmetry_group_IT_number 2
_symmetry_cell_setting 'triclinic'
loop_
_space_group_symop_operation_xyz
x,y,z
-x,-y,-z
loop_
_atom_site_type_symbol
_atom_site_label
_atom_site_fract_x
_atom_site_fract_y
_atom_site_fract_z
Si Si1 0.216403 0.360333 0.229815
Si Si2 0.759667 0.600972 0.356201
Si Si3 0.240433 0.104684 0.432964
Si Si4 0.324252 0.525564 0.201035
Si Si5 0.731658 0.124072 0.669380
Si Si6 0.770723 0.908967 0.902865
Si Si7 0.532771 0.428725 0.389648
Si Si8 0.140467 0.929498 0.090138
O O1 0.249873 0.248745 0.342003
O O2 0.266218 0.473425 0.173299
O O3 0.921472 0.562873 0.326207
O O4 0.459833 0.112281 0.076395
O O5 0.684152 0.516884 0.484282
O O6 0.476225 0.885301 0.418515
O O7 0.991504 0.383763 0.187323
O O8 0.926671 0.316525 0.607766
O O9 0.308581 0.956350 0.349750
O O10 0.280003 0.712963 0.139660
O O11 0.648957 0.245306 0.087949
O O12 0.751927 0.032131 0.787154
O O13 0.504820 0.415220 0.707789
O O14 0.000000 0.000000 0.500000
O O15 0.856349 0.924704 0.926924
O O16 0.500000 0.500000 0.500000
O O17 0.825469 0.138558 0.252060
#
# Coordination Sequence:
#
# PCOD9108387 Si02
#       8
#     2   2   2   2   2   2   2   2
#     4  11  26  44  61  91 134 175 212 262 306 381
#     4  12  23  39  68  96 129 162 211 266 317 383
#     4  12  23  41  66  93 123 179 217 249 319 381
#     4  10  22  41  67  88 125 176 216 255 314 374
#     4  12  21  35  68  97 128 161 203 271 331 378
#     4  11  22  42  64  98 132 159 207 272 329 371
#     4  12  19  37  62 100 125 155 211 264 324 377
#     4  10  20  40  68  92 126 164 208 272 319 370
#
# _framework density 23.055232
#
# number of rings (size 3 to 8) (size 9 to 14) (size 15 to 20)
#    0.000    0.750    6.250    1.500    0.000    1.000 
#    4.500    0.000    2.750    3.750    0.000    0.000 
#    0.000    0.000    0.000    0.000    0.000    0.000 
#
# Total GULP energy -89298.686035 kJ/mol
# GULP energy per Si atom -5581.167877 kJ/mol
# Density = 2.300276 g / cm^3
# Si number density = 23.055232 Si / 1000 Ang^3
#
#
#
# Elastic Constant Matrix: (Units=GPa)
#
#
# Indices 1 2 3 4 5 6 
#
# 1 61.7971 14.9779 1.3211 3.0939 -22.3744 11.8623
# 2 14.9779 81.9157 36.1592 6.0790 4.2017 -2.0451
# 3 1.3211 36.1592 126.4021 16.4462 -15.4475 -9.1904
# 4 3.0939 6.0790 16.4462 39.9884 5.6997 -2.4760
# 5 -22.3744 4.2017 -15.4475 5.6997 32.5839 -0.1655
# 6 11.8623 -2.0451 -9.1904 -2.4760 -0.1655 26.5579
#
#
#
# Elastic Compliance Matrix: (Units=1/GPa)
#
#
# Indices 1 2 3 4 5 6 
#
# 1 0.030640 -0.009144 0.005559 -0.007801 0.026153 -0.013031
# 2 -0.009144 0.017201 -0.006385 0.002633 -0.011968 0.003370
# 3 0.005559 -0.006385 0.011879 -0.005917 0.011311 0.000655
# 4 -0.007801 0.002633 -0.005917 0.029866 -0.013704 0.004339
# 5 0.026153 -0.011968 0.011311 -0.013704 0.057903 -0.009606
# 6 -0.013031 0.003370 0.000655 0.004339 -0.009606 0.044305
#
#
# Mechanical properties :
#
#
# Convention : Reuss Voigt Hill
#
# Bulk Modulus (GPa) = 25.13781 41.67013 33.40397
# Shear Modulus (GPa) = 22.22282 34.33649 28.27966
#
# Velocity S-wave (km/s) = 3.10803 3.86335 3.50609
# Velocity P-wave (km/s) = 4.87922 6.16554 5.55971
#
# Compressibility (1/GPa) = 0.03978072
#
# Stress axis : x y z
#
# Youngs Moduli (GPa) = 32.63664 58.13699 84.17884
#
# Poissons Ratio (x) = 0.53162 -0.46799
# Poissons Ratio (y) = 0.29844 0.53749
# Poissons Ratio (z) = -0.18144 0.37121
#
# Static dielectric constant tensor:
#      x y z
#    x 1.893470 -0.020200 0.020320 
#    y -0.020200 1.907340 0.050190 
#    z 0.020320 0.050190 1.964360 
# 
# From -- ./inp_files/436593.got.cif
#   From: 2010.05.17/outbox.cif.g08.bks.cpg/sg2_219_cif.got.tgz:436593.got - 2010.06.03 11:33:40.
