data_PCOD9108696
_publ_section_title
;
Structure prediction by ZEFSAII (Michael W. Deem and Ramdas Pophale) SiO2 
 PCOD9108696
Probable space group: P -1
;
_chemical_formula_sum "Si O2"
_cell_formula_units_Z 15
_cell_length_a 17.842184
_cell_length_b 20.693363
_cell_length_c 4.959230
_cell_angle_alpha 109.410270
_cell_angle_beta 68.921924
_cell_angle_gamma 160.264073
_cell_volume 576.827882
_symmetry_space_group_name_H-M "P -1"
_symmetry_group_IT_number 2
_symmetry_cell_setting 'triclinic'
loop_
_space_group_symop_operation_xyz
x,y,z
-x,-y,-z
loop_
_atom_site_type_symbol
_atom_site_label
_atom_site_fract_x
_atom_site_fract_y
_atom_site_fract_z
Si Si1 0.805654 0.761019 0.425256
Si Si2 0.752507 0.052065 0.993034
Si Si3 0.037211 0.320206 0.491027
Si Si4 0.731511 0.878198 0.957960
Si Si5 0.633358 0.176926 0.589913
Si Si6 0.000000 0.000000 0.000000
Si Si7 0.594501 0.466453 0.457444
Si Si8 0.099553 0.523840 0.700330
O O1 0.841569 0.821470 0.757859
O O2 0.781901 0.661173 0.327277
O O3 0.587832 0.620015 0.375507
O O4 0.014553 0.948594 0.222518
O O5 0.916382 0.222022 0.224664
O O6 0.508064 0.892901 0.105848
O O7 0.858773 0.146882 0.693515
O O8 0.735216 0.961098 0.006481
O O9 0.262538 0.455058 0.388020
O O10 0.111752 0.455210 0.679895
O O11 0.770016 0.872317 0.184597
O O12 0.528994 0.685644 0.786248
O O13 0.674855 0.266677 0.429645
O O14 0.887604 0.353443 0.536359
O O15 0.500000 0.000000 0.500000
O O16 0.000000 0.500000 0.000000
#
# Coordination Sequence:
#
# PCOD9108696 Si02
#       8
#     2   2   2   2   2   1   2   2
#     4  10  21  46  65 101 140 192 250 306 371 442
#     4  12  28  48  80 106 161 196 252 309 383 446
#     4  12  27  50  72 117 150 201 249 315 371 458
#     4  11  24  44  68 103 142 198 249 312 373 447
#     4  11  25  51  76 112 147 202 243 310 375 450
#     4  10  20  40  70  94 138 190 246 300 368 436
#     4  10  22  43  70  99 145 189 252 300 373 432
#     4  11  27  46  81 111 151 192 257 305 378 453
#
# _framework density 26.004293000000001
#
# number of rings (size 3 to 8) (size 9 to 14) (size 15 to 20)
#    0.000    1.067    2.667    3.200    5.600    1.067 
#   12.000    6.000    0.000    0.000    0.000    0.000 
#    0.000    0.000    0.000    0.000    0.000    0.000 
#
# Total GULP energy -83642.967551 kJ/mol
# GULP energy per Si atom -5576.197837 kJ/mol
# Density = 2.594511 g / cm^3
# Si number density = 26.004293 Si / 1000 Ang^3
#
#
#
# Elastic Constant Matrix: (Units=GPa)
#
#
# Indices 1 2 3 4 5 6 
#
# 1 123.6769 35.0188 5.2025 7.5388 -20.9092 -13.7870
# 2 35.0188 129.0423 34.7634 5.1869 -1.2762 -14.8916
# 3 5.2025 34.7634 72.9155 3.1687 6.0330 0.4288
# 4 7.5388 5.1869 3.1687 37.9144 -1.2393 -11.6207
# 5 -20.9092 -1.2762 6.0330 -1.2393 38.4329 12.6165
# 6 -13.7870 -14.8916 0.4288 -11.6207 12.6165 61.0894
#
#
#
# Elastic Compliance Matrix: (Units=1/GPa)
#
#
# Indices 1 2 3 4 5 6 
#
# 1 0.009775 -0.002559 0.000160 -0.001357 0.005074 0.000275
# 2 -0.002559 0.009871 -0.004455 0.000141 -0.001051 0.002104
# 3 0.000160 -0.004455 0.016073 -0.001116 -0.002326 -0.000894
# 4 -0.001357 0.000141 -0.001116 0.028334 -0.001424 0.005420
# 5 0.005074 -0.001051 -0.002326 -0.001424 0.030954 -0.005759
# 6 0.000275 0.002104 -0.000894 0.005420 -0.005759 0.019171
#
#
# Mechanical properties :
#
#
# Convention : Reuss Voigt Hill
#
# Bulk Modulus (GPa) = 45.43228 52.84489 49.13859
# Shear Modulus (GPa) = 36.97615 44.19735 40.58675
#
# Velocity S-wave (km/s) = 3.77493 4.12711 3.95495
# Velocity P-wave (km/s) = 6.04228 6.56327 6.30815
#
# Compressibility (1/GPa) = 0.02201078
#
# Stress axis : x y z
#
# Youngs Moduli (GPa) = 102.30557 101.30909 62.21524
#
# Poissons Ratio (x) = 0.25928 -0.00997
# Poissons Ratio (y) = 0.26183 0.27716
# Poissons Ratio (z) = -0.01640 0.45133
#
# Static dielectric constant tensor:
#      x y z
#    x 3.458100 0.492030 0.870900 
#    y 0.492030 2.419120 0.227500 
#    z 0.870900 0.227500 2.613380 
# 
# From -- ./inp_files/112251.got.cif
#   From: 2010.05.17/outbox.cif.g08.bks.cpg/sg2_57_cif.got.tgz:112251.got - 2010.06.03 11:33:40.
