data_PCOD9108929
_publ_section_title
;
Structure prediction by ZEFSAII (Michael W. Deem and Ramdas Pophale) SiO2 
 PCOD9108929
Probable space group: P -1
;
_chemical_formula_sum "Si O2"
_cell_formula_units_Z 16
_cell_length_a 8.742195
_cell_length_b 11.264159
_cell_length_c 20.702866
_cell_angle_alpha 51.494789
_cell_angle_beta 94.739590
_cell_angle_gamma 136.919511
_cell_volume 782.253104
_symmetry_space_group_name_H-M "P -1"
_symmetry_group_IT_number 2
_symmetry_cell_setting 'triclinic'
loop_
_space_group_symop_operation_xyz
x,y,z
-x,-y,-z
loop_
_atom_site_type_symbol
_atom_site_label
_atom_site_fract_x
_atom_site_fract_y
_atom_site_fract_z
Si Si1 0.121224 0.281978 0.810520
Si Si2 0.281851 0.260831 0.630455
Si Si3 0.472494 0.390103 0.951348
Si Si4 0.769530 0.981675 0.769532
Si Si5 0.188266 0.533805 0.958412
Si Si6 0.131882 0.715044 0.088935
Si Si7 0.704663 0.658001 0.637316
Si Si8 0.115663 0.356522 0.229192
O O1 0.482697 0.561350 0.712844
O O2 0.021396 0.319993 0.846955
O O3 0.981150 0.203842 0.762716
O O4 0.894467 0.945368 0.935223
O O5 0.500000 0.500000 0.500000
O O6 0.472264 0.411656 0.653701
O O7 0.016001 0.163153 0.660754
O O8 0.120316 0.965599 0.703407
O O9 0.601167 0.669978 0.870012
O O10 0.565505 0.405538 0.879681
O O11 0.663677 0.448284 0.988657
O O12 0.475017 0.835397 0.820332
O O13 0.952663 0.273035 0.984558
O O14 0.000000 0.500000 0.000000
O O15 0.014204 0.440616 0.184960
O O16 0.500000 0.000000 0.000000
O O17 0.837164 0.640808 0.694582
O O18 0.000000 0.000000 0.500000
#
# Coordination Sequence:
#
# PCOD9108929 Si02
#       8
#     2   2   2   2   2   2   2   2
#     4  10  21  39  59  91 129 159 201 261 322 369
#     4  10  21  42  71  91 121 160 218 274 311 358
#     4  10  20  41  59  94 123 161 212 261 312 382
#     4   9  21  38  62  91 118 161 213 259 310 376
#     4  11  20  36  57  82 131 169 195 244 316 379
#     4  12  24  38  57  95 140 168 200 251 319 399
#     4  11  24  43  70  93 121 168 220 270 315 360
#     4  11  23  41  64  97 129 164 215 257 317 384
#
# _framework density 20.453737
#
# number of rings (size 3 to 8) (size 9 to 14) (size 15 to 20)
#    0.000    1.500    3.750    2.250    3.500    4.500 
#    4.500    0.625    0.000    1.500    0.000    0.000 
#    0.000    0.000    0.000    0.000    0.000    0.000 
#
# Total GULP energy -89088.507322 kJ/mol
# GULP energy per Si atom -5568.031708 kJ/mol
# Density = 2.040718 g / cm^3
# Si number density = 20.453737 Si / 1000 Ang^3
#
#
#
# Elastic Constant Matrix: (Units=GPa)
#
#
# Indices 1 2 3 4 5 6 
#
# 1 115.4676 41.5088 54.9360 6.4549 -26.4385 -10.3451
# 2 41.5088 98.2129 30.7859 10.5347 -3.4681 0.3941
# 3 54.9360 30.7859 118.0806 7.0539 -35.0885 -0.2368
# 4 6.4549 10.5347 7.0539 33.1758 1.6788 -4.6656
# 5 -26.4385 -3.4681 -35.0885 1.6788 36.1416 5.1430
# 6 -10.3451 0.3941 -0.2368 -4.6656 5.1430 43.1641
#
#
#
# Elastic Compliance Matrix: (Units=1/GPa)
#
#
# Indices 1 2 3 4 5 6 
#
# 1 0.013398 -0.004374 -0.003334 -0.000453 0.005811 0.002491
# 2 -0.004374 0.012922 -0.002359 -0.002689 -0.003983 -0.000995
# 3 -0.003334 -0.002359 0.014231 -0.002547 0.011604 -0.002357
# 4 -0.000453 -0.002689 -0.002547 0.032452 -0.005141 0.004022
# 5 0.005811 -0.003983 0.011604 -0.005141 0.043649 -0.004264
# 6 0.002491 -0.000995 -0.002357 0.004022 -0.004264 0.024703
#
#
# Mechanical properties :
#
#
# Convention : Reuss Voigt Hill
#
# Bulk Modulus (GPa) = 48.98036 65.13583 57.05810
# Shear Modulus (GPa) = 29.70977 36.13168 32.92072
#
# Velocity S-wave (km/s) = 3.81535 4.20754 4.01624
# Velocity P-wave (km/s) = 6.58848 7.45112 7.03304
#
# Compressibility (1/GPa) = 0.02041634
#
# Stress axis : x y z
#
# Youngs Moduli (GPa) = 74.63775 77.38915 70.26966
#
# Poissons Ratio (x) = 0.33847 0.23430
# Poissons Ratio (y) = 0.32644 0.16578
# Poissons Ratio (z) = 0.24887 0.18258
#
# Static dielectric constant tensor:
#      x y z
#    x 1.787950 0.025080 -0.023630 
#    y 0.025080 1.821700 -0.018580 
#    z -0.023630 -0.018580 1.800940 
# 
# From -- ./inp_files/469771.got.cif
#   From: 2010.05.17/outbox.cif.g08.bks.cpg/sg2_235_cif.got.tgz:469771.got - 2010.06.03 11:33:40.
