data_PCOD9108966
_publ_section_title
;
Structure prediction by ZEFSAII (Michael W. Deem and Ramdas Pophale) SiO2 
 PCOD9108966
Probable space group: P -1
;
_chemical_formula_sum "Si O2"
_cell_formula_units_Z 14
_cell_length_a 5.199583
_cell_length_b 6.256580
_cell_length_c 21.303509
_cell_angle_alpha 93.273632
_cell_angle_beta 120.099700
_cell_angle_gamma 99.048017
_cell_volume 584.576834
_symmetry_space_group_name_H-M "P -1"
_symmetry_group_IT_number 2
_symmetry_cell_setting 'triclinic'
loop_
_space_group_symop_operation_xyz
x,y,z
-x,-y,-z
loop_
_atom_site_type_symbol
_atom_site_label
_atom_site_fract_x
_atom_site_fract_y
_atom_site_fract_z
Si Si1 0.804195 0.463357 0.912681
Si Si2 0.748821 0.285945 0.476667
Si Si3 0.639718 0.245047 0.322571
Si Si4 0.043928 0.334332 0.707905
Si Si5 0.493422 0.038726 0.808646
Si Si6 0.827250 0.991168 0.582917
Si Si7 0.827507 0.377658 0.159587
O O1 0.475274 0.522327 0.885051
O O2 0.982970 0.610057 0.880658
O O3 0.755501 0.211545 0.878480
O O4 0.000000 0.500000 0.000000
O O5 0.568018 0.254165 0.387007
O O6 0.439566 0.208497 0.477485
O O7 0.000000 0.500000 0.500000
O O8 0.933130 0.138306 0.537303
O O9 0.768271 0.481743 0.312525
O O10 0.418392 0.095591 0.242935
O O11 0.920626 0.125657 0.361298
O O12 0.962721 0.471491 0.759423
O O13 0.272972 0.191342 0.759397
O O14 0.788040 0.169699 0.634598
O O15 0.306016 0.857518 0.829661
#
# Coordination Sequence:
#
# PCOD9108966 Si02
#       7
#     2   2   2   2   2   2   2
#     4  11  24  43  69 102 135 171 215 264 320 387
#     4  11  22  38  58  84 122 158 209 263 323 382
#     4  10  20  41  61  86 119 164 212 262 319 379
#     4   9  19  42  60  88 123 160 217 262 316 379
#     4   9  22  42  64  93 128 170 214 265 322 380
#     4  10  22  39  57  86 118 162 207 265 322 377
#     4  10  23  42  67  99 134 172 218 263 321 385
#
# _framework density 23.948948000000001
#
# number of rings (size 3 to 8) (size 9 to 14) (size 15 to 20)
#    0.000    2.000    1.429    0.857    2.000    4.000 
#   23.143    0.000    0.000    0.000    0.000    0.000 
#    0.000    0.000    0.000    0.000    0.000    0.000 
#
# Total GULP energy -78038.916451 kJ/mol
# GULP energy per Si atom -5574.208318 kJ/mol
# Density = 2.389444 g / cm^3
# Si number density = 23.948948 Si / 1000 Ang^3
#
#
#
# Elastic Constant Matrix: (Units=GPa)
#
#
# Indices 1 2 3 4 5 6 
#
# 1 52.0645 10.6555 21.3146 -4.0249 -4.2870 17.9094
# 2 10.6555 166.8337 71.2305 8.9431 5.5092 27.0166
# 3 21.3146 71.2305 176.0538 26.1814 -8.0555 9.9814
# 4 -4.0249 8.9431 26.1814 44.5594 8.7713 0.8718
# 5 -4.2870 5.5092 -8.0555 8.7713 26.6472 -2.6769
# 6 17.9094 27.0166 9.9814 0.8718 -2.6769 22.4799
#
#
#
# Elastic Compliance Matrix: (Units=1/GPa)
#
#
# Indices 1 2 3 4 5 6 
#
# 1 0.029956 0.004325 -0.004747 0.005577 -0.002100 -0.027421
# 2 0.004325 0.009845 -0.004241 0.002112 -0.004727 -0.014039
# 3 -0.004747 -0.004241 0.008755 -0.005875 0.005281 0.005849
# 4 0.005577 0.002112 -0.005875 0.028337 -0.011328 -0.006821
# 5 -0.002100 -0.004727 0.005281 -0.011328 0.044573 0.010757
# 6 -0.027421 -0.014039 0.005849 -0.006821 0.010757 0.082151
#
#
# Mechanical properties :
#
#
# Convention : Reuss Voigt Hill
#
# Bulk Modulus (GPa) = 25.49216 66.81702 46.15459
# Shear Modulus (GPa) = 22.12191 38.18739 30.15465
#
# Velocity S-wave (km/s) = 3.04256 3.99749 3.55226
# Velocity P-wave (km/s) = 4.79691 7.01904 6.01154
#
# Compressibility (1/GPa) = 0.03922775
#
# Stress axis : x y z
#
# Youngs Moduli (GPa) = 33.38218 101.57585 114.22573
#
# Poissons Ratio (x) = -0.43927 0.54226
# Poissons Ratio (y) = -0.14436 0.48445
# Poissons Ratio (z) = 0.15847 0.43080
#
# Static dielectric constant tensor:
#      x y z
#    x 2.314900 0.049150 0.028820 
#    y 0.049150 1.984900 0.072360 
#    z 0.028820 0.072360 2.069320 
# 
# From -- ./inp_files/10166.got.cif
#   From: 2010.05.17/outbox.cif.g08.bks.cpg/sg2_6_cif.got.tgz:10166.got - 2010.06.03 11:33:40.
