data_PCOD9108217
_publ_section_title
;
Structure prediction by ZEFSAII (Michael W. Deem and Ramdas Pophale) SiO2 
 PCOD9108217
Probable space group: P -1
;
_chemical_formula_sum "Si O2"
_cell_formula_units_Z 14
_cell_length_a 20.047000
_cell_length_b 7.874473
_cell_length_c 9.536704
_cell_angle_alpha 48.534777
_cell_angle_beta 34.466453
_cell_angle_gamma 71.024435
_cell_volume 545.107836
_symmetry_space_group_name_H-M "P -1"
_symmetry_group_IT_number 2
_symmetry_cell_setting 'triclinic'
loop_
_space_group_symop_operation_xyz
x,y,z
-x,-y,-z
loop_
_atom_site_type_symbol
_atom_site_label
_atom_site_fract_x
_atom_site_fract_y
_atom_site_fract_z
Si Si1 0.711035 0.347946 0.313732
Si Si2 0.853032 0.884746 0.899744
Si Si3 0.986768 0.732239 0.975192
Si Si4 0.453718 0.101030 0.702792
Si Si5 0.303080 0.104594 0.233928
Si Si6 0.973356 0.460274 0.405281
Si Si7 0.443431 0.600168 0.918422
O O1 0.613026 0.241321 0.407030
O O2 0.665535 0.106507 0.631668
O O3 0.727565 0.614874 0.202717
O O4 0.872160 0.454003 0.956367
O O5 0.882961 0.798416 0.044349
O O6 0.000000 0.000000 0.500000
O O7 0.853652 0.155730 0.755006
O O8 0.141393 0.977638 0.558044
O O9 0.945937 0.647005 0.252829
O O10 0.000000 0.500000 0.000000
O O11 0.455236 0.206064 0.486877
O O12 0.393645 0.785872 0.971668
O O13 0.618408 0.832342 0.083798
O O14 0.346420 0.341650 0.136538
O O15 0.000000 0.500000 0.500000
O O16 0.500000 0.500000 0.000000
#
# Coordination Sequence:
#
# PCOD9108217 Si02
#       7
#     2   2   2   2   2   2   2
#     4  10  21  42  68  95 131 168 219 272 319 397
#     4  10  20  40  67  93 126 170 213 266 321 387
#     4  11  21  43  66  96 129 170 221 265 319 399
#     4  11  25  47  66 100 134 175 224 269 335 393
#     4  11  23  45  71  94 135 180 217 271 335 392
#     4  10  23  42  62  98 134 169 214 270 329 383
#     4  11  25  45  65  96 136 173 224 276 318 393
#
# _framework density 25.682993
#
# number of rings (size 3 to 8) (size 9 to 14) (size 15 to 20)
#    0.000    1.429    5.714    0.857    4.000    0.571 
#   12.857    0.000    0.000    0.000    0.000    0.000 
#    0.000    0.000    0.000    0.000    0.000    0.000 
#
# Total GULP energy -78342.334887 kJ/mol
# GULP energy per Si atom -5595.881063 kJ/mol
# Density = 2.562454 g / cm^3
# Si number density = 25.682993 Si / 1000 Ang^3
#
#
#
# Elastic Constant Matrix: (Units=GPa)
#
#
# Indices 1 2 3 4 5 6 
#
# 1 134.8672 51.4194 68.2095 3.5541 34.3477 13.9970
# 2 51.4194 82.3435 31.0078 -22.0851 -11.4734 30.5932
# 3 68.2095 31.0078 108.3903 -25.3126 13.6767 14.7963
# 4 3.5541 -22.0851 -25.3126 39.6001 19.9008 1.2950
# 5 34.3477 -11.4734 13.6767 19.9008 57.2337 1.1056
# 6 13.9970 30.5932 14.7963 1.2950 1.1056 36.4037
#
#
#
# Elastic Compliance Matrix: (Units=1/GPa)
#
#
# Indices 1 2 3 4 5 6 
#
# 1 0.024883 -0.022911 -0.015076 -0.020639 -0.009072 0.016825
# 2 -0.022911 0.044442 0.012612 0.031307 0.009437 -0.035065
# 3 -0.015076 0.012612 0.023296 0.024968 -0.002381 -0.015087
# 4 -0.020639 0.031307 0.024968 0.066461 -0.009822 -0.030589
# 5 -0.009072 0.009437 -0.002381 -0.009822 0.028870 -0.004002
# 6 0.016825 -0.035065 -0.015087 -0.030589 -0.004002 0.057811
#
#
# Mechanical properties :
#
#
# Convention : Reuss Voigt Hill
#
# Bulk Modulus (GPa) = 23.88411 69.65272 46.76841
# Shear Modulus (GPa) = 16.10459 38.31178 27.20819
#
# Velocity S-wave (km/s) = 2.50682 3.86647 3.25835
# Velocity P-wave (km/s) = 4.20697 6.86380 5.69256
#
# Compressibility (1/GPa) = 0.04186885
#
# Stress axis : x y z
#
# Youngs Moduli (GPa) = 40.18820 22.50136 42.92584
#
# Poissons Ratio (x) = 0.51554 0.64716
# Poissons Ratio (y) = 0.92077 -0.54137
# Poissons Ratio (z) = 0.60588 -0.28378
#
# Static dielectric constant tensor:
#      x y z
#    x 2.070190 -0.135510 0.001310 
#    y -0.135510 2.045530 -0.043320 
#    z 0.001310 -0.043320 2.020120 
# 
# From -- ./inp_files/227157.got.cif
#   From: 2010.05.17/outbox.cif.g08.bks.cpg/sg2_114_cif.got.tgz:227157.got - 2010.06.03 11:33:40.
