data_PCOD9108004
_publ_section_title
;
Structure prediction by ZEFSAII (Michael W. Deem and Ramdas Pophale) SiO2 
 PCOD9108004
Probable space group: P -1
;
_chemical_formula_sum "Si O2"
_cell_formula_units_Z 16
_cell_length_a 15.164345
_cell_length_b 8.306526
_cell_length_c 12.363297
_cell_angle_alpha 36.514702
_cell_angle_beta 129.113588
_cell_angle_gamma 130.968191
_cell_volume 680.715537
_symmetry_space_group_name_H-M "P -1"
_symmetry_group_IT_number 2
_symmetry_cell_setting 'triclinic'
loop_
_space_group_symop_operation_xyz
x,y,z
-x,-y,-z
loop_
_atom_site_type_symbol
_atom_site_label
_atom_site_fract_x
_atom_site_fract_y
_atom_site_fract_z
Si Si1 0.458925 0.311628 0.962083
Si Si2 0.873583 0.886786 0.898471
Si Si3 0.473338 0.619415 0.593657
Si Si4 0.875119 0.557049 0.758100
Si Si5 0.352319 0.998173 0.752743
Si Si6 0.866265 0.279740 0.122830
Si Si7 0.695994 0.065621 0.791877
Si Si8 0.255940 0.062952 0.427783
O O1 0.557196 0.179210 0.062627
O O2 0.350554 0.045579 0.065359
O O3 0.500000 0.500000 0.000000
O O4 0.433236 0.502636 0.745131
O O5 0.841367 0.057498 0.677911
O O6 0.758931 0.853805 0.903771
O O7 0.867987 0.583979 0.008442
O O8 0.000000 0.000000 0.000000
O O9 0.414153 0.860391 0.387299
O O10 0.616873 0.755767 0.623928
O O11 0.425903 0.337673 0.632025
O O12 0.803212 0.365756 0.709758
O O13 0.797577 0.732527 0.654561
O O14 0.007852 0.753208 0.727334
O O15 0.878902 0.327466 0.978035
O O16 0.250257 0.939887 0.796462
O O17 0.292413 0.892785 0.645857
#
# Coordination Sequence:
#
# PCOD9108004 Si02
#       8
#     2   2   2   2   2   2   2   2
#     4  12  26  41  66 100 138 180 224 274 339 405
#     4  11  24  45  67  95 135 184 224 271 341 400
#     4  12  25  45  69 103 140 177 221 282 343 399
#     4  10  20  40  66  94 127 179 224 277 330 395
#     4  12  23  43  67 101 139 173 225 285 338 398
#     4  10  22  41  66  95 132 175 233 272 333 400
#     4  12  23  43  70  99 137 175 229 271 340 405
#     4  11  23  42  68  98 135 177 220 280 339 398
#
# _framework density 23.504677000000001
#
# number of rings (size 3 to 8) (size 9 to 14) (size 15 to 20)
#    0.000    0.750    3.750    5.250    1.750    1.500 
#    0.000    0.625    0.000    0.000    0.000    0.000 
#    0.000    0.000    0.000    0.000    0.000    0.000 
#
# Total GULP energy -89395.006218 kJ/mol
# GULP energy per Si atom -5587.187889 kJ/mol
# Density = 2.345118 g / cm^3
# Si number density = 23.504677 Si / 1000 Ang^3
#
#
#
# Elastic Constant Matrix: (Units=GPa)
#
#
# Indices 1 2 3 4 5 6 
#
# 1 120.8645 25.3551 37.4643 9.6296 10.1850 19.3572
# 2 25.3551 79.8230 11.1402 13.6944 15.4207 3.0378
# 3 37.4643 11.1402 83.4085 6.7075 -4.6579 -0.1882
# 4 9.6296 13.6944 6.7075 25.2326 2.1507 -5.6231
# 5 10.1850 15.4207 -4.6579 2.1507 39.3657 7.5861
# 6 19.3572 3.0378 -0.1882 -5.6231 7.5861 26.6044
#
#
#
# Elastic Compliance Matrix: (Units=1/GPa)
#
#
# Indices 1 2 3 4 5 6 
#
# 1 0.012093 -0.001888 -0.004911 -0.004264 -0.000955 -0.009247
# 2 -0.001888 0.015501 -0.000945 -0.007087 -0.005229 -0.000410
# 3 -0.004911 -0.000945 0.014581 -0.001131 0.002904 0.002717
# 4 -0.004264 -0.007087 -0.001131 0.048838 -0.001761 0.014728
# 5 -0.000955 -0.005229 0.002904 -0.001761 0.029583 -0.007495
# 6 -0.009247 -0.000410 0.002717 0.014728 -0.007495 0.049632
#
#
# Mechanical properties :
#
#
# Convention : Reuss Voigt Hill
#
# Bulk Modulus (GPa) = 37.47265 48.00167 42.73716
# Shear Modulus (GPa) = 25.69224 32.24963 28.97094
#
# Velocity S-wave (km/s) = 3.30975 3.70814 3.51459
# Velocity P-wave (km/s) = 5.53020 6.22898 5.88997
#
# Compressibility (1/GPa) = 0.02668613
#
# Stress axis : x y z
#
# Youngs Moduli (GPa) = 82.69061 64.51217 68.58437
#
# Poissons Ratio (x) = 0.12179 0.33682
# Poissons Ratio (y) = 0.15611 0.06484
# Poissons Ratio (z) = 0.40610 0.06099
#
# Static dielectric constant tensor:
#      x y z
#    x 1.874080 0.005280 -0.009620 
#    y 0.005280 1.962310 0.069450 
#    z -0.009620 0.069450 1.943050 
# 
# From -- ./inp_files/306143.got.cif
#   From: 2010.05.17/outbox.cif.g08.bks.cpg/sg2_154_cif.got.tgz:306143.got - 2010.06.03 11:33:40.
