data_PCOD9108694
_publ_section_title
;
Structure prediction by ZEFSAII (Michael W. Deem and Ramdas Pophale) SiO2 
 PCOD9108694
Probable space group: P -1
;
_chemical_formula_sum "Si O2"
_cell_formula_units_Z 13
_cell_length_a 12.681939
_cell_length_b 14.114455
_cell_length_c 7.147067
_cell_angle_alpha 130.736840
_cell_angle_beta 29.738525
_cell_angle_gamma 133.308835
_cell_volume 455.981134
_symmetry_space_group_name_H-M "P -1"
_symmetry_group_IT_number 2
_symmetry_cell_setting 'triclinic'
loop_
_space_group_symop_operation_xyz
x,y,z
-x,-y,-z
loop_
_atom_site_type_symbol
_atom_site_label
_atom_site_fract_x
_atom_site_fract_y
_atom_site_fract_z
Si Si1 0.790861 0.656109 0.390321
Si Si2 0.500000 0.500000 0.000000
Si Si3 0.967679 0.853204 0.668222
Si Si4 0.276273 0.525995 0.083491
Si Si5 0.654461 0.893666 0.730868
Si Si6 0.477679 0.797255 0.481069
Si Si7 0.751330 0.184085 0.487961
O O1 0.554746 0.567578 0.738623
O O2 0.819075 0.560199 0.061129
O O3 0.735382 0.773081 0.518028
O O4 0.956373 0.728718 0.391298
O O5 0.242550 0.447270 0.224662
O O6 0.553421 0.357973 0.674932
O O7 0.054124 0.845062 0.734578
O O8 0.135313 0.980754 0.475487
O O9 0.715859 0.858071 0.083829
O O10 0.235282 0.663561 0.304977
O O11 0.510528 0.847963 0.705614
O O12 0.475223 0.903220 0.173352
O O13 0.285880 0.827329 0.690778
#
# Coordination Sequence:
#
# PCOD9108694 Si02
#       7
#     2   1   2   2   2   2   2
#     4  10  19  35  65  88 115 165 205 245 304 367
#     4  10  16  36  62  82 120 154 204 250 304 352
#     4  12  23  41  62  93 128 160 206 254 301 372
#     4   9  18  36  61  87 115 159 204 248 308 355
#     4  11  22  42  64  89 126 169 202 248 311 363
#     4  11  23  41  65  90 122 167 204 257 304 361
#     4  10  24  42  62  93 125 161 204 257 309 356
#
# _framework density 28.50995
#
# number of rings (size 3 to 8) (size 9 to 14) (size 15 to 20)
#    0.000    1.538    6.154    1.385    0.000    1.231 
#    2.769    3.077    0.000    0.000    0.000    0.000 
#    0.000    0.000    0.000    0.000    0.000    0.000 
#
# Total GULP energy -72755.318069 kJ/mol
# GULP energy per Si atom -5596.562928 kJ/mol
# Density = 2.844506 g / cm^3
# Si number density = 28.509950 Si / 1000 Ang^3
#
#
#
# Elastic Constant Matrix: (Units=GPa)
#
#
# Indices 1 2 3 4 5 6 
#
# 1 214.1168 78.2753 34.5368 -4.4405 0.6590 2.8066
# 2 78.2753 150.2541 29.8744 -7.7338 6.9149 5.0821
# 3 34.5368 29.8744 72.8170 -20.0976 0.0513 -2.1104
# 4 -4.4405 -7.7338 -20.0976 39.1569 1.7085 4.0235
# 5 0.6590 6.9149 0.0513 1.7085 48.6534 8.8234
# 6 2.8066 5.0821 -2.1104 4.0235 8.8234 61.4183
#
#
#
# Elastic Compliance Matrix: (Units=1/GPa)
#
#
# Indices 1 2 3 4 5 6 
#
# 1 0.005985 -0.002791 -0.001938 -0.000872 0.000367 -0.000105
# 2 -0.002791 0.008619 -0.002116 0.000402 -0.001104 -0.000526
# 3 -0.001938 -0.002116 0.017878 0.008507 -0.000050 0.000328
# 4 -0.000872 0.000402 0.008507 0.030081 -0.000829 -0.001553
# 5 0.000367 -0.001104 -0.000050 -0.000829 0.021266 -0.002928
# 6 -0.000105 -0.000526 0.000328 -0.001553 -0.002928 0.016864
#
#
# Mechanical properties :
#
#
# Convention : Reuss Voigt Hill
#
# Bulk Modulus (GPa) = 53.21206 80.28455 66.74830
# Shear Modulus (GPa) = 41.44340 49.47913 45.46127
#
# Velocity S-wave (km/s) = 3.81681 4.17046 3.99755
# Velocity P-wave (km/s) = 6.17486 7.17019 6.69106
#
# Compressibility (1/GPa) = 0.01879273
#
# Stress axis : x y z
#
# Youngs Moduli (GPa) = 167.07269 116.01717 55.93567
#
# Poissons Ratio (x) = 0.32381 0.10839
# Poissons Ratio (y) = 0.46631 0.11836
# Poissons Ratio (z) = 0.32376 0.24549
#
# Static dielectric constant tensor:
#      x y z
#    x 2.881290 -0.334370 0.285960 
#    y -0.334370 2.391360 -0.190180 
#    z 0.285960 -0.190180 2.416490 
# 
# From -- ./inp_files/265596.got.cif
#   From: 2010.05.17/outbox.cif.g08.bks.cpg/sg2_133_cif.got.tgz:265596.got - 2010.06.03 11:33:40.
