data_PCOD9108153
_publ_section_title
;
Structure prediction by ZEFSAII (Michael W. Deem and Ramdas Pophale) SiO2 
 PCOD9108153
Probable space group: P -1
;
_chemical_formula_sum "Si O2"
_cell_formula_units_Z 12
_cell_length_a 8.217286
_cell_length_b 9.872404
_cell_length_c 9.809953
_cell_angle_alpha 78.171285
_cell_angle_beta 133.675627
_cell_angle_gamma 104.726786
_cell_volume 556.188253
_symmetry_space_group_name_H-M "P -1"
_symmetry_group_IT_number 2
_symmetry_cell_setting 'triclinic'
loop_
_space_group_symop_operation_xyz
x,y,z
-x,-y,-z
loop_
_atom_site_type_symbol
_atom_site_label
_atom_site_fract_x
_atom_site_fract_y
_atom_site_fract_z
Si Si1 0.351230 0.343420 0.797979
Si Si2 0.680923 0.083552 0.282282
Si Si3 0.279829 0.066825 0.396022
Si Si4 0.800283 0.952946 0.095868
Si Si5 0.809343 0.392162 0.224916
Si Si6 0.313099 0.367736 0.454954
O O1 0.227795 0.204860 0.830476
O O2 0.225811 0.474189 0.734175
O O3 0.355713 0.322828 0.643924
O O4 0.607190 0.374861 0.999680
O O5 0.765431 0.248533 0.316528
O O6 0.776651 0.992135 0.470866
O O7 0.749397 0.048354 0.175718
O O8 0.405615 0.048590 0.128675
O O9 0.325331 0.234422 0.393659
O O10 0.500000 0.000000 0.500000
O O11 0.056850 0.010370 0.191170
O O12 0.057727 0.404378 0.299935
O O13 0.500000 0.500000 0.500000
#
# Coordination Sequence:
#
# PCOD9108153 Si02
#       6
#     2   2   2   2   2   2
#     4  10  22  41  66  91 115 153 203 248 292 348
#     4  10  20  40  67  87 111 154 205 252 292 339
#     4  12  26  39  58  90 125 159 196 242 297 355
#     4  10  20  40  67  87 111 154 205 252 292 339
#     4  10  22  41  66  91 115 153 203 248 292 348
#     4  12  26  40  58  88 127 162 191 239 302 358
#
# _framework density 21.575427999999999
#
# number of rings (size 3 to 8) (size 9 to 14) (size 15 to 20)
#    0.000    1.333    3.333    2.000    4.667    1.333 
#    0.000    0.000    0.000    0.000    0.000    0.000 
#    0.000    0.000    0.000    0.000    0.000    0.000 
#
# Total GULP energy -67132.029800 kJ/mol
# GULP energy per Si atom -5594.335817 kJ/mol
# Density = 2.152632 g / cm^3
# Si number density = 21.575428 Si / 1000 Ang^3
#
#
#
# Elastic Constant Matrix: (Units=GPa)
#
#
# Indices 1 2 3 4 5 6 
#
# 1 72.6843 24.7317 28.2452 15.9099 36.7421 3.7526
# 2 24.7317 142.2573 38.5157 8.9814 22.1686 3.2800
# 3 28.2452 38.5157 94.0384 14.2097 30.2320 13.3260
# 4 15.9099 8.9814 14.2097 28.9336 8.8089 6.6140
# 5 36.7421 22.1686 30.2320 8.8089 45.9438 6.8137
# 6 3.7526 3.2800 13.3260 6.6140 6.8137 19.2780
#
#
#
# Elastic Compliance Matrix: (Units=1/GPa)
#
#
# Indices 1 2 3 4 5 6 
#
# 1 0.025335 -0.000897 -0.000722 -0.008895 -0.018432 0.005286
# 2 -0.000897 0.008157 -0.002684 -0.000565 -0.001549 0.001384
# 3 -0.000722 -0.002684 0.015515 -0.002771 -0.006801 -0.006773
# 4 -0.008895 -0.000565 -0.002771 0.042879 0.002759 -0.011944
# 5 -0.018432 -0.001549 -0.006801 0.002759 0.042288 -0.007341
# 6 0.005286 0.001384 -0.006773 -0.011944 -0.007341 0.061982
#
#
# Mechanical properties :
#
#
# Convention : Reuss Voigt Hill
#
# Bulk Modulus (GPa) = 24.75144 54.66279 39.70712
# Shear Modulus (GPa) = 22.91147 33.33025 28.12086
#
# Velocity S-wave (km/s) = 3.26225 3.93469 3.61414
# Velocity P-wave (km/s) = 5.06820 6.78477 5.98831
#
# Compressibility (1/GPa) = 0.04040168
#
# Stress axis : x y z
#
# Youngs Moduli (GPa) = 39.47062 122.58750 64.45343
#
# Poissons Ratio (x) = 0.10998 0.04651
# Poissons Ratio (y) = 0.03541 0.17301
# Poissons Ratio (z) = 0.02848 0.32905
#
# Static dielectric constant tensor:
#      x y z
#    x 1.802910 -0.001570 0.017940 
#    y -0.001570 1.754930 0.015020 
#    z 0.017940 0.015020 1.791440 
# 
# From -- ./inp_files/155515.got.cif
#   From: 2010.05.17/outbox.cif.g08.bks.cpg/sg2_78_cif.got.tgz:155515.got - 2010.06.03 11:33:40.
