data_PCOD9108239
_publ_section_title
;
Structure prediction by ZEFSAII (Michael W. Deem and Ramdas Pophale) SiO2 
 PCOD9108239
Probable space group: P -1
;
_chemical_formula_sum "Si O2"
_cell_formula_units_Z 8
_cell_length_a 8.080292
_cell_length_b 5.170054
_cell_length_c 10.542884
_cell_angle_alpha 62.401603
_cell_angle_beta 122.205766
_cell_angle_gamma 82.541084
_cell_volume 285.561942
_symmetry_space_group_name_H-M "P -1"
_symmetry_group_IT_number 2
_symmetry_cell_setting 'triclinic'
loop_
_space_group_symop_operation_xyz
x,y,z
-x,-y,-z
loop_
_atom_site_type_symbol
_atom_site_label
_atom_site_fract_x
_atom_site_fract_y
_atom_site_fract_z
Si Si1 0.069180 0.796458 0.862214
Si Si2 0.534841 0.359043 0.191344
Si Si3 0.437629 0.879915 0.372976
Si Si4 0.233358 0.300133 0.805996
O O1 0.107520 0.523711 0.829986
O O2 0.097408 0.112447 0.754067
O O3 0.284583 0.605600 0.087800
O O4 0.831384 0.922109 0.800329
O O5 0.726358 0.420254 0.313364
O O6 0.565611 0.991845 0.299120
O O7 0.500000 0.500000 0.000000
O O8 0.500000 0.500000 0.500000
O O9 0.500000 0.000000 0.500000
O O10 0.500000 0.000000 0.000000
#
# Coordination Sequence:
#
# PCOD9108239 Si02
#       4
#     2   2   2   2
#     4  10  20  40  67  94 126 175 222 264 322 398
#     4   9  21  44  71  96 126 174 228 271 320 400
#     4  12  27  44  63  98 141 175 214 276 338 387
#     4   9  18  36  65  98 122 156 219 279 315 371
#
# _framework density 28.014935999999999
#
# number of rings (size 3 to 8) (size 9 to 14) (size 15 to 20)
#    0.000    2.000    0.000    4.500    0.000   12.000 
#    0.000   30.000    0.000    0.000    0.000    0.000 
#    0.000    0.000    0.000    0.000    0.000    0.000 
#
# Total GULP energy -44634.932181 kJ/mol
# GULP energy per Si atom -5579.366523 kJ/mol
# Density = 2.795117 g / cm^3
# Si number density = 28.014936 Si / 1000 Ang^3
#
#
#
# Elastic Constant Matrix: (Units=GPa)
#
#
# Indices 1 2 3 4 5 6 
#
# 1 110.1276 55.5765 46.0328 -31.8842 -36.9041 40.6611
# 2 55.5765 220.8533 62.9860 -56.2262 -29.7391 14.9833
# 3 46.0328 62.9860 90.7025 -23.0945 -32.3044 16.7478
# 4 -31.8842 -56.2262 -23.0945 58.1746 9.7790 -12.3280
# 5 -36.9041 -29.7391 -32.3044 9.7790 36.9181 -21.1475
# 6 40.6611 14.9833 16.7478 -12.3280 -21.1475 60.3990
#
#
#
# Elastic Compliance Matrix: (Units=1/GPa)
#
#
# Indices 1 2 3 4 5 6 
#
# 1 0.017609 -0.000695 -0.002495 0.004954 0.009796 -0.006549
# 2 -0.000695 0.006978 -0.002727 0.005226 0.001846 0.001206
# 3 -0.002495 -0.002727 0.018634 0.001728 0.012194 0.001811
# 4 0.004954 0.005226 0.001728 0.025175 0.005030 0.001789
# 5 0.009796 0.001846 0.012194 0.005030 0.052932 0.009126
# 6 -0.006549 0.001206 0.001811 0.001789 0.009126 0.023725
#
#
# Mechanical properties :
#
#
# Convention : Reuss Voigt Hill
#
# Bulk Modulus (GPa) = 31.86091 83.43046 57.64568
# Shear Modulus (GPa) = 29.87787 48.23753 39.05770
#
# Velocity S-wave (km/s) = 3.26927 4.15402 3.73791
# Velocity P-wave (km/s) = 5.06442 7.27002 6.26504
#
# Compressibility (1/GPa) = 0.03138643
#
# Stress axis : x y z
#
# Youngs Moduli (GPa) = 56.78935 143.31151 53.66633
#
# Poissons Ratio (x) = 0.09961 0.13387
# Poissons Ratio (y) = 0.03947 0.14637
# Poissons Ratio (z) = 0.14166 0.39087
#
# Static dielectric constant tensor:
#      x y z
#    x 2.413210 -0.066770 -0.086360 
#    y -0.066770 2.416160 -0.033350 
#    z -0.086360 -0.033350 2.383220 
# 
# From -- ./inp_files/15880.got.cif
#   From: 2010.05.17/outbox.cif.g08.bks.cpg/sg2_8_cif.got.tgz:15880.got - 2010.06.03 11:33:40.
