data_PCOD9108328
_publ_section_title
;
Structure prediction by ZEFSAII (Michael W. Deem and Ramdas Pophale) SiO2 
 PCOD9108328
Probable space group: P -1
;
_chemical_formula_sum "Si O2"
_cell_formula_units_Z 16
_cell_length_a 7.679894
_cell_length_b 5.570553
_cell_length_c 16.839601
_cell_angle_alpha 74.177153
_cell_angle_beta 88.709400
_cell_angle_gamma 71.299689
_cell_volume 654.864355
_symmetry_space_group_name_H-M "P -1"
_symmetry_group_IT_number 2
_symmetry_cell_setting 'triclinic'
loop_
_space_group_symop_operation_xyz
x,y,z
-x,-y,-z
loop_
_atom_site_type_symbol
_atom_site_label
_atom_site_fract_x
_atom_site_fract_y
_atom_site_fract_z
Si Si1 0.829141 0.461401 0.113088
Si Si2 0.093566 0.041663 0.737098
Si Si3 0.387274 0.269557 0.761733
Si Si4 0.704931 0.344079 0.545756
Si Si5 0.228693 0.795517 0.608367
Si Si6 0.623387 0.810184 0.624311
Si Si7 0.730136 0.381503 0.783154
Si Si8 0.139270 0.705301 0.039283
O O1 0.683596 0.663867 0.153171
O O2 0.000302 0.550450 0.078843
O O3 0.910982 0.206318 0.189846
O O4 0.757733 0.392777 0.035733
O O5 0.292914 0.066820 0.748977
O O6 0.935858 0.280729 0.755751
O O7 0.079785 0.999376 0.647381
O O8 0.300043 0.527798 0.683884
O O9 0.603354 0.220795 0.763379
O O10 0.500000 0.500000 0.500000
O O11 0.827514 0.275663 0.470795
O O12 0.730106 0.559281 0.588428
O O13 0.689260 0.063785 0.600103
O O14 0.408307 0.892033 0.592215
O O15 0.644373 0.674602 0.723022
O O16 0.734374 0.335356 0.881084
O O17 0.000000 0.000000 0.000000
#
# Coordination Sequence:
#
# PCOD9108328 Si02
#       8
#     2   2   2   2   2   2   2   2
#     4  10  21  41  66  96 126 177 226 278 336 427
#     4  11  22  43  66  96 139 174 224 279 350 409
#     4  10  22  41  64  99 132 170 234 268 348 412
#     4  10  20  40  68 100 141 181 231 285 343 412
#     4   9  21  36  65  95 128 186 220 273 342 412
#     4  10  23  39  65 104 138 178 237 282 345 414
#     4  11  24  43  67  99 135 182 219 296 339 404
#     4  11  21  42  69  92 133 174 229 274 352 408
#
# _framework density 24.432541000000001
#
# number of rings (size 3 to 8) (size 9 to 14) (size 15 to 20)
#    0.000    1.750    2.500    1.500    7.000    1.500 
#    4.500    3.750    0.000    0.000    0.000    0.000 
#    0.000    0.000    0.000    0.000    0.000    0.000 
#
# Total GULP energy -89451.043827 kJ/mol
# GULP energy per Si atom -5590.690239 kJ/mol
# Density = 2.437693 g / cm^3
# Si number density = 24.432541 Si / 1000 Ang^3
#
#
#
# Elastic Constant Matrix: (Units=GPa)
#
#
# Indices 1 2 3 4 5 6 
#
# 1 70.7644 26.4228 21.9186 -2.4697 -2.7744 8.2215
# 2 26.4228 110.9591 56.1910 15.9013 -5.7392 13.4329
# 3 21.9186 56.1910 150.3490 32.3040 2.1314 7.9767
# 4 -2.4697 15.9013 32.3040 50.9033 1.2503 -13.3095
# 5 -2.7744 -5.7392 2.1314 1.2503 32.8643 -2.2975
# 6 8.2215 13.4329 7.9767 -13.3095 -2.2975 23.5871
#
#
#
# Elastic Compliance Matrix: (Units=1/GPa)
#
#
# Indices 1 2 3 4 5 6 
#
# 1 0.016105 -0.003071 -0.001574 0.002192 0.000700 -0.002028
# 2 -0.003071 0.012913 -0.003109 -0.004194 0.001838 -0.007420
# 3 -0.001574 -0.003109 0.009705 -0.006472 -0.001391 -0.004750
# 4 0.002192 -0.004194 -0.006472 0.030695 0.000183 0.021151
# 5 0.000700 0.001838 -0.001391 0.000183 0.031053 0.002308
# 6 -0.002028 -0.007420 -0.004750 0.021151 0.002308 0.061094
#
#
# Mechanical properties :
#
#
# Convention : Reuss Voigt Hill
#
# Bulk Modulus (GPa) = 43.07521 60.12637 51.60079
# Shear Modulus (GPa) = 27.05485 36.64029 31.84757
#
# Velocity S-wave (km/s) = 3.33126 3.87673 3.61430
# Velocity P-wave (km/s) = 5.69780 6.68590 6.21153
#
# Compressibility (1/GPa) = 0.02321521
#
# Stress axis : x y z
#
# Youngs Moduli (GPa) = 62.09309 77.44354 103.04025
#
# Poissons Ratio (x) = 0.23780 0.16214
# Poissons Ratio (y) = 0.19067 0.32040
# Poissons Ratio (z) = 0.09770 0.24081
#
# Static dielectric constant tensor:
#      x y z
#    x 1.959730 0.000740 0.052600 
#    y 0.000740 1.985380 0.073890 
#    z 0.052600 0.073890 2.027880 
# 
# From -- ./inp_files/138781.got.cif
#   From: 2010.05.17/outbox.cif.g08.bks.cpg/sg2_70_cif.got.tgz:138781.got - 2010.06.03 11:33:40.
