data_PCOD9108824
_publ_section_title
;
Structure prediction by ZEFSAII (Michael W. Deem and Ramdas Pophale) SiO2 
 PCOD9108824
Probable space group: P -1
;
_chemical_formula_sum "Si O2"
_cell_formula_units_Z 14
_cell_length_a 11.970000
_cell_length_b 9.415743
_cell_length_c 9.162527
_cell_angle_alpha 96.829493
_cell_angle_beta 129.236532
_cell_angle_gamma 60.886529
_cell_volume 671.035425
_symmetry_space_group_name_H-M "P -1"
_symmetry_group_IT_number 2
_symmetry_cell_setting 'triclinic'
loop_
_space_group_symop_operation_xyz
x,y,z
-x,-y,-z
loop_
_atom_site_type_symbol
_atom_site_label
_atom_site_fract_x
_atom_site_fract_y
_atom_site_fract_z
Si Si1 0.851153 0.006536 0.469735
Si Si2 0.171723 0.423039 0.540353
Si Si3 0.296199 0.562164 0.200660
Si Si4 0.179151 0.325753 0.078104
Si Si5 0.068422 0.221527 0.219831
Si Si6 0.313900 0.167032 0.853769
Si Si7 0.323884 0.622089 0.557820
O O1 0.708357 0.203889 0.386014
O O2 0.898839 0.926097 0.661623
O O3 0.795834 0.896723 0.322870
O O4 0.000000 0.000000 0.500000
O O5 0.139369 0.325854 0.373639
O O6 0.317091 0.295507 0.757308
O O7 0.212209 0.558553 0.533336
O O8 0.000000 0.500000 0.500000
O O9 0.311547 0.383480 0.226660
O O10 0.271274 0.648968 0.347089
O O11 0.475857 0.519211 0.282054
O O12 0.132939 0.667018 0.973529
O O13 0.171274 0.184252 0.148101
O O14 0.220191 0.263985 0.937467
O O15 0.000000 0.500000 0.000000
O O16 0.500000 0.000000 0.000000
#
# Coordination Sequence:
#
# PCOD9108824 Si02
#       7
#     2   2   2   2   2   2   2
#     4  11  26  42  62  95 139 168 208 272 338 386
#     4  11  22  41  70  95 126 180 228 258 319 406
#     4  10  22  39  68  96 126 163 223 275 321 372
#     4  10  20  40  72  95 122 174 234 262 308 404
#     4  10  22  41  66  95 119 178 227 262 315 394
#     4  11  25  45  65  98 135 171 216 277 335 385
#     4  11  23  42  62  99 135 165 212 277 328 386
#
# _framework density 20.86328
#
# number of rings (size 3 to 8) (size 9 to 14) (size 15 to 20)
#    0.000    1.429    1.429    4.286    6.000    1.714 
#    5.143    6.429    0.000    0.000    0.000    0.000 
#    0.000    0.000    0.000    0.000    0.000    0.000 
#
# Total GULP energy -78093.560345 kJ/mol
# GULP energy per Si atom -5578.111453 kJ/mol
# Density = 2.081579 g / cm^3
# Si number density = 20.863280 Si / 1000 Ang^3
#
#
#
# Elastic Constant Matrix: (Units=GPa)
#
#
# Indices 1 2 3 4 5 6 
#
# 1 108.3423 21.4073 20.4852 -3.0272 -0.8061 2.7571
# 2 21.4073 72.0098 8.7624 7.9685 -11.1305 -6.9071
# 3 20.4852 8.7624 66.1074 -3.4803 -7.9196 -11.1324
# 4 -3.0272 7.9685 -3.4803 34.5712 -2.3313 -3.8566
# 5 -0.8061 -11.1305 -7.9196 -2.3313 29.5752 5.9514
# 6 2.7571 -6.9071 -11.1324 -3.8566 5.9514 31.8357
#
#
#
# Elastic Compliance Matrix: (Units=1/GPa)
#
#
# Indices 1 2 3 4 5 6 
#
# 1 0.010594 -0.003282 -0.003361 0.000987 -0.001276 -0.002447
# 2 -0.003282 0.016315 -0.000312 -0.003468 0.005227 0.002317
# 3 -0.003361 -0.000312 0.017788 0.002485 0.003526 0.006085
# 4 0.000987 -0.003468 0.002485 0.030528 0.001084 0.003527
# 5 -0.001276 0.005227 0.003526 0.001084 0.037666 -0.004433
# 6 -0.002447 0.002317 0.006085 0.003527 -0.004433 0.035510
#
#
# Mechanical properties :
#
#
# Convention : Reuss Voigt Hill
#
# Bulk Modulus (GPa) = 32.48014 38.64104 35.56059
# Shear Modulus (GPa) = 28.97350 32.25007 30.61179
#
# Velocity S-wave (km/s) = 3.73061 3.93591 3.83463
# Velocity P-wave (km/s) = 5.84453 6.26230 6.05702
#
# Compressibility (1/GPa) = 0.03078804
#
# Stress axis : x y z
#
# Youngs Moduli (GPa) = 94.39102 61.29505 56.21887
#
# Poissons Ratio (x) = 0.20115 0.18895
# Poissons Ratio (y) = 0.30976 0.01752
# Poissons Ratio (z) = 0.31724 0.01910
#
# Static dielectric constant tensor:
#      x y z
#    x 1.784090 0.013410 -0.044430 
#    y 0.013410 1.826160 -0.032320 
#    z -0.044430 -0.032320 1.827150 
# 
# From -- ./inp_files/184429.got.cif
#   From: 2010.05.17/outbox.cif.g08.bks.cpg/sg2_93_cif.got.tgz:184429.got - 2010.06.03 11:33:40.
