data_PCOD9108732
_publ_section_title
;
Structure prediction by ZEFSAII (Michael W. Deem and Ramdas Pophale) SiO2 
 PCOD9108732
Probable space group: P -1
;
_chemical_formula_sum "Si O2"
_cell_formula_units_Z 15
_cell_length_a 7.610882
_cell_length_b 21.431563
_cell_length_c 18.078277
_cell_angle_alpha 16.894158
_cell_angle_beta 135.398288
_cell_angle_gamma 138.010104
_cell_volume 573.284727
_symmetry_space_group_name_H-M "P -1"
_symmetry_group_IT_number 2
_symmetry_cell_setting 'triclinic'
loop_
_space_group_symop_operation_xyz
x,y,z
-x,-y,-z
loop_
_atom_site_type_symbol
_atom_site_label
_atom_site_fract_x
_atom_site_fract_y
_atom_site_fract_z
Si Si1 0.199678 0.586908 0.871541
Si Si2 0.630217 0.193577 0.759630
Si Si3 0.025972 0.549522 0.302085
Si Si4 0.230431 0.078918 0.185599
Si Si5 0.500000 0.000000 0.500000
Si Si6 0.194920 0.406191 0.373975
Si Si7 0.395671 0.933332 0.259291
Si Si8 0.093386 0.151007 0.428657
O O1 0.962595 0.496625 0.844885
O O2 0.135761 0.827079 0.607464
O O3 0.486209 0.729294 0.771210
O O4 0.195170 0.406103 0.137640
O O5 0.850294 0.373450 0.668370
O O6 0.454470 0.342247 0.505174
O O7 0.671760 0.048622 0.866798
O O8 0.500000 0.000000 0.000000
O O9 0.228551 0.542490 0.305800
O O10 0.803866 0.312106 0.504179
O O11 0.891105 0.736399 0.031301
O O12 0.446803 0.068087 0.320205
O O13 0.337013 0.109622 0.098861
O O14 0.005217 0.841269 0.389473
O O15 0.687029 0.922904 0.377738
O O16 0.000000 0.000000 0.500000
#
# Coordination Sequence:
#
# PCOD9108732 Si02
#       8
#     2   2   2   2   1   2   2   2
#     4  10  22  40  67  99 137 173 222 279 337 414
#     4  12  24  46  69  96 132 177 227 288 338 396
#     4  11  24  44  68  92 134 178 224 275 345 395
#     4  10  22  42  66  99 134 176 218 276 336 404
#     4  10  20  40  70  98 140 176 224 272 340 410
#     4  10  22  43  66  98 131 170 227 279 334 402
#     4  11  25  44  66  98 137 171 229 278 332 409
#     4  11  23  41  66 100 138 178 220 274 348 407
#
# _framework density 26.165006999999999
#
# number of rings (size 3 to 8) (size 9 to 14) (size 15 to 20)
#    0.000    1.333    2.667    2.400    0.000    5.867 
#    4.800    6.000    0.000    0.000    0.000    0.000 
#    0.000    0.000    0.000    0.000    0.000    0.000 
#
# Total GULP energy -83737.724262 kJ/mol
# GULP energy per Si atom -5582.514951 kJ/mol
# Density = 2.610545 g / cm^3
# Si number density = 26.165007 Si / 1000 Ang^3
#
#
#
# Elastic Constant Matrix: (Units=GPa)
#
#
# Indices 1 2 3 4 5 6 
#
# 1 61.1460 12.5033 1.4916 -3.4930 1.2802 -26.9881
# 2 12.5033 138.3640 -1.8812 -2.5506 1.5771 -15.4131
# 3 1.4916 -1.8812 57.4197 -17.5461 -9.6939 -6.5434
# 4 -3.4930 -2.5506 -17.5461 40.4123 -2.4674 -1.4751
# 5 1.2802 1.5771 -9.6939 -2.4674 16.6860 5.7655
# 6 -26.9881 -15.4131 -6.5434 -1.4751 5.7655 47.4203
#
#
#
# Elastic Compliance Matrix: (Units=1/GPa)
#
#
# Indices 1 2 3 4 5 6 
#
# 1 0.022699 -0.000412 0.000738 0.002410 -0.005633 0.013646
# 2 -0.000412 0.007572 0.000572 0.000714 -0.001096 0.002461
# 3 0.000738 0.000572 0.023585 0.011310 0.014414 0.002459
# 4 0.002410 0.000714 0.011310 0.030616 0.009836 0.002921
# 5 -0.005633 -0.001096 0.014414 0.009836 0.073834 -0.010244
# 6 0.013646 0.002461 0.002459 0.002921 -0.010244 0.031330
#
#
# Mechanical properties :
#
#
# Convention : Reuss Voigt Hill
#
# Bulk Modulus (GPa) = 17.96915 31.23968 24.60441
# Shear Modulus (GPa) = 24.22568 37.22479 30.72523
#
# Velocity S-wave (km/s) = 3.04613 3.77595 3.43051
# Velocity P-wave (km/s) = 4.38799 5.56559 5.01150
#
# Compressibility (1/GPa) = 0.05565093
#
# Stress axis : x y z
#
# Youngs Moduli (GPa) = 44.05404 132.06292 42.40006
#
# Poissons Ratio (x) = 0.05447 -0.03127
# Poissons Ratio (y) = 0.01817 -0.02426
# Poissons Ratio (z) = -0.03249 -0.07556
#
# Static dielectric constant tensor:
#      x y z
#    x 2.336570 0.139060 -0.032760 
#    y 0.139060 2.224070 -0.129060 
#    z -0.032760 -0.129060 2.067790 
# 
# From -- ./inp_files/36859.got.cif
#   From: 2010.05.17/outbox.cif.g08.bks.cpg/sg2_19_cif.got.tgz:36859.got - 2010.06.03 11:33:40.
