data_PCOD9108008
_publ_section_title
;
Structure prediction by ZEFSAII (Michael W. Deem and Ramdas Pophale) SiO2 
 PCOD9108008
Probable space group: P -1
;
_chemical_formula_sum "Si O2"
_cell_formula_units_Z 15
_cell_length_a 24.764374
_cell_length_b 7.497545
_cell_length_c 13.717052
_cell_angle_alpha 58.835278
_cell_angle_beta 20.381325
_cell_angle_gamma 47.186632
_cell_volume 575.014129
_symmetry_space_group_name_H-M "P -1"
_symmetry_group_IT_number 2
_symmetry_cell_setting 'triclinic'
loop_
_space_group_symop_operation_xyz
x,y,z
-x,-y,-z
loop_
_atom_site_type_symbol
_atom_site_label
_atom_site_fract_x
_atom_site_fract_y
_atom_site_fract_z
Si Si1 0.866587 0.624070 0.960723
Si Si2 0.459994 0.624898 0.139296
Si Si3 0.648275 0.053699 0.353458
Si Si4 0.104206 0.680859 0.399384
Si Si5 0.500000 0.000000 0.000000
Si Si6 0.696929 0.444213 0.097366
Si Si7 0.712540 0.332269 0.387896
Si Si8 0.775015 0.810170 0.405016
O O1 0.960232 0.628577 0.701471
O O2 0.057164 0.490513 0.751201
O O3 0.806900 0.443848 0.141685
O O4 0.689706 0.928970 0.212612
O O5 0.346832 0.581332 0.422180
O O6 0.341875 0.948049 0.250110
O O7 0.500000 0.500000 0.000000
O O8 0.676525 0.520195 0.853873
O O9 0.756820 0.186043 0.129223
O O10 0.415974 0.292513 0.716234
O O11 0.736356 0.826990 0.351503
O O12 0.147190 0.618179 0.229963
O O13 0.000000 0.000000 0.500000
O O14 0.421582 0.051005 0.233404
O O15 0.506615 0.523779 0.332685
O O16 0.825751 0.012087 0.274522
#
# Coordination Sequence:
#
# PCOD9108008 Si02
#       8
#     2   2   2   2   1   2   2   2
#     4  12  22  36  65  96 122 163 216 272 323 382
#     4  10  22  41  66  96 133 176 225 271 330 410
#     4  10  21  35  64  90 120 162 218 259 318 396
#     4  11  22  43  67  93 133 177 217 272 336 396
#     4  10  20  40  66  94 128 182 210 270 348 396
#     4   9  20  44  61  83 127 176 207 257 329 398
#     4   9  22  39  59  93 128 165 210 266 331 392
#     4  10  21  38  61  91 127 162 209 269 332 385
#
# _framework density 26.086314999999999
#
# number of rings (size 3 to 8) (size 9 to 14) (size 15 to 20)
#    0.000    1.867    2.667    1.600    1.867    1.600 
#    0.000    1.333    0.000    8.000    0.000    0.000 
#    0.000    0.000    0.000    0.000    0.000    0.000 
#
# Total GULP energy -83562.709179 kJ/mol
# GULP energy per Si atom -5570.847279 kJ/mol
# Density = 2.602694 g / cm^3
# Si number density = 26.086315 Si / 1000 Ang^3
#
#
#
# Elastic Constant Matrix: (Units=GPa)
#
#
# Indices 1 2 3 4 5 6 
#
# 1 79.1520 10.6681 46.5338 -8.4727 40.4045 -2.1035
# 2 10.6681 83.2448 59.7103 -24.9766 16.7621 7.2385
# 3 46.5338 59.7103 177.3087 -45.1247 50.9333 -2.8357
# 4 -8.4727 -24.9766 -45.1247 55.3625 -7.3688 5.1546
# 5 40.4045 16.7621 50.9333 -7.3688 52.5678 -1.9698
# 6 -2.1035 7.2385 -2.8357 5.1546 -1.9698 43.1299
#
#
#
# Elastic Compliance Matrix: (Units=1/GPa)
#
#
# Indices 1 2 3 4 5 6 
#
# 1 0.021154 0.001709 -0.001594 0.000703 -0.015167 -0.000137
# 2 0.001709 0.017105 -0.004665 0.004282 -0.001786 -0.003687
# 3 -0.001594 -0.004665 0.011209 0.005774 -0.007323 0.000418
# 4 0.000703 0.004282 0.005774 0.024571 -0.004185 -0.003432
# 5 -0.015167 -0.001786 -0.007323 -0.004185 0.037807 0.001305
# 6 -0.000137 -0.003687 0.000418 -0.003432 0.001305 0.024295
#
#
# Mechanical properties :
#
#
# Convention : Reuss Voigt Hill
#
# Bulk Modulus (GPa) = 24.77170 63.72555 44.24862
# Shear Modulus (GPa) = 31.50654 45.06492 38.28573
#
# Velocity S-wave (km/s) = 3.47908 4.16087 3.83516
# Velocity P-wave (km/s) = 5.06511 6.89678 6.05066
#
# Compressibility (1/GPa) = 0.04036864
#
# Stress axis : x y z
#
# Youngs Moduli (GPa) = 47.27135 58.46328 89.21553
#
# Poissons Ratio (x) = -0.09992 0.14219
# Poissons Ratio (y) = -0.08079 0.41620
# Poissons Ratio (z) = 0.07534 0.27274
#
# Static dielectric constant tensor:
#      x y z
#    x 2.158920 0.052200 -0.087670 
#    y 0.052200 2.045930 -0.081600 
#    z -0.087670 -0.081600 2.079910 
# 
# From -- ./inp_files/303949.got.cif
#   From: 2010.05.17/outbox.cif.g08.bks.cpg/sg2_152_cif.got.tgz:303949.got - 2010.06.03 11:33:40.
