data_PCOD9108035
_publ_section_title
;
Structure prediction by ZEFSAII (Michael W. Deem and Ramdas Pophale) SiO2 
 PCOD9108035
Probable space group: P -1
;
_chemical_formula_sum "Si O2"
_cell_formula_units_Z 15
_cell_length_a 7.934368
_cell_length_b 8.807042
_cell_length_c 13.152642
_cell_angle_alpha 132.069536
_cell_angle_beta 75.340261
_cell_angle_gamma 96.711552
_cell_volume 658.275852
_symmetry_space_group_name_H-M "P -1"
_symmetry_group_IT_number 2
_symmetry_cell_setting 'triclinic'
loop_
_space_group_symop_operation_xyz
x,y,z
-x,-y,-z
loop_
_atom_site_type_symbol
_atom_site_label
_atom_site_fract_x
_atom_site_fract_y
_atom_site_fract_z
Si Si1 0.433902 0.008616 0.174518
Si Si2 0.442534 0.302025 0.475490
Si Si3 0.416180 0.720716 0.326723
Si Si4 0.000000 0.000000 0.000000
Si Si5 0.834338 0.871862 0.459378
Si Si6 0.301972 0.276769 0.124994
Si Si7 0.120917 0.783783 0.071253
Si Si8 0.786321 0.690901 0.170381
O O1 0.508897 0.116133 0.308843
O O2 0.383468 0.186061 0.178042
O O3 0.250682 0.906404 0.174929
O O4 0.570181 0.836389 0.029323
O O5 0.500000 0.500000 0.500000
O O6 0.513966 0.305955 0.580546
O O7 0.234891 0.273993 0.507859
O O8 0.311384 0.521752 0.229310
O O9 0.578880 0.722798 0.225810
O O10 0.314829 0.941756 0.441127
O O11 0.889996 0.798182 0.897289
O O12 0.139898 0.858690 0.986731
O O13 0.850565 0.738904 0.295445
O O14 0.000000 0.000000 0.500000
O O15 0.913045 0.822451 0.142128
O O16 0.173311 0.545796 0.969694
#
# Coordination Sequence:
#
# PCOD9108035 Si02
#       8
#     2   2   2   1   2   2   2   2
#     4  10  20  40  66  95 129 172 214 274 327 392
#     4  11  22  41  70  99 127 174 226 271 333 393
#     4  11  23  45  67  96 134 177 218 274 335 399
#     4  10  24  36  60  96 130 170 214 278 322 380
#     4  11  26  44  67  92 138 179 224 272 335 403
#     4  10  21  39  64  94 134 167 219 273 331 386
#     4  10  21  40  67  95 133 166 219 271 328 390
#     4  10  21  41  65  93 128 175 212 270 328 397
#
# _framework density 22.786798000000001
#
# number of rings (size 3 to 8) (size 9 to 14) (size 15 to 20)
#    0.000    1.600    2.667    2.400    1.867    2.133 
#    0.000    2.000    0.000    0.000    0.000    0.000 
#    0.000    0.000    0.000    0.000    0.000    0.000 
#
# Total GULP energy -83527.908374 kJ/mol
# GULP energy per Si atom -5568.527225 kJ/mol
# Density = 2.273493 g / cm^3
# Si number density = 22.786798 Si / 1000 Ang^3
#
#
#
# Elastic Constant Matrix: (Units=GPa)
#
#
# Indices 1 2 3 4 5 6 
#
# 1 86.9474 19.5444 16.7216 16.4305 14.9482 28.3168
# 2 19.5444 82.3488 24.2275 17.4504 8.4006 25.7687
# 3 16.7216 24.2275 87.4459 7.8722 27.3411 15.5716
# 4 16.4305 17.4504 7.8722 27.3982 15.4877 10.6099
# 5 14.9482 8.4006 27.3411 15.4877 34.1568 10.2379
# 6 28.3168 25.7687 15.5716 10.6099 10.2379 35.8262
#
#
#
# Elastic Compliance Matrix: (Units=1/GPa)
#
#
# Indices 1 2 3 4 5 6 
#
# 1 0.016310 0.001141 -0.000542 -0.005212 -0.001143 -0.011607
# 2 0.001141 0.018095 -0.004426 -0.010485 0.006574 -0.010767
# 3 -0.000542 -0.004426 0.017186 0.007537 -0.015337 -0.001708
# 4 -0.005212 -0.010485 0.007537 0.060685 -0.028235 -0.001519
# 5 -0.001143 0.006574 -0.015337 -0.028235 0.054554 -0.004387
# 6 -0.011607 -0.010767 -0.001708 -0.001519 -0.004387 0.047277
#
#
# Mechanical properties :
#
#
# Convention : Reuss Voigt Hill
#
# Bulk Modulus (GPa) = 22.75865 41.96989 32.36427
# Shear Modulus (GPa) = 21.14996 32.55948 26.85472
#
# Velocity S-wave (km/s) = 3.04989 3.78415 3.43668
# Velocity P-wave (km/s) = 4.73411 6.12793 5.47555
#
# Compressibility (1/GPa) = 0.04393934
#
# Stress axis : x y z
#
# Youngs Moduli (GPa) = 61.31084 55.26336 58.18576
#
# Poissons Ratio (x) = -0.06308 0.03152
# Poissons Ratio (y) = -0.06998 0.25753
# Poissons Ratio (z) = 0.03321 0.24459
#
# Static dielectric constant tensor:
#      x y z
#    x 1.954240 0.028390 -0.014210 
#    y 0.028390 1.954780 -0.036090 
#    z -0.014210 -0.036090 1.838500 
# 
# From -- ./inp_files/494061.got.cif
#   From: 2010.05.17/outbox.cif.g08.bks.cpg/sg2_248_cif.got.tgz:494061.got - 2010.06.03 11:33:40.
