data_PCOD9108144
_publ_section_title
;
Structure prediction by ZEFSAII (Michael W. Deem and Ramdas Pophale) SiO2 
 PCOD9108144
Probable space group: P -1
;
_chemical_formula_sum "Si O2"
_cell_formula_units_Z 14
_cell_length_a 10.998849
_cell_length_b 13.659347
_cell_length_c 18.422008
_cell_angle_alpha 21.161574
_cell_angle_beta 147.328889
_cell_angle_gamma 150.187532
_cell_volume 488.447301
_symmetry_space_group_name_H-M "P -1"
_symmetry_group_IT_number 2
_symmetry_cell_setting 'triclinic'
loop_
_space_group_symop_operation_xyz
x,y,z
-x,-y,-z
loop_
_atom_site_type_symbol
_atom_site_label
_atom_site_fract_x
_atom_site_fract_y
_atom_site_fract_z
Si Si1 0.093092 0.196578 0.301427
Si Si2 0.459654 0.988804 0.575057
Si Si3 0.761659 0.634471 0.132811
Si Si4 0.449676 0.712299 0.226323
Si Si5 0.158008 0.433639 0.543505
Si Si6 0.290782 0.641449 0.955114
Si Si7 0.952621 0.158292 0.006380
O O1 0.254365 0.410874 0.298115
O O2 0.187314 0.410332 0.130082
O O3 0.198140 0.961763 0.495218
O O4 0.811415 0.115483 0.239804
O O5 0.438060 0.662857 0.802868
O O6 0.500000 0.000000 0.500000
O O7 0.657418 0.279525 0.514726
O O8 0.577526 0.724897 0.025761
O O9 0.929090 0.848745 0.006346
O O10 0.940482 0.516692 0.348124
O O11 0.693267 0.647885 0.389686
O O12 0.296239 0.783139 0.162927
O O13 0.500000 0.000000 0.000000
O O14 0.077528 0.136226 0.758988
O O15 0.135124 0.445427 0.945545
#
# Coordination Sequence:
#
# PCOD9108144 Si02
#       7
#     2   2   2   2   2   2   2
#     4   9  18  37  69  98 138 197 242 288 367 440
#     4  11  23  46  73 109 145 190 249 305 363 436
#     4  12  25  44  74 115 149 186 249 310 365 436
#     4   8  17  39  66 102 142 192 242 293 361 442
#     4  10  24  45  75 106 148 199 242 302 375 436
#     4  10  20  40  67 105 148 190 243 298 363 443
#     4  10  22  44  75 108 152 195 244 302 371 441
#
# _framework density 28.662251000000001
#
# number of rings (size 3 to 8) (size 9 to 14) (size 15 to 20)
#    0.000    2.000    1.429    1.286    0.000    2.286 
#    0.000   12.857    0.000    1.714    0.000    0.000 
#    0.000    0.000    0.000    0.000    0.000    0.000 
#
# Total GULP energy -78383.025426 kJ/mol
# GULP energy per Si atom -5598.787530 kJ/mol
# Density = 2.859701 g / cm^3
# Si number density = 28.662251 Si / 1000 Ang^3
#
#
#
# Elastic Constant Matrix: (Units=GPa)
#
#
# Indices 1 2 3 4 5 6 
#
# 1 242.7529 95.3264 128.5632 16.4215 70.0303 23.3326
# 2 95.3264 157.3027 67.5933 34.9433 27.6913 20.2751
# 3 128.5632 67.5933 145.4190 24.4974 36.6852 20.3056
# 4 16.4215 34.9433 24.4974 39.7448 14.3192 26.1375
# 5 70.0303 27.6913 36.6852 14.3192 82.4322 -0.4504
# 6 23.3326 20.2751 20.3056 26.1375 -0.4504 63.9802
#
#
#
# Elastic Compliance Matrix: (Units=1/GPa)
#
#
# Indices 1 2 3 4 5 6 
#
# 1 0.011132 -0.003783 -0.007294 0.008072 -0.006363 -0.003888
# 2 -0.003783 0.010405 -0.000644 -0.009083 0.001594 0.002009
# 3 -0.007294 -0.000644 0.014256 -0.006201 0.001151 0.000881
# 4 0.008072 -0.009083 -0.006201 0.049106 -0.009677 -0.018227
# 5 -0.006363 0.001594 0.001151 -0.009677 0.018200 0.005531
# 6 -0.003888 0.002009 0.000881 -0.018227 0.005531 0.023617
#
#
# Mechanical properties :
#
#
# Convention : Reuss Voigt Hill
#
# Bulk Modulus (GPa) = 80.97897 125.38226 103.18062
# Shear Modulus (GPa) = 32.40963 54.16423 43.28693
#
# Velocity S-wave (km/s) = 3.36630 4.35183 3.89040
# Velocity P-wave (km/s) = 6.58965 8.31210 7.50048
#
# Compressibility (1/GPa) = 0.01234889
#
# Stress axis : x y z
#
# Youngs Moduli (GPa) = 89.83484 96.10976 70.14443
#
# Poissons Ratio (x) = 0.36361 0.51167
# Poissons Ratio (y) = 0.33987 0.04518
# Poissons Ratio (z) = 0.65530 0.06191
#
# Static dielectric constant tensor:
#      x y z
#    x 2.265990 0.088630 0.020300 
#    y 0.088630 2.461560 0.185750 
#    z 0.020300 0.185750 2.344400 
# 
# From -- ./inp_files/610690.got.cif
#   From: 2010.05.17/outbox.cif.g08.bks.cpg/sg2_306_cif.got.tgz:610690.got - 2010.06.03 11:33:40.
