data_PCOD9108918
_publ_section_title
;
Structure prediction by ZEFSAII (Michael W. Deem and Ramdas Pophale) SiO2 
 PCOD9108918
Probable space group: P -1
;
_chemical_formula_sum "Si O2"
_cell_formula_units_Z 12
_cell_length_a 14.381755
_cell_length_b 6.491987
_cell_length_c 7.131437
_cell_angle_alpha 113.407718
_cell_angle_beta 87.378784
_cell_angle_gamma 75.295788
_cell_volume 582.912280
_symmetry_space_group_name_H-M "P -1"
_symmetry_group_IT_number 2
_symmetry_cell_setting 'triclinic'
loop_
_space_group_symop_operation_xyz
x,y,z
-x,-y,-z
loop_
_atom_site_type_symbol
_atom_site_label
_atom_site_fract_x
_atom_site_fract_y
_atom_site_fract_z
Si Si1 0.454855 0.482512 0.700467
Si Si2 0.222455 0.683722 0.258968
Si Si3 0.059457 0.470985 0.174972
Si Si4 0.899380 0.795084 0.567107
Si Si5 0.292244 0.356365 0.470224
Si Si6 0.395357 0.836219 0.139206
O O1 0.500000 0.500000 0.500000
O O2 0.356230 0.411659 0.650719
O O3 0.526274 0.285040 0.753076
O O4 0.438221 0.730970 0.898048
O O5 0.162782 0.510661 0.134187
O O6 0.272241 0.571905 0.406223
O O7 0.304588 0.732045 0.140041
O O8 0.143558 0.935255 0.383479
O O9 0.079591 0.242065 0.224485
O O10 0.994717 0.667519 0.394322
O O11 0.000000 0.500000 0.000000
O O12 0.812833 0.678172 0.487439
O O13 0.354338 0.114231 0.275696
#
# Coordination Sequence:
#
# PCOD9108918 Si02
#       6
#     2   2   2   2   2   2
#     4  11  22  41  63  88 118 161 199 243 303 346
#     4  10  20  41  59  85 123 153 194 245 291 351
#     4  10  21  37  61  89 114 156 196 236 296 349
#     4   9  21  40  58  86 123 151 192 245 287 350
#     4  10  21  41  62  87 124 158 194 246 298 346
#     4  10  23  41  60  90 121 154 203 247 287 358
#
# _framework density 20.586286999999999
#
# number of rings (size 3 to 8) (size 9 to 14) (size 15 to 20)
#    0.000    2.000    1.667    1.000    2.333    1.333 
#   12.000    0.000    0.000    0.000    0.000    0.000 
#    0.000    0.000    0.000    0.000    0.000    0.000 
#
# Total GULP energy -66966.454881 kJ/mol
# GULP energy per Si atom -5580.537907 kJ/mol
# Density = 2.053943 g / cm^3
# Si number density = 20.586287 Si / 1000 Ang^3
#
#
#
# Elastic Constant Matrix: (Units=GPa)
#
#
# Indices 1 2 3 4 5 6 
#
# 1 78.3907 5.5014 28.4003 -14.1191 18.5406 -8.5531
# 2 5.5014 115.7128 38.2810 -10.6317 3.8262 -20.2929
# 3 28.4003 38.2810 96.4490 -12.9639 15.8725 -3.0264
# 4 -14.1191 -10.6317 -12.9639 12.1598 -2.6473 -0.0062
# 5 18.5406 3.8262 15.8725 -2.6473 26.7746 -6.2565
# 6 -8.5531 -20.2929 -3.0264 -0.0062 -6.2565 29.4152
#
#
#
# Elastic Compliance Matrix: (Units=1/GPa)
#
#
# Indices 1 2 3 4 5 6 
#
# 1 0.020198 0.003201 -0.002605 0.021425 -0.009422 0.005814
# 2 0.003201 0.012550 -0.004566 0.010249 0.001938 0.009533
# 3 -0.002605 -0.004566 0.014904 0.007451 -0.006521 -0.003759
# 4 0.021425 0.010249 0.007451 0.122816 -0.005558 0.012910
# 5 -0.009422 0.001938 -0.006521 -0.005558 0.048856 0.008316
# 6 0.005814 0.009533 -0.003759 0.012910 0.008316 0.043648
#
#
# Mechanical properties :
#
#
# Convention : Reuss Voigt Hill
#
# Bulk Modulus (GPa) = 25.18132 48.32423 36.75277
# Shear Modulus (GPa) = 17.59640 28.22791 22.91216
#
# Velocity S-wave (km/s) = 2.92681 3.70699 3.33976
# Velocity P-wave (km/s) = 4.86623 6.46895 5.72396
#
# Compressibility (1/GPa) = 0.03971198
#
# Stress axis : x y z
#
# Youngs Moduli (GPa) = 49.51099 79.68225 67.09519
#
# Poissons Ratio (x) = -0.25508 0.17479
# Poissons Ratio (y) = -0.15850 0.30635
# Poissons Ratio (z) = 0.12898 0.36382
#
# Static dielectric constant tensor:
#      x y z
#    x 1.778600 0.010130 -0.008390 
#    y 0.010130 1.733560 -0.011750 
#    z -0.008390 -0.011750 1.726270 
# 
# From -- ./inp_files/3053.got.cif
#   From: 2010.05.17/outbox.cif.g08.bks.cpg/sg2_2_cif.got.tgz:3053.got - 2010.06.03 11:33:40.
