data_PCOD9108638
_publ_section_title
;
Structure prediction by ZEFSAII (Michael W. Deem and Ramdas Pophale) SiO2 
 PCOD9108638
Probable space group: P -1
;
_chemical_formula_sum "Si O2"
_cell_formula_units_Z 16
_cell_length_a 11.378044
_cell_length_b 14.046218
_cell_length_c 11.891510
_cell_angle_alpha 91.754883
_cell_angle_beta 38.414574
_cell_angle_gamma 122.584712
_cell_volume 660.939828
_symmetry_space_group_name_H-M "P -1"
_symmetry_group_IT_number 2
_symmetry_cell_setting 'triclinic'
loop_
_space_group_symop_operation_xyz
x,y,z
-x,-y,-z
loop_
_atom_site_type_symbol
_atom_site_label
_atom_site_fract_x
_atom_site_fract_y
_atom_site_fract_z
Si Si1 0.854470 0.593798 0.374419
Si Si2 0.116276 0.264239 0.836713
Si Si3 0.716849 0.148417 0.748770
Si Si4 0.305971 0.320555 0.176754
Si Si5 0.292699 0.620034 0.923859
Si Si6 0.635209 0.817276 0.301542
Si Si7 0.743114 0.251059 0.231640
Si Si8 0.605424 0.308169 0.768398
O O1 0.461019 0.444841 0.642364
O O2 0.007373 0.736112 0.181228
O O3 0.972532 0.672369 0.410242
O O4 0.021353 0.566833 0.200218
O O5 0.261813 0.223743 0.692740
O O6 0.828703 0.178182 0.134813
O O7 0.532003 0.165672 0.841751
O O8 0.916028 0.177153 0.500434
O O9 0.500000 0.000000 0.000000
O O10 0.469645 0.335429 0.163987
O O11 0.500000 0.500000 0.000000
O O12 0.375154 0.277582 0.019677
O O13 0.428169 0.757940 0.740993
O O14 0.090132 0.456093 0.999091
O O15 0.438526 0.813869 0.516287
O O16 0.470359 0.709737 0.306939
O O17 0.000000 0.000000 0.000000
O O18 0.000000 0.500000 0.500000
#
# Coordination Sequence:
#
# PCOD9108638 Si02
#       8
#     2   2   2   2   2   2   2   2
#     4  10  20  42  68  99 133 172 231 298 345 417
#     4  10  22  39  69  98 127 179 237 281 344 424
#     4  12  28  45  71 105 146 190 239 306 368 428
#     4  12  26  43  75 105 139 194 245 304 362 436
#     4  10  20  40  70 102 132 167 243 301 342 409
#     4  12  28  44  66 101 150 184 225 293 367 426
#     4  10  22  39  67 100 131 180 230 294 345 418
#     4  12  26  50  74 106 146 195 253 298 355 454
#
# _framework density 24.207953
#
# number of rings (size 3 to 8) (size 9 to 14) (size 15 to 20)
#    0.000    1.000    3.750    2.250    7.000    1.000 
#    4.500    0.000    0.000    0.000    0.000    0.000 
#    0.000    0.000    0.000    0.000    0.000    0.000 
#
# Total GULP energy -89212.552452 kJ/mol
# GULP energy per Si atom -5575.784528 kJ/mol
# Density = 2.415285 g / cm^3
# Si number density = 24.207953 Si / 1000 Ang^3
#
#
#
# Elastic Constant Matrix: (Units=GPa)
#
#
# Indices 1 2 3 4 5 6 
#
# 1 95.4453 31.4237 15.8205 16.1384 1.8544 -2.1383
# 2 31.4237 37.8930 47.7853 27.8791 -4.8565 -12.6621
# 3 15.8205 47.7853 140.2077 40.4970 8.5315 -11.4983
# 4 16.1384 27.8791 40.4970 50.5934 -3.5044 -5.8886
# 5 1.8544 -4.8565 8.5315 -3.5044 25.9955 1.1189
# 6 -2.1383 -12.6621 -11.4983 -5.8886 1.1189 38.9611
#
#
#
# Elastic Compliance Matrix: (Units=1/GPa)
#
#
# Indices 1 2 3 4 5 6 
#
# 1 0.018724 -0.030516 0.007242 0.003756 -0.008652 -0.005936
# 2 -0.030516 0.122470 -0.029740 -0.029074 0.029860 0.024099
# 3 0.007242 -0.029740 0.017078 -0.000866 -0.011621 -0.004025
# 4 0.003756 -0.029074 -0.000866 0.034751 -0.000549 -0.004230
# 5 -0.008652 0.029860 -0.011621 -0.000549 0.048217 0.004332
# 6 -0.005936 0.024099 -0.004025 -0.004230 0.004332 0.031221
#
#
# Mechanical properties :
#
#
# Convention : Reuss Voigt Hill
#
# Bulk Modulus (GPa) = 19.14042 51.51168 35.32605
# Shear Modulus (GPa) = 12.62939 35.01111 23.82025
#
# Velocity S-wave (km/s) = 2.28656 3.80710 3.14026
# Velocity P-wave (km/s) = 3.85940 6.37577 5.26998
#
# Compressibility (1/GPa) = 0.05224547
#
# Stress axis : x y z
#
# Youngs Moduli (GPa) = 53.40864 8.16528 58.55489
#
# Poissons Ratio (x) = 0.24917 -0.42408
# Poissons Ratio (y) = 1.62980 1.74141
# Poissons Ratio (z) = -0.38681 0.24283
#
# Static dielectric constant tensor:
#      x y z
#    x 2.049120 -0.132210 0.128630 
#    y -0.132210 2.019930 -0.095940 
#    z 0.128630 -0.095940 1.968800 
# 
# From -- ./inp_files/434027.got.cif
#   From: 2010.05.17/outbox.cif.g08.bks.cpg/sg2_218_cif.got.tgz:434027.got - 2010.06.03 11:33:40.
