data_PCOD9108908
_publ_section_title
;
Structure prediction by ZEFSAII (Michael W. Deem and Ramdas Pophale) SiO2 
 PCOD9108908
Probable space group: P -1
;
_chemical_formula_sum "Si O2"
_cell_formula_units_Z 16
_cell_length_a 6.612568
_cell_length_b 30.045345
_cell_length_c 7.040161
_cell_angle_alpha 48.580625
_cell_angle_beta 112.555545
_cell_angle_gamma 130.452183
_cell_volume 795.584625
_symmetry_space_group_name_H-M "P -1"
_symmetry_group_IT_number 2
_symmetry_cell_setting 'triclinic'
loop_
_space_group_symop_operation_xyz
x,y,z
-x,-y,-z
loop_
_atom_site_type_symbol
_atom_site_label
_atom_site_fract_x
_atom_site_fract_y
_atom_site_fract_z
Si Si1 0.710817 0.796068 0.524976
Si Si2 0.152576 0.654843 0.773750
Si Si3 0.799486 0.923128 0.940090
Si Si4 0.558311 0.840946 0.701355
Si Si5 0.604785 0.951346 0.133558
Si Si6 0.465169 0.590528 0.220162
Si Si7 0.629250 0.532188 0.752502
Si Si8 0.989030 0.714984 0.873505
O O1 0.402364 0.729800 0.566703
O O2 0.806638 0.863625 0.233464
O O3 0.714809 0.820118 0.677170
O O4 0.882329 0.763970 0.650580
O O5 0.936236 0.597691 0.709828
O O6 0.000081 0.674552 0.808199
O O7 0.283753 0.620050 0.035002
O O8 0.596116 0.932450 0.961941
O O9 0.717913 0.894009 0.781551
O O10 0.083574 0.999266 0.835212
O O11 0.472878 0.880288 0.414873
O O12 0.295837 0.768715 0.893541
O O13 0.500000 0.000000 0.000000
O O14 0.464866 0.558943 0.512702
O O15 0.388002 0.528499 0.214051
O O16 0.772532 0.655778 0.106892
O O17 0.500000 0.500000 0.000000
#
# Coordination Sequence:
#
# PCOD9108908 Si02
#       8
#     2   2   2   2   2   2   2   2
#     4   9  21  39  56  83 118 151 193 244 282 346
#     4  10  21  41  61  86 122 155 196 249 296 344
#     4  10  21  37  58  85 113 153 192 232 291 341
#     4  10  21  36  58  85 115 152 193 239 286 343
#     4  10  21  37  57  84 119 149 189 240 283 342
#     4  10  23  41  60  89 120 152 200 247 287 363
#     4  11  22  41  63  88 117 158 196 241 304 352
#     4  10  20  41  58  83 119 150 195 242 290 346
#
# _framework density 20.110997000000001
#
# number of rings (size 3 to 8) (size 9 to 14) (size 15 to 20)
#    0.000    2.000    1.250    1.500    1.750    2.000 
#    9.000    0.000    0.000    0.000    0.000    0.000 
#    0.000    0.000    0.000    0.000    0.000    0.000 
#
# Total GULP energy -89312.439004 kJ/mol
# GULP energy per Si atom -5582.027438 kJ/mol
# Density = 2.006522 g / cm^3
# Si number density = 20.110997 Si / 1000 Ang^3
#
#
#
# Elastic Constant Matrix: (Units=GPa)
#
#
# Indices 1 2 3 4 5 6 
#
# 1 81.5944 23.3551 31.2532 4.3884 4.4341 -27.9617
# 2 23.3551 90.8434 33.3590 -2.9279 -9.9492 -0.2886
# 3 31.2532 33.3590 75.5093 3.0195 -5.6729 -12.1942
# 4 4.3884 -2.9279 3.0195 26.0215 -5.3778 5.5816
# 5 4.4341 -9.9492 -5.6729 -5.3778 21.2382 -11.5087
# 6 -27.9617 -0.2886 -12.1942 5.5816 -11.5087 30.9651
#
#
#
# Elastic Compliance Matrix: (Units=1/GPa)
#
#
# Indices 1 2 3 4 5 6 
#
# 1 0.022339 -0.004493 -0.003470 -0.008010 0.001536 0.020778
# 2 -0.004493 0.014824 -0.005343 0.005173 0.005003 -0.005096
# 3 -0.003470 -0.005343 0.018752 -0.002368 0.006435 0.007020
# 4 -0.008010 0.005173 -0.002368 0.045088 0.007610 -0.013416
# 5 0.001536 0.005003 0.006435 0.007610 0.067819 0.027802
# 6 0.020778 -0.005096 0.007020 -0.013416 0.027802 0.066526
#
#
# Mechanical properties :
#
#
# Convention : Reuss Voigt Hill
#
# Bulk Modulus (GPa) = 34.12677 47.09797 40.61237
# Shear Modulus (GPa) = 18.40084 26.31027 22.35556
#
# Velocity S-wave (km/s) = 3.02812 3.62090 3.33770
# Velocity P-wave (km/s) = 5.40667 6.39930 5.92381
#
# Compressibility (1/GPa) = 0.02930251
#
# Stress axis : x y z
#
# Youngs Moduli (GPa) = 44.76538 67.45980 53.32798
#
# Poissons Ratio (x) = 0.30309 0.18504
# Poissons Ratio (y) = 0.20112 0.28494
# Poissons Ratio (z) = 0.15533 0.36045
#
# Static dielectric constant tensor:
#      x y z
#    x 1.710840 0.010370 -0.017680 
#    y 0.010370 1.716960 -0.014260 
#    z -0.017680 -0.014260 1.694620 
# 
# From -- ./inp_files/10809.got.cif
#   From: 2010.05.17/outbox.cif.g08.bks.cpg/sg2_6_cif.got.tgz:10809.got - 2010.06.03 11:33:40.
