data_PCOD9108094
_publ_section_title
;
Structure prediction by ZEFSAII (Michael W. Deem and Ramdas Pophale) SiO2 
 PCOD9108094
Probable space group: P -1
;
_chemical_formula_sum "Si O2"
_cell_formula_units_Z 10
_cell_length_a 8.715937
_cell_length_b 8.125554
_cell_length_c 11.126548
_cell_angle_alpha 137.043108
_cell_angle_beta 55.205103
_cell_angle_gamma 110.151893
_cell_volume 437.189283
_symmetry_space_group_name_H-M "P -1"
_symmetry_group_IT_number 2
_symmetry_cell_setting 'triclinic'
loop_
_space_group_symop_operation_xyz
x,y,z
-x,-y,-z
loop_
_atom_site_type_symbol
_atom_site_label
_atom_site_fract_x
_atom_site_fract_y
_atom_site_fract_z
Si Si1 0.927128 0.225233 0.563039
Si Si2 0.228894 0.010704 0.149614
Si Si3 0.509847 0.144135 0.694313
Si Si4 0.525187 0.233301 0.283575
Si Si5 0.854490 0.467517 0.941606
O O1 0.703263 0.260030 0.667338
O O2 0.029298 0.163482 0.358090
O O3 0.964375 0.442069 0.751307
O O4 0.000000 0.000000 0.500000
O O5 0.375706 0.194547 0.223286
O O6 0.280032 0.887977 0.932012
O O7 0.236997 0.772649 0.104597
O O8 0.320223 0.327341 0.884054
O O9 0.500000 0.000000 0.500000
O O10 0.520722 0.950047 0.691389
O O11 0.500000 0.500000 0.500000
O O12 0.000000 0.500000 0.000000
#
# Coordination Sequence:
#
# PCOD9108094 Si02
#       5
#     2   2   2   2   2
#     4  10  20  40  66  98 131 169 227 278 324 396
#     4  10  23  43  68  97 137 177 220 282 341 390
#     4  12  23  41  69 102 130 179 230 272 336 405
#     4  11  24  42  67  99 142 180 217 274 344 404
#     4  11  23  41  74  97 133 178 231 282 331 392
#
# _framework density 22.873387999999998
#
# number of rings (size 3 to 8) (size 9 to 14) (size 15 to 20)
#    0.000    1.200    4.000    4.200    2.800    0.000 
#    0.000    5.000    0.000    0.000    0.000    0.000 
#    0.000    0.000    0.000    0.000    0.000    0.000 
#
# Total GULP energy -55747.837664 kJ/mol
# GULP energy per Si atom -5574.783766 kJ/mol
# Density = 2.282133 g / cm^3
# Si number density = 22.873388 Si / 1000 Ang^3
#
#
#
# Elastic Constant Matrix: (Units=GPa)
#
#
# Indices 1 2 3 4 5 6 
#
# 1 99.6350 8.4001 53.8051 8.1223 7.2223 14.7414
# 2 8.4001 38.0474 31.9370 -6.5003 8.1262 13.7977
# 3 53.8051 31.9370 225.9373 -16.9872 16.7204 12.9266
# 4 8.1223 -6.5003 -16.9872 41.5615 -5.3052 8.4011
# 5 7.2223 8.1262 16.7204 -5.3052 50.0421 1.6478
# 6 14.7414 13.7977 12.9266 8.4011 1.6478 14.9892
#
#
#
# Elastic Compliance Matrix: (Units=1/GPa)
#
#
# Indices 1 2 3 4 5 6 
#
# 1 0.013630 0.005500 -0.003030 -0.000042 -0.001336 -0.015684
# 2 0.005500 0.054834 -0.003827 0.017927 -0.004473 -0.062140
# 3 -0.003030 -0.003827 0.005897 0.002274 -0.000678 0.000217
# 4 -0.000042 0.017927 0.002274 0.035791 0.001402 -0.038635
# 5 -0.001336 -0.004473 -0.000678 0.001402 0.021182 0.002901
# 6 -0.015684 -0.062140 0.000217 -0.038635 0.002901 0.160487
#
#
# Mechanical properties :
#
#
# Convention : Reuss Voigt Hill
#
# Bulk Modulus (GPa) = 13.95722 61.32267 37.63995
# Shear Modulus (GPa) = 15.70268 39.28373 27.49320
#
# Velocity S-wave (km/s) = 2.62296 4.14870 3.47071
# Velocity P-wave (km/s) = 3.91005 7.05810 5.70549
#
# Compressibility (1/GPa) = 0.07164752
#
# Stress axis : x y z
#
# Youngs Moduli (GPa) = 73.36664 18.23696 169.57039
#
# Poissons Ratio (x) = -0.10031 0.51386
# Poissons Ratio (y) = -0.40353 0.64889
# Poissons Ratio (z) = 0.22233 0.06979
#
# Static dielectric constant tensor:
#      x y z
#    x 1.886860 0.047980 0.054800 
#    y 0.047980 1.871120 -0.047120 
#    z 0.054800 -0.047120 1.971490 
# 
# From -- ./inp_files/144774.got.cif
#   From: 2010.05.17/outbox.cif.g08.bks.cpg/sg2_73_cif.got.tgz:144774.got - 2010.06.03 11:33:40.
