data_PCOD9108641
_publ_section_title
;
Structure prediction by ZEFSAII (Michael W. Deem and Ramdas Pophale) SiO2 
 PCOD9108641
Probable space group: P -1
;
_chemical_formula_sum "Si O2"
_cell_formula_units_Z 16
_cell_length_a 19.155086
_cell_length_b 19.270035
_cell_length_c 5.791567
_cell_angle_alpha 102.704470
_cell_angle_beta 66.605073
_cell_angle_gamma 158.190418
_cell_volume 655.948606
_symmetry_space_group_name_H-M "P -1"
_symmetry_group_IT_number 2
_symmetry_cell_setting 'triclinic'
loop_
_space_group_symop_operation_xyz
x,y,z
-x,-y,-z
loop_
_atom_site_type_symbol
_atom_site_label
_atom_site_fract_x
_atom_site_fract_y
_atom_site_fract_z
Si Si1 0.882431 0.560145 0.319244
Si Si2 0.511868 0.121136 0.508896
Si Si3 0.042519 0.753787 0.739345
Si Si4 0.206381 0.046061 0.911031
Si Si5 0.480565 0.379283 0.549668
Si Si6 0.329055 0.874004 0.940354
Si Si7 0.773595 0.706575 0.059843
Si Si8 0.063982 0.976778 0.484178
O O1 0.649756 0.313899 0.440401
O O2 0.912143 0.629196 0.576200
O O3 0.926730 0.631941 0.052656
O O4 0.077112 0.671963 0.173822
O O5 0.659324 0.182930 0.290084
O O6 0.274619 0.913678 0.538062
O O7 0.434921 0.038137 0.809670
O O8 0.136048 0.915864 0.767258
O O9 0.447145 0.290096 0.721898
O O10 0.152445 0.993625 0.209891
O O11 0.014921 0.936771 0.018581
O O12 0.686581 0.570587 0.251040
O O13 0.406920 0.390112 0.760736
O O14 0.283329 0.184094 0.494555
O O15 0.500000 0.000000 0.000000
O O16 0.845464 0.756116 0.740679
O O17 0.000000 0.000000 0.500000
#
# Coordination Sequence:
#
# PCOD9108641 Si02
#       8
#     2   2   2   2   2   2   2   2
#     4  11  25  44  68  98 134 179 221 271 326 383
#     4  10  23  43  67  99 136 174 218 273 327 384
#     4  11  27  44  64  95 136 180 226 267 319 403
#     4  11  23  41  60  82 125 166 208 263 328 388
#     4  10  21  37  60  89 115 153 203 269 330 383
#     4  10  20  40  70 102 135 167 219 274 327 384
#     4  10  21  37  59  89 119 148 208 267 326 396
#     4  11  19  36  59  84 116 157 198 264 330 378
#
# _framework density 24.392154000000001
#
# number of rings (size 3 to 8) (size 9 to 14) (size 15 to 20)
#    0.000    1.500    3.750    1.125    5.250    3.000 
#    2.250    0.000    0.000    0.000    0.000    0.000 
#    0.000    0.000    0.000    0.000    0.000    0.000 
#
# Total GULP energy -89150.855158 kJ/mol
# GULP energy per Si atom -5571.928447 kJ/mol
# Density = 2.433664 g / cm^3
# Si number density = 24.392154 Si / 1000 Ang^3
#
#
#
# Elastic Constant Matrix: (Units=GPa)
#
#
# Indices 1 2 3 4 5 6 
#
# 1 72.1531 11.7255 20.9686 -8.6905 1.2576 -9.0682
# 2 11.7255 87.9472 51.9567 -12.4853 18.7346 -9.7049
# 3 20.9686 51.9567 142.1310 -10.1162 26.8370 -31.6313
# 4 -8.6905 -12.4853 -10.1162 41.6550 -14.3657 5.8252
# 5 1.2576 18.7346 26.8370 -14.3657 24.7757 -2.9933
# 6 -9.0682 -9.7049 -31.6313 5.8252 -2.9933 39.3147
#
#
#
# Elastic Compliance Matrix: (Units=1/GPa)
#
#
# Indices 1 2 3 4 5 6 
#
# 1 0.015205 -0.001064 -0.002200 0.003784 0.004764 0.001276
# 2 -0.001064 0.015559 -0.004387 0.001294 -0.006282 -0.000604
# 3 -0.002200 -0.004387 0.012735 -0.003844 -0.011586 0.008343
# 4 0.003784 0.001294 -0.003844 0.032224 0.021065 -0.005071
# 5 0.004764 -0.006282 -0.011586 0.021065 0.068709 -0.007664
# 6 0.001276 -0.000604 0.008343 -0.005071 -0.007664 0.032461
#
#
# Mechanical properties :
#
#
# Convention : Reuss Voigt Hill
#
# Bulk Modulus (GPa) = 35.46623 52.39256 43.92940
# Shear Modulus (GPa) = 24.80210 35.65445 30.22827
#
# Velocity S-wave (km/s) = 3.19220 3.82739 3.52413
# Velocity P-wave (km/s) = 5.30645 6.40763 5.88287
#
# Compressibility (1/GPa) = 0.02819584
#
# Stress axis : x y z
#
# Youngs Moduli (GPa) = 65.76825 64.27020 78.52408
#
# Poissons Ratio (x) = 0.06840 0.17279
# Poissons Ratio (y) = 0.06999 0.34448
# Poissons Ratio (z) = 0.14472 0.28195
#
# Static dielectric constant tensor:
#      x y z
#    x 2.162990 -0.155390 0.214840 
#    y -0.155390 2.326820 -0.098220 
#    z 0.214840 -0.098220 2.356850 
# 
# From -- ./inp_files/56218.got.cif
#   From: 2010.05.17/outbox.cif.g08.bks.cpg/sg2_29_cif.got.tgz:56218.got - 2010.06.03 11:33:40.
