data_PCOD9108165
_publ_section_title
;
Structure prediction by ZEFSAII (Michael W. Deem and Ramdas Pophale) SiO2 
 PCOD9108165
Probable space group: P -1
;
_chemical_formula_sum "Si O2"
_cell_formula_units_Z 16
_cell_length_a 11.389827
_cell_length_b 11.505149
_cell_length_c 8.166343
_cell_angle_alpha 86.785410
_cell_angle_beta 38.603553
_cell_angle_gamma 95.081450
_cell_volume 651.404858
_symmetry_space_group_name_H-M "P -1"
_symmetry_group_IT_number 2
_symmetry_cell_setting 'triclinic'
loop_
_space_group_symop_operation_xyz
x,y,z
-x,-y,-z
loop_
_atom_site_type_symbol
_atom_site_label
_atom_site_fract_x
_atom_site_fract_y
_atom_site_fract_z
Si Si1 0.492894 0.208563 0.988851
Si Si2 0.631413 0.588260 0.727049
Si Si3 0.091758 0.099799 0.759159
Si Si4 0.194732 0.602215 0.577038
Si Si5 0.219673 0.043331 0.069481
Si Si6 0.443441 0.646027 0.595536
Si Si7 0.141760 0.276047 0.971848
Si Si8 0.462608 0.884939 0.720898
O O1 0.642742 0.293797 0.696721
O O2 0.345270 0.285134 0.219877
O O3 0.363067 0.092798 0.056219
O O4 0.609457 0.170854 0.017974
O O5 0.804823 0.523271 0.501806
O O6 0.500921 0.597592 0.708912
O O7 0.500000 0.500000 0.000000
O O8 0.309384 0.086535 0.504717
O O9 0.093451 0.224672 0.841980
O O10 0.966727 0.064822 0.734014
O O11 0.000000 0.000000 0.000000
O O12 0.267866 0.583571 0.682314
O O13 0.001573 0.649707 0.802988
O O14 0.145177 0.158809 0.083310
O O15 0.364539 0.995249 0.790790
O O16 0.413975 0.779302 0.652114
O O17 0.637664 0.655420 0.278454
#
# Coordination Sequence:
#
# PCOD9108165 Si02
#       8
#     2   2   2   2   2   2   2   2
#     4  10  22  40  60  85 121 160 199 244 295 351
#     4   9  21  41  67  88 117 155 196 251 297 348
#     4   9  21  35  55  85 118 150 199 242 285 346
#     4  11  21  40  65  86 119 154 199 248 298 350
#     4  11  21  37  59  85 120 165 196 233 295 352
#     4  10  20  40  67  89 118 154 197 241 300 353
#     4  10  22  36  58  95 120 151 199 248 286 350
#     4  10  22  39  58  87 124 159 194 245 293 346
#
# _framework density 24.562294999999999
#
# number of rings (size 3 to 8) (size 9 to 14) (size 15 to 20)
#    0.000    2.000    1.250    1.500    3.500    5.500 
#    2.250    0.625    8.250    0.000    0.000    0.000 
#    0.000    0.000    0.000    0.000    0.000    0.000 
#
# Total GULP energy -89381.933668 kJ/mol
# GULP energy per Si atom -5586.370854 kJ/mol
# Density = 2.450639 g / cm^3
# Si number density = 24.562295 Si / 1000 Ang^3
#
#
#
# Elastic Constant Matrix: (Units=GPa)
#
#
# Indices 1 2 3 4 5 6 
#
# 1 45.6513 19.6623 26.2470 13.8270 -3.6298 -0.7262
# 2 19.6623 112.2553 41.5576 45.4579 -9.8947 -6.5355
# 3 26.2470 41.5576 92.2654 36.5429 -10.8291 -13.0290
# 4 13.8270 45.4579 36.5429 59.1840 -13.2900 -0.2093
# 5 -3.6298 -9.8947 -10.8291 -13.2900 26.1462 -0.1787
# 6 -0.7262 -6.5355 -13.0290 -0.2093 -0.1787 37.6773
#
#
#
# Elastic Compliance Matrix: (Units=1/GPa)
#
#
# Indices 1 2 3 4 5 6 
#
# 1 0.026838 -0.002130 -0.006823 -0.000465 -0.000157 -0.002215
# 2 -0.002130 0.013632 -0.001808 -0.008945 -0.000421 0.001647
# 3 -0.006823 -0.001808 0.017536 -0.007396 0.001910 0.005587
# 4 -0.000465 -0.008945 -0.007396 0.030434 0.008930 -0.003907
# 5 -0.000157 -0.000421 0.001910 0.008930 0.043401 0.000840
# 6 -0.002215 0.001647 0.005587 -0.003907 0.000840 0.028698
#
#
# Mechanical properties :
#
#
# Convention : Reuss Voigt Hill
#
# Bulk Modulus (GPa) = 27.40855 47.23396 37.32126
# Shear Modulus (GPa) = 25.74382 35.44849 30.59615
#
# Velocity S-wave (km/s) = 3.24095 3.80308 3.53321
# Velocity P-wave (km/s) = 5.01877 6.20939 5.64556
#
# Compressibility (1/GPa) = 0.03648496
#
# Stress axis : x y z
#
# Youngs Moduli (GPa) = 37.26042 73.35835 57.02550
#
# Poissons Ratio (x) = 0.15623 0.38906
# Poissons Ratio (y) = 0.07935 0.10312
# Poissons Ratio (z) = 0.25421 0.13265
#
# Static dielectric constant tensor:
#      x y z
#    x 1.999540 -0.018830 0.063060 
#    y -0.018830 2.012690 -0.021540 
#    z 0.063060 -0.021540 1.971130 
# 
# From -- ./inp_files/258399.got.cif
#   From: 2010.05.17/outbox.cif.g08.bks.cpg/sg2_130_cif.got.tgz:258399.got - 2010.06.03 11:33:40.
