data_PCOD9108723
_publ_section_title
;
Structure prediction by ZEFSAII (Michael W. Deem and Ramdas Pophale) SiO2 
 PCOD9108723
Probable space group: P -1
;
_chemical_formula_sum "Si O2"
_cell_formula_units_Z 15
_cell_length_a 11.773453
_cell_length_b 12.081651
_cell_length_c 13.071233
_cell_angle_alpha 143.113081
_cell_angle_beta 33.883080
_cell_angle_gamma 142.286713
_cell_volume 575.561532
_symmetry_space_group_name_H-M "P -1"
_symmetry_group_IT_number 2
_symmetry_cell_setting 'triclinic'
loop_
_space_group_symop_operation_xyz
x,y,z
-x,-y,-z
loop_
_atom_site_type_symbol
_atom_site_label
_atom_site_fract_x
_atom_site_fract_y
_atom_site_fract_z
Si Si1 0.498704 0.790027 0.560386
Si Si2 0.000000 0.500000 0.000000
Si Si3 0.977773 0.079135 0.760091
Si Si4 0.791441 0.341335 0.835037
Si Si5 0.014807 0.105988 0.175815
Si Si6 0.633313 0.932576 0.766518
Si Si7 0.598120 0.496990 0.756035
Si Si8 0.365251 0.821130 0.369967
O O1 0.483580 0.764168 0.675622
O O2 0.367188 0.598390 0.447928
O O3 0.759187 0.839466 0.383605
O O4 0.478667 0.987362 0.670204
O O5 0.071499 0.735842 0.105847
O O6 0.024642 0.528377 0.129557
O O7 0.918868 0.013275 0.871290
O O8 0.830592 0.905376 0.662966
O O9 0.808743 0.325348 0.689124
O O10 0.722663 0.115637 0.757126
O O11 0.589344 0.415133 0.056470
O O12 0.195012 0.329908 0.219461
O O13 0.782814 0.113689 0.392350
O O14 0.000000 0.000000 0.000000
O O15 0.500000 0.000000 0.000000
O O16 0.522922 0.309968 0.752231
#
# Coordination Sequence:
#
# PCOD9108723 Si02
#       8
#     2   1   2   2   2   2   2   2
#     4  10  22  42  67  98 133 177 234 278 334 408
#     4  10  20  40  70  98 126 172 232 276 322 398
#     4  10  21  42  68  94 130 180 229 270 341 398
#     4  10  22  40  66 100 131 178 229 280 334 407
#     4  11  27  46  67  99 143 181 225 288 358 408
#     4  10  21  40  64  96 137 176 219 285 341 395
#     4  12  23  42  67 103 137 177 232 284 345 407
#     4  10  24  43  67  97 136 185 230 280 340 414
#
# _framework density 26.061502999999998
#
# number of rings (size 3 to 8) (size 9 to 14) (size 15 to 20)
#    0.000    1.600    1.333    2.400    1.867    6.400 
#    4.800    1.333    0.000    0.000    0.000    0.000 
#    0.000    0.000    0.000    0.000    0.000    0.000 
#
# Total GULP energy -83597.074808 kJ/mol
# GULP energy per Si atom -5573.138321 kJ/mol
# Density = 2.600219 g / cm^3
# Si number density = 26.061503 Si / 1000 Ang^3
#
#
#
# Elastic Constant Matrix: (Units=GPa)
#
#
# Indices 1 2 3 4 5 6 
#
# 1 163.4896 28.9142 44.4241 13.5555 58.1093 1.9995
# 2 28.9142 59.9450 11.9269 15.8604 -4.3801 5.6777
# 3 44.4241 11.9269 95.1091 3.0165 49.4576 11.0368
# 4 13.5555 15.8604 3.0165 32.9098 11.2763 7.0221
# 5 58.1093 -4.3801 49.4576 11.2763 64.9514 11.9100
# 6 1.9995 5.6777 11.0368 7.0221 11.9100 33.8485
#
#
#
# Elastic Compliance Matrix: (Units=1/GPa)
#
#
# Indices 1 2 3 4 5 6 
#
# 1 0.011638 -0.008251 0.002286 0.002853 -0.013990 0.004282
# 2 -0.008251 0.028297 -0.008772 -0.015025 0.019523 -0.005151
# 3 0.002286 -0.008772 0.020527 0.008170 -0.019661 -0.000134
# 4 0.002853 -0.015025 0.008170 0.042044 -0.016494 -0.003231
# 5 -0.013990 0.019523 -0.019661 -0.016494 0.048862 -0.009808
# 6 0.004282 -0.005151 -0.000134 -0.003231 -0.009808 0.034320
#
#
# Mechanical properties :
#
#
# Convention : Reuss Voigt Hill
#
# Bulk Modulus (GPa) = 32.27124 54.34157 43.30640
# Shear Modulus (GPa) = 22.17385 41.89383 32.03384
#
# Velocity S-wave (km/s) = 2.92006 4.01371 3.50975
# Velocity P-wave (km/s) = 4.87633 6.50972 5.75130
#
# Compressibility (1/GPa) = 0.03098734
#
# Stress axis : x y z
#
# Youngs Moduli (GPa) = 85.92434 35.33951 48.71679
#
# Poissons Ratio (x) = 0.29159 -0.11138
# Poissons Ratio (y) = 0.70897 0.42736
# Poissons Ratio (z) = -0.19644 0.31001
#
# Static dielectric constant tensor:
#      x y z
#    x 2.094830 0.043660 0.048050 
#    y 0.043660 2.011140 0.013850 
#    z 0.048050 0.013850 2.124270 
# 
# From -- ./inp_files/429020.got.cif
#   From: 2010.05.17/outbox.cif.g08.bks.cpg/sg2_215_cif.got.tgz:429020.got - 2010.06.03 11:33:40.
