data_PCOD9108656
_publ_section_title
;
Structure prediction by ZEFSAII (Michael W. Deem and Ramdas Pophale) SiO2 
 PCOD9108656
Probable space group: P -1
;
_chemical_formula_sum "Si O2"
_cell_formula_units_Z 14
_cell_length_a 12.388291
_cell_length_b 10.002257
_cell_length_c 9.070789
_cell_angle_alpha 115.165307
_cell_angle_beta 76.628741
_cell_angle_gamma 55.261713
_cell_volume 644.613421
_symmetry_space_group_name_H-M "P -1"
_symmetry_group_IT_number 2
_symmetry_cell_setting 'triclinic'
loop_
_space_group_symop_operation_xyz
x,y,z
-x,-y,-z
loop_
_atom_site_type_symbol
_atom_site_label
_atom_site_fract_x
_atom_site_fract_y
_atom_site_fract_z
Si Si1 0.664083 0.741971 0.884439
Si Si2 0.696618 0.973058 0.181752
Si Si3 0.298107 0.337598 0.485103
Si Si4 0.392069 0.463451 0.977771
Si Si5 0.991196 0.846012 0.867529
Si Si6 0.680306 0.007275 0.541701
Si Si7 0.889465 0.036057 0.676828
O O1 0.765420 0.625344 0.646027
O O2 0.624237 0.624479 0.914450
O O3 0.500000 0.000000 0.000000
O O4 0.732589 0.773640 0.010444
O O5 0.491177 0.207773 0.349024
O O6 0.742508 0.944007 0.324899
O O7 0.815881 0.954175 0.035056
O O8 0.157757 0.579225 0.722526
O O9 0.317855 0.159611 0.474160
O O10 0.488931 0.266719 0.735172
O O11 0.500000 0.500000 0.000000
O O12 0.217642 0.717339 0.108808
O O13 0.983936 0.869459 0.705000
O O14 0.000000 0.000000 0.000000
O O15 0.783930 0.013003 0.617800
O O16 0.000000 0.000000 0.500000
#
# Coordination Sequence:
#
# PCOD9108656 Si02
#       7
#     2   2   2   2   2   2   2
#     4  10  20  40  70 104 136 179 239 282 349 421
#     4  11  25  43  74 103 140 185 238 293 353 417
#     4  11  25  45  75  99 144 183 238 294 353 423
#     4  10  22  38  70  99 139 180 234 284 344 421
#     4  12  29  47  67 108 142 186 240 294 356 424
#     4  11  23  45  69 106 134 188 241 287 358 421
#     4  11  25  45  68  99 147 187 233 292 360 421
#
# _framework density 21.718442
#
# number of rings (size 3 to 8) (size 9 to 14) (size 15 to 20)
#    0.000    1.143    2.857    3.000    8.000    5.714 
#    0.000    0.000    0.000    0.000    0.000    0.000 
#    0.000    0.000    0.000    0.000    0.000    0.000 
#
# Total GULP energy -78162.644998 kJ/mol
# GULP energy per Si atom -5583.046071 kJ/mol
# Density = 2.166901 g / cm^3
# Si number density = 21.718442 Si / 1000 Ang^3
#
#
#
# Elastic Constant Matrix: (Units=GPa)
#
#
# Indices 1 2 3 4 5 6 
#
# 1 93.1104 41.0598 37.4611 10.2646 0.7044 18.5950
# 2 41.0598 108.1229 45.1122 15.2194 2.3457 24.2422
# 3 37.4611 45.1122 115.6020 15.2764 10.5832 8.3879
# 4 10.2646 15.2194 15.2764 50.9189 0.2249 5.8313
# 5 0.7044 2.3457 10.5832 0.2249 42.7124 -8.1294
# 6 18.5950 24.2422 8.3879 5.8313 -8.1294 34.3116
#
#
#
# Elastic Compliance Matrix: (Units=1/GPa)
#
#
# Indices 1 2 3 4 5 6 
#
# 1 0.014311 -0.003005 -0.003020 -0.000522 -0.000246 -0.004864
# 2 -0.003005 0.013739 -0.003542 -0.001606 -0.001193 -0.007222
# 3 -0.003020 -0.003542 0.011393 -0.001868 -0.002357 0.001113
# 4 -0.000522 -0.001606 -0.001868 0.020974 0.000133 -0.001659
# 5 -0.000246 -0.001193 -0.002357 0.000133 0.025507 0.007573
# 6 -0.004864 -0.007222 0.001113 -0.001659 0.007573 0.038687
#
#
# Mechanical properties :
#
#
# Convention : Reuss Voigt Hill
#
# Bulk Modulus (GPa) = 49.24176 62.67793 55.95985
# Shear Modulus (GPa) = 33.21902 38.46873 35.84387
#
# Velocity S-wave (km/s) = 3.91516 4.21318 4.06690
# Velocity P-wave (km/s) = 6.56963 7.25189 6.91917
#
# Compressibility (1/GPa) = 0.02030797
#
# Stress axis : x y z
#
# Youngs Moduli (GPa) = 69.87581 72.78511 87.77138
#
# Poissons Ratio (x) = 0.21873 0.26511
# Poissons Ratio (y) = 0.20998 0.31090
# Poissons Ratio (z) = 0.21105 0.25782
#
# Static dielectric constant tensor:
#      x y z
#    x 1.832120 -0.043650 -0.021290 
#    y -0.043650 1.764960 0.007610 
#    z -0.021290 0.007610 1.852140 
# 
# From -- ./inp_files/189866.got.cif
#   From: 2010.05.17/outbox.cif.g08.bks.cpg/sg2_95_cif.got.tgz:189866.got - 2010.06.03 11:33:40.
