data_PCOD9108639
_publ_section_title
;
Structure prediction by ZEFSAII (Michael W. Deem and Ramdas Pophale) SiO2 
 PCOD9108639
Probable space group: P -1
;
_chemical_formula_sum "Si O2"
_cell_formula_units_Z 14
_cell_length_a 9.273938
_cell_length_b 9.435945
_cell_length_c 19.964553
_cell_angle_alpha 151.464746
_cell_angle_beta 129.888786
_cell_angle_gamma 57.795320
_cell_volume 638.145697
_symmetry_space_group_name_H-M "P -1"
_symmetry_group_IT_number 2
_symmetry_cell_setting 'triclinic'
loop_
_space_group_symop_operation_xyz
x,y,z
-x,-y,-z
loop_
_atom_site_type_symbol
_atom_site_label
_atom_site_fract_x
_atom_site_fract_y
_atom_site_fract_z
Si Si1 0.807761 0.630384 0.473959
Si Si2 0.694450 0.642266 0.205914
Si Si3 0.967078 0.859993 0.006724
Si Si4 0.377425 0.907382 0.145269
Si Si5 0.535170 0.436946 0.562753
Si Si6 0.122177 0.769785 0.342421
Si Si7 0.324317 0.761480 0.847524
O O1 0.659209 0.683787 0.510506
O O2 0.714976 0.368249 0.290754
O O3 0.000000 0.500000 0.500000
O O4 0.847468 0.930555 0.567141
O O5 0.551642 0.867153 0.229114
O O6 0.651706 0.525255 0.218364
O O7 0.913953 0.747864 0.304865
O O8 0.643483 0.350460 0.023328
O O9 0.884326 0.521187 0.829069
O O10 0.174936 0.872655 0.106322
O O11 0.843790 0.068908 0.099547
O O12 0.000000 0.000000 0.000000
O O13 0.408458 0.228422 0.254685
O O14 0.500000 0.500000 0.500000
O O15 0.711718 0.259204 0.565519
O O16 0.500000 0.000000 0.000000
#
# Coordination Sequence:
#
# PCOD9108639 Si02
#       7
#     2   2   2   2   2   2   2
#     4  12  30  47  68 110 151 187 238 308 361 421
#     4  10  21  40  73 102 137 189 229 299 353 427
#     4  11  20  44  74 101 136 190 237 289 350 437
#     4  10  20  40  70 102 134 177 248 281 346 430
#     4  12  26  44  72  98 144 187 238 288 363 432
#     4  11  23  47  76 101 144 185 244 290 366 423
#     4  12  25  44  72 102 147 189 245 294 361 421
#
# _framework density 21.938565000000001
#
# number of rings (size 3 to 8) (size 9 to 14) (size 15 to 20)
#    0.000    0.857    4.286    3.000    6.000    2.857 
#    0.000    1.429    0.000    0.000    0.000    0.000 
#    0.000    0.000    0.000    0.000    0.000    0.000 
#
# Total GULP energy -78304.136654 kJ/mol
# GULP energy per Si atom -5593.152618 kJ/mol
# Density = 2.188863 g / cm^3
# Si number density = 21.938565 Si / 1000 Ang^3
#
#
#
# Elastic Constant Matrix: (Units=GPa)
#
#
# Indices 1 2 3 4 5 6 
#
# 1 95.8434 67.5670 28.8060 -15.9758 16.7781 4.4101
# 2 67.5670 176.8923 55.9486 -10.3402 22.1294 -19.9164
# 3 28.8060 55.9486 112.2333 9.9967 17.0065 7.5520
# 4 -15.9758 -10.3402 9.9967 40.5465 -5.5403 2.8604
# 5 16.7781 22.1294 17.0065 -5.5403 32.7559 1.6875
# 6 4.4101 -19.9164 7.5520 2.8604 1.6875 35.5365
#
#
#
# Elastic Compliance Matrix: (Units=1/GPa)
#
#
# Indices 1 2 3 4 5 6 
#
# 1 0.016551 -0.005992 -0.000936 0.005233 -0.002775 -0.005503
# 2 -0.005992 0.010264 -0.003770 0.000362 -0.002227 0.007374
# 3 -0.000936 -0.003770 0.012310 -0.004617 -0.003937 -0.004054
# 4 0.005233 0.000362 -0.004617 0.028701 0.004429 -0.001986
# 5 -0.002775 -0.002227 -0.003937 0.004429 0.036358 -0.002150
# 6 -0.005503 0.007374 -0.004054 -0.001986 -0.002150 0.034079
#
#
# Mechanical properties :
#
#
# Convention : Reuss Voigt Hill
#
# Bulk Modulus (GPa) = 56.40586 76.62357 66.51471
# Shear Modulus (GPa) = 30.19883 37.27759 33.73821
#
# Velocity S-wave (km/s) = 3.71417 4.12658 3.92580
# Velocity P-wave (km/s) = 6.64530 7.59652 7.13678
#
# Compressibility (1/GPa) = 0.01772865
#
# Stress axis : x y z
#
# Youngs Moduli (GPa) = 60.42076 97.42543 81.23369
#
# Poissons Ratio (x) = 0.58380 0.07605
# Poissons Ratio (y) = 0.36206 0.30623
# Poissons Ratio (z) = 0.05656 0.36727
#
# Static dielectric constant tensor:
#      x y z
#    x 1.844930 -0.019250 -0.039900 
#    y -0.019250 1.818310 -0.024400 
#    z -0.039900 -0.024400 1.831180 
# 
# From -- ./inp_files/343482.got.cif
#   From: 2010.05.17/outbox.cif.g08.bks.cpg/sg2_172_cif.got.tgz:343482.got - 2010.06.03 11:33:40.
