data_PCOD9108805
_publ_section_title
;
Structure prediction by ZEFSAII (Michael W. Deem and Ramdas Pophale) SiO2 
 PCOD9108805
Probable space group: P -1
;
_chemical_formula_sum "Si O2"
_cell_formula_units_Z 16
_cell_length_a 15.406224
_cell_length_b 9.661891
_cell_length_c 16.391558
_cell_angle_alpha 37.147675
_cell_angle_beta 153.636905
_cell_angle_gamma 132.210292
_cell_volume 646.075538
_symmetry_space_group_name_H-M "P -1"
_symmetry_group_IT_number 2
_symmetry_cell_setting 'triclinic'
loop_
_space_group_symop_operation_xyz
x,y,z
-x,-y,-z
loop_
_atom_site_type_symbol
_atom_site_label
_atom_site_fract_x
_atom_site_fract_y
_atom_site_fract_z
Si Si1 0.463150 0.842931 0.435637
Si Si2 0.008074 0.336272 0.501726
Si Si3 0.798182 0.764681 0.072238
Si Si4 0.600896 0.883395 0.010139
Si Si5 0.159783 0.029304 0.553149
Si Si6 0.294443 0.613677 0.176769
Si Si7 0.168189 0.996525 0.248568
Si Si8 0.025633 0.524461 0.145003
O O1 0.519949 0.592023 0.562084
O O2 0.319986 0.827506 0.399484
O O3 0.677075 0.912008 0.603450
O O4 0.342094 0.056705 0.185312
O O5 0.899663 0.503124 0.261635
O O6 0.000000 0.500000 0.500000
O O7 0.896573 0.112231 0.508364
O O8 0.240252 0.235700 0.734761
O O9 0.995275 0.882507 0.197177
O O10 0.657940 0.740130 0.042889
O O11 0.371834 0.913547 0.819633
O O12 0.647049 0.136407 0.904787
O O13 0.146690 0.301610 0.394935
O O14 0.000000 0.000000 0.500000
O O15 0.152476 0.598680 0.141214
O O16 0.166965 0.564720 0.013110
O O17 0.057220 0.227696 0.999038
#
# Coordination Sequence:
#
# PCOD9108805 Si02
#       8
#     2   2   2   2   2   2   2   2
#     4  10  23  37  62 102 137 175 222 281 368 415
#     4  10  26  48  68  97 140 189 237 290 349 428
#     4  11  23  40  70  95 133 181 239 281 342 431
#     4  11  24  45  70 100 137 185 245 291 358 413
#     4  12  28  45  70 106 143 191 240 295 358 435
#     4  10  20  40  72 102 132 179 230 299 348 419
#     4  10  22  41  61 101 139 175 216 299 357 416
#     4  10  21  41  72  98 142 174 234 293 355 419
#
# _framework density 24.764906
#
# number of rings (size 3 to 8) (size 9 to 14) (size 15 to 20)
#    0.000    1.500    2.500    1.125    3.500    7.500 
#    4.500    0.000    0.000    0.000    0.000    0.000 
#    0.000    0.000    0.000    0.000    0.000    0.000 
#
# Total GULP energy -89380.315902 kJ/mol
# GULP energy per Si atom -5586.269744 kJ/mol
# Density = 2.470854 g / cm^3
# Si number density = 24.764906 Si / 1000 Ang^3
#
#
#
# Elastic Constant Matrix: (Units=GPa)
#
#
# Indices 1 2 3 4 5 6 
#
# 1 33.3896 7.0976 14.3147 -8.5157 17.8264 4.6826
# 2 7.0976 82.9401 44.0836 -1.9364 16.1689 4.7971
# 3 14.3147 44.0836 207.1334 -12.1621 10.0654 10.3897
# 4 -8.5157 -1.9364 -12.1621 51.9139 1.8139 5.0037
# 5 17.8264 16.1689 10.0654 1.8139 37.2565 -2.6951
# 6 4.6826 4.7971 10.3897 5.0037 -2.6951 29.6701
#
#
#
# Elastic Compliance Matrix: (Units=1/GPa)
#
#
# Indices 1 2 3 4 5 6 
#
# 1 0.047054 0.002370 -0.001462 0.009387 -0.024407 -0.011097
# 2 0.002370 0.014894 -0.002816 0.000779 -0.007061 -0.002569
# 3 -0.001462 -0.002816 0.005655 0.001113 0.000234 -0.001461
# 4 0.009387 0.000779 0.001113 0.021932 -0.006653 -0.006300
# 5 -0.024407 -0.007061 0.000234 -0.006653 0.042560 0.009900
# 6 -0.011097 -0.002569 -0.001461 -0.006300 0.009900 0.038344
#
#
# Mechanical properties :
#
#
# Convention : Reuss Voigt Hill
#
# Bulk Modulus (GPa) = 15.67742 50.49499 33.08620
# Shear Modulus (GPa) = 25.57307 40.96591 33.26949
#
# Velocity S-wave (km/s) = 3.21695 4.07159 3.66924
# Velocity P-wave (km/s) = 4.48805 6.52210 5.59823
#
# Compressibility (1/GPa) = 0.06378600
#
# Stress axis : x y z
#
# Youngs Moduli (GPa) = 21.25232 67.14113 176.82230
#
# Poissons Ratio (x) = -0.15911 0.25857
# Poissons Ratio (y) = -0.05036 0.49792
# Poissons Ratio (z) = 0.03108 0.18906
#
# Static dielectric constant tensor:
#      x y z
#    x 2.011500 -0.073140 -0.055010 
#    y -0.073140 1.968880 -0.019080 
#    z -0.055010 -0.019080 1.979900 
# 
# From -- ./inp_files/437263.got.cif
#   From: 2010.05.17/outbox.cif.g08.bks.cpg/sg2_219_cif.got.tgz:437263.got - 2010.06.03 11:33:40.
