data_PCOD9108749
_publ_section_title
;
Structure prediction by ZEFSAII (Michael W. Deem and Ramdas Pophale) SiO2 
 PCOD9108749
Probable space group: P -1
;
_chemical_formula_sum "Si O2"
_cell_formula_units_Z 16
_cell_length_a 13.826572
_cell_length_b 7.826359
_cell_length_c 9.504884
_cell_angle_alpha 110.531973
_cell_angle_beta 90.838554
_cell_angle_gamma 48.603028
_cell_volume 687.109130
_symmetry_space_group_name_H-M "P -1"
_symmetry_group_IT_number 2
_symmetry_cell_setting 'triclinic'
loop_
_space_group_symop_operation_xyz
x,y,z
-x,-y,-z
loop_
_atom_site_type_symbol
_atom_site_label
_atom_site_fract_x
_atom_site_fract_y
_atom_site_fract_z
Si Si1 0.587733 0.564992 0.161786
Si Si2 0.156961 0.369915 0.115608
Si Si3 0.470531 0.344018 0.389742
Si Si4 0.207231 0.683449 0.672175
Si Si5 0.977447 0.831142 0.035809
Si Si6 0.554728 0.186601 0.040979
Si Si7 0.116048 0.488446 0.470722
Si Si8 0.385628 0.996607 0.485181
O O1 0.713819 0.473547 0.227358
O O2 0.609590 0.322665 0.060270
O O3 0.458053 0.751685 0.316843
O O4 0.541057 0.728013 0.068491
O O5 0.133910 0.482916 0.303084
O O6 0.102240 0.582030 0.056696
O O7 0.078348 0.275328 0.078262
O O8 0.315565 0.112693 0.033139
O O9 0.500000 0.500000 0.500000
O O10 0.323580 0.507037 0.504850
O O11 0.469403 0.307172 0.216266
O O12 0.609143 0.066075 0.370972
O O13 0.139033 0.963680 0.792059
O O14 0.090391 0.708105 0.618726
O O15 0.000000 0.000000 0.000000
O O16 0.000000 0.500000 0.500000
O O17 0.250067 0.233079 0.476727
O O18 0.500000 0.000000 0.500000
#
# Coordination Sequence:
#
# PCOD9108749 Si02
#       8
#     2   2   2   2   2   2   2   2
#     4  10  20  40  71 101 144 185 234 310 364 440
#     4  11  25  47  72 108 149 195 256 314 362 466
#     4  11  21  39  69 107 137 188 235 306 373 443
#     4  11  23  46  71 105 149 192 247 306 379 446
#     4  11  25  49  74  99 148 205 251 303 382 452
#     4  11  21  40  70 111 141 187 246 302 382 441
#     4  12  26  45  72 108 150 200 255 311 377 445
#     4  11  21  42  68  96 143 184 234 304 367 427
#
# _framework density 23.285966999999999
#
# number of rings (size 3 to 8) (size 9 to 14) (size 15 to 20)
#    0.000    1.000    7.500    0.750    0.000    4.500 
#    2.250    1.250    0.000    0.000    0.000    0.000 
#    0.000    0.000    0.000    0.000    0.000    0.000 
#
# Total GULP energy -89190.678355 kJ/mol
# GULP energy per Si atom -5574.417397 kJ/mol
# Density = 2.323297 g / cm^3
# Si number density = 23.285967 Si / 1000 Ang^3
#
#
#
# Elastic Constant Matrix: (Units=GPa)
#
#
# Indices 1 2 3 4 5 6 
#
# 1 105.6697 27.4143 26.1181 -15.7586 18.0662 -2.9805
# 2 27.4143 137.6555 47.2833 -10.7075 2.0604 -8.9377
# 3 26.1181 47.2833 135.5923 -25.6106 15.0876 -14.2170
# 4 -15.7586 -10.7075 -25.6106 36.1374 -1.9582 4.1695
# 5 18.0662 2.0604 15.0876 -1.9582 39.2903 -1.7140
# 6 -2.9805 -8.9377 -14.2170 4.1695 -1.7140 31.1623
#
#
#
# Elastic Compliance Matrix: (Units=1/GPa)
#
#
# Indices 1 2 3 4 5 6 
#
# 1 0.011427 -0.001808 -0.000313 0.004005 -0.004856 -0.000371
# 2 -0.001808 0.008600 -0.002737 -0.000234 0.001470 0.001157
# 3 -0.000313 -0.002737 0.010127 0.005726 -0.003191 0.002863
# 4 0.004005 -0.000234 0.005726 0.033470 -0.002434 -0.001684
# 5 -0.004856 0.001470 -0.003191 -0.002434 0.028729 0.000407
# 6 -0.000371 0.001157 0.002863 -0.001684 0.000407 0.033940
#
#
# Mechanical properties :
#
#
# Convention : Reuss Voigt Hill
#
# Bulk Modulus (GPa) = 48.92969 64.50544 56.71757
# Shear Modulus (GPa) = 35.00891 39.85811 37.43351
#
# Velocity S-wave (km/s) = 3.88162 4.14173 4.01378
# Velocity P-wave (km/s) = 6.41463 7.11572 6.77425
#
# Compressibility (1/GPa) = 0.02043749
#
# Stress axis : x y z
#
# Youngs Moduli (GPa) = 87.51296 116.28342 98.75011
#
# Poissons Ratio (x) = 0.21026 0.03087
# Poissons Ratio (y) = 0.15824 0.27028
# Poissons Ratio (z) = 0.02736 0.31827
#
# Static dielectric constant tensor:
#      x y z
#    x 2.103770 0.239440 -0.145140 
#    y 0.239440 2.127300 -0.123490 
#    z -0.145140 -0.123490 1.977760 
# 
# From -- ./inp_files/298811.got.cif
#   From: 2010.05.17/outbox.cif.g08.bks.cpg/sg2_150_cif.got.tgz:298811.got - 2010.06.03 11:33:40.
