data_PCOD9108567
_publ_section_title
;
Structure prediction by ZEFSAII (Michael W. Deem and Ramdas Pophale) SiO2 
 PCOD9108567
Probable space group: P -1
;
_chemical_formula_sum "Si O2"
_cell_formula_units_Z 16
_cell_length_a 28.120439
_cell_length_b 14.949353
_cell_length_c 17.260726
_cell_angle_alpha 162.474471
_cell_angle_beta 158.448410
_cell_angle_gamma 20.432545
_cell_volume 715.351504
_symmetry_space_group_name_H-M "P -1"
_symmetry_group_IT_number 2
_symmetry_cell_setting 'triclinic'
loop_
_space_group_symop_operation_xyz
x,y,z
-x,-y,-z
loop_
_atom_site_type_symbol
_atom_site_label
_atom_site_fract_x
_atom_site_fract_y
_atom_site_fract_z
Si Si1 0.611200 0.605501 0.213565
Si Si2 0.723802 0.510789 0.148348
Si Si3 0.451195 0.859193 0.930595
Si Si4 0.899396 0.707156 0.090484
Si Si5 0.843905 0.011989 0.774257
Si Si6 0.826364 0.460659 0.557713
Si Si7 0.377576 0.465741 0.236406
Si Si8 0.639928 0.687760 0.611456
O O1 0.677164 0.400422 0.065883
O O2 0.739923 0.555175 0.425231
O O3 0.513618 0.988122 0.356614
O O4 0.500000 0.500000 0.000000
O O5 0.832390 0.665992 0.464869
O O6 0.577986 0.821838 0.150854
O O7 0.773695 0.227448 0.924165
O O8 0.540454 0.695647 0.852596
O O9 0.381839 0.637930 0.678506
O O10 0.340187 0.220912 0.030666
O O11 0.012550 0.566180 0.216467
O O12 0.855191 0.090178 0.321222
O O13 0.749679 0.683525 0.841146
O O14 0.000000 0.500000 0.000000
O O15 0.760046 0.211963 0.735424
O O16 0.000000 0.000000 0.000000
O O17 0.720278 0.685191 0.650537
O O18 0.500000 0.500000 0.500000
#
# Coordination Sequence:
#
# PCOD9108567 Si02
#       8
#     2   2   2   2   2   2   2   2
#     4  12  23  39  68 101 135 181 233 286 337 411
#     4  11  24  44  69 103 141 180 227 287 350 415
#     4  10  22  38  65  97 128 165 219 277 344 402
#     4   9  20  40  60  84 126 180 221 277 337 390
#     4  11  24  47  75  99 139 182 226 286 361 416
#     4  10  21  40  64  87 131 183 229 273 339 399
#     4  10  20  40  69  93 127 167 212 278 341 416
#     4  11  22  38  66  96 130 175 230 285 338 406
#
# _framework density 22.366624999999999
#
# number of rings (size 3 to 8) (size 9 to 14) (size 15 to 20)
#    0.000    1.500    2.500    3.000    0.000    1.000 
#    0.000    5.000    0.000    0.000    0.000    0.000 
#    0.000    0.000    0.000    0.000    0.000    0.000 
#
# Total GULP energy -89362.478457 kJ/mol
# GULP energy per Si atom -5585.154904 kJ/mol
# Density = 2.231572 g / cm^3
# Si number density = 22.366625 Si / 1000 Ang^3
#
#
#
# Elastic Constant Matrix: (Units=GPa)
#
#
# Indices 1 2 3 4 5 6 
#
# 1 99.7973 31.4098 23.1292 -13.0835 -13.5598 20.8316
# 2 31.4098 91.3958 39.1744 -35.5560 -6.1175 9.5582
# 3 23.1292 39.1744 123.1359 -30.0123 4.1834 13.1325
# 4 -13.0835 -35.5560 -30.0123 47.2696 6.0530 -8.7277
# 5 -13.5598 -6.1175 4.1834 6.0530 37.6361 -1.0915
# 6 20.8316 9.5582 13.1325 -8.7277 -1.0915 24.8870
#
#
#
# Elastic Compliance Matrix: (Units=1/GPa)
#
#
# Indices 1 2 3 4 5 6 
#
# 1 0.013920 -0.003809 -0.000981 -0.002103 0.004547 -0.010209
# 2 -0.003809 0.017264 -0.002325 0.010741 0.000010 0.001552
# 3 -0.000981 -0.002325 0.010498 0.004558 -0.002699 -0.002346
# 4 -0.002103 0.010741 0.004558 0.033390 -0.004693 0.006734
# 5 0.004547 0.000010 -0.002699 -0.004693 0.029185 -0.002751
# 6 -0.010209 0.001552 -0.002346 0.006734 -0.002751 0.051609
#
#
# Mechanical properties :
#
#
# Convention : Reuss Voigt Hill
#
# Bulk Modulus (GPa) = 36.42815 55.75064 46.08940
# Shear Modulus (GPa) = 27.89461 36.66627 32.28044
#
# Velocity S-wave (km/s) = 3.53534 4.05326 3.80312
# Velocity P-wave (km/s) = 5.74343 6.84727 6.31950
#
# Compressibility (1/GPa) = 0.02745130
#
# Stress axis : x y z
#
# Youngs Moduli (GPa) = 71.84066 57.92454 95.25962
#
# Poissons Ratio (x) = 0.22065 0.09344
# Poissons Ratio (y) = 0.27366 0.22146
# Poissons Ratio (z) = 0.07047 0.13466
#
# Static dielectric constant tensor:
#      x y z
#    x 1.840680 -0.018890 -0.032050 
#    y -0.018890 1.862480 0.021880 
#    z -0.032050 0.021880 1.895760 
# 
# From -- ./inp_files/580178.got.cif
#   From: 2010.05.17/outbox.cif.g08.bks.cpg/sg2_291_cif.got.tgz:580178.got - 2010.06.03 11:33:40.
