data_PCOD9108947
_publ_section_title
;
Structure prediction by ZEFSAII (Michael W. Deem and Ramdas Pophale) SiO2 
 PCOD9108947
Probable space group: P -1
;
_chemical_formula_sum "Si O2"
_cell_formula_units_Z 14
_cell_length_a 6.834057
_cell_length_b 8.794436
_cell_length_c 14.380536
_cell_angle_alpha 75.813636
_cell_angle_beta 76.870771
_cell_angle_gamma 53.157911
_cell_volume 667.001326
_symmetry_space_group_name_H-M "P -1"
_symmetry_group_IT_number 2
_symmetry_cell_setting 'triclinic'
loop_
_space_group_symop_operation_xyz
x,y,z
-x,-y,-z
loop_
_atom_site_type_symbol
_atom_site_label
_atom_site_fract_x
_atom_site_fract_y
_atom_site_fract_z
Si Si1 0.749280 0.566573 0.967997
Si Si2 0.067590 0.140436 0.747299
Si Si3 0.271324 0.341008 0.598975
Si Si4 0.617999 0.817732 0.767131
Si Si5 0.837304 0.761724 0.560792
Si Si6 0.208542 0.939183 0.351797
Si Si7 0.218832 0.796141 0.049324
O O1 0.269414 0.345431 0.144360
O O2 0.139058 0.790392 0.163442
O O3 0.000000 0.500000 0.000000
O O4 0.236046 0.627097 0.015215
O O5 0.324221 0.954371 0.784406
O O6 0.861544 0.928218 0.569223
O O7 0.983506 0.088280 0.671053
O O8 0.128840 0.292792 0.693904
O O9 0.294861 0.219866 0.523551
O O10 0.105526 0.562793 0.557849
O O11 0.537148 0.261315 0.621764
O O12 0.723221 0.948539 0.743898
O O13 0.498444 0.733359 0.022189
O O14 0.689917 0.746022 0.663929
O O15 0.000000 0.000000 0.000000
#
# Coordination Sequence:
#
# PCOD9108947 Si02
#       7
#     2   2   2   2   2   2   2
#     4  11  25  43  68  90 122 165 204 253 314 362
#     4  11  22  40  64  85 128 161 198 251 308 357
#     4  10  20  41  60  90 120 164 197 252 304 348
#     4   9  21  40  59  88 121 161 196 252 305 351
#     4   9  20  40  62  85 128 152 206 251 292 368
#     4   9  22  37  60  88 119 157 205 242 297 367
#     4  11  25  42  61  95 124 155 209 256 299 374
#
# _framework density 20.989463000000001
#
# number of rings (size 3 to 8) (size 9 to 14) (size 15 to 20)
#    0.857    1.143    1.429    1.286    2.000    4.571 
#    5.143    1.429    0.000    0.000    0.000    0.000 
#    0.000    0.000    0.000    0.000    0.000    0.000 
#
# Total GULP energy -78100.635973 kJ/mol
# GULP energy per Si atom -5578.616855 kJ/mol
# Density = 2.094169 g / cm^3
# Si number density = 20.989463 Si / 1000 Ang^3
#
#
#
# Elastic Constant Matrix: (Units=GPa)
#
#
# Indices 1 2 3 4 5 6 
#
# 1 96.2423 27.2425 16.2416 -7.2589 11.6567 -17.5219
# 2 27.2425 70.5410 -0.6567 -3.5654 2.2103 -21.6728
# 3 16.2416 -0.6567 79.8380 3.1304 -12.7505 -19.6661
# 4 -7.2589 -3.5654 3.1304 37.6465 -9.4494 2.5298
# 5 11.6567 2.2103 -12.7505 -9.4494 24.5172 1.4148
# 6 -17.5219 -21.6728 -19.6661 2.5298 1.4148 17.5682
#
#
#
# Elastic Compliance Matrix: (Units=1/GPa)
#
#
# Indices 1 2 3 4 5 6 
#
# 1 0.014088 -0.001981 -0.001564 -0.000044 -0.007956 0.010503
# 2 -0.001981 0.030639 0.013577 -0.001627 0.001663 0.051120
# 3 -0.001564 0.013577 0.025046 -0.001591 0.009468 0.042692
# 4 -0.000044 -0.001627 -0.001591 0.030012 0.011431 -0.009074
# 5 -0.007956 0.001663 0.009468 0.011431 0.053823 -0.001264
# 6 0.010503 0.051120 0.042692 -0.009074 -0.001264 0.179659
#
#
# Mechanical properties :
#
#
# Convention : Reuss Voigt Hill
#
# Bulk Modulus (GPa) = 11.13138 36.91955 24.02546
# Shear Modulus (GPa) = 14.57094 29.53264 22.05179
#
# Velocity S-wave (km/s) = 2.63763 3.75510 3.24483
# Velocity P-wave (km/s) = 3.81981 6.03563 5.05073
#
# Compressibility (1/GPa) = 0.08983612
#
# Stress axis : x y z
#
# Youngs Moduli (GPa) = 70.98464 32.63776 39.92670
#
# Poissons Ratio (x) = 0.06466 0.06244
# Poissons Ratio (y) = 0.14063 -0.54207
# Poissons Ratio (z) = 0.11101 -0.44311
#
# Static dielectric constant tensor:
#      x y z
#    x 1.747350 -0.002510 -0.045610 
#    y -0.002510 1.759420 0.021060 
#    z -0.045610 0.021060 1.770450 
# 
# From -- ./inp_files/547151.got.cif
#   From: 2010.05.17/outbox.cif.g08.bks.cpg/sg2_274_cif.got.tgz:547151.got - 2010.06.03 11:33:40.
