data_PCOD9108526
_publ_section_title
;
Structure prediction by ZEFSAII (Michael W. Deem and Ramdas Pophale) SiO2 
 PCOD9108526
Probable space group: P -1
;
_chemical_formula_sum "Si O2"
_cell_formula_units_Z 14
_cell_length_a 9.502080
_cell_length_b 12.672083
_cell_length_c 13.481461
_cell_angle_alpha 34.227900
_cell_angle_beta 137.479772
_cell_angle_gamma 131.147082
_cell_volume 612.050000
_symmetry_space_group_name_H-M "P -1"
_symmetry_group_IT_number 2
_symmetry_cell_setting 'triclinic'
loop_
_space_group_symop_operation_xyz
x,y,z
-x,-y,-z
loop_
_atom_site_type_symbol
_atom_site_label
_atom_site_fract_x
_atom_site_fract_y
_atom_site_fract_z
Si Si1 0.654657 0.901839 0.921250
Si Si2 0.741828 0.969120 0.130180
Si Si3 0.679071 0.490697 0.181612
Si Si4 0.858104 0.558312 0.565805
Si Si5 0.767340 0.597981 0.700808
Si Si6 0.805440 0.233834 0.131017
Si Si7 0.370653 0.735669 0.471712
O O1 0.406636 0.857394 0.855081
O O2 0.684386 0.053429 0.731257
O O3 0.771536 0.993001 0.009341
O O4 0.723537 0.700578 0.087828
O O5 0.786337 0.758109 0.342491
O O6 0.862852 0.110878 0.161808
O O7 0.500000 0.000000 0.000000
O O8 0.608873 0.341506 0.347782
O O9 0.894247 0.433014 0.295974
O O10 0.500000 0.500000 0.000000
O O11 0.747205 0.504541 0.654779
O O12 0.794720 0.411305 0.559399
O O13 0.584756 0.721503 0.533953
O O14 0.991907 0.724179 0.727742
O O15 0.757063 0.433172 0.905218
#
# Coordination Sequence:
#
# PCOD9108526 Si02
#       7
#     2   2   2   2   2   2   2
#     4  11  23  45  71  98 143 185 237 291 346 423
#     4  10  20  40  69 102 140 178 231 295 343 409
#     4  12  28  50  70 102 150 186 234 296 351 420
#     4  12  25  44  74 106 143 189 235 290 355 423
#     4  11  22  40  71 104 141 178 235 295 354 412
#     4  10  21  39  67 105 142 180 228 298 355 403
#     4  12  25  46  75 101 138 192 241 285 359 419
#
# _framework density 22.873947999999999
#
# number of rings (size 3 to 8) (size 9 to 14) (size 15 to 20)
#    0.000    0.857    2.857    5.143    2.000    4.571 
#    2.571    0.000    0.000    0.000    0.000    0.000 
#    0.000    0.000    0.000    0.000    0.000    0.000 
#
# Total GULP energy -78381.915575 kJ/mol
# GULP energy per Si atom -5598.708255 kJ/mol
# Density = 2.282189 g / cm^3
# Si number density = 22.873948 Si / 1000 Ang^3
#
#
#
# Elastic Constant Matrix: (Units=GPa)
#
#
# Indices 1 2 3 4 5 6 
#
# 1 79.4288 12.0256 44.8029 6.7344 10.1448 -6.0617
# 2 12.0256 80.8884 24.7308 5.4789 -0.6237 -2.6385
# 3 44.8029 24.7308 131.6776 -7.0217 -1.2125 5.9114
# 4 6.7344 5.4789 -7.0217 49.3622 -1.7710 2.2787
# 5 10.1448 -0.6237 -1.2125 -1.7710 32.7810 9.4715
# 6 -6.0617 -2.6385 5.9114 2.2787 9.4715 24.2279
#
#
#
# Elastic Compliance Matrix: (Units=1/GPa)
#
#
# Indices 1 2 3 4 5 6 
#
# 1 0.019135 -0.000029 -0.007313 -0.004484 -0.009531 0.010716
# 2 -0.000029 0.013421 -0.002741 -0.002020 -0.000693 0.002584
# 3 -0.007313 -0.002741 0.011139 0.003386 0.004845 -0.007059
# 4 -0.004484 -0.002020 0.003386 0.022008 0.004383 -0.005951
# 5 -0.009531 -0.000693 0.004845 0.004383 0.039490 -0.019492
# 6 0.010716 0.002584 -0.007059 -0.005951 -0.019492 0.054139
#
#
# Mechanical properties :
#
#
# Convention : Reuss Voigt Hill
#
# Bulk Modulus (GPa) = 42.50064 50.56815 46.53440
# Shear Modulus (GPa) = 26.68932 35.30326 30.99629
#
# Velocity S-wave (km/s) = 3.41955 3.93285 3.68515
# Velocity P-wave (km/s) = 5.84909 6.54052 6.20444
#
# Compressibility (1/GPa) = 0.02352906
#
# Stress axis : x y z
#
# Youngs Moduli (GPa) = 52.26124 74.51158 89.77167
#
# Poissons Ratio (x) = 0.00216 0.65650
# Poissons Ratio (y) = 0.00152 0.24604
# Poissons Ratio (z) = 0.38219 0.20422
#
# Static dielectric constant tensor:
#      x y z
#    x 1.877450 0.016570 0.014380 
#    y 0.016570 1.868900 0.030420 
#    z 0.014380 0.030420 1.860700 
# 
# From -- ./inp_files/391895.got.cif
#   From: 2010.05.17/outbox.cif.g08.bks.cpg/sg2_196_cif.got.tgz:391895.got - 2010.06.03 11:33:40.
