data_PCOD9108682
_publ_section_title
;
Structure prediction by ZEFSAII (Michael W. Deem and Ramdas Pophale) SiO2 
 PCOD9108682
Probable space group: P -1
;
_chemical_formula_sum "Si O2"
_cell_formula_units_Z 14
_cell_length_a 8.908224
_cell_length_b 12.976549
_cell_length_c 11.111365
_cell_angle_alpha 146.694973
_cell_angle_beta 76.547520
_cell_angle_gamma 89.016769
_cell_volume 629.798672
_symmetry_space_group_name_H-M "P -1"
_symmetry_group_IT_number 2
_symmetry_cell_setting 'triclinic'
loop_
_space_group_symop_operation_xyz
x,y,z
-x,-y,-z
loop_
_atom_site_type_symbol
_atom_site_label
_atom_site_fract_x
_atom_site_fract_y
_atom_site_fract_z
Si Si1 0.648362 0.617786 0.873626
Si Si2 0.071129 0.235831 0.142105
Si Si3 0.290851 0.833498 0.580411
Si Si4 0.850081 0.968779 0.431299
Si Si5 0.129347 0.340682 0.491210
Si Si6 0.898517 0.559517 0.952314
Si Si7 0.392718 0.046513 0.328507
O O1 0.785796 0.680180 0.841277
O O2 0.661253 0.398340 0.616260
O O3 0.706271 0.609929 0.996889
O O4 0.472130 0.801526 0.058654
O O5 0.077824 0.241848 0.290764
O O6 0.900451 0.425851 0.315341
O O7 0.142754 0.004969 0.852968
O O8 0.242815 0.848059 0.462575
O O9 0.451899 0.892239 0.612629
O O10 0.730925 0.921658 0.503510
O O11 0.914651 0.774933 0.140540
O O12 0.000000 0.000000 0.500000
O O13 0.001417 0.384251 0.668971
O O14 0.300193 0.182166 0.363300
O O15 0.000000 0.500000 0.000000
#
# Coordination Sequence:
#
# PCOD9108682 Si02
#       7
#     2   2   2   2   2   2   2
#     4  10  23  42  63  94 132 172 214 261 325 385
#     4   9  21  44  66  92 128 170 219 267 316 380
#     4  11  23  43  66  94 133 174 208 267 325 382
#     4  12  24  39  66  97 130 168 216 265 321 385
#     4  10  20  40  70  92 127 174 210 270 325 371
#     4  11  20  40  64  93 133 167 213 269 317 379
#     4  11  24  42  64  96 135 164 216 266 330 380
#
# _framework density 22.229329
#
# number of rings (size 3 to 8) (size 9 to 14) (size 15 to 20)
#    0.000    1.429    5.714    1.286    2.000    4.000 
#    0.000   10.714    0.000    0.000    0.000    0.000 
#    0.000    0.000    0.000    0.000    0.000    0.000 
#
# Total GULP energy -77987.855947 kJ/mol
# GULP energy per Si atom -5570.561139 kJ/mol
# Density = 2.217873 g / cm^3
# Si number density = 22.229329 Si / 1000 Ang^3
#
#
#
# Elastic Constant Matrix: (Units=GPa)
#
#
# Indices 1 2 3 4 5 6 
#
# 1 74.0824 46.4489 47.3664 10.9960 0.7147 -16.3378
# 2 46.4489 108.1225 67.7748 1.9470 -2.3895 -32.4968
# 3 47.3664 67.7748 150.2558 26.7230 3.9905 -8.1000
# 4 10.9960 1.9470 26.7230 44.9079 -1.2811 -1.3212
# 5 0.7147 -2.3895 3.9905 -1.2811 26.0266 15.1985
# 6 -16.3378 -32.4968 -8.1000 -1.3212 15.1985 42.8405
#
#
#
# Elastic Compliance Matrix: (Units=1/GPa)
#
#
# Indices 1 2 3 4 5 6 
#
# 1 0.020306 -0.005681 -0.003039 -0.002890 -0.002994 0.003834
# 2 -0.005681 0.020186 -0.007389 0.005182 -0.004486 0.013500
# 3 -0.003039 -0.007389 0.011769 -0.006076 0.000078 -0.004754
# 4 -0.002890 0.005182 -0.006076 0.026470 0.001680 0.001900
# 5 -0.002994 -0.004486 0.000078 0.001680 0.051434 -0.022726
# 6 0.003834 0.013500 -0.004754 0.001900 -0.022726 0.042267
#
#
# Mechanical properties :
#
#
# Convention : Reuss Voigt Hill
#
# Bulk Modulus (GPa) = 49.89056 72.84899 61.36977
# Shear Modulus (GPa) = 23.65957 34.14637 28.90297
#
# Velocity S-wave (km/s) = 3.26596 3.92356 3.60977
# Velocity P-wave (km/s) = 6.05923 7.30537 6.71129
#
# Compressibility (1/GPa) = 0.02004387
#
# Stress axis : x y z
#
# Youngs Moduli (GPa) = 49.24533 49.53973 84.97233
#
# Poissons Ratio (x) = 0.28141 0.25822
# Poissons Ratio (y) = 0.27974 0.62786
# Poissons Ratio (z) = 0.14965 0.36605
#
# Static dielectric constant tensor:
#      x y z
#    x 1.845500 -0.029740 -0.065600 
#    y -0.029740 1.983200 0.001410 
#    z -0.065600 0.001410 1.892850 
# 
# From -- ./inp_files/400031.got.cif
#   From: 2010.05.17/outbox.cif.g08.bks.cpg/sg2_201_cif.got.tgz:400031.got - 2010.06.03 11:33:40.
