data_PCOD9108574
_publ_section_title
;
Structure prediction by ZEFSAII (Michael W. Deem and Ramdas Pophale) SiO2 
 PCOD9108574
Probable space group: P -1
;
_chemical_formula_sum "Si O2"
_cell_formula_units_Z 16
_cell_length_a 25.612827
_cell_length_b 14.722745
_cell_length_c 17.566454
_cell_angle_alpha 154.772405
_cell_angle_beta 159.492392
_cell_angle_gamma 17.703393
_cell_volume 700.926534
_symmetry_space_group_name_H-M "P -1"
_symmetry_group_IT_number 2
_symmetry_cell_setting 'triclinic'
loop_
_space_group_symop_operation_xyz
x,y,z
-x,-y,-z
loop_
_atom_site_type_symbol
_atom_site_label
_atom_site_fract_x
_atom_site_fract_y
_atom_site_fract_z
Si Si1 0.484697 0.447201 0.635057
Si Si2 0.153142 0.967137 0.076534
Si Si3 0.396629 0.493077 0.926493
Si Si4 0.548887 0.160657 0.239578
Si Si5 0.238904 0.960914 0.816596
Si Si6 0.013521 0.281422 0.407809
Si Si7 0.923246 0.339598 0.788622
Si Si8 0.131487 0.511588 0.014085
O O1 0.479964 0.609855 0.680874
O O2 0.358437 0.697316 0.719061
O O3 0.325882 0.417114 0.378272
O O4 0.715042 0.160722 0.763302
O O5 0.326973 0.754826 0.086764
O O6 0.009058 0.902495 0.818176
O O7 0.008947 0.310037 0.116767
O O8 0.187919 0.555534 0.687752
O O9 0.500000 0.500000 0.000000
O O10 0.575139 0.177573 0.974454
O O11 0.365738 0.351781 0.196497
O O12 0.773732 0.927419 0.411021
O O13 0.500000 0.000000 0.000000
O O14 0.053428 0.065846 0.698932
O O15 0.148335 0.252773 0.868208
O O16 0.000000 0.500000 0.500000
O O17 0.962441 0.256558 0.868133
O O18 0.000000 0.500000 0.000000
#
# Coordination Sequence:
#
# PCOD9108574 Si02
#       8
#     2   2   2   2   2   2   2   2
#     4  11  22  42  66  96 133 178 220 272 333 404
#     4   9  22  39  64  95 131 171 223 274 338 395
#     4   9  19  37  63  96 128 171 226 274 324 403
#     4  12  24  40  67  97 134 174 226 271 333 413
#     4  10  20  40  69  93 133 174 222 271 329 403
#     4  10  21  40  65  95 136 175 224 274 334 401
#     4  10  23  40  65  97 129 172 222 275 334 388
#     4  11  22  43  64  96 133 173 219 279 332 399
#
# _framework density 22.826930000000001
#
# number of rings (size 3 to 8) (size 9 to 14) (size 15 to 20)
#    0.750    1.000    1.250    3.375    1.750    2.500 
#    0.000    6.250    0.000    0.000    0.000    0.000 
#    0.000    0.000    0.000    0.000    0.000    0.000 
#
# Total GULP energy -89270.138488 kJ/mol
# GULP energy per Si atom -5579.383655 kJ/mol
# Density = 2.277497 g / cm^3
# Si number density = 22.826930 Si / 1000 Ang^3
#
#
#
# Elastic Constant Matrix: (Units=GPa)
#
#
# Indices 1 2 3 4 5 6 
#
# 1 136.7592 38.0740 44.1453 -14.4641 17.9022 5.9114
# 2 38.0740 108.5444 47.7306 -33.9028 0.2579 38.0849
# 3 44.1453 47.7306 117.9485 -35.1779 10.1383 38.1567
# 4 -14.4641 -33.9028 -35.1779 45.1539 2.7308 -13.6870
# 5 17.9022 0.2579 10.1383 2.7308 29.2751 -5.6479
# 6 5.9114 38.0849 38.1567 -13.6870 -5.6479 46.3428
#
#
#
# Elastic Compliance Matrix: (Units=1/GPa)
#
#
# Indices 1 2 3 4 5 6 
#
# 1 0.009591 -0.003385 -0.003217 -0.000667 -0.003979 0.003526
# 2 -0.003385 0.016892 0.001077 0.008928 -0.001579 -0.011892
# 3 -0.003217 0.001077 0.016627 0.009450 -0.007042 -0.012232
# 4 -0.000667 0.008928 0.009450 0.034722 -0.007276 -0.005665
# 5 -0.003979 -0.001579 -0.007042 -0.007276 0.041757 0.010543
# 6 0.003526 -0.011892 -0.012232 -0.005665 0.010543 0.040585
#
#
# Mechanical properties :
#
#
# Convention : Reuss Voigt Hill
#
# Bulk Modulus (GPa) = 31.19203 69.23908 50.21556
# Shear Modulus (GPa) = 27.48593 39.70784 33.59689
#
# Velocity S-wave (km/s) = 3.47378 4.17528 3.84058
# Velocity P-wave (km/s) = 5.45745 7.32407 6.45855
#
# Compressibility (1/GPa) = 0.03205947
#
# Stress axis : x y z
#
# Youngs Moduli (GPa) = 104.26421 59.20079 60.14156
#
# Poissons Ratio (x) = 0.20042 0.19348
# Poissons Ratio (y) = 0.35297 -0.06478
# Poissons Ratio (z) = 0.33543 -0.06377
#
# Static dielectric constant tensor:
#      x y z
#    x 1.891530 -0.048380 -0.041050 
#    y -0.048380 1.891840 0.022550 
#    z -0.041050 0.022550 1.906510 
# 
# From -- ./inp_files/579862.got.cif
#   From: 2010.05.17/outbox.cif.g08.bks.cpg/sg2_290_cif.got.tgz:579862.got - 2010.06.03 11:33:40.
