data_PCOD9108516
_publ_section_title
;
Structure prediction by ZEFSAII (Michael W. Deem and Ramdas Pophale) SiO2 
 PCOD9108516
Probable space group: P -1
;
_chemical_formula_sum "Si O2"
_cell_formula_units_Z 12
_cell_length_a 18.546708
_cell_length_b 17.468229
_cell_length_c 11.009928
_cell_angle_alpha 31.649285
_cell_angle_beta 159.097904
_cell_angle_gamma 156.671455
_cell_volume 503.411593
_symmetry_space_group_name_H-M "P -1"
_symmetry_group_IT_number 2
_symmetry_cell_setting 'triclinic'
loop_
_space_group_symop_operation_xyz
x,y,z
-x,-y,-z
loop_
_atom_site_type_symbol
_atom_site_label
_atom_site_fract_x
_atom_site_fract_y
_atom_site_fract_z
Si Si1 0.959712 0.125921 0.690179
Si Si2 0.357712 0.983896 0.174354
Si Si3 0.798928 0.634644 0.739930
Si Si4 0.841713 0.368392 0.311299
Si Si5 0.177022 0.379015 0.483442
Si Si6 0.611675 0.216413 0.735689
O O1 0.950070 0.265330 0.571188
O O2 0.172830 0.253914 0.746905
O O3 0.661054 0.959482 0.391531
O O4 0.000000 0.000000 0.000000
O O5 0.372640 0.864734 0.255899
O O6 0.500000 0.000000 0.500000
O O7 0.535405 0.195268 0.107358
O O8 0.039266 0.851236 0.874924
O O9 0.500000 0.500000 0.500000
O O10 0.784577 0.653309 0.549103
O O11 0.874816 0.505516 0.074352
O O12 0.000000 0.500000 0.500000
O O13 0.377973 0.607015 0.513073
O O14 0.875050 0.302805 0.110647
#
# Coordination Sequence:
#
# PCOD9108516 Si02
#       6
#     2   2   2   2   2   2
#     4  11  24  42  69 105 138 179 232 288 348 419
#     4  10  20  40  69 100 136 185 229 280 353 417
#     4  11  25  45  68 106 140 187 237 294 349 416
#     4  11  23  43  70 102 145 186 229 293 355 418
#     4  10  21  42  69  93 137 183 230 283 350 416
#     4   9  20  39  67  98 129 176 232 280 347 409
#
# _framework density 23.837351999999999
#
# number of rings (size 3 to 8) (size 9 to 14) (size 15 to 20)
#    0.000    1.667    1.667    3.500    0.000    5.333 
#    6.000    0.000    0.000    0.000    0.000    0.000 
#    0.000    0.000    0.000    0.000    0.000    0.000 
#
# Total GULP energy -67120.196378 kJ/mol
# GULP energy per Si atom -5593.349698 kJ/mol
# Density = 2.378310 g / cm^3
# Si number density = 23.837352 Si / 1000 Ang^3
#
#
#
# Elastic Constant Matrix: (Units=GPa)
#
#
# Indices 1 2 3 4 5 6 
#
# 1 82.6673 57.2787 34.3484 -2.3084 -21.4140 14.0176
# 2 57.2787 186.5690 40.8595 6.0741 -11.8856 21.4527
# 3 34.3484 40.8595 59.5231 -4.7537 -6.1674 0.5116
# 4 -2.3084 6.0741 -4.7537 57.2255 6.8681 -6.8250
# 5 -21.4140 -11.8856 -6.1674 6.8681 27.8637 3.0165
# 6 14.0176 21.4527 0.5116 -6.8250 3.0165 49.2936
#
#
#
# Elastic Compliance Matrix: (Units=1/GPa)
#
#
# Indices 1 2 3 4 5 6 
#
# 1 0.023566 -0.003261 -0.009844 -0.002183 0.015777 -0.006448
# 2 -0.003261 0.007462 -0.003281 -0.001573 0.000613 -0.002541
# 3 -0.009844 -0.003281 0.024441 0.003122 -0.004834 0.004702
# 4 -0.002183 -0.001573 0.003122 0.019153 -0.006849 0.004344
# 5 0.015777 0.000613 -0.004834 -0.006849 0.049836 -0.008701
# 6 -0.006448 -0.002541 0.004702 0.004344 -0.008701 0.024311
#
#
# Mechanical properties :
#
#
# Convention : Reuss Voigt Hill
#
# Bulk Modulus (GPa) = 44.05992 65.97029 55.01511
# Shear Modulus (GPa) = 26.43989 39.96143 33.20066
#
# Velocity S-wave (km/s) = 3.33405 4.09885 3.73607
# Velocity P-wave (km/s) = 5.77450 7.08068 6.46069
#
# Compressibility (1/GPa) = 0.02269636
#
# Stress axis : x y z
#
# Youngs Moduli (GPa) = 42.43386 134.00852 40.91477
#
# Poissons Ratio (x) = 0.43707 0.40278
# Poissons Ratio (y) = 0.13840 0.13422
# Poissons Ratio (z) = 0.41774 0.43962
#
# Static dielectric constant tensor:
#      x y z
#    x 1.880250 0.024230 0.038010 
#    y 0.024230 1.907400 -0.004450 
#    z 0.038010 -0.004450 2.019910 
# 
# From -- ./inp_files/472732.got.cif
#   From: 2010.05.17/outbox.cif.g08.bks.cpg/sg2_237_cif.got.tgz:472732.got - 2010.06.03 11:33:40.
