data_PCOD9108203
_publ_section_title
;
Structure prediction by ZEFSAII (Michael W. Deem and Ramdas Pophale) SiO2 
 PCOD9108203
Probable space group: P -1
;
_chemical_formula_sum "Si O2"
_cell_formula_units_Z 12
_cell_length_a 8.580464
_cell_length_b 12.696082
_cell_length_c 9.997989
_cell_angle_alpha 52.930479
_cell_angle_beta 45.539154
_cell_angle_gamma 75.211621
_cell_volume 593.012538
_symmetry_space_group_name_H-M "P -1"
_symmetry_group_IT_number 2
_symmetry_cell_setting 'triclinic'
loop_
_space_group_symop_operation_xyz
x,y,z
-x,-y,-z
loop_
_atom_site_type_symbol
_atom_site_label
_atom_site_fract_x
_atom_site_fract_y
_atom_site_fract_z
Si Si1 0.518367 0.131137 0.480928
Si Si2 0.584507 0.640409 0.254525
Si Si3 0.896096 0.405562 0.511539
Si Si4 0.043032 0.659498 0.053577
Si Si5 0.416250 0.063189 0.870728
Si Si6 0.976190 0.820901 0.245452
O O1 0.577767 0.085081 0.627428
O O2 0.275893 0.163595 0.606757
O O3 0.500000 0.000000 0.500000
O O4 0.710353 0.263842 0.209847
O O5 0.500000 0.500000 0.500000
O O6 0.377654 0.625006 0.288360
O O7 0.589991 0.782959 0.213311
O O8 0.850429 0.658570 0.059094
O O9 0.000000 0.500000 0.500000
O O10 0.992204 0.501020 0.252885
O O11 0.975734 0.271489 0.590240
O O12 0.007635 0.746282 0.142488
O O13 0.500000 0.000000 0.000000
O O14 0.173106 0.964436 0.040395
#
# Coordination Sequence:
#
# PCOD9108203 Si02
#       6
#     2   2   2   2   2   2
#     4  12  24  40  67  99 130 175 222 268 330 391
#     4  10  20  40  67  92 129 175 215 266 331 390
#     4   9  20  38  67  95 126 174 214 267 334 388
#     4  10  21  41  67  96 130 172 220 268 326 396
#     4  12  23  41  68  95 134 173 219 271 328 388
#     4  11  21  41  69  93 134 172 216 271 332 389
#
# _framework density 20.235658999999998
#
# number of rings (size 3 to 8) (size 9 to 14) (size 15 to 20)
#    0.000    1.333    5.000    1.500    0.000    0.667 
#    0.000   10.000    3.667    0.000    0.000    0.000 
#    0.000    0.000    0.000    0.000    0.000    0.000 
#
# Total GULP energy -66860.620494 kJ/mol
# GULP energy per Si atom -5571.718375 kJ/mol
# Density = 2.018960 g / cm^3
# Si number density = 20.235659 Si / 1000 Ang^3
#
#
#
# Elastic Constant Matrix: (Units=GPa)
#
#
# Indices 1 2 3 4 5 6 
#
# 1 142.1512 25.4948 55.7336 -2.8408 -11.6915 -9.3312
# 2 25.4948 66.0928 33.3184 -26.0414 2.8481 -14.6568
# 3 55.7336 33.3184 126.4658 -10.7783 -12.7569 -12.2382
# 4 -2.8408 -26.0414 -10.7783 30.6211 5.6884 -4.1395
# 5 -11.6915 2.8481 -12.7569 5.6884 41.0271 -8.8641
# 6 -9.3312 -14.6568 -12.2382 -4.1395 -8.8641 26.9718
#
#
#
# Elastic Compliance Matrix: (Units=1/GPa)
#
#
# Indices 1 2 3 4 5 6 
#
# 1 0.008996 -0.003379 -0.003136 -0.003566 0.002333 0.000073
# 2 -0.003379 0.035627 -0.003703 0.032256 -0.004761 0.019897
# 3 -0.003136 -0.003703 0.010910 0.000177 0.003377 0.002990
# 4 -0.003566 0.032256 0.000177 0.064351 -0.006944 0.023969
# 5 0.002333 -0.004761 0.003377 -0.006944 0.029170 0.008273
# 6 0.000073 0.019897 0.002990 0.023969 0.008273 0.055667
#
#
# Mechanical properties :
#
#
# Convention : Reuss Voigt Hill
#
# Bulk Modulus (GPa) = 28.49190 62.64481 45.56836
# Shear Modulus (GPa) = 21.10999 34.40155 27.75577
#
# Velocity S-wave (km/s) = 3.23338 4.12763 3.70757
# Velocity P-wave (km/s) = 5.29625 7.33085 6.39498
#
# Compressibility (1/GPa) = 0.03509770
#
# Stress axis : x y z
#
# Youngs Moduli (GPa) = 111.16571 28.06850 91.65986
#
# Poissons Ratio (x) = 0.09484 0.28742
# Poissons Ratio (y) = 0.37560 0.33941
# Poissons Ratio (z) = 0.34859 0.10394
#
# Static dielectric constant tensor:
#      x y z
#    x 1.773900 0.000800 0.032580 
#    y 0.000800 1.833050 0.002050 
#    z 0.032580 0.002050 1.739210 
# 
# From -- ./inp_files/22504.got.cif
#   From: 2010.05.17/outbox.cif.g08.bks.cpg/sg2_12_cif.got.tgz:22504.got - 2010.06.03 11:33:40.
