data_PCOD9108254
_publ_section_title
;
Structure prediction by ZEFSAII (Michael W. Deem and Ramdas Pophale) SiO2 
 PCOD9108254
Probable space group: P -1
;
_chemical_formula_sum "Si O2"
_cell_formula_units_Z 16
_cell_length_a 9.294931
_cell_length_b 15.312306
_cell_length_c 12.223656
_cell_angle_alpha 53.315745
_cell_angle_beta 104.155946
_cell_angle_gamma 141.689590
_cell_volume 771.953830
_symmetry_space_group_name_H-M "P -1"
_symmetry_group_IT_number 2
_symmetry_cell_setting 'triclinic'
loop_
_space_group_symop_operation_xyz
x,y,z
-x,-y,-z
loop_
_atom_site_type_symbol
_atom_site_label
_atom_site_fract_x
_atom_site_fract_y
_atom_site_fract_z
Si Si1 0.235989 0.276966 0.136623
Si Si2 0.062611 0.813065 0.646814
Si Si3 0.856472 0.026849 0.691835
Si Si4 0.721585 0.199029 0.829456
Si Si5 0.310617 0.235501 0.787170
Si Si6 0.878510 0.524784 0.683791
Si Si7 0.010391 0.171631 0.949260
Si Si8 0.379496 0.892280 0.362285
O O1 0.266258 0.166065 0.204934
O O2 0.107563 0.226523 0.266310
O O3 0.500000 0.500000 0.000000
O O4 0.047640 0.206701 0.058437
O O5 0.944292 0.623537 0.736063
O O6 0.068266 0.880830 0.482156
O O7 0.355606 0.974064 0.624897
O O8 0.671528 0.007558 0.725581
O O9 0.108092 0.158404 0.717254
O O10 0.818088 0.361011 0.792311
O O11 0.621242 0.162094 0.716710
O O12 0.950209 0.248926 0.824319
O O13 0.500000 0.000000 0.000000
O O14 0.608881 0.415658 0.673048
O O15 0.261322 0.272628 0.861182
O O16 0.215228 0.055405 0.933947
O O17 0.127499 0.695758 0.526299
#
# Coordination Sequence:
#
# PCOD9108254 Si02
#       8
#     2   2   2   2   2   2   2   2
#     4  11  24  42  65  99 132 170 220 266 327 395
#     4  11  25  45  65  95 136 177 212 269 328 389
#     4  10  22  43  69  92 129 175 213 269 331 381
#     4  12  23  42  66  96 127 176 216 267 326 386
#     4  10  20  40  67  95 127 163 218 273 320 379
#     4  11  24  42  66  96 131 170 223 270 322 387
#     4  10  21  39  64  94 129 169 211 269 323 382
#     4  11  25  45  64  95 133 173 220 270 325 386
#
# _framework density 20.726628999999999
#
# number of rings (size 3 to 8) (size 9 to 14) (size 15 to 20)
#    0.000    1.250    2.500    3.750    1.750    5.000 
#    2.250    1.875    0.000    0.000    0.000    0.000 
#    0.000    0.000    0.000    0.000    0.000    0.000 
#
# Total GULP energy -89378.667611 kJ/mol
# GULP energy per Si atom -5586.166726 kJ/mol
# Density = 2.067945 g / cm^3
# Si number density = 20.726629 Si / 1000 Ang^3
#
#
#
# Elastic Constant Matrix: (Units=GPa)
#
#
# Indices 1 2 3 4 5 6 
#
# 1 47.0332 15.0204 14.5420 -22.9851 8.1735 2.0801
# 2 15.0204 61.6553 25.0822 -16.2186 11.2782 -10.6365
# 3 14.5420 25.0822 51.7787 -6.6145 4.4228 -2.8839
# 4 -22.9851 -16.2186 -6.6145 40.3236 -0.2109 -1.9218
# 5 8.1735 11.2782 4.4228 -0.2109 33.9987 -1.4199
# 6 2.0801 -10.6365 -2.8839 -1.9218 -1.4199 37.9784
#
#
#
# Elastic Compliance Matrix: (Units=1/GPa)
#
#
# Indices 1 2 3 4 5 6 
#
# 1 0.033298 0.000380 -0.006719 0.017917 -0.007212 -0.001591
# 2 0.000380 0.024892 -0.010107 0.008839 -0.006712 0.006379
# 3 -0.006719 -0.010107 0.025443 -0.003744 0.001607 -0.000660
# 4 0.017917 0.008839 -0.003744 0.038058 -0.006395 0.002897
# 5 -0.007212 -0.006712 0.001607 -0.006395 0.033106 -0.000449
# 6 -0.001591 0.006379 -0.000660 0.002897 -0.000449 0.028284
#
#
# Mechanical properties :
#
#
# Convention : Reuss Voigt Hill
#
# Bulk Modulus (GPa) = 19.70823 29.97295 24.84059
# Shear Modulus (GPa) = 21.46963 29.51496 25.49229
#
# Velocity S-wave (km/s) = 3.22195 3.77770 3.51084
# Velocity P-wave (km/s) = 4.83431 5.78969 5.33344
#
# Compressibility (1/GPa) = 0.05074022
#
# Stress axis : x y z
#
# Youngs Moduli (GPa) = 30.03225 40.17372 39.30287
#
# Poissons Ratio (x) = -0.01525 0.26408
# Poissons Ratio (y) = -0.01140 0.39722
# Poissons Ratio (z) = 0.20179 0.40602
#
# Static dielectric constant tensor:
#      x y z
#    x 1.797000 0.005390 0.016370 
#    y 0.005390 1.759660 -0.005620 
#    z 0.016370 -0.005620 1.728460 
# 
# From -- ./inp_files/271940.got.cif
#   From: 2010.05.17/outbox.cif.g08.bks.cpg/sg2_136_cif.got.tgz:271940.got - 2010.06.03 11:33:40.
