data_PCOD9108484
_publ_section_title
;
Structure prediction by ZEFSAII (Michael W. Deem and Ramdas Pophale) SiO2 
 PCOD9108484
Probable space group: P -1
;
_chemical_formula_sum "Si O2"
_cell_formula_units_Z 16
_cell_length_a 9.498488
_cell_length_b 9.569106
_cell_length_c 19.321598
_cell_angle_alpha 112.543719
_cell_angle_beta 101.270623
_cell_angle_gamma 136.784271
_cell_volume 733.566029
_symmetry_space_group_name_H-M "P -1"
_symmetry_group_IT_number 2
_symmetry_cell_setting 'triclinic'
loop_
_space_group_symop_operation_xyz
x,y,z
-x,-y,-z
loop_
_atom_site_type_symbol
_atom_site_label
_atom_site_fract_x
_atom_site_fract_y
_atom_site_fract_z
Si Si1 0.387705 0.703238 0.158237
Si Si2 0.337170 0.450308 0.531585
Si Si3 0.187255 0.159786 0.249930
Si Si4 0.223806 0.185949 0.717995
Si Si5 0.345875 0.189379 0.933687
Si Si6 0.268983 0.699276 0.616194
Si Si7 0.412010 0.665993 0.751421
Si Si8 0.342252 0.983551 0.024056
O O1 0.489406 0.644319 0.195768
O O2 0.513820 0.790278 0.108411
O O3 0.019852 0.379503 0.063707
O O4 0.546397 0.988874 0.271666
O O5 0.500000 0.500000 0.500000
O O6 0.461870 0.488708 0.620913
O O7 0.442521 0.724640 0.596170
O O8 0.981371 0.108506 0.409815
O O9 0.248392 0.060003 0.196980
O O10 0.975230 0.959053 0.259828
O O11 0.018285 0.123198 0.179161
O O12 0.299298 0.408642 0.728080
O O13 0.376005 0.158552 0.008704
O O14 0.500000 0.500000 0.000000
O O15 0.187389 0.524700 0.644484
O O16 0.000000 0.500000 0.500000
O O17 0.476584 0.836464 0.852647
O O18 0.500000 0.000000 0.000000
#
# Coordination Sequence:
#
# PCOD9108484 Si02
#       8
#     2   2   2   2   2   2   2   2
#     4  11  24  43  71  98 140 185 221 286 349 401
#     4   9  19  38  65  95 131 172 225 278 326 403
#     4   9  20  36  62  98 126 165 217 273 329 395
#     4  10  20  40  68  98 130 172 224 276 336 403
#     4  11  23  42  70 100 137 177 232 283 341 407
#     4  11  23  43  67  99 138 181 227 279 348 408
#     4  11  24  41  67  96 133 174 229 277 341 405
#     4  12  27  44  63  98 138 177 232 282 342 412
#
# _framework density 21.811261999999999
#
# number of rings (size 3 to 8) (size 9 to 14) (size 15 to 20)
#    0.000    1.500    1.250    3.750    0.000   10.500 
#    2.250    0.000    0.000    8.250    0.000    0.000 
#    0.000    0.000    0.000    0.000    0.000    0.000 
#
# Total GULP energy -89152.109994 kJ/mol
# GULP energy per Si atom -5572.006875 kJ/mol
# Density = 2.176162 g / cm^3
# Si number density = 21.811262 Si / 1000 Ang^3
#
#
#
# Elastic Constant Matrix: (Units=GPa)
#
#
# Indices 1 2 3 4 5 6 
#
# 1 103.9218 25.2034 24.9151 -13.8045 -19.0731 10.0492
# 2 25.2034 78.0381 20.5890 -22.6573 -3.2232 -7.8223
# 3 24.9151 20.5890 79.5241 -27.4585 -14.0063 4.4690
# 4 -13.8045 -22.6573 -27.4585 34.4347 -6.9533 -3.2095
# 5 -19.0731 -3.2232 -14.0063 -6.9533 49.2268 -8.4252
# 6 10.0492 -7.8223 4.4690 -3.2095 -8.4252 38.0742
#
#
#
# Elastic Compliance Matrix: (Units=1/GPa)
#
#
# Indices 1 2 3 4 5 6 
#
# 1 0.011930 -0.002899 -0.001325 0.002385 0.003963 -0.002511
# 2 -0.002899 0.017882 0.000750 0.012384 0.003049 0.006070
# 3 -0.001325 0.000750 0.020341 0.017952 0.008103 0.001422
# 4 0.002385 0.012384 0.017952 0.056495 0.016219 0.008159
# 5 0.003963 0.003049 0.008103 0.016219 0.027694 0.006125
# 6 -0.002511 0.006070 0.001422 0.008159 0.006125 0.030050
#
#
# Mechanical properties :
#
#
# Convention : Reuss Voigt Hill
#
# Bulk Modulus (GPa) = 23.14431 44.76657 33.95544
# Shear Modulus (GPa) = 26.91904 37.06556 31.99230
#
# Velocity S-wave (km/s) = 3.51690 4.12682 3.83401
# Velocity P-wave (km/s) = 5.20823 6.57850 5.93306
#
# Compressibility (1/GPa) = 0.04320717
#
# Stress axis : x y z
#
# Youngs Moduli (GPa) = 83.82060 55.92088 49.16162
#
# Poissons Ratio (x) = 0.16212 0.06512
# Poissons Ratio (y) = 0.24300 -0.03689
# Poissons Ratio (z) = 0.11103 -0.04196
#
# Static dielectric constant tensor:
#      x y z
#    x 1.862230 0.022420 -0.042690 
#    y 0.022420 1.865330 -0.035520 
#    z -0.042690 -0.035520 1.909920 
# 
# From -- ./inp_files/588047.got.cif
#   From: 2010.05.17/outbox.cif.g08.bks.cpg/sg2_295_cif.got.tgz:588047.got - 2010.06.03 11:33:40.
