data_PCOD9108813
_publ_section_title
;
Structure prediction by ZEFSAII (Michael W. Deem and Ramdas Pophale) SiO2 
 PCOD9108813
Probable space group: P -1
;
_chemical_formula_sum "Si O2"
_cell_formula_units_Z 16
_cell_length_a 5.374732
_cell_length_b 16.315814
_cell_length_c 14.596179
_cell_angle_alpha 31.232366
_cell_angle_beta 108.682485
_cell_angle_gamma 100.083124
_cell_volume 615.858329
_symmetry_space_group_name_H-M "P -1"
_symmetry_group_IT_number 2
_symmetry_cell_setting 'triclinic'
loop_
_space_group_symop_operation_xyz
x,y,z
-x,-y,-z
loop_
_atom_site_type_symbol
_atom_site_label
_atom_site_fract_x
_atom_site_fract_y
_atom_site_fract_z
Si Si1 0.222206 0.443568 0.002053
Si Si2 0.543202 0.824860 0.605693
Si Si3 0.768642 0.417478 0.660803
Si Si4 0.866791 0.750236 0.409824
Si Si5 0.342509 0.573018 0.708092
Si Si6 0.909200 0.961836 0.386460
Si Si7 0.167945 0.142041 0.888908
Si Si8 0.404169 0.769102 0.021914
O O1 0.322263 0.251293 0.211091
O O2 0.500000 0.500000 0.000000
O O3 0.161276 0.522305 0.819553
O O4 0.000000 0.500000 0.000000
O O5 0.543841 0.670693 0.686621
O O6 0.734832 0.930346 0.482447
O O7 0.227745 0.905453 0.493720
O O8 0.500000 0.500000 0.500000
O O9 0.820478 0.569351 0.578362
O O10 0.741706 0.274182 0.863167
O O11 0.989617 0.323997 0.706851
O O12 0.824192 0.853324 0.397700
O O13 0.726247 0.844160 0.215545
O O14 0.192379 0.701543 0.493163
O O15 0.459432 0.403368 0.838285
O O16 0.800894 0.138975 0.164319
O O17 0.375034 0.134531 0.004695
O O18 0.000000 0.000000 0.000000
#
# Coordination Sequence:
#
# PCOD9108813 Si02
#       8
#     2   2   2   2   2   2   2   2
#     4  10  20  40  72 106 135 170 222 281 342 406
#     4  10  22  45  68 100 134 177 224 278 344 412
#     4  12  24  41  65  90 126 174 236 287 335 395
#     4  11  22  43  65  94 128 179 231 284 339 397
#     4  10  22  41  70  99 131 172 227 283 334 404
#     4  11  26  41  68  97 140 181 227 278 342 411
#     4  12  27  42  62  92 138 180 227 283 344 405
#     4  12  26  43  62  98 135 182 228 281 345 400
#
# _framework density 25.979998999999999
#
# number of rings (size 3 to 8) (size 9 to 14) (size 15 to 20)
#    0.000    1.000    2.500    4.875    7.000    2.000 
#    0.000    1.250    0.000    0.000    0.000    0.000 
#    0.000    0.000    0.000    0.000    0.000    0.000 
#
# Total GULP energy -89430.250339 kJ/mol
# GULP energy per Si atom -5589.390646 kJ/mol
# Density = 2.592087 g / cm^3
# Si number density = 25.979999 Si / 1000 Ang^3
#
#
#
# Elastic Constant Matrix: (Units=GPa)
#
#
# Indices 1 2 3 4 5 6 
#
# 1 111.2290 23.9123 30.0123 10.5289 4.4095 -2.6490
# 2 23.9123 125.2738 5.7579 -20.0194 9.2639 -3.5483
# 3 30.0123 5.7579 127.4327 17.9544 9.3238 2.5345
# 4 10.5289 -20.0194 17.9544 46.6091 3.3227 -5.8674
# 5 4.4095 9.2639 9.3238 3.3227 46.9712 7.9458
# 6 -2.6490 -3.5483 2.5345 -5.8674 7.9458 29.8706
#
#
#
# Elastic Compliance Matrix: (Units=1/GPa)
#
#
# Indices 1 2 3 4 5 6 
#
# 1 0.010249 -0.002253 -0.001968 -0.002484 -0.000006 0.000322
# 2 -0.002253 0.009538 -0.000527 0.005314 -0.002390 0.002658
# 3 -0.001968 -0.000527 0.008903 -0.003312 -0.001012 -0.001374
# 4 -0.002484 0.005314 -0.003312 0.026655 -0.003189 0.006776
# 5 -0.000006 -0.002390 -0.001012 -0.003189 0.023380 -0.007044
# 6 0.000322 0.002658 -0.001374 0.006776 -0.007044 0.037143
#
#
# Mechanical properties :
#
#
# Convention : Reuss Voigt Hill
#
# Bulk Modulus (GPa) = 52.10165 53.70004 52.90085
# Shear Modulus (GPa) = 37.94746 44.97371 41.46059
#
# Velocity S-wave (km/s) = 3.82598 4.16515 3.99916
# Velocity P-wave (km/s) = 6.29409 6.62163 6.45993
#
# Compressibility (1/GPa) = 0.01919325
#
# Stress axis : x y z
#
# Youngs Moduli (GPa) = 97.57132 104.84336 112.32726
#
# Poissons Ratio (x) = 0.23624 0.22106
# Poissons Ratio (y) = 0.21985 0.05918
# Poissons Ratio (z) = 0.19202 0.05524
#
# Static dielectric constant tensor:
#      x y z
#    x 2.569720 0.116600 0.147630 
#    y 0.116600 2.142620 0.076720 
#    z 0.147630 0.076720 2.159360 
# 
# From -- ./inp_files/288452.got.cif
#   From: 2010.05.17/outbox.cif.g08.bks.cpg/sg2_145_cif.got.tgz:288452.got - 2010.06.03 11:33:40.
