data_PCOD9108449
_publ_section_title
;
Structure prediction by ZEFSAII (Michael W. Deem and Ramdas Pophale) SiO2 
 PCOD9108449
Probable space group: P -1
;
_chemical_formula_sum "Si O2"
_cell_formula_units_Z 15
_cell_length_a 5.139297
_cell_length_b 12.608121
_cell_length_c 14.741059
_cell_angle_alpha 139.510576
_cell_angle_beta 94.569324
_cell_angle_gamma 99.097333
_cell_volume 581.869326
_symmetry_space_group_name_H-M "P -1"
_symmetry_group_IT_number 2
_symmetry_cell_setting 'triclinic'
loop_
_space_group_symop_operation_xyz
x,y,z
-x,-y,-z
loop_
_atom_site_type_symbol
_atom_site_label
_atom_site_fract_x
_atom_site_fract_y
_atom_site_fract_z
Si Si1 0.083516 0.876204 0.573788
Si Si2 0.743336 0.262115 0.766794
Si Si3 0.851273 0.196915 0.065936
Si Si4 0.567544 0.621902 0.314739
Si Si5 0.599892 0.786304 0.804915
Si Si6 0.500000 0.000000 0.500000
Si Si7 0.459474 0.251600 0.420584
Si Si8 0.274691 0.590086 0.954672
O O1 0.892886 0.710619 0.400142
O O2 0.230464 0.923008 0.369176
O O3 0.303718 0.833030 0.618245
O O4 0.713583 0.004968 0.418150
O O5 0.556845 0.245214 0.656081
O O6 0.031398 0.414666 0.861781
O O7 0.613359 0.309471 0.884324
O O8 0.680018 0.268152 0.180106
O O9 0.850615 0.294628 0.035888
O O10 0.150307 0.221938 0.130794
O O11 0.684896 0.992311 0.917957
O O12 0.457061 0.603282 0.401762
O O13 0.518587 0.468757 0.141787
O O14 0.564056 0.694707 0.647533
O O15 0.157113 0.122876 0.360338
#
# Coordination Sequence:
#
# PCOD9108449 Si02
#       8
#     2   2   2   2   2   1   2   2
#     4  10  22  36  67  95 137 173 222 279 338 390
#     4  11  24  41  68  95 147 179 239 269 349 410
#     4  10  24  43  71  96 141 175 233 289 347 406
#     4  10  21  42  62  96 138 181 223 284 328 421
#     4  10  22  46  69 104 130 178 234 294 341 415
#     4  12  20  44  60 106 132 186 230 290 320 414
#     4  10  20  40  68  96 131 176 220 291 340 403
#     4  11  24  44  64 103 136 194 217 288 344 425
#
# _framework density 25.778986
#
# number of rings (size 3 to 8) (size 9 to 14) (size 15 to 20)
#    0.800    0.800    2.667    1.200    3.733    2.133 
#    0.000    1.333    0.000    0.000    0.000    0.000 
#    0.000    0.000    0.000    0.000    0.000    0.000 
#
# Total GULP energy -83611.307253 kJ/mol
# GULP energy per Si atom -5574.087150 kJ/mol
# Density = 2.572031 g / cm^3
# Si number density = 25.778986 Si / 1000 Ang^3
#
#
#
# Elastic Constant Matrix: (Units=GPa)
#
#
# Indices 1 2 3 4 5 6 
#
# 1 113.7650 12.1517 16.0211 -10.6291 -4.5050 -3.9747
# 2 12.1517 53.2961 48.4804 -9.7977 -6.8893 4.1007
# 3 16.0211 48.4804 202.8022 -9.8449 -7.9512 4.5698
# 4 -10.6291 -9.7977 -9.8449 35.9256 3.1958 4.6651
# 5 -4.5050 -6.8893 -7.9512 3.1958 24.8745 -4.1263
# 6 -3.9747 4.1007 4.5698 4.6651 -4.1263 30.2220
#
#
#
# Elastic Compliance Matrix: (Units=1/GPa)
#
#
# Indices 1 2 3 4 5 6 
#
# 1 0.009261 -0.001448 -0.000273 0.001999 0.001149 0.001304
# 2 -0.001448 0.025881 -0.005598 0.005150 0.003938 -0.003113
# 3 -0.000273 -0.005598 0.006315 0.000116 0.000371 -0.000198
# 4 0.001999 0.005150 0.000116 0.030869 -0.003076 -0.005638
# 5 0.001149 0.003938 0.000371 -0.003076 0.042994 0.005905
# 6 0.001304 -0.003113 -0.000198 -0.005638 0.005905 0.035389
#
#
# Mechanical properties :
#
#
# Convention : Reuss Voigt Hill
#
# Bulk Modulus (GPa) = 37.28583 58.12996 47.70789
# Shear Modulus (GPa) = 28.68860 37.75178 33.22019
#
# Velocity S-wave (km/s) = 3.33959 3.83095 3.59368
# Velocity P-wave (km/s) = 5.41899 6.49358 5.98047
#
# Compressibility (1/GPa) = 0.02681984
#
# Stress axis : x y z
#
# Youngs Moduli (GPa) = 107.98086 38.63901 158.34538
#
# Poissons Ratio (x) = 0.05594 0.04320
# Poissons Ratio (y) = 0.15633 0.88640
# Poissons Ratio (z) = 0.02946 0.21630
#
# Static dielectric constant tensor:
#      x y z
#    x 2.050900 -0.017060 -0.007940 
#    y -0.017060 2.256210 0.150480 
#    z -0.007940 0.150480 2.099800 
# 
# From -- ./inp_files/361467.got.cif
#   From: 2010.05.17/outbox.cif.g08.bks.cpg/sg2_181_cif.got.tgz:361467.got - 2010.06.03 11:33:40.
