data_PCOD9108512
_publ_section_title
;
Structure prediction by ZEFSAII (Michael W. Deem and Ramdas Pophale) SiO2 
 PCOD9108512
Probable space group: P -1
;
_chemical_formula_sum "Si O2"
_cell_formula_units_Z 14
_cell_length_a 17.827131
_cell_length_b 9.219460
_cell_length_c 7.117188
_cell_angle_alpha 128.525622
_cell_angle_beta 131.327559
_cell_angle_gamma 39.012321
_cell_volume 537.846085
_symmetry_space_group_name_H-M "P -1"
_symmetry_group_IT_number 2
_symmetry_cell_setting 'triclinic'
loop_
_space_group_symop_operation_xyz
x,y,z
-x,-y,-z
loop_
_atom_site_type_symbol
_atom_site_label
_atom_site_fract_x
_atom_site_fract_y
_atom_site_fract_z
Si Si1 0.947231 0.832449 0.446917
Si Si2 0.942296 0.926234 0.068465
Si Si3 0.420500 0.278028 0.132829
Si Si4 0.779310 0.591099 0.547268
Si Si5 0.842877 0.579593 0.080822
Si Si6 0.667183 0.358577 0.018133
Si Si7 0.434284 0.897138 0.403449
O O1 0.960344 0.011599 0.718029
O O2 0.089491 0.584536 0.486397
O O3 0.926464 0.893968 0.238881
O O4 0.851731 0.784517 0.314166
O O5 0.798711 0.147524 0.958016
O O6 0.019144 0.678622 0.888256
O O7 0.272326 0.393014 0.991280
O O8 0.426355 0.426967 0.105274
O O9 0.476124 0.275614 0.421582
O O10 0.500000 0.000000 0.000000
O O11 0.809839 0.606452 0.824812
O O12 0.694781 0.854237 0.539069
O O13 0.709946 0.470711 0.323162
O O14 0.606607 0.236028 0.889180
O O15 0.500000 0.000000 0.500000
#
# Coordination Sequence:
#
# PCOD9108512 Si02
#       7
#     2   2   2   2   2   2   2
#     4   9  18  36  65 103 129 160 210 279 321 374
#     4   9  19  37  65 101 128 161 215 268 333 379
#     4  12  27  48  61  93 140 177 219 266 327 387
#     4  10  20  40  69 100 131 165 221 268 323 387
#     4  11  21  40  67  98 129 171 219 265 314 393
#     4  11  24  44  68  95 139 169 206 282 332 381
#     4  12  24  45  69  97 121 179 232 263 318 389
#
# _framework density 26.029752999999999
#
# number of rings (size 3 to 8) (size 9 to 14) (size 15 to 20)
#    0.000    1.429    2.857    4.714    0.000    1.143 
#    5.143    2.857    0.000    0.000    0.000    0.000 
#    0.000    0.000    0.000    0.000    0.000    0.000 
#
# Total GULP energy -78423.250440 kJ/mol
# GULP energy per Si atom -5601.660746 kJ/mol
# Density = 2.597051 g / cm^3
# Si number density = 26.029753 Si / 1000 Ang^3
#
#
#
# Elastic Constant Matrix: (Units=GPa)
#
#
# Indices 1 2 3 4 5 6 
#
# 1 68.6907 27.5235 33.7765 12.6974 12.5831 10.5571
# 2 27.5235 143.7882 36.2878 0.2357 11.9328 4.0075
# 3 33.7765 36.2878 128.9101 29.5598 29.0525 24.2766
# 4 12.6974 0.2357 29.5598 55.2984 18.4088 6.3895
# 5 12.5831 11.9328 29.0525 18.4088 36.0771 15.2779
# 6 10.5571 4.0075 24.2766 6.3895 15.2779 29.0415
#
#
#
# Elastic Compliance Matrix: (Units=1/GPa)
#
#
# Indices 1 2 3 4 5 6 
#
# 1 0.017933 -0.002575 -0.002757 -0.001985 -0.000927 -0.002934
# 2 -0.002575 0.008066 -0.001999 0.002089 -0.002141 0.002161
# 3 -0.002757 -0.001999 0.011815 -0.003853 -0.003401 -0.005962
# 4 -0.001985 0.002089 -0.003853 0.023684 -0.010706 0.004076
# 5 -0.000927 -0.002141 -0.003401 -0.010706 0.044366 -0.017509
# 6 -0.002934 0.002161 -0.005962 0.004076 -0.017509 0.048500
#
#
# Mechanical properties :
#
#
# Convention : Reuss Voigt Hill
#
# Bulk Modulus (GPa) = 43.19303 59.61828 51.40565
# Shear Modulus (GPa) = 28.28940 40.33681 34.31311
#
# Velocity S-wave (km/s) = 3.30026 3.94082 3.63468
# Velocity P-wave (km/s) = 5.58140 6.60760 6.11606
#
# Compressibility (1/GPa) = 0.02315189
#
# Stress axis : x y z
#
# Youngs Moduli (GPa) = 55.76209 123.97516 84.63583
#
# Poissons Ratio (x) = 0.31923 0.23336
# Poissons Ratio (y) = 0.14358 0.16922
# Poissons Ratio (z) = 0.15375 0.24787
#
# Static dielectric constant tensor:
#      x y z
#    x 2.084940 0.010730 -0.036020 
#    y 0.010730 2.031500 -0.040310 
#    z -0.036020 -0.040310 2.091280 
# 
# From -- ./inp_files/200443.got.cif
#   From: 2010.05.17/outbox.cif.g08.bks.cpg/sg2_101_cif.got.tgz:200443.got - 2010.06.03 11:33:40.
