data_PCOD9108367
_publ_section_title
;
Structure prediction by ZEFSAII (Michael W. Deem and Ramdas Pophale) SiO2 
 PCOD9108367
Probable space group: P -1
;
_chemical_formula_sum "Si O2"
_cell_formula_units_Z 16
_cell_length_a 11.263917
_cell_length_b 9.154827
_cell_length_c 18.848213
_cell_angle_alpha 134.156524
_cell_angle_beta 146.773122
_cell_angle_gamma 61.388679
_cell_volume 736.933609
_symmetry_space_group_name_H-M "P -1"
_symmetry_group_IT_number 2
_symmetry_cell_setting 'triclinic'
loop_
_space_group_symop_operation_xyz
x,y,z
-x,-y,-z
loop_
_atom_site_type_symbol
_atom_site_label
_atom_site_fract_x
_atom_site_fract_y
_atom_site_fract_z
Si Si1 0.315175 0.037227 0.365486
Si Si2 0.321689 0.806630 0.150734
Si Si3 0.170713 0.964791 0.824730
Si Si4 0.552870 0.132106 0.181247
Si Si5 0.844490 0.654219 0.151776
Si Si6 0.599796 0.750900 0.724894
Si Si7 0.690360 0.358184 0.583826
Si Si8 0.246517 0.128071 0.690094
O O1 0.454851 0.241747 0.462272
O O2 0.500000 0.000000 0.500000
O O3 0.262967 0.850857 0.216966
O O4 0.087399 0.073214 0.295568
O O5 0.587358 0.826079 0.278168
O O6 0.283944 0.004999 0.153592
O O7 0.210312 0.578405 0.986230
O O8 0.230012 0.186708 0.885376
O O9 0.248854 0.804804 0.756154
O O10 0.336725 0.993980 0.984493
O O11 0.456069 0.289960 0.234164
O O12 0.650160 0.009164 0.249335
O O13 0.756729 0.671780 0.193978
O O14 0.112919 0.735177 0.322409
O O15 0.741622 0.599916 0.714033
O O16 0.365826 0.682996 0.540573
O O17 0.000000 0.000000 0.500000
#
# Coordination Sequence:
#
# PCOD9108367 Si02
#       8
#     2   2   2   2   2   2   2   2
#     4  11  22  40  59  89 124 167 209 250 302 372
#     4  10  23  37  61  94 116 158 206 254 318 351
#     4  10  22  38  62  87 126 161 202 250 302 368
#     4   9  20  39  63  86 119 160 199 250 312 350
#     4  11  21  37  64  92 122 160 204 257 300 368
#     4   9  20  41  59  84 123 154 202 259 303 366
#     4  10  21  39  61  90 119 159 209 252 309 364
#     4  10  20  40  68  89 122 160 204 256 306 367
#
# _framework density 21.711590999999999
#
# number of rings (size 3 to 8) (size 9 to 14) (size 15 to 20)
#    0.000    2.000    1.250    2.625    3.500    2.000 
#   11.250    0.625   11.000    0.000    0.000    0.000 
#    0.000    0.000    0.000    0.000    0.000    0.000 
#
# Total GULP energy -89165.515357 kJ/mol
# GULP energy per Si atom -5572.844710 kJ/mol
# Density = 2.166217 g / cm^3
# Si number density = 21.711591 Si / 1000 Ang^3
#
#
#
# Elastic Constant Matrix: (Units=GPa)
#
#
# Indices 1 2 3 4 5 6 
#
# 1 113.4639 -2.5560 27.0847 -7.2234 -13.4126 -17.5958
# 2 -2.5560 50.3148 18.9444 -6.2975 -9.2699 -3.4063
# 3 27.0847 18.9444 72.9051 -15.5126 -4.4846 -5.4020
# 4 -7.2234 -6.2975 -15.5126 49.1443 -9.4605 -3.3504
# 5 -13.4126 -9.2699 -4.4846 -9.4605 38.8790 -3.1238
# 6 -17.5958 -3.4063 -5.4020 -3.3504 -3.1238 14.4656
#
#
#
# Elastic Compliance Matrix: (Units=1/GPa)
#
#
# Indices 1 2 3 4 5 6 
#
# 1 0.014304 0.005693 -0.003762 0.004688 0.008628 0.020284
# 2 0.005693 0.025850 -0.006117 0.005056 0.009778 0.014010
# 3 -0.003762 -0.006117 0.017833 0.004521 0.000546 0.001808
# 4 0.004688 0.005056 0.004521 0.026425 0.011149 0.017109
# 5 0.008628 0.009778 0.000546 0.011149 0.035676 0.023288
# 6 0.020284 0.014010 0.001808 0.017109 0.023288 0.106769
#
#
# Mechanical properties :
#
#
# Convention : Reuss Voigt Hill
#
# Bulk Modulus (GPa) = 20.15538 35.95890 28.05714
# Shear Modulus (GPa) = 19.85978 33.37848 26.61913
#
# Velocity S-wave (km/s) = 3.02770 3.92517 3.50527
# Velocity P-wave (km/s) = 4.63961 6.09431 5.41602
#
# Compressibility (1/GPa) = 0.04961454
#
# Stress axis : x y z
#
# Youngs Moduli (GPa) = 69.91252 38.68509 56.07611
#
# Poissons Ratio (x) = -0.22022 0.21095
# Poissons Ratio (y) = -0.39799 0.34300
# Poissons Ratio (z) = 0.26300 0.23662
#
# Static dielectric constant tensor:
#      x y z
#    x 1.908780 -0.036880 -0.024220 
#    y -0.036880 1.833010 0.016410 
#    z -0.024220 0.016410 1.796430 
# 
# From -- ./inp_files/284372.got.cif
#   From: 2010.05.17/outbox.cif.g08.bks.cpg/sg2_143_cif.got.tgz:284372.got - 2010.06.03 11:33:40.
