data_PCOD9108883
_publ_section_title
;
Structure prediction by ZEFSAII (Michael W. Deem and Ramdas Pophale) SiO2 
 PCOD9108883
Probable space group: P -1
;
_chemical_formula_sum "Si O2"
_cell_formula_units_Z 12
_cell_length_a 8.994883
_cell_length_b 11.689869
_cell_length_c 14.358222
_cell_angle_alpha 149.470549
_cell_angle_beta 129.716274
_cell_angle_gamma 38.789882
_cell_volume 477.955675
_symmetry_space_group_name_H-M "P -1"
_symmetry_group_IT_number 2
_symmetry_cell_setting 'triclinic'
loop_
_space_group_symop_operation_xyz
x,y,z
-x,-y,-z
loop_
_atom_site_type_symbol
_atom_site_label
_atom_site_fract_x
_atom_site_fract_y
_atom_site_fract_z
Si Si1 0.243212 0.012843 0.013940
Si Si2 0.549911 0.203769 0.328614
Si Si3 0.051750 0.967958 0.388814
Si Si4 0.263674 0.783316 0.066855
Si Si5 0.772367 0.806392 0.508851
Si Si6 0.575607 0.559886 0.357060
O O1 0.391617 0.138553 0.162752
O O2 0.282366 0.875204 0.035784
O O3 0.963518 0.227333 0.032786
O O4 0.339641 0.747256 0.800283
O O5 0.500000 0.500000 0.500000
O O6 0.482583 0.240281 0.438038
O O7 0.832868 0.973958 0.265869
O O8 0.056536 0.214118 0.517234
O O9 0.324528 0.702055 0.301443
O O10 0.000000 0.000000 0.500000
O O11 0.205472 0.025272 0.283506
O O12 0.500000 0.500000 0.000000
O O13 0.779704 0.551273 0.374531
O O14 0.500000 0.000000 0.500000
#
# Coordination Sequence:
#
# PCOD9108883 Si02
#       6
#     2   2   2   2   2   2
#     4  11  26  46  70 106 145 183 241 302 351 425
#     4  11  25  45  67  99 147 187 231 294 361 422
#     4   9  21  41  68 102 139 188 231 288 358 421
#     4  11  24  45  70 110 142 180 241 302 355 421
#     4  10  20  40  75 100 134 188 239 289 352 416
#     4  10  22  45  70 101 136 185 243 287 349 423
#
# _framework density 25.106930999999999
#
# number of rings (size 3 to 8) (size 9 to 14) (size 15 to 20)
#    0.000    1.667    1.667    2.000    2.333    7.333 
#    3.000    0.000    0.000    0.000    0.000    0.000 
#    0.000    0.000    0.000    0.000    0.000    0.000 
#
# Total GULP energy -67140.490486 kJ/mol
# GULP energy per Si atom -5595.040874 kJ/mol
# Density = 2.504979 g / cm^3
# Si number density = 25.106931 Si / 1000 Ang^3
#
#
#
# Elastic Constant Matrix: (Units=GPa)
#
#
# Indices 1 2 3 4 5 6 
#
# 1 164.9385 47.7235 54.4298 -11.0379 29.1131 -15.0681
# 2 47.7235 152.8897 39.4801 -7.8710 19.4646 -38.8079
# 3 54.4298 39.4801 129.2399 -14.4259 24.9030 -20.0886
# 4 -11.0379 -7.8710 -14.4259 36.3238 -4.2680 4.9518
# 5 29.1131 19.4646 24.9030 -4.2680 47.1418 -18.2604
# 6 -15.0681 -38.8079 -20.0886 4.9518 -18.2604 49.1065
#
#
#
# Elastic Compliance Matrix: (Units=1/GPa)
#
#
# Indices 1 2 3 4 5 6 
#
# 1 0.007828 -0.001699 -0.002218 0.000898 -0.003336 -0.001179
# 2 -0.001699 0.008881 -0.001089 0.000177 0.000363 0.006169
# 3 -0.002218 -0.001089 0.010019 0.002572 -0.002746 0.001277
# 4 0.000898 0.000177 0.002572 0.029069 0.000091 -0.001429
# 5 -0.003336 0.000363 -0.002746 0.000091 0.027873 0.008495
# 6 -0.001179 0.006169 0.001277 -0.001429 0.008495 0.028703
#
#
# Mechanical properties :
#
#
# Convention : Reuss Voigt Hill
#
# Bulk Modulus (GPa) = 59.82099 81.14831 70.48465
# Shear Modulus (GPa) = 39.07648 46.87675 42.97661
#
# Velocity S-wave (km/s) = 3.94941 4.32566 4.14181
# Velocity P-wave (km/s) = 6.68396 7.57230 7.14195
#
# Compressibility (1/GPa) = 0.01671654
#
# Stress axis : x y z
#
# Youngs Moduli (GPa) = 127.75281 112.60195 99.81161
#
# Poissons Ratio (x) = 0.19131 0.22136
# Poissons Ratio (y) = 0.21705 0.10866
# Poissons Ratio (z) = 0.28332 0.12259
#
# Static dielectric constant tensor:
#      x y z
#    x 2.066320 0.060740 -0.062310 
#    y 0.060740 2.066660 0.001430 
#    z -0.062310 0.001430 1.955790 
# 
# From -- ./inp_files/501294.got.cif
#   From: 2010.05.17/outbox.cif.g08.bks.cpg/sg2_251_cif.got.tgz:501294.got - 2010.06.03 11:33:40.
