data_PCOD9108245
_publ_section_title
;
Structure prediction by ZEFSAII (Michael W. Deem and Ramdas Pophale) SiO2 
 PCOD9108245
Probable space group: P -1
;
_chemical_formula_sum "Si O2"
_cell_formula_units_Z 16
_cell_length_a 17.033939
_cell_length_b 12.256968
_cell_length_c 8.841288
_cell_angle_alpha 62.801424
_cell_angle_beta 146.215258
_cell_angle_gamma 129.141201
_cell_volume 786.293716
_symmetry_space_group_name_H-M "P -1"
_symmetry_group_IT_number 2
_symmetry_cell_setting 'triclinic'
loop_
_space_group_symop_operation_xyz
x,y,z
-x,-y,-z
loop_
_atom_site_type_symbol
_atom_site_label
_atom_site_fract_x
_atom_site_fract_y
_atom_site_fract_z
Si Si1 0.802830 0.428604 0.088347
Si Si2 0.329181 0.387651 0.370304
Si Si3 0.658256 0.083202 0.410977
Si Si4 0.827354 0.906473 0.864927
Si Si5 0.701133 0.116926 0.096346
Si Si6 0.321210 0.425870 0.686914
Si Si7 0.185430 0.587346 0.537600
Si Si8 0.047864 0.138382 0.586696
O O1 0.704803 0.265375 0.979757
O O2 0.749371 0.417692 0.185938
O O3 0.993154 0.483614 0.327115
O O4 0.784086 0.550413 0.902605
O O5 0.500000 0.500000 0.500000
O O6 0.273157 0.234974 0.306745
O O7 0.334866 0.394345 0.554937
O O8 0.682585 0.083785 0.267592
O O9 0.758754 0.249297 0.510073
O O10 0.731779 0.993611 0.661485
O O11 0.461591 0.007948 0.165296
O O12 0.875568 0.870602 0.125867
O O13 0.000000 0.000000 0.000000
O O14 0.878698 0.140244 0.327574
O O15 0.251153 0.529571 0.547832
O O16 0.189797 0.278437 0.646120
O O17 0.500000 0.500000 0.000000
O O18 0.000000 0.000000 0.500000
#
# Coordination Sequence:
#
# PCOD9108245 Si02
#       8
#     2   2   2   2   2   2   2   2
#     4  10  20  40  67  94 129 179 222 274 334 409
#     4  12  26  44  71  99 131 177 231 286 337 410
#     4  10  22  38  69 101 132 182 222 278 323 409
#     4  12  23  44  71 102 136 180 237 273 336 411
#     4  10  21  41  65  98 137 175 229 268 341 404
#     4  12  27  45  68 101 139 179 225 289 347 399
#     4  10  21  40  67  97 135 174 222 271 343 400
#     4  12  26  45  68 102 141 183 223 287 348 403
#
# _framework density 20.348628999999999
#
# number of rings (size 3 to 8) (size 9 to 14) (size 15 to 20)
#    0.000    1.000    2.500    4.500    3.500    1.500 
#    2.250    0.625    0.000    0.000    0.000    0.000 
#    0.000    0.000    0.000    0.000    0.000    0.000 
#
# Total GULP energy -89381.100023 kJ/mol
# GULP energy per Si atom -5586.318751 kJ/mol
# Density = 2.030231 g / cm^3
# Si number density = 20.348629 Si / 1000 Ang^3
#
#
#
# Elastic Constant Matrix: (Units=GPa)
#
#
# Indices 1 2 3 4 5 6 
#
# 1 116.6143 56.2880 49.5107 10.5564 -2.6735 6.3539
# 2 56.2880 142.8994 44.2075 12.0196 -2.9434 1.8481
# 3 49.5107 44.2075 68.6752 -0.9329 5.7439 0.9737
# 4 10.5564 12.0196 -0.9329 37.0619 5.1944 2.6511
# 5 -2.6735 -2.9434 5.7439 5.1944 30.8136 8.0143
# 6 6.3539 1.8481 0.9737 2.6511 8.0143 34.4291
#
#
#
# Elastic Compliance Matrix: (Units=1/GPa)
#
#
# Indices 1 2 3 4 5 6 
#
# 1 0.014142 -0.002322 -0.009055 -0.003871 0.004096 -0.002885
# 2 -0.002322 0.009679 -0.004773 -0.002884 0.002161 -0.000237
# 3 -0.009055 -0.004773 0.024828 0.005619 -0.007476 0.002533
# 4 -0.003871 -0.002884 0.005619 0.030106 -0.006723 -0.000043
# 5 0.004096 0.002161 -0.007476 -0.006723 0.037872 -0.008958
# 6 -0.002885 -0.000237 0.002533 -0.000043 -0.008958 0.031607
#
#
# Mechanical properties :
#
#
# Convention : Reuss Voigt Hill
#
# Bulk Modulus (GPa) = 61.16799 69.80012 65.48406
# Shear Modulus (GPa) = 26.88391 32.33977 29.61184
#
# Velocity S-wave (km/s) = 3.63873 3.99091 3.81888
# Velocity P-wave (km/s) = 6.91224 7.45742 7.19000
#
# Compressibility (1/GPa) = 0.01634842
#
# Stress axis : x y z
#
# Youngs Moduli (GPa) = 70.71113 103.31252 40.27740
#
# Poissons Ratio (x) = 0.23989 0.36472
# Poissons Ratio (y) = 0.16419 0.19226
# Poissons Ratio (z) = 0.64030 0.49314
#
# Static dielectric constant tensor:
#      x y z
#    x 1.702320 -0.010110 -0.008550 
#    y -0.010110 1.697500 -0.020970 
#    z -0.008550 -0.020970 1.720040 
# 
# From -- ./inp_files/263165.got.cif
#   From: 2010.05.17/outbox.cif.g08.bks.cpg/sg2_132_cif.got.tgz:263165.got - 2010.06.03 11:33:40.
