data_PCOD9108971
_publ_section_title
;
Structure prediction by ZEFSAII (Michael W. Deem and Ramdas Pophale) SiO2 
 PCOD9108971
Probable space group: P -1
;
_chemical_formula_sum "Si O2"
_cell_formula_units_Z 12
_cell_length_a 10.831756
_cell_length_b 18.540189
_cell_length_c 9.128422
_cell_angle_alpha 37.022737
_cell_angle_beta 38.437608
_cell_angle_gamma 28.250137
_cell_volume 501.466590
_symmetry_space_group_name_H-M "P -1"
_symmetry_group_IT_number 2
_symmetry_cell_setting 'triclinic'
loop_
_space_group_symop_operation_xyz
x,y,z
-x,-y,-z
loop_
_atom_site_type_symbol
_atom_site_label
_atom_site_fract_x
_atom_site_fract_y
_atom_site_fract_z
Si Si1 0.753615 0.820187 0.213525
Si Si2 0.403020 0.141186 0.180676
Si Si3 0.839402 0.941054 0.646291
Si Si4 0.287515 0.815864 0.013960
Si Si5 0.592040 0.275417 0.631923
Si Si6 0.683631 0.425050 0.808929
O O1 0.831121 0.858597 0.929745
O O2 0.671735 0.956587 0.185592
O O3 0.018478 0.648162 0.307272
O O4 0.461262 0.874906 0.376598
O O5 0.473762 0.180167 0.201928
O O6 0.386649 0.250830 0.893800
O O7 0.174520 0.140697 0.353324
O O8 0.128726 0.884072 0.447709
O O9 0.340033 0.721412 0.268216
O O10 0.294749 0.720681 0.030545
O O11 0.000000 0.000000 0.000000
O O12 0.459692 0.434503 0.406243
O O13 0.500000 0.500000 0.000000
#
# Coordination Sequence:
#
# PCOD9108971 Si02
#       6
#     2   2   2   2   2   2
#     4   9  18  36  61  82 135 147 201 252 292 349
#     4   8  19  36  62  83 120 151 212 236 284 363
#     4   9  17  38  59  91 115 164 198 249 286 362
#     4  10  20  41  61  87 121 162 204 244 288 369
#     4  10  21  35  68  84 119 161 200 240 318 336
#     4  12  21  37  61  96 123 158 192 256 308 347
#
# _framework density 23.929811000000001
#
# number of rings (size 3 to 8) (size 9 to 14) (size 15 to 20)
#    2.000    0.333    3.333    0.500    0.000    0.667 
#    3.000    5.000    7.333    0.000    0.000    0.000 
#    0.000    0.000    0.000    0.000    0.000    0.000 
#
# Total GULP energy -66844.959902 kJ/mol
# GULP energy per Si atom -5570.413325 kJ/mol
# Density = 2.387535 g / cm^3
# Si number density = 23.929811 Si / 1000 Ang^3
#
#
#
# Elastic Constant Matrix: (Units=GPa)
#
#
# Indices 1 2 3 4 5 6 
#
# 1 110.7255 49.9586 28.2037 -3.7787 0.0428 -10.7581
# 2 49.9586 87.3317 15.3550 -12.7526 4.5760 -7.1702
# 3 28.2037 15.3550 55.1791 -0.1006 4.2529 -9.1049
# 4 -3.7787 -12.7526 -0.1006 23.1369 -11.1475 0.9228
# 5 0.0428 4.5760 4.2529 -11.1475 34.1677 -7.2905
# 6 -10.7581 -7.1702 -9.1049 0.9228 -7.2905 38.1321
#
#
#
# Elastic Compliance Matrix: (Units=1/GPa)
#
#
# Indices 1 2 3 4 5 6 
#
# 1 0.013540 -0.006984 -0.004822 -0.000975 0.001558 0.001677
# 2 -0.006984 0.016907 -0.001034 0.008551 0.000859 0.000919
# 3 -0.004822 -0.001034 0.021601 -0.002719 -0.002761 0.003141
# 4 -0.000975 0.008551 -0.002719 0.056420 0.018199 0.002798
# 5 0.001558 0.000859 -0.002761 0.018199 0.036828 0.006543
# 6 0.001677 0.000919 0.003141 0.002798 0.006543 0.028804
#
#
# Mechanical properties :
#
#
# Convention : Reuss Voigt Hill
#
# Bulk Modulus (GPa) = 37.92558 48.91898 43.42228
# Shear Modulus (GPa) = 23.97291 29.73528 26.85410
#
# Velocity S-wave (km/s) = 3.16856 3.52888 3.35356
# Velocity P-wave (km/s) = 5.41012 6.09025 5.76023
#
# Compressibility (1/GPa) = 0.02636743
#
# Stress axis : x y z
#
# Youngs Moduli (GPa) = 73.85595 59.14804 46.29311
#
# Poissons Ratio (x) = 0.41309 0.22324
# Poissons Ratio (y) = 0.51581 0.04786
# Poissons Ratio (z) = 0.35616 0.06115
#
# Static dielectric constant tensor:
#      x y z
#    x 2.004770 0.003500 -0.051570 
#    y 0.003500 1.878640 -0.005100 
#    z -0.051570 -0.005100 1.925470 
# 
# From -- ./inp_files/204922.got.cif
#   From: 2010.05.17/outbox.cif.g08.bks.cpg/sg2_103_cif.got.tgz:204922.got - 2010.06.03 11:33:40.
