data_PCOD9108066
_publ_section_title
;
Structure prediction by ZEFSAII (Michael W. Deem and Ramdas Pophale) SiO2 
 PCOD9108066
Probable space group: P -1
;
_chemical_formula_sum "Si O2"
_cell_formula_units_Z 16
_cell_length_a 8.120293
_cell_length_b 13.898600
_cell_length_c 8.600918
_cell_angle_alpha 82.927977
_cell_angle_beta 72.685698
_cell_angle_gamma 123.885157
_cell_volume 716.333214
_symmetry_space_group_name_H-M "P -1"
_symmetry_group_IT_number 2
_symmetry_cell_setting 'triclinic'
loop_
_space_group_symop_operation_xyz
x,y,z
-x,-y,-z
loop_
_atom_site_type_symbol
_atom_site_label
_atom_site_fract_x
_atom_site_fract_y
_atom_site_fract_z
Si Si1 0.217235 0.687613 0.056794
Si Si2 0.057034 0.986572 0.812202
Si Si3 0.713609 0.596424 0.735930
Si Si4 0.496872 0.206115 0.491455
Si Si5 0.760567 0.517496 0.069142
Si Si6 0.839220 0.148945 0.419422
Si Si7 0.354028 0.084347 0.258893
Si Si8 0.255770 0.598609 0.376972
O O1 0.277137 0.687426 0.219202
O O2 0.960982 0.622120 0.103964
O O3 0.221515 0.584707 0.986944
O O4 0.408284 0.826910 0.911921
O O5 0.092209 0.890601 0.744839
O O6 0.852827 0.959592 0.778855
O O7 0.297942 0.114481 0.682711
O O8 0.000000 0.000000 0.000000
O O9 0.483846 0.567353 0.776643
O O10 0.673891 0.478084 0.696061
O O11 0.936628 0.728291 0.595027
O O12 0.755962 0.588928 0.908685
O O13 0.671993 0.178900 0.427742
O O14 0.381000 0.175589 0.365477
O O15 0.631873 0.338271 0.505121
O O16 0.714429 0.034972 0.600116
O O17 0.000000 0.500000 0.500000
#
# Coordination Sequence:
#
# PCOD9108066 Si02
#       8
#     2   2   2   2   2   2   2   2
#     4  10  21  39  62  94 129 172 222 269 332 391
#     4  11  24  43  67  97 133 175 221 278 332 392
#     4  10  20  40  66  96 133 172 224 270 333 392
#     4  11  23  42  68  97 134 179 221 272 335 398
#     4   9  20  35  63  94 126 172 220 274 320 393
#     4  11  22  42  68  99 135 179 220 271 334 409
#     4  11  23  42  69  98 130 175 221 270 334 405
#     4  11  23  42  65  94 133 176 220 278 331 386
#
# _framework density 22.335974
#
# number of rings (size 3 to 8) (size 9 to 14) (size 15 to 20)
#    0.000    1.500    1.250    5.250    3.500    2.000 
#    0.000   10.000    0.000    0.000    0.000    0.000 
#    0.000    0.000    0.000    0.000    0.000    0.000 
#
# Total GULP energy -89287.134511 kJ/mol
# GULP energy per Si atom -5580.445907 kJ/mol
# Density = 2.228514 g / cm^3
# Si number density = 22.335974 Si / 1000 Ang^3
#
#
#
# Elastic Constant Matrix: (Units=GPa)
#
#
# Indices 1 2 3 4 5 6 
#
# 1 93.1847 36.0590 25.6180 5.1195 -13.3694 24.2200
# 2 36.0590 98.8449 28.0282 -10.4070 9.6509 26.9204
# 3 25.6180 28.0282 85.1665 -2.7416 0.1835 -3.4026
# 4 5.1195 -10.4070 -2.7416 46.6677 12.1488 1.7527
# 5 -13.3694 9.6509 0.1835 12.1488 25.8033 -6.3513
# 6 24.2200 26.9204 -3.4026 1.7527 -6.3513 29.2072
#
#
#
# Elastic Compliance Matrix: (Units=1/GPa)
#
#
# Indices 1 2 3 4 5 6 
#
# 1 0.017995 -0.005178 -0.004241 -0.006323 0.012405 -0.007567
# 2 -0.005178 0.024570 -0.007069 0.012843 -0.024067 -0.025180
# 3 -0.004241 -0.007069 0.015793 -0.001806 0.004367 0.012931
# 4 -0.006323 0.012843 -0.001806 0.032441 -0.026937 -0.014609
# 5 0.012405 -0.024067 0.004367 -0.026937 0.074261 0.030170
# 6 -0.007567 -0.025180 0.012931 -0.014609 0.030170 0.072665
#
#
# Mechanical properties :
#
#
# Convention : Reuss Voigt Hill
#
# Bulk Modulus (GPa) = 39.39963 50.73405 45.06684
# Shear Modulus (GPa) = 17.91063 32.83501 25.37282
#
# Velocity S-wave (km/s) = 2.83481 3.83828 3.37406
# Velocity P-wave (km/s) = 5.32848 6.51203 5.94976
#
# Compressibility (1/GPa) = 0.02538095
#
# Stress axis : x y z
#
# Youngs Moduli (GPa) = 55.57088 40.69943 63.31908
#
# Poissons Ratio (x) = 0.21075 0.26856
# Poissons Ratio (y) = 0.28776 0.44762
# Poissons Ratio (z) = 0.23569 0.28771
#
# Static dielectric constant tensor:
#      x y z
#    x 1.773440 0.016030 0.074580 
#    y 0.016030 1.788160 -0.053270 
#    z 0.074580 -0.053270 1.842910 
# 
# From -- ./inp_files/202021.got.cif
#   From: 2010.05.17/outbox.cif.g08.bks.cpg/sg2_102_cif.got.tgz:202021.got - 2010.06.03 11:33:40.
