data_PCOD9108844
_publ_section_title
;
Structure prediction by ZEFSAII (Michael W. Deem and Ramdas Pophale) SiO2 
 PCOD9108844
Probable space group: P -1
;
_chemical_formula_sum "Si O2"
_cell_formula_units_Z 12
_cell_length_a 9.119613
_cell_length_b 11.449442
_cell_length_c 6.343417
_cell_angle_alpha 111.654191
_cell_angle_beta 65.194293
_cell_angle_gamma 127.541982
_cell_volume 470.772779
_symmetry_space_group_name_H-M "P -1"
_symmetry_group_IT_number 2
_symmetry_cell_setting 'triclinic'
loop_
_space_group_symop_operation_xyz
x,y,z
-x,-y,-z
loop_
_atom_site_type_symbol
_atom_site_label
_atom_site_fract_x
_atom_site_fract_y
_atom_site_fract_z
Si Si1 0.654897 0.318722 0.460985
Si Si2 0.959808 0.338371 0.980731
Si Si3 0.722209 0.586783 0.842142
Si Si4 0.310334 0.202125 0.303336
Si Si5 0.409133 0.059323 0.775743
Si Si6 0.781195 0.067490 0.587983
O O1 0.789374 0.287123 0.218051
O O2 0.763653 0.474083 0.621518
O O3 0.502673 0.317315 0.390904
O O4 0.538214 0.200892 0.638525
O O5 0.141581 0.353737 0.997756
O O6 0.898917 0.220832 0.747648
O O7 0.000000 0.500000 0.000000
O O8 0.762225 0.710495 0.726611
O O9 0.500000 0.500000 0.000000
O O10 0.193982 0.066078 0.444953
O O11 0.350227 0.116910 0.043017
O O12 0.558836 0.016281 0.729290
O O13 0.228044 0.940454 0.665517
#
# Coordination Sequence:
#
# PCOD9108844 Si02
#       6
#     2   2   2   2   2   2
#     4  11  23  44  74 100 131 184 233 275 337 404
#     4  12  26  46  70 102 137 179 235 284 332 407
#     4  12  25  45  70  98 143 182 225 284 343 401
#     4  11  22  42  71 101 139 178 224 280 342 404
#     4  10  20  40  73 103 134 176 228 278 333 409
#     4  10  23  39  69 104 134 180 226 278 337 406
#
# _framework density 25.490003999999999
#
# number of rings (size 3 to 8) (size 9 to 14) (size 15 to 20)
#    0.000    1.000    3.333    3.500    4.667    0.667 
#    0.000    0.833    0.000    0.000    0.000    0.000 
#    0.000    0.000    0.000    0.000    0.000    0.000 
#
# Total GULP energy -67144.421511 kJ/mol
# GULP energy per Si atom -5595.368459 kJ/mol
# Density = 2.543199 g / cm^3
# Si number density = 25.490004 Si / 1000 Ang^3
#
#
#
# Elastic Constant Matrix: (Units=GPa)
#
#
# Indices 1 2 3 4 5 6 
#
# 1 134.9521 55.4362 14.5942 -18.3018 36.2223 9.8045
# 2 55.4362 118.0213 7.9659 4.3502 41.9009 -28.1404
# 3 14.5942 7.9659 76.9885 13.2622 34.3826 14.9254
# 4 -18.3018 4.3502 13.2622 46.7843 4.1213 14.5575
# 5 36.2223 41.9009 34.3826 4.1213 47.7739 -1.1957
# 6 9.8045 -28.1404 14.9254 14.5575 -1.1957 46.2693
#
#
#
# Elastic Compliance Matrix: (Units=1/GPa)
#
#
# Indices 1 2 3 4 5 6 
#
# 1 0.014288 -0.007705 0.001353 0.010037 -0.006202 -0.011468
# 2 -0.007705 0.021105 0.004453 -0.009852 -0.014629 0.015754
# 3 0.001353 0.004453 0.023365 -0.003149 -0.021593 -0.004682
# 4 0.010037 -0.009852 -0.003149 0.032496 0.000060 -0.017326
# 5 -0.006202 -0.014629 -0.021593 0.000060 0.054018 0.000759
# 6 -0.011468 0.015754 -0.004682 -0.017326 0.000759 0.040605
#
#
# Mechanical properties :
#
#
# Convention : Reuss Voigt Hill
#
# Bulk Modulus (GPa) = 18.19531 53.99493 36.09512
# Shear Modulus (GPa) = 24.03895 44.96321 34.50108
#
# Velocity S-wave (km/s) = 3.07428 4.20450 3.68300
# Velocity P-wave (km/s) = 4.44470 6.69322 5.68131
#
# Compressibility (1/GPa) = 0.05495921
#
# Stress axis : x y z
#
# Youngs Moduli (GPa) = 69.98914 47.38261 42.79865
#
# Poissons Ratio (x) = 0.36510 -0.05789
# Poissons Ratio (y) = 0.53928 -0.19059
# Poissons Ratio (z) = -0.09467 -0.21101
#
# Static dielectric constant tensor:
#      x y z
#    x 2.030430 0.013650 -0.000780 
#    y 0.013650 2.090820 -0.025850 
#    z -0.000780 -0.025850 1.963430 
# 
# From -- ./inp_files/28692.got.cif
#   From: 2010.05.17/outbox.cif.g08.bks.cpg/sg2_15_cif.got.tgz:28692.got - 2010.06.03 11:33:40.
