data_PCOD9108423
_publ_section_title
;
Structure prediction by ZEFSAII (Michael W. Deem and Ramdas Pophale) SiO2 
 PCOD9108423
Probable space group: P -1
;
_chemical_formula_sum "Si O2"
_cell_formula_units_Z 14
_cell_length_a 9.903010
_cell_length_b 15.564751
_cell_length_c 11.062662
_cell_angle_alpha 130.243637
_cell_angle_beta 58.733049
_cell_angle_gamma 154.914329
_cell_volume 540.204743
_symmetry_space_group_name_H-M "P -1"
_symmetry_group_IT_number 2
_symmetry_cell_setting 'triclinic'
loop_
_space_group_symop_operation_xyz
x,y,z
-x,-y,-z
loop_
_atom_site_type_symbol
_atom_site_label
_atom_site_fract_x
_atom_site_fract_y
_atom_site_fract_z
Si Si1 0.952668 0.207007 0.903491
Si Si2 0.087501 0.000455 0.089171
Si Si3 0.006771 0.836680 0.615701
Si Si4 0.188823 0.717641 0.456125
Si Si5 0.490169 0.227441 0.455104
Si Si6 0.635553 0.596806 0.324464
Si Si7 0.834281 0.390244 0.105918
O O1 0.254382 0.398140 0.842690
O O2 0.029008 0.194177 0.984169
O O3 0.700659 0.968149 0.730921
O O4 0.813231 0.245133 0.018144
O O5 0.930617 0.992346 0.248243
O O6 0.481194 0.230386 0.123377
O O7 0.000000 0.000000 0.000000
O O8 0.862206 0.713743 0.441282
O O9 0.717548 0.646217 0.677200
O O10 0.249958 0.889329 0.587622
O O11 0.458046 0.813686 0.486788
O O12 0.846855 0.481066 0.469896
O O13 0.085905 0.605951 0.274244
O O14 0.335966 0.252164 0.574000
O O15 0.000000 0.500000 0.000000
#
# Coordination Sequence:
#
# PCOD9108423 Si02
#       7
#     2   2   2   2   2   2   2
#     4  12  24  42  71  97 137 174 224 282 337 393
#     4  12  27  43  67 102 137 175 224 285 339 393
#     4  10  20  42  66  91 136 171 223 267 333 401
#     4  10  22  40  67  95 129 177 216 270 334 397
#     4  10  21  38  67  99 127 165 229 275 325 394
#     4  10  20  40  68  95 127 178 219 274 329 399
#     4  12  26  48  66  96 141 184 220 271 346 409
#
# _framework density 25.916101999999999
#
# number of rings (size 3 to 8) (size 9 to 14) (size 15 to 20)
#    0.000    1.143    2.857    4.286    2.000    3.429 
#    0.000    3.571    0.000    0.000    0.000    0.000 
#    0.000    0.000    0.000    0.000    0.000    0.000 
#
# Total GULP energy -78414.558850 kJ/mol
# GULP energy per Si atom -5601.039918 kJ/mol
# Density = 2.585712 g / cm^3
# Si number density = 25.916102 Si / 1000 Ang^3
#
#
#
# Elastic Constant Matrix: (Units=GPa)
#
#
# Indices 1 2 3 4 5 6 
#
# 1 220.8663 35.3368 78.1559 -2.5901 -18.8515 -15.7377
# 2 35.3368 101.9767 18.8595 -11.5138 4.9991 1.9265
# 3 78.1559 18.8595 91.1979 -8.1951 -9.9325 5.3484
# 4 -2.5901 -11.5138 -8.1951 37.2335 -10.9541 1.5217
# 5 -18.8515 4.9991 -9.9325 -10.9541 59.3509 -8.7952
# 6 -15.7377 1.9265 5.3484 1.5217 -8.7952 42.4591
#
#
#
# Elastic Compliance Matrix: (Units=1/GPa)
#
#
# Indices 1 2 3 4 5 6 
#
# 1 0.007396 -0.001712 -0.006101 -0.000966 0.001889 0.004014
# 2 -0.001712 0.010915 -0.000590 0.002816 -0.001252 -0.001416
# 3 -0.006101 -0.000590 0.016999 0.003600 0.000984 -0.004301
# 4 -0.000966 0.002816 0.003600 0.030103 0.005484 -0.000882
# 5 0.001889 -0.001252 0.000984 0.005484 0.019391 0.004453
# 6 0.004014 -0.001416 -0.004301 -0.000882 0.004453 0.026600
#
#
# Mechanical properties :
#
#
# Convention : Reuss Voigt Hill
#
# Bulk Modulus (GPa) = 54.04544 75.41615 64.73080
# Shear Modulus (GPa) = 37.20866 46.58792 41.89829
#
# Velocity S-wave (km/s) = 3.79322 4.24446 4.02517
# Velocity P-wave (km/s) = 6.33119 7.29273 6.82890
#
# Compressibility (1/GPa) = 0.01850295
#
# Stress axis : x y z
#
# Youngs Moduli (GPa) = 135.20182 91.62019 58.82851
#
# Poissons Ratio (x) = 0.15687 0.35891
# Poissons Ratio (y) = 0.23149 0.03472
# Poissons Ratio (z) = 0.82487 0.05407
#
# Static dielectric constant tensor:
#      x y z
#    x 2.005860 -0.050870 -0.000680 
#    y -0.050870 2.139380 0.013610 
#    z -0.000680 0.013610 1.999790 
# 
# From -- ./inp_files/347729.got.cif
#   From: 2010.05.17/outbox.cif.g08.bks.cpg/sg2_174_cif.got.tgz:347729.got - 2010.06.03 11:33:40.
