data_PCOD9108736
_publ_section_title
;
Structure prediction by ZEFSAII (Michael W. Deem and Ramdas Pophale) SiO2 
 PCOD9108736
Probable space group: P -1
;
_chemical_formula_sum "Si O2"
_cell_formula_units_Z 15
_cell_length_a 8.853923
_cell_length_b 9.268747
_cell_length_c 10.921644
_cell_angle_alpha 73.747800
_cell_angle_beta 125.311666
_cell_angle_gamma 118.118625
_cell_volume 645.027083
_symmetry_space_group_name_H-M "P -1"
_symmetry_group_IT_number 2
_symmetry_cell_setting 'triclinic'
loop_
_space_group_symop_operation_xyz
x,y,z
-x,-y,-z
loop_
_atom_site_type_symbol
_atom_site_label
_atom_site_fract_x
_atom_site_fract_y
_atom_site_fract_z
Si Si1 0.505059 0.826236 0.031505
Si Si2 0.108623 0.726949 0.329286
Si Si3 0.720945 0.501333 0.080525
Si Si4 0.553779 0.126752 0.379208
Si Si5 0.530779 0.202921 0.699046
Si Si6 0.952940 0.986060 0.125401
Si Si7 0.500000 0.500000 0.500000
Si Si8 0.747817 0.686484 0.800135
O O1 0.489133 0.762290 0.177498
O O2 0.722546 0.869478 0.064469
O O3 0.326580 0.689424 0.908194
O O4 0.500000 0.000000 0.000000
O O5 0.237813 0.731552 0.509393
O O6 0.246717 0.734214 0.273487
O O7 0.891530 0.584595 0.240983
O O8 0.072915 0.892993 0.270612
O O9 0.500000 0.500000 0.000000
O O10 0.784308 0.600068 0.959454
O O11 0.398776 0.214591 0.265292
O O12 0.500000 0.000000 0.500000
O O13 0.554415 0.996240 0.308458
O O14 0.429979 0.302546 0.549077
O O15 0.037561 0.171135 0.168913
O O16 0.000000 0.000000 0.000000
O O17 0.638764 0.554655 0.676488
#
# Coordination Sequence:
#
# PCOD9108736 Si02
#       8
#     2   2   2   2   2   2   1   2
#     4  12  28  44  66 109 150 176 233 309 357 404
#     4  11  21  41  75  98 129 186 246 272 345 429
#     4  12  26  45  71 101 140 183 238 298 347 415
#     4  10  20  40  70  99 132 183 235 275 340 431
#     4  11  23  43  71 103 144 185 235 293 352 419
#     4  12  22  43  73 102 133 191 236 280 355 427
#     4  12  22  42  68 104 148 182 230 296 352 412
#     4  12  23  43  74 100 139 188 238 283 354 423
#
# _framework density 23.254836000000001
#
# number of rings (size 3 to 8) (size 9 to 14) (size 15 to 20)
#    0.000    0.533    9.333    0.800    1.867    1.600 
#    0.000    4.667    2.933    0.000    0.000    0.000 
#    0.000    0.000    0.000    0.000    0.000    0.000 
#
# Total GULP energy -83526.893732 kJ/mol
# GULP energy per Si atom -5568.459582 kJ/mol
# Density = 2.320191 g / cm^3
# Si number density = 23.254836 Si / 1000 Ang^3
#
#
#
# Elastic Constant Matrix: (Units=GPa)
#
#
# Indices 1 2 3 4 5 6 
#
# 1 50.6135 13.8978 -1.9191 13.4942 0.2443 9.0819
# 2 13.8978 157.5771 30.6628 22.5863 10.5698 3.1347
# 3 -1.9191 30.6628 63.1334 24.3926 13.8865 5.7463
# 4 13.4942 22.5863 24.3926 62.2349 -1.6640 1.7022
# 5 0.2443 10.5698 13.8865 -1.6640 26.5310 1.8449
# 6 9.0819 3.1347 5.7463 1.7022 1.8449 21.1768
#
#
#
# Elastic Compliance Matrix: (Units=1/GPa)
#
#
# Indices 1 2 3 4 5 6 
#
# 1 0.024212 -0.001945 0.005641 -0.006511 -0.002049 -0.010924
# 2 -0.001945 0.007337 -0.002912 -0.001161 -0.001507 0.000763
# 3 0.005641 -0.002912 0.024471 -0.009888 -0.011847 -0.006801
# 4 -0.006511 -0.001161 -0.009888 0.021870 0.006841 0.003293
# 5 -0.002049 -0.001507 -0.011847 0.006841 0.044951 -0.000149
# 6 -0.010924 0.000763 -0.006801 0.003293 -0.000149 0.053387
#
#
# Mechanical properties :
#
#
# Convention : Reuss Voigt Hill
#
# Bulk Modulus (GPa) = 17.36491 39.62297 28.49394
# Shear Modulus (GPa) = 25.79258 37.23403 31.51331
#
# Velocity S-wave (km/s) = 3.33397 4.00575 3.68520
# Velocity P-wave (km/s) = 4.72270 6.20245 5.51245
#
# Compressibility (1/GPa) = 0.05758739
#
# Stress axis : x y z
#
# Youngs Moduli (GPa) = 41.30257 136.30416 40.86527
#
# Poissons Ratio (x) = 0.26513 -0.23054
# Poissons Ratio (y) = 0.08034 0.11900
# Poissons Ratio (z) = -0.23300 0.39691
#
# Static dielectric constant tensor:
#      x y z
#    x 2.080430 -0.042410 0.024090 
#    y -0.042410 1.948740 0.042770 
#    z 0.024090 0.042770 1.929150 
# 
# From -- ./inp_files/381839.got.cif
#   From: 2010.05.17/outbox.cif.g08.bks.cpg/sg2_191_cif.got.tgz:381839.got - 2010.06.03 11:33:40.
