data_PCOD9108494
_publ_section_title
;
Structure prediction by ZEFSAII (Michael W. Deem and Ramdas Pophale) SiO2 
 PCOD9108494
Probable space group: P -1
;
_chemical_formula_sum "Si O2"
_cell_formula_units_Z 12
_cell_length_a 9.359274
_cell_length_b 23.304607
_cell_length_c 6.952276
_cell_angle_alpha 142.482444
_cell_angle_beta 45.726478
_cell_angle_gamma 146.593634
_cell_volume 505.515831
_symmetry_space_group_name_H-M "P -1"
_symmetry_group_IT_number 2
_symmetry_cell_setting 'triclinic'
loop_
_space_group_symop_operation_xyz
x,y,z
-x,-y,-z
loop_
_atom_site_type_symbol
_atom_site_label
_atom_site_fract_x
_atom_site_fract_y
_atom_site_fract_z
Si Si1 0.710279 0.220747 0.703417
Si Si2 0.681233 0.851538 0.807384
Si Si3 0.974960 0.113738 0.102185
Si Si4 0.494307 0.333345 0.046380
Si Si5 0.590375 0.523581 0.760346
Si Si6 0.106212 0.636196 0.721520
O O1 0.786073 0.145061 0.345064
O O2 0.442879 0.133366 0.847090
O O3 0.686017 0.303500 0.807837
O O4 0.912287 0.312020 0.923033
O O5 0.417776 0.729589 0.637437
O O6 0.890798 0.848914 0.709558
O O7 0.820369 0.968977 0.853584
O O8 0.206692 0.200979 0.966208
O O9 0.515337 0.403307 0.406882
O O10 0.527967 0.423017 0.094913
O O11 0.906804 0.622478 0.724141
O O12 0.500000 0.500000 0.000000
O O13 0.000000 0.500000 0.500000
#
# Coordination Sequence:
#
# PCOD9108494 Si02
#       6
#     2   2   2   2   2   2
#     4   9  18  33  60  89 119 157 204 248 301 356
#     4   8  19  30  59  91 120 159 206 247 298 371
#     4  10  16  36  58  89 121 161 201 250 307 357
#     4  10  22  39  60  91 120 158 213 252 299 380
#     4  11  22  41  61  86 125 165 200 255 317 361
#     4  10  18  35  56  87 121 152 202 250 295 361
#
# _framework density 23.738126999999999
#
# number of rings (size 3 to 8) (size 9 to 14) (size 15 to 20)
#    1.000    1.333    1.667    1.500    0.000    0.000 
#    3.000    3.333    0.000    1.000    0.000    0.000 
#    0.000    0.000    0.000    0.000    0.000    0.000 
#
# Total GULP energy -66994.460719 kJ/mol
# GULP energy per Si atom -5582.871727 kJ/mol
# Density = 2.368410 g / cm^3
# Si number density = 23.738127 Si / 1000 Ang^3
#
#
#
# Elastic Constant Matrix: (Units=GPa)
#
#
# Indices 1 2 3 4 5 6 
#
# 1 89.8830 30.6963 35.3652 10.8672 -26.8908 -11.3914
# 2 30.6963 121.1645 21.6884 26.0553 1.3414 1.6262
# 3 35.3652 21.6884 55.6796 -1.1855 -11.8051 -7.2807
# 4 10.8672 26.0553 -1.1855 28.4235 -2.6184 -1.4135
# 5 -26.8908 1.3414 -11.8051 -2.6184 35.0653 4.3399
# 6 -11.3914 1.6262 -7.2807 -1.4135 4.3399 36.2824
#
#
#
# Elastic Compliance Matrix: (Units=1/GPa)
#
#
# Indices 1 2 3 4 5 6 
#
# 1 0.019930 -0.002730 -0.008800 -0.004252 0.011732 0.003045
# 2 -0.002730 0.012156 -0.004493 -0.010820 -0.004610 -0.002174
# 3 -0.008800 -0.004493 0.026413 0.008966 0.002642 0.002772
# 4 -0.004252 -0.010820 0.008966 0.047534 0.003425 0.002391
# 5 0.011732 -0.004610 0.002642 0.003425 0.038848 -0.000093
# 6 0.003045 -0.002174 0.002772 0.002391 -0.000093 0.029276
#
#
# Mechanical properties :
#
#
# Convention : Reuss Voigt Hill
#
# Bulk Modulus (GPa) = 37.80414 49.13631 43.47023
# Shear Modulus (GPa) = 23.25342 31.88606 27.56974
#
# Velocity S-wave (km/s) = 3.13322 3.66900 3.41165
# Velocity P-wave (km/s) = 5.38976 6.22037 5.81990
#
# Compressibility (1/GPa) = 0.02645213
#
# Stress axis : x y z
#
# Youngs Moduli (GPa) = 50.17461 82.26357 37.86005
#
# Poissons Ratio (x) = 0.22461 0.33318
# Poissons Ratio (y) = 0.13699 0.17010
# Poissons Ratio (z) = 0.44156 0.36960
#
# Static dielectric constant tensor:
#      x y z
#    x 1.938070 0.041510 0.024890 
#    y 0.041510 1.918660 -0.030460 
#    z 0.024890 -0.030460 1.912140 
# 
# From -- ./inp_files/54588.got.cif
#   From: 2010.05.17/outbox.cif.g08.bks.cpg/sg2_28_cif.got.tgz:54588.got - 2010.06.03 11:33:40.
