data_PCOD9108378
_publ_section_title
;
Structure prediction by ZEFSAII (Michael W. Deem and Ramdas Pophale) SiO2 
 PCOD9108378
Probable space group: P -1
;
_chemical_formula_sum "Si O2"
_cell_formula_units_Z 14
_cell_length_a 9.509293
_cell_length_b 11.161321
_cell_length_c 7.432710
_cell_angle_alpha 97.750199
_cell_angle_beta 53.691374
_cell_angle_gamma 84.099874
_cell_volume 613.202748
_symmetry_space_group_name_H-M "P -1"
_symmetry_group_IT_number 2
_symmetry_cell_setting 'triclinic'
loop_
_space_group_symop_operation_xyz
x,y,z
-x,-y,-z
loop_
_atom_site_type_symbol
_atom_site_label
_atom_site_fract_x
_atom_site_fract_y
_atom_site_fract_z
Si Si1 0.266301 0.711763 0.924732
Si Si2 0.039606 0.133806 0.997055
Si Si3 0.025975 0.537836 0.195580
Si Si4 0.635447 0.679438 0.493852
Si Si5 0.590431 0.115275 0.904008
Si Si6 0.722639 0.710817 0.009548
Si Si7 0.344188 0.058088 0.485339
O O1 0.459140 0.639074 0.689780
O O2 0.140345 0.761357 0.860038
O O3 0.160087 0.630233 0.104831
O O4 0.280650 0.835564 0.048012
O O5 0.172654 0.176824 0.044186
O O6 0.156993 0.127208 0.726734
O O7 0.000000 0.000000 0.000000
O O8 0.822953 0.602308 0.414959
O O9 0.133914 0.412346 0.180845
O O10 0.000000 0.500000 0.000000
O O11 0.656724 0.687107 0.260017
O O12 0.597282 0.823169 0.618179
O O13 0.446871 0.238662 0.975193
O O14 0.686414 0.052713 0.637009
O O15 0.500000 0.000000 0.000000
O O16 0.500000 0.000000 0.500000
#
# Coordination Sequence:
#
# PCOD9108378 Si02
#       7
#     2   2   2   2   2   2   2
#     4  12  23  38  67  98 124 169 214 261 325 374
#     4  11  21  37  63  96 123 163 218 254 312 393
#     4  10  21  44  64  92 128 165 222 264 306 377
#     4  10  20  40  68  91 126 165 218 260 312 376
#     4  12  24  38  64  99 132 165 208 269 324 377
#     4  10  22  43  65  87 131 171 205 273 310 367
#     4  11  19  40  64  89 131 167 201 263 319 373
#
# _framework density 22.830949
#
# number of rings (size 3 to 8) (size 9 to 14) (size 15 to 20)
#    0.000    1.143    8.571    1.714    0.000    3.429 
#    0.000    0.714    0.000    0.000    0.000    0.000 
#    0.000    0.000    0.000    0.000    0.000    0.000 
#
# Total GULP energy -78071.965563 kJ/mol
# GULP energy per Si atom -5576.568969 kJ/mol
# Density = 2.277899 g / cm^3
# Si number density = 22.830949 Si / 1000 Ang^3
#
#
#
# Elastic Constant Matrix: (Units=GPa)
#
#
# Indices 1 2 3 4 5 6 
#
# 1 57.2818 -0.2746 31.6123 3.7987 -10.6467 -1.9908
# 2 -0.2746 66.2143 14.3248 10.9731 -14.6090 -7.5074
# 3 31.6123 14.3248 72.8050 9.7188 -34.7405 -5.1674
# 4 3.7987 10.9731 9.7188 33.7338 -2.6388 -13.0529
# 5 -10.6467 -14.6090 -34.7405 -2.6388 39.7531 7.2744
# 6 -1.9908 -7.5074 -5.1674 -13.0529 7.2744 44.0417
#
#
#
# Elastic Compliance Matrix: (Units=1/GPa)
#
#
# Indices 1 2 3 4 5 6 
#
# 1 0.023661 0.001960 -0.012573 0.000265 -0.004036 0.000674
# 2 0.001960 0.017456 -0.000811 -0.005008 0.005802 0.000526
# 3 -0.012573 -0.000811 0.031440 -0.006644 0.023907 -0.002936
# 4 0.000265 -0.005008 -0.006644 0.036630 -0.007047 0.010399
# 5 -0.004036 0.005802 0.023907 -0.007047 0.047797 -0.006372
# 6 0.000674 0.000526 -0.002936 0.010399 -0.006372 0.026616
#
#
# Mechanical properties :
#
#
# Convention : Reuss Voigt Hill
#
# Bulk Modulus (GPa) = 20.11683 31.95844 26.03764
# Shear Modulus (GPa) = 22.41974 33.54828 27.98401
#
# Velocity S-wave (km/s) = 3.13707 3.83746 3.50481
# Velocity P-wave (km/s) = 4.68529 5.80199 5.27328
#
# Compressibility (1/GPa) = 0.04970962
#
# Stress axis : x y z
#
# Youngs Moduli (GPa) = 42.26306 57.28747 31.80632
#
# Poissons Ratio (x) = -0.11229 0.39990
# Poissons Ratio (y) = -0.08284 0.02580
# Poissons Ratio (z) = 0.53137 0.04647
#
# Static dielectric constant tensor:
#      x y z
#    x 1.878280 0.071370 0.030160 
#    y 0.071370 1.965210 -0.069840 
#    z 0.030160 -0.069840 2.042930 
# 
# From -- ./inp_files/179722.got.cif
#   From: 2010.05.17/outbox.cif.g08.bks.cpg/sg2_90_cif.got.tgz:179722.got - 2010.06.03 11:33:40.
