data_PCOD9108775
_publ_section_title
;
Structure prediction by ZEFSAII (Michael W. Deem and Ramdas Pophale) SiO2 
 PCOD9108775
Probable space group: P -1
;
_chemical_formula_sum "Si O2"
_cell_formula_units_Z 16
_cell_length_a 12.041426
_cell_length_b 12.182745
_cell_length_c 9.332044
_cell_angle_alpha 68.321060
_cell_angle_beta 129.173849
_cell_angle_gamma 136.005900
_cell_volume 727.903157
_symmetry_space_group_name_H-M "P -1"
_symmetry_group_IT_number 2
_symmetry_cell_setting 'triclinic'
loop_
_space_group_symop_operation_xyz
x,y,z
-x,-y,-z
loop_
_atom_site_type_symbol
_atom_site_label
_atom_site_fract_x
_atom_site_fract_y
_atom_site_fract_z
Si Si1 0.072016 0.058903 0.369343
Si Si2 0.739282 0.870895 0.955112
Si Si3 0.683519 0.974947 0.587989
Si Si4 0.989917 0.533336 0.812856
Si Si5 0.744564 0.276437 0.518830
Si Si6 0.425332 0.459891 0.118488
Si Si7 0.323691 0.654390 0.861794
Si Si8 0.701112 0.591360 0.536250
O O1 0.242266 0.065071 0.459555
O O2 0.155732 0.236321 0.357121
O O3 0.000000 0.000000 0.500000
O O4 0.909094 0.949131 0.169337
O O5 0.779396 0.993491 0.810450
O O6 0.695443 0.729750 0.888758
O O7 0.550022 0.797864 0.933031
O O8 0.457957 0.824925 0.510865
O O9 0.730966 0.136611 0.514450
O O10 0.914820 0.389008 0.715344
O O11 0.823519 0.539742 0.660857
O O12 0.203865 0.678533 0.852132
O O13 0.000000 0.500000 0.000000
O O14 0.762443 0.379648 0.353463
O O15 0.616985 0.565764 0.321385
O O16 0.500000 0.500000 0.000000
O O17 0.317684 0.526027 0.004540
O O18 0.500000 0.500000 0.500000
#
# Coordination Sequence:
#
# PCOD9108775 Si02
#       8
#     2   2   2   2   2   2   2   2
#     4  12  26  40  69 104 142 178 233 288 353 409
#     4  10  22  42  69 100 133 181 232 281 342 412
#     4  10  23  43  68  95 135 183 229 282 343 415
#     4  12  26  40  68 101 141 178 227 280 352 416
#     4  10  23  43  69  97 134 181 231 284 341 412
#     4  10  20  40  71  94 129 173 228 278 332 399
#     4  10  22  42  67 101 132 177 230 287 338 407
#     4  12  26  46  68  98 140 182 228 284 346 410
#
# _framework density 21.980945999999999
#
# number of rings (size 3 to 8) (size 9 to 14) (size 15 to 20)
#    0.000    1.250    0.000    6.750    5.250    1.000 
#    0.000    0.625    0.000    0.000    0.000    0.000 
#    0.000    0.000    0.000    0.000    0.000    0.000 
#
# Total GULP energy -89265.337992 kJ/mol
# GULP energy per Si atom -5579.083624 kJ/mol
# Density = 2.193092 g / cm^3
# Si number density = 21.980946 Si / 1000 Ang^3
#
#
#
# Elastic Constant Matrix: (Units=GPa)
#
#
# Indices 1 2 3 4 5 6 
#
# 1 122.9925 17.9115 27.2156 -13.3286 3.9267 3.3918
# 2 17.9115 54.6738 15.5788 1.6034 7.4037 -8.0580
# 3 27.2156 15.5788 118.3506 -5.4072 6.1093 -5.7407
# 4 -13.3286 1.6034 -5.4072 26.9993 -4.2549 -2.8577
# 5 3.9267 7.4037 6.1093 -4.2549 33.1372 -5.1069
# 6 3.3918 -8.0580 -5.7407 -2.8577 -5.1069 23.7646
#
#
#
# Elastic Compliance Matrix: (Units=1/GPa)
#
#
# Indices 1 2 3 4 5 6 
#
# 1 0.009482 -0.003097 -0.001691 0.004298 0.000081 -0.002278
# 2 -0.003097 0.021269 -0.001749 -0.003049 -0.003512 0.006110
# 3 -0.001691 -0.001749 0.009250 0.001216 -0.000667 0.001886
# 4 0.004298 -0.003049 0.001216 0.041039 0.005967 0.004864
# 5 0.000081 -0.003512 -0.000667 0.005967 0.032830 0.006409
# 6 -0.002278 0.006110 0.001886 0.004864 0.006409 0.046894
#
#
# Mechanical properties :
#
#
# Convention : Reuss Voigt Hill
#
# Bulk Modulus (GPa) = 37.13865 46.38098 41.75982
# Shear Modulus (GPa) = 27.35027 32.46761 29.90894
#
# Velocity S-wave (km/s) = 3.53125 3.84745 3.69274
# Velocity P-wave (km/s) = 5.79300 6.39402 6.10091
#
# Compressibility (1/GPa) = 0.02692613
#
# Stress axis : x y z
#
# Youngs Moduli (GPa) = 105.46534 47.01704 108.10756
#
# Poissons Ratio (x) = 0.14562 0.18281
# Poissons Ratio (y) = 0.32664 0.18909
# Poissons Ratio (z) = 0.17835 0.08224
#
# Static dielectric constant tensor:
#      x y z
#    x 1.852210 -0.010430 0.065460 
#    y -0.010430 1.915900 -0.050060 
#    z 0.065460 -0.050060 1.794020 
# 
# From -- ./inp_files/262342.got.cif
#   From: 2010.05.17/outbox.cif.g08.bks.cpg/sg2_132_cif.got.tgz:262342.got - 2010.06.03 11:33:40.
