data_PCOD9108266
_publ_section_title
;
Structure prediction by ZEFSAII (Michael W. Deem and Ramdas Pophale) SiO2 
 PCOD9108266
Probable space group: P -1
;
_chemical_formula_sum "Si O2"
_cell_formula_units_Z 14
_cell_length_a 11.488911
_cell_length_b 5.074926
_cell_length_c 11.797240
_cell_angle_alpha 120.093424
_cell_angle_beta 103.524006
_cell_angle_gamma 79.646858
_cell_volume 577.028716
_symmetry_space_group_name_H-M "P -1"
_symmetry_group_IT_number 2
_symmetry_cell_setting 'triclinic'
loop_
_space_group_symop_operation_xyz
x,y,z
-x,-y,-z
loop_
_atom_site_type_symbol
_atom_site_label
_atom_site_fract_x
_atom_site_fract_y
_atom_site_fract_z
Si Si1 0.549213 0.334519 0.585905
Si Si2 0.496309 0.652636 0.879001
Si Si3 0.135464 0.799512 0.138739
Si Si4 0.958683 0.619908 0.390174
Si Si5 0.286816 0.492960 0.942018
Si Si6 0.117952 0.995309 0.752676
Si Si7 0.203301 0.443671 0.282568
O O1 0.500000 0.500000 0.500000
O O2 0.513755 0.553958 0.732039
O O3 0.692530 0.346532 0.615291
O O4 0.500000 0.000000 0.500000
O O5 0.368507 0.548721 0.865679
O O6 0.610367 0.482184 0.932974
O O7 0.500000 0.000000 0.000000
O O8 0.179394 0.501423 0.156648
O O9 0.000707 0.889544 0.173241
O O10 0.214649 0.088386 0.241433
O O11 0.169853 0.714143 0.999015
O O12 0.906305 0.917388 0.369264
O O13 0.000000 0.500000 0.500000
O O14 0.081203 0.560652 0.338069
O O15 0.866222 0.361668 0.294337
O O16 0.232112 0.168560 0.851033
#
# Coordination Sequence:
#
# PCOD9108266 Si02
#       7
#     2   2   2   2   2   2   2
#     4  12  27  45  71 101 136 181 241 282 338 414
#     4  11  27  46  71  99 140 192 225 288 358 399
#     4  10  20  40  67  96 127 172 212 275 344 398
#     4  10  22  40  63  90 132 175 215 270 346 405
#     4  11  24  41  70  96 141 168 234 282 340 409
#     4  10  23  38  65 101 124 168 226 276 335 404
#     4  10  21  40  63  90 133 171 217 273 338 399
#
# _framework density 24.262221
#
# number of rings (size 3 to 8) (size 9 to 14) (size 15 to 20)
#    0.000    1.429    1.429    2.571    6.000    2.286 
#    0.000    4.286    0.000    0.000    0.000    0.000 
#    0.000    0.000    0.000    0.000    0.000    0.000 
#
# Total GULP energy -78037.747155 kJ/mol
# GULP energy per Si atom -5574.124797 kJ/mol
# Density = 2.420700 g / cm^3
# Si number density = 24.262221 Si / 1000 Ang^3
#
#
#
# Elastic Constant Matrix: (Units=GPa)
#
#
# Indices 1 2 3 4 5 6 
#
# 1 74.4340 49.6109 25.8625 3.7418 19.2332 38.8243
# 2 49.6109 155.5039 38.6342 15.7915 8.5419 25.8732
# 3 25.8625 38.6342 97.4879 -7.4867 9.2878 12.5111
# 4 3.7418 15.7915 -7.4867 52.9000 8.8004 14.5471
# 5 19.2332 8.5419 9.2878 8.8004 30.0483 10.7334
# 6 38.8243 25.8732 12.5111 14.5471 10.7334 42.8279
#
#
#
# Elastic Compliance Matrix: (Units=1/GPa)
#
#
# Indices 1 2 3 4 5 6 
#
# 1 0.035868 -0.006676 -0.001317 0.009156 -0.013386 -0.027852
# 2 -0.006676 0.009119 -0.002628 -0.003602 0.002903 0.001807
# 3 -0.001317 -0.002628 0.012343 0.003443 -0.002769 -0.001300
# 4 0.009156 -0.003602 0.003443 0.024923 -0.008380 -0.013495
# 5 -0.013386 0.002903 -0.002769 -0.008380 0.043185 0.003213
# 6 -0.027852 0.001807 -0.001300 -0.013495 0.003213 0.051665
#
#
# Mechanical properties :
#
#
# Convention : Reuss Voigt Hill
#
# Bulk Modulus (GPa) = 27.70909 61.73789 44.72349
# Shear Modulus (GPa) = 23.76695 39.37644 31.57170
#
# Velocity S-wave (km/s) = 3.13323 4.03296 3.61123
# Velocity P-wave (km/s) = 4.95328 6.86933 5.98843
#
# Compressibility (1/GPa) = 0.03608924
#
# Stress axis : x y z
#
# Youngs Moduli (GPa) = 27.87969 109.65817 81.01462
#
# Poissons Ratio (x) = 0.73212 0.10668
# Poissons Ratio (y) = 0.18613 0.21289
# Poissons Ratio (z) = 0.03671 0.28816
#
# Static dielectric constant tensor:
#      x y z
#    x 1.916650 -0.081330 0.011330 
#    y -0.081330 2.075720 -0.135690 
#    z 0.011330 -0.135690 2.329130 
# 
# From -- ./inp_files/85128.got.cif
#   From: 2010.05.17/outbox.cif.g08.bks.cpg/sg2_43_cif.got.tgz:85128.got - 2010.06.03 11:33:40.
