data_PCOD9108300
_publ_section_title
;
Structure prediction by ZEFSAII (Michael W. Deem and Ramdas Pophale) SiO2 
 PCOD9108300
Probable space group: P -1
;
_chemical_formula_sum "Si O2"
_cell_formula_units_Z 16
_cell_length_a 12.875215
_cell_length_b 14.183913
_cell_length_c 10.257394
_cell_angle_alpha 129.780278
_cell_angle_beta 143.533267
_cell_angle_gamma 76.033231
_cell_volume 685.690559
_symmetry_space_group_name_H-M "P -1"
_symmetry_group_IT_number 2
_symmetry_cell_setting 'triclinic'
loop_
_space_group_symop_operation_xyz
x,y,z
-x,-y,-z
loop_
_atom_site_type_symbol
_atom_site_label
_atom_site_fract_x
_atom_site_fract_y
_atom_site_fract_z
Si Si1 0.055806 0.753807 0.130508
Si Si2 0.499484 0.329052 0.727929
Si Si3 0.886918 0.620066 0.237420
Si Si4 0.972279 0.843338 0.863682
Si Si5 0.498903 0.811912 0.654890
Si Si6 0.918172 0.091955 0.439807
Si Si7 0.832770 0.319597 0.211066
Si Si8 0.318725 0.528582 0.367198
O O1 0.275848 0.773952 0.341647
O O2 0.095920 0.827663 0.377739
O O3 0.024092 0.840904 0.065269
O O4 0.838581 0.578360 0.769405
O O5 0.282496 0.293415 0.537200
O O6 0.424210 0.237996 0.433250
O O7 0.688195 0.501470 0.025847
O O8 0.606381 0.273294 0.883112
O O9 0.909844 0.772739 0.363852
O O10 0.114081 0.671536 0.574596
O O11 0.834076 0.533496 0.970767
O O12 0.106890 0.790903 0.880920
O O13 0.000000 0.000000 0.000000
O O14 0.442537 0.708611 0.635968
O O15 0.689978 0.982247 0.039284
O O16 0.000000 0.000000 0.500000
O O17 0.000000 0.500000 0.500000
O O18 0.500000 0.500000 0.500000
#
# Coordination Sequence:
#
# PCOD9108300 Si02
#       8
#     2   2   2   2   2   2   2   2
#     4  11  23  42  62  97 136 173 226 273 343 417
#     4  10  22  45  69  94 136 178 226 279 346 402
#     4   9  21  39  66  92 128 173 221 272 333 400
#     4  12  27  43  70 103 137 180 231 285 344 413
#     4  11  21  39  67  96 133 175 220 283 341 405
#     4  11  23  38  64  95 132 170 220 277 341 400
#     4  10  23  45  70  96 136 177 233 278 338 403
#     4  10  20  40  67  98 126 177 220 272 337 402
#
# _framework density 23.334140999999999
#
# number of rings (size 3 to 8) (size 9 to 14) (size 15 to 20)
#    0.000    1.500    1.250    4.500    3.500    3.500 
#    0.000    0.000    5.500    0.000    0.000    0.000 
#    0.000    0.000    0.000    0.000    0.000    0.000 
#
# Total GULP energy -89345.858090 kJ/mol
# GULP energy per Si atom -5584.116131 kJ/mol
# Density = 2.328103 g / cm^3
# Si number density = 23.334141 Si / 1000 Ang^3
#
#
#
# Elastic Constant Matrix: (Units=GPa)
#
#
# Indices 1 2 3 4 5 6 
#
# 1 46.4636 15.6068 19.7318 -4.2673 -3.8627 -1.7005
# 2 15.6068 150.3806 40.7773 -4.6974 11.4395 14.4681
# 3 19.7318 40.7773 79.4834 1.3248 1.3577 8.2242
# 4 -4.2673 -4.6974 1.3248 41.8949 -3.2463 -1.6880
# 5 -3.8627 11.4395 1.3577 -3.2463 34.9342 -6.0400
# 6 -1.7005 14.4681 8.2242 -1.6880 -6.0400 31.8556
#
#
#
# Elastic Compliance Matrix: (Units=1/GPa)
#
#
# Indices 1 2 3 4 5 6 
#
# 1 0.025546 -0.001724 -0.006087 0.003162 0.004747 0.004785
# 2 -0.001724 0.008385 -0.003448 0.000465 -0.003386 -0.003627
# 3 -0.006087 -0.003448 0.016237 -0.001718 -0.000890 -0.003211
# 4 0.003162 0.000465 -0.001718 0.024617 0.002943 0.002264
# 5 0.004747 -0.003386 -0.000890 0.002943 0.031992 0.008243
# 6 0.004785 -0.003627 -0.003211 0.002264 0.008243 0.035806
#
#
# Mechanical properties :
#
#
# Convention : Reuss Voigt Hill
#
# Bulk Modulus (GPa) = 36.16456 47.61771 41.89113
# Shear Modulus (GPa) = 28.68325 35.08438 31.88381
#
# Velocity S-wave (km/s) = 3.50985 3.88179 3.70050
# Velocity P-wave (km/s) = 5.65311 6.36728 6.02079
#
# Compressibility (1/GPa) = 0.02765138
#
# Stress axis : x y z
#
# Youngs Moduli (GPa) = 39.14493 119.26298 61.58623
#
# Poissons Ratio (x) = 0.20555 0.37485
# Poissons Ratio (y) = 0.06747 0.21237
# Poissons Ratio (z) = 0.23826 0.41126
#
# Static dielectric constant tensor:
#      x y z
#    x 2.183300 -0.193550 -0.124990 
#    y -0.193550 2.061340 0.100270 
#    z -0.124990 0.100270 1.947130 
# 
# From -- ./inp_files/455902.got.cif
#   From: 2010.05.17/outbox.cif.g08.bks.cpg/sg2_228_cif.got.tgz:455902.got - 2010.06.03 11:33:40.
