data_PCOD9108380
_publ_section_title
;
Structure prediction by ZEFSAII (Michael W. Deem and Ramdas Pophale) SiO2 
 PCOD9108380
Probable space group: P -1
;
_chemical_formula_sum "Si O2"
_cell_formula_units_Z 16
_cell_length_a 9.360463
_cell_length_b 26.181248
_cell_length_c 9.906279
_cell_angle_alpha 154.236015
_cell_angle_beta 134.881423
_cell_angle_gamma 45.604197
_cell_volume 731.332000
_symmetry_space_group_name_H-M "P -1"
_symmetry_group_IT_number 2
_symmetry_cell_setting 'triclinic'
loop_
_space_group_symop_operation_xyz
x,y,z
-x,-y,-z
loop_
_atom_site_type_symbol
_atom_site_label
_atom_site_fract_x
_atom_site_fract_y
_atom_site_fract_z
Si Si1 0.527435 0.636472 0.627700
Si Si2 0.139036 0.427793 0.801980
Si Si3 0.846428 0.102022 0.223780
Si Si4 0.166743 0.738780 0.832349
Si Si5 0.374474 0.622465 0.945491
Si Si6 0.230680 0.634017 0.183605
Si Si7 0.952038 0.987467 0.593290
Si Si8 0.574269 0.886461 0.181626
O O1 0.332582 0.662828 0.660258
O O2 0.659895 0.506266 0.440481
O O3 0.438942 0.620979 0.381613
O O4 0.617450 0.756242 0.972135
O O5 0.037858 0.315261 0.432224
O O6 0.378856 0.386687 0.906564
O O7 0.136466 0.522607 0.903799
O O8 0.000000 0.500000 0.000000
O O9 0.897120 0.233543 0.548119
O O10 0.615119 0.111094 0.040106
O O11 0.870390 0.069484 0.319711
O O12 0.000000 0.000000 0.000000
O O13 0.265415 0.723123 0.009400
O O14 0.130463 0.875701 0.086932
O O15 0.283309 0.636730 0.068464
O O16 0.778572 0.909507 0.304212
O O17 0.000000 0.000000 0.500000
O O18 0.500000 0.000000 0.500000
#
# Coordination Sequence:
#
# PCOD9108380 Si02
#       8
#     2   2   2   2   2   2   2   2
#     4  10  20  40  68  91 127 167 222 260 315 402
#     4  11  23  40  68  97 129 170 213 264 330 381
#     4  11  23  43  73  96 126 179 228 266 320 398
#     4  12  24  42  63  98 132 166 225 264 313 400
#     4  11  24  42  66  97 133 171 207 275 333 375
#     4  10  22  43  66  97 134 164 217 271 328 389
#     4  12  27  44  64 100 137 168 222 283 323 384
#     4  11  22  44  69  97 125 175 225 269 330 385
#
# _framework density 21.877890000000001
#
# number of rings (size 3 to 8) (size 9 to 14) (size 15 to 20)
#    0.000    1.000    5.000    3.375    0.000    6.000 
#    0.000    0.000    0.000    0.000    0.000    0.000 
#    0.000    0.000    0.000    0.000    0.000    0.000 
#
# Total GULP energy -89472.072571 kJ/mol
# GULP energy per Si atom -5592.004536 kJ/mol
# Density = 2.182809 g / cm^3
# Si number density = 21.877890 Si / 1000 Ang^3
#
#
#
# Elastic Constant Matrix: (Units=GPa)
#
#
# Indices 1 2 3 4 5 6 
#
# 1 91.2182 10.7834 29.7237 -14.0813 21.3988 10.1863
# 2 10.7834 91.3297 19.3305 -6.6244 16.7190 11.6195
# 3 29.7237 19.3305 83.7088 7.5538 27.6556 -1.9553
# 4 -14.0813 -6.6244 7.5538 45.5941 3.8891 -1.9658
# 5 21.3988 16.7190 27.6556 3.8891 43.4642 2.1806
# 6 10.1863 11.6195 -1.9553 -1.9658 2.1806 29.5707
#
#
#
# Elastic Compliance Matrix: (Units=1/GPa)
#
#
# Indices 1 2 3 4 5 6 
#
# 1 0.014987 0.001221 -0.004517 0.005778 -0.005231 -0.005171
# 2 0.001221 0.012919 -0.002472 0.002780 -0.003987 -0.005182
# 3 -0.004517 -0.002472 0.017041 -0.003765 -0.007530 0.003959
# 4 0.005778 0.002780 -0.003765 0.024999 -0.003685 -0.001398
# 5 -0.005231 -0.003987 -0.007530 -0.003685 0.032225 0.000249
# 6 -0.005171 -0.005182 0.003959 -0.001398 0.000249 0.037785
#
#
# Mechanical properties :
#
#
# Convention : Reuss Voigt Hill
#
# Bulk Modulus (GPa) = 29.93017 42.88130 36.40573
# Shear Modulus (GPa) = 30.74485 37.48708 34.11596
#
# Velocity S-wave (km/s) = 3.75279 4.14390 3.95318
# Velocity P-wave (km/s) = 5.69984 6.52217 6.12482
#
# Compressibility (1/GPa) = 0.03341110
#
# Stress axis : x y z
#
# Youngs Moduli (GPa) = 66.72440 77.40504 58.68224
#
# Poissons Ratio (x) = -0.09454 0.26510
# Poissons Ratio (y) = -0.08149 0.14505
# Poissons Ratio (z) = 0.30143 0.19133
#
# Static dielectric constant tensor:
#      x y z
#    x 1.781160 -0.013950 -0.020180 
#    y -0.013950 1.788150 0.018020 
#    z -0.020180 0.018020 1.864640 
# 
# From -- ./inp_files/226833.got.cif
#   From: 2010.05.17/outbox.cif.g08.bks.cpg/sg2_114_cif.got.tgz:226833.got - 2010.06.03 11:33:40.
