data_PCOD9108003
_publ_section_title
;
Structure prediction by ZEFSAII (Michael W. Deem and Ramdas Pophale) SiO2 
 PCOD9108003
Probable space group: P -1
;
_chemical_formula_sum "Si O2"
_cell_formula_units_Z 16
_cell_length_a 17.637023
_cell_length_b 13.683575
_cell_length_c 5.125149
_cell_angle_alpha 115.526343
_cell_angle_beta 74.408363
_cell_angle_gamma 143.059574
_cell_volume 664.234231
_symmetry_space_group_name_H-M "P -1"
_symmetry_group_IT_number 2
_symmetry_cell_setting 'triclinic'
loop_
_space_group_symop_operation_xyz
x,y,z
-x,-y,-z
loop_
_atom_site_type_symbol
_atom_site_label
_atom_site_fract_x
_atom_site_fract_y
_atom_site_fract_z
Si Si1 0.914954 0.255270 0.625881
Si Si2 0.493798 0.368107 0.273238
Si Si3 0.365460 0.560257 0.279254
Si Si4 0.218716 0.039243 0.941487
Si Si5 0.238566 0.621956 0.218707
Si Si6 0.835717 0.338196 0.179826
Si Si7 0.964600 0.774365 0.199550
Si Si8 0.140897 0.169351 0.946613
O O1 0.020334 0.458274 0.690845
O O2 0.809235 0.100499 0.349139
O O3 0.851905 0.237444 0.923757
O O4 0.999168 0.237765 0.573007
O O5 0.500000 0.500000 0.500000
O O6 0.556178 0.363540 0.439268
O O7 0.567161 0.432603 0.006954
O O8 0.348883 0.179338 0.137042
O O9 0.343003 0.653962 0.280193
O O10 0.230831 0.354266 0.219326
O O11 0.215539 0.137559 0.856134
O O12 0.099785 0.932942 0.117838
O O13 0.223793 0.701749 0.532241
O O14 0.115315 0.409072 0.072094
O O15 0.239491 0.673489 0.986930
O O16 0.886176 0.799719 0.268572
O O17 0.000000 0.000000 0.000000
#
# Coordination Sequence:
#
# PCOD9108003 Si02
#       8
#     2   2   2   2   2   2   2   2
#     4  10  22  34  60  95 131 162 206 261 325 386
#     4  12  26  43  66  91 129 178 220 259 305 370
#     4  11  24  45  67  93 129 172 219 258 316 379
#     4  11  22  38  60  89 131 167 215 253 315 371
#     4  10  20  40  66  94 126 163 208 261 327 380
#     4  10  21  37  64  97 128 162 203 265 329 385
#     4   9  20  36  58  93 127 164 201 257 322 383
#     4   9  20  40  60  95 130 165 203 262 316 391
#
# _framework density 24.087889000000001
#
# number of rings (size 3 to 8) (size 9 to 14) (size 15 to 20)
#    0.000    1.750    2.500    1.125    3.500    2.000 
#    0.000    0.000    0.000    4.500    0.000    0.000 
#    0.000    0.000    0.000    0.000    0.000    0.000 
#
# Total GULP energy -89446.725667 kJ/mol
# GULP energy per Si atom -5590.420354 kJ/mol
# Density = 2.403306 g / cm^3
# Si number density = 24.087889 Si / 1000 Ang^3
#
#
#
# Elastic Constant Matrix: (Units=GPa)
#
#
# Indices 1 2 3 4 5 6 
#
# 1 126.6095 26.4018 36.6289 19.1307 28.1935 -17.9130
# 2 26.4018 37.8936 22.0084 -3.9517 16.9093 -1.2356
# 3 36.6289 22.0084 124.3483 14.4688 21.8797 -2.4345
# 4 19.1307 -3.9517 14.4688 35.4996 5.3037 5.9098
# 5 28.1935 16.9093 21.8797 5.3037 43.6491 -1.8985
# 6 -17.9130 -1.2356 -2.4345 5.9098 -1.8985 30.1388
#
#
#
# Elastic Compliance Matrix: (Units=1/GPa)
#
#
# Indices 1 2 3 4 5 6 
#
# 1 0.013051 -0.007648 -0.000673 -0.008525 -0.003710 0.008827
# 2 -0.007648 0.040128 -0.004722 0.013104 -0.010113 -0.006488
# 3 -0.000673 -0.004722 0.009948 -0.004033 -0.002195 0.000862
# 4 -0.008525 0.013104 -0.004033 0.038368 -0.002756 -0.012553
# 5 -0.003710 -0.010113 -0.002195 -0.002756 0.030645 -0.000326
# 6 0.008827 -0.006488 0.000862 -0.012553 -0.000326 0.040671
#
#
# Mechanical properties :
#
#
# Convention : Reuss Voigt Hill
#
# Bulk Modulus (GPa) = 26.99647 50.99218 38.99433
# Shear Modulus (GPa) = 23.66928 35.44499 29.55714
#
# Velocity S-wave (km/s) = 3.13808 3.84016 3.50673
# Velocity P-wave (km/s) = 4.93578 6.39356 5.71137
#
# Compressibility (1/GPa) = 0.03704188
#
# Stress axis : x y z
#
# Youngs Moduli (GPa) = 76.62232 24.91997 100.51895
#
# Poissons Ratio (x) = 0.19059 0.06767
# Poissons Ratio (y) = 0.58600 0.47463
# Poissons Ratio (z) = 0.05159 0.11767
#
# Static dielectric constant tensor:
#      x y z
#    x 2.017090 -0.052080 0.029880 
#    y -0.052080 1.953030 -0.048910 
#    z 0.029880 -0.048910 1.939700 
# 
# From -- ./inp_files/110596.got.cif
#   From: 2010.05.17/outbox.cif.g08.bks.cpg/sg2_56_cif.got.tgz:110596.got - 2010.06.03 11:33:40.
