data_PCOD9108714
_publ_section_title
;
Structure prediction by ZEFSAII (Michael W. Deem and Ramdas Pophale) SiO2 
 PCOD9108714
Probable space group: P -1
;
_chemical_formula_sum "Si O2"
_cell_formula_units_Z 15
_cell_length_a 10.753615
_cell_length_b 11.984394
_cell_length_c 7.456801
_cell_angle_alpha 67.376720
_cell_angle_beta 44.944337
_cell_angle_gamma 91.996882
_cell_volume 552.778213
_symmetry_space_group_name_H-M "P -1"
_symmetry_group_IT_number 2
_symmetry_cell_setting 'triclinic'
loop_
_space_group_symop_operation_xyz
x,y,z
-x,-y,-z
loop_
_atom_site_type_symbol
_atom_site_label
_atom_site_fract_x
_atom_site_fract_y
_atom_site_fract_z
Si Si1 0.418471 0.205060 0.683758
Si Si2 0.500000 0.500000 0.500000
Si Si3 0.924765 0.081056 0.653247
Si Si4 0.857058 0.289725 0.740065
Si Si5 0.133111 0.423903 0.892217
Si Si6 0.792987 0.901700 0.377745
Si Si7 0.692687 0.494570 0.723797
Si Si8 0.779977 0.164348 0.284235
O O1 0.405318 0.328630 0.712743
O O2 0.363151 0.204149 0.531881
O O3 0.629338 0.210822 0.489842
O O4 0.264130 0.050304 0.991706
O O5 0.299957 0.483261 0.835606
O O6 0.859639 0.198456 0.625929
O O7 0.123330 0.160763 0.522793
O O8 0.000000 0.000000 0.500000
O O9 0.712355 0.355473 0.808882
O O10 0.083898 0.400193 0.495489
O O11 0.784457 0.192225 0.049364
O O12 0.298384 0.477653 0.522802
O O13 0.000000 0.500000 0.000000
O O14 0.995386 0.267326 0.079341
O O15 0.724878 0.007318 0.463841
O O16 0.000000 0.000000 0.000000
O O17 0.500000 0.500000 0.000000
#
# Coordination Sequence:
#
# PCOD9108714 Si02
#       8
#     2   1   2   2   2   2   2   2
#     4  11  24  42  71 105 136 189 242 298 357 434
#     4  12  26  42  74 104 144 182 244 302 366 424
#     4  11  25  46  69 103 149 191 242 301 366 437
#     4  10  23  44  70 101 141 188 233 303 360 427
#     4  11  24  43  66 104 143 186 238 302 365 431
#     4  10  20  40  70  97 132 181 234 287 347 428
#     4  10  25  43  70 102 143 190 242 293 367 441
#     4  11  21  43  72 101 135 178 248 295 353 433
#
# _framework density 27.135657999999999
#
# number of rings (size 3 to 8) (size 9 to 14) (size 15 to 20)
#    0.000    1.333    4.000    2.000    3.733    4.267 
#    0.000    0.667    0.000    0.000    0.000    0.000 
#    0.000    0.000    0.000    0.000    0.000    0.000 
#
# Total GULP energy -83719.479849 kJ/mol
# GULP energy per Si atom -5581.298657 kJ/mol
# Density = 2.707390 g / cm^3
# Si number density = 27.135658 Si / 1000 Ang^3
#
#
#
# Elastic Constant Matrix: (Units=GPa)
#
#
# Indices 1 2 3 4 5 6 
#
# 1 96.4586 37.1048 42.8478 7.5771 -28.1349 -13.6581
# 2 37.1048 201.6527 29.4428 4.9443 -17.8669 -37.8544
# 3 42.8478 29.4428 80.9516 20.4770 -21.4085 -4.4096
# 4 7.5771 4.9443 20.4770 42.6114 -3.1083 -16.3628
# 5 -28.1349 -17.8669 -21.4085 -3.1083 53.2389 1.9117
# 6 -13.6581 -37.8544 -4.4096 -16.3628 1.9117 48.8586
#
#
#
# Elastic Compliance Matrix: (Units=1/GPa)
#
#
# Indices 1 2 3 4 5 6 
#
# 1 0.015648 -0.000731 -0.007082 0.002551 0.005188 0.003820
# 2 -0.000731 0.006423 -0.002053 0.002507 0.000897 0.005391
# 3 -0.007082 -0.002053 0.019891 -0.009821 0.003180 -0.005188
# 4 0.002551 0.002507 -0.009821 0.032251 -0.000329 0.012583
# 5 0.005188 0.000897 0.003180 -0.000329 0.023034 0.001421
# 6 0.003820 0.005391 -0.005188 0.012583 0.001421 0.029402
#
#
# Mechanical properties :
#
#
# Convention : Reuss Voigt Hill
#
# Bulk Modulus (GPa) = 44.98150 66.42821 55.70486
# Shear Modulus (GPa) = 32.51174 46.91959 39.71567
#
# Velocity S-wave (km/s) = 3.46514 4.16273 3.82985
# Velocity P-wave (km/s) = 5.71158 6.90200 6.33481
#
# Compressibility (1/GPa) = 0.02223136
#
# Stress axis : x y z
#
# Youngs Moduli (GPa) = 63.90644 155.68326 50.27477
#
# Poissons Ratio (x) = 0.11381 0.35603
# Poissons Ratio (y) = 0.04672 0.10319
# Poissons Ratio (z) = 0.45256 0.31954
#
# Static dielectric constant tensor:
#      x y z
#    x 1.286860 -0.089470 0.310770 
#    y -0.089470 2.067080 0.081860 
#    z 0.310770 0.081860 2.062540 
# 
# From -- ./inp_files/257352.got.cif
#   From: 2010.05.17/outbox.cif.g08.bks.cpg/sg2_129_cif.got.tgz:257352.got - 2010.06.03 11:33:40.
