data_PCOD9108578
_publ_section_title
;
Structure prediction by ZEFSAII (Michael W. Deem and Ramdas Pophale) SiO2 
 PCOD9108578
Probable space group: P -1
;
_chemical_formula_sum "Si O2"
_cell_formula_units_Z 16
_cell_length_a 21.582425
_cell_length_b 8.812531
_cell_length_c 7.883153
_cell_angle_alpha 65.703058
_cell_angle_beta 127.037340
_cell_angle_gamma 147.789002
_cell_volume 620.751763
_symmetry_space_group_name_H-M "P -1"
_symmetry_group_IT_number 2
_symmetry_cell_setting 'triclinic'
loop_
_space_group_symop_operation_xyz
x,y,z
-x,-y,-z
loop_
_atom_site_type_symbol
_atom_site_label
_atom_site_fract_x
_atom_site_fract_y
_atom_site_fract_z
Si Si1 0.082496 0.233441 0.182414
Si Si2 0.287701 0.253590 0.248245
Si Si3 0.259755 0.248687 0.573252
Si Si4 0.832246 0.284036 0.785088
Si Si5 0.994236 0.637674 0.561739
Si Si6 0.554724 0.258489 0.139762
Si Si7 0.554490 0.897060 0.329455
Si Si8 0.836222 0.692225 0.202112
O O1 0.210357 0.344951 0.388051
O O2 0.123324 0.497418 0.105982
O O3 0.984199 0.046039 0.273847
O O4 0.000000 0.000000 0.000000
O O5 0.254295 0.141865 0.436295
O O6 0.446991 0.570066 0.358425
O O7 0.220715 0.995548 0.136779
O O8 0.228576 0.327491 0.058212
O O9 0.409750 0.533520 0.767247
O O10 0.146300 0.981805 0.637364
O O11 0.949373 0.491217 0.738847
O O12 0.699331 0.123535 0.545805
O O13 0.887000 0.591181 0.342300
O O14 0.000000 0.500000 0.500000
O O15 0.707364 0.489279 0.207896
O O16 0.507512 0.000402 0.256163
O O17 0.455885 0.125045 0.882561
#
# Coordination Sequence:
#
# PCOD9108578 Si02
#       8
#     2   2   2   2   2   2   2   2
#     4  11  22  39  66  98 136 171 216 275 341 398
#     4  11  24  40  69  97 140 174 220 278 331 395
#     4  11  21  41  65  99 132 172 222 275 335 400
#     4  12  23  44  67 100 136 178 221 278 333 400
#     4  11  22  39  70  99 133 174 225 278 338 397
#     4  10  20  40  69  94 126 180 232 267 332 397
#     4  10  22  41  65  97 129 182 225 270 330 394
#     4  10  21  41  64  98 131 174 219 276 332 400
#
# _framework density 25.775198
#
# number of rings (size 3 to 8) (size 9 to 14) (size 15 to 20)
#    0.000    1.250    5.000    1.125    0.000    3.000 
#    0.000    4.375    0.000    0.000    0.000    0.000 
#    0.000    0.000    0.000    0.000    0.000    0.000 
#
# Total GULP energy -89344.602739 kJ/mol
# GULP energy per Si atom -5584.037671 kJ/mol
# Density = 2.571653 g / cm^3
# Si number density = 25.775198 Si / 1000 Ang^3
#
#
#
# Elastic Constant Matrix: (Units=GPa)
#
#
# Indices 1 2 3 4 5 6 
#
# 1 43.0610 32.1632 16.2109 2.0300 -10.0100 -22.0598
# 2 32.1632 162.0600 13.3336 13.4934 -9.4460 -21.0321
# 3 16.2109 13.3336 83.9719 16.2954 -5.7836 -17.2659
# 4 2.0300 13.4934 16.2954 40.5948 -2.9151 -17.2811
# 5 -10.0100 -9.4460 -5.7836 -2.9151 34.1004 6.0295
# 6 -22.0598 -21.0321 -17.2659 -17.2811 6.0295 28.6001
#
#
#
# Elastic Compliance Matrix: (Units=1/GPa)
#
#
# Indices 1 2 3 4 5 6 
#
# 1 0.052421 -0.005554 -0.003426 0.020285 0.007036 0.045055
# 2 -0.005554 0.007447 0.000350 -0.002350 0.000305 -0.000080
# 3 -0.003426 0.000350 0.014065 -0.004040 0.000502 0.003559
# 4 0.020285 -0.002350 -0.004040 0.041570 0.001767 0.036224
# 5 0.007036 0.000305 0.000502 0.001767 0.031649 0.000350
# 6 0.045055 -0.000080 0.003559 0.036224 0.000350 0.093620
#
#
# Mechanical properties :
#
#
# Convention : Reuss Voigt Hill
#
# Bulk Modulus (GPa) = 17.64461 45.83425 31.73943
# Shear Modulus (GPa) = 18.05561 35.81807 26.93684
#
# Velocity S-wave (km/s) = 2.64957 3.73182 3.23626
# Velocity P-wave (km/s) = 4.02750 6.03238 5.12886
#
# Compressibility (1/GPa) = 0.05667453
#
# Stress axis : x y z
#
# Youngs Moduli (GPa) = 19.07627 134.28240 71.09909
#
# Poissons Ratio (x) = 0.74574 0.24359
# Poissons Ratio (y) = 0.10594 -0.02490
# Poissons Ratio (z) = 0.06536 -0.04704
#
# Static dielectric constant tensor:
#      x y z
#    x 2.186200 -0.012840 -0.026550 
#    y -0.012840 2.066210 0.011770 
#    z -0.026550 0.011770 2.095410 
# 
# From -- ./inp_files/352120.got.cif
#   From: 2010.05.17/outbox.cif.g08.bks.cpg/sg2_177_cif.got.tgz:352120.got - 2010.06.03 11:33:40.
