data_PCOD9108612
_publ_section_title
;
Structure prediction by ZEFSAII (Michael W. Deem and Ramdas Pophale) SiO2 
 PCOD9108612
Probable space group: P -1
;
_chemical_formula_sum "Si O2"
_cell_formula_units_Z 14
_cell_length_a 15.468443
_cell_length_b 10.451269
_cell_length_c 8.627635
_cell_angle_alpha 41.764867
_cell_angle_beta 70.812573
_cell_angle_gamma 42.095663
_cell_volume 538.104304
_symmetry_space_group_name_H-M "P -1"
_symmetry_group_IT_number 2
_symmetry_cell_setting 'triclinic'
loop_
_space_group_symop_operation_xyz
x,y,z
-x,-y,-z
loop_
_atom_site_type_symbol
_atom_site_label
_atom_site_fract_x
_atom_site_fract_y
_atom_site_fract_z
Si Si1 0.391321 0.770158 0.190019
Si Si2 0.065712 0.784880 0.305722
Si Si3 0.598646 0.483584 0.056150
Si Si4 0.374895 0.126517 0.076187
Si Si5 0.070093 0.679992 0.874269
Si Si6 0.902030 0.772085 0.599310
Si Si7 0.634943 0.579447 0.631768
O O1 0.500000 0.500000 0.500000
O O2 0.318412 0.710131 0.200148
O O3 0.300300 0.072485 0.072205
O O4 0.492927 0.709804 0.057192
O O5 0.242441 0.481929 0.453519
O O6 0.995192 0.697554 0.466050
O O7 0.018046 0.004942 0.274851
O O8 0.000000 0.000000 0.000000
O O9 0.639759 0.570664 0.822599
O O10 0.500000 0.500000 0.000000
O O11 0.739329 0.132828 0.349777
O O12 0.232184 0.481712 0.895374
O O13 0.472074 0.890173 0.377616
O O14 0.500000 0.000000 0.000000
O O15 0.100954 0.451398 0.179033
O O16 0.974189 0.746096 0.733625
#
# Coordination Sequence:
#
# PCOD9108612 Si02
#       7
#     2   2   2   2   2   2   2
#     4   9  20  36  69  92 129 176 228 275 339 408
#     4  12  26  46  71 102 142 189 234 290 359 426
#     4  10  20  40  69  99 131 184 227 281 350 420
#     4  11  24  43  67 105 138 176 238 292 347 417
#     4  11  27  44  71 107 140 181 236 297 354 414
#     4  11  24  45  73  98 146 181 234 289 360 411
#     4  10  22  43  67  97 137 182 236 278 353 424
#
# _framework density 26.01726
#
# number of rings (size 3 to 8) (size 9 to 14) (size 15 to 20)
#    0.000    1.429    1.429    3.857   10.000    0.571 
#    0.000    5.714    0.000    0.000    0.000    0.000 
#    0.000    0.000    0.000    0.000    0.000    0.000 
#
# Total GULP energy -78472.814166 kJ/mol
# GULP energy per Si atom -5605.201012 kJ/mol
# Density = 2.595804 g / cm^3
# Si number density = 26.017260 Si / 1000 Ang^3
#
#
#
# Elastic Constant Matrix: (Units=GPa)
#
#
# Indices 1 2 3 4 5 6 
#
# 1 69.0589 34.2040 23.9480 -3.2969 -0.1839 -10.5076
# 2 34.2040 125.4538 41.9562 8.1365 1.8349 -11.7010
# 3 23.9480 41.9562 135.1783 6.8945 6.2037 -6.2819
# 4 -3.2969 8.1365 6.8945 36.5629 -11.6923 2.4645
# 5 -0.1839 1.8349 6.2037 -11.6923 45.8320 1.9553
# 6 -10.5076 -11.7010 -6.2819 2.4645 1.9553 50.3734
#
#
#
# Elastic Compliance Matrix: (Units=1/GPa)
#
#
# Indices 1 2 3 4 5 6 
#
# 1 0.017732 -0.004190 -0.001950 0.003130 0.001204 0.002282
# 2 -0.004190 0.010148 -0.002173 -0.002590 -0.000848 0.001372
# 3 -0.001950 -0.002173 0.008597 -0.001835 -0.001566 0.000311
# 4 0.003130 -0.002590 -0.001835 0.031399 0.008462 -0.002042
# 5 0.001204 -0.000848 -0.001566 0.008462 0.024292 -0.001498
# 6 0.002282 0.001372 0.000311 -0.002042 -0.001498 0.020843
#
#
# Mechanical properties :
#
#
# Convention : Reuss Voigt Hill
#
# Bulk Modulus (GPa) = 50.37138 58.87859 54.62499
# Shear Modulus (GPa) = 36.69612 41.85918 39.27765
#
# Velocity S-wave (km/s) = 3.75967 4.01546 3.88967
# Velocity P-wave (km/s) = 6.18463 6.64668 6.41981
#
# Compressibility (1/GPa) = 0.01985254
#
# Stress axis : x y z
#
# Youngs Moduli (GPa) = 56.39619 98.53696 116.31512
#
# Poissons Ratio (x) = 0.41288 0.22677
# Poissons Ratio (y) = 0.23631 0.25272
# Poissons Ratio (z) = 0.10995 0.21409
#
# Static dielectric constant tensor:
#      x y z
#    x 2.114660 -0.020570 -0.068200 
#    y -0.020570 2.033920 0.066090 
#    z -0.068200 0.066090 2.050460 
# 
# From -- ./inp_files/332716.got.cif
#   From: 2010.05.17/outbox.cif.g08.bks.cpg/sg2_167_cif.got.tgz:332716.got - 2010.06.03 11:33:40.
