data_PCOD9108899
_publ_section_title
;
Structure prediction by ZEFSAII (Michael W. Deem and Ramdas Pophale) SiO2 
 PCOD9108899
Probable space group: P -1
;
_chemical_formula_sum "Si O2"
_cell_formula_units_Z 11
_cell_length_a 8.412996
_cell_length_b 10.976317
_cell_length_c 9.402933
_cell_angle_alpha 137.859758
_cell_angle_beta 76.575751
_cell_angle_gamma 128.256712
_cell_volume 412.844290
_symmetry_space_group_name_H-M "P -1"
_symmetry_group_IT_number 2
_symmetry_cell_setting 'triclinic'
loop_
_space_group_symop_operation_xyz
x,y,z
-x,-y,-z
loop_
_atom_site_type_symbol
_atom_site_label
_atom_site_fract_x
_atom_site_fract_y
_atom_site_fract_z
Si Si1 0.837037 0.126883 0.734699
Si Si2 0.652229 0.225727 0.335522
Si Si3 0.362074 0.217342 0.751904
Si Si4 0.170632 0.578831 0.231880
Si Si5 0.226864 0.077708 0.971672
Si Si6 0.500000 0.500000 0.500000
O O1 0.911577 0.312800 0.749376
O O2 0.602873 0.002203 0.750174
O O3 0.774609 0.894189 0.463617
O O4 0.029302 0.299047 0.961073
O O5 0.820038 0.385240 0.571853
O O6 0.630929 0.401422 0.413431
O O7 0.725324 0.091808 0.132801
O O8 0.569616 0.239777 0.707438
O O9 0.230269 0.069296 0.793197
O O10 0.500000 0.500000 0.000000
O O11 0.410633 0.353088 0.237582
O O12 0.000000 0.000000 0.000000
#
# Coordination Sequence:
#
# PCOD9108899 Si02
#       6
#     2   2   2   2   2   1
#     4  10  20  40  78 110 137 182 241 319 390 428
#     4  11  23  49  73 107 155 189 253 310 366 448
#     4  11  22  42  70 109 149 181 245 314 371 449
#     4  10  20  40  77 109 138 181 243 319 383 431
#     4  12  27  47  72 106 155 201 246 302 371 455
#     4  12  30  46  70 102 144 216 250 294 364 438
#
# _framework density 26.64443
#
# number of rings (size 3 to 8) (size 9 to 14) (size 15 to 20)
#    0.000    1.091    3.636    3.818    0.000    7.273 
#    0.000    0.000    0.000    0.000    0.000    0.000 
#    0.000    0.000    0.000    0.000    0.000    0.000 
#
# Total GULP energy -61282.639891 kJ/mol
# GULP energy per Si atom -5571.149081 kJ/mol
# Density = 2.658379 g / cm^3
# Si number density = 26.644430 Si / 1000 Ang^3
#
#
#
# Elastic Constant Matrix: (Units=GPa)
#
#
# Indices 1 2 3 4 5 6 
#
# 1 125.5954 36.2800 55.7262 5.5619 -20.5252 -3.4506
# 2 36.2800 71.1346 38.8784 -5.0811 -0.6285 12.9797
# 3 55.7262 38.8784 223.3271 0.2190 0.9345 12.8160
# 4 5.5619 -5.0811 0.2190 40.1707 -3.7172 -6.7624
# 5 -20.5252 -0.6285 0.9345 -3.7172 56.1075 9.3207
# 6 -3.4506 12.9797 12.8160 -6.7624 9.3207 37.6448
#
#
#
# Elastic Compliance Matrix: (Units=1/GPa)
#
#
# Indices 1 2 3 4 5 6 
#
# 1 0.011005 -0.004997 -0.002021 -0.001433 0.003528 0.002289
# 2 -0.004997 0.018735 -0.001678 0.002040 -0.000482 -0.005861
# 3 -0.002021 -0.001678 0.005352 -0.000242 -0.000645 -0.001313
# 4 -0.001433 0.002040 -0.000242 0.026043 0.000600 0.003778
# 5 0.003528 -0.000482 -0.000645 0.000600 0.019839 -0.004095
# 6 0.002289 -0.005861 -0.001313 0.003778 -0.004095 0.030934
#
#
# Mechanical properties :
#
#
# Convention : Reuss Voigt Hill
#
# Bulk Modulus (GPa) = 56.49800 75.75847 66.12824
# Shear Modulus (GPa) = 36.98212 46.06277 41.52245
#
# Velocity S-wave (km/s) = 3.72961 4.16239 3.95193
# Velocity P-wave (km/s) = 6.30850 7.18300 6.75991
#
# Compressibility (1/GPa) = 0.01769974
#
# Stress axis : x y z
#
# Youngs Moduli (GPa) = 90.86625 53.37745 186.83183
#
# Poissons Ratio (x) = 0.26674 0.37756
# Poissons Ratio (y) = 0.45407 0.31354
# Poissons Ratio (z) = 0.18363 0.08958
#
# Static dielectric constant tensor:
#      x y z
#    x 2.126630 -0.005290 -0.039620 
#    y -0.005290 2.126710 0.065150 
#    z -0.039620 0.065150 2.136920 
# 
# From -- ./inp_files/183539.got.cif
#   From: 2010.05.17/outbox.cif.g08.bks.cpg/sg2_92_cif.got.tgz:183539.got - 2010.06.03 11:33:40.
