data_PCOD9108360
_publ_section_title
;
Structure prediction by ZEFSAII (Michael W. Deem and Ramdas Pophale) SiO2 
 PCOD9108360
Probable space group: P -1
;
_chemical_formula_sum "Si O2"
_cell_formula_units_Z 11
_cell_length_a 9.183953
_cell_length_b 7.715718
_cell_length_c 13.058875
_cell_angle_alpha 70.785939
_cell_angle_beta 31.506626
_cell_angle_gamma 77.776586
_cell_volume 452.186150
_symmetry_space_group_name_H-M "P -1"
_symmetry_group_IT_number 2
_symmetry_cell_setting 'triclinic'
loop_
_space_group_symop_operation_xyz
x,y,z
-x,-y,-z
loop_
_atom_site_type_symbol
_atom_site_label
_atom_site_fract_x
_atom_site_fract_y
_atom_site_fract_z
Si Si1 0.627094 0.447529 0.540720
Si Si2 0.500000 0.000000 0.500000
Si Si3 0.752911 0.667846 0.813744
Si Si4 0.870352 0.687303 0.515023
Si Si5 0.847206 0.993232 0.847938
Si Si6 0.674790 0.953244 0.173820
O O1 0.500000 0.500000 0.500000
O O2 0.639962 0.617568 0.579517
O O3 0.436525 0.265462 0.731395
O O4 0.944828 0.406968 0.338900
O O5 0.507204 0.001662 0.365580
O O6 0.157863 0.967268 0.706706
O O7 0.772495 0.751336 0.670603
O O8 0.730121 0.812333 0.889464
O O9 0.500000 0.500000 0.000000
O O10 0.000000 0.500000 0.500000
O O11 0.097115 0.835660 0.296477
O O12 0.670741 0.033397 0.045787
O O13 0.000000 0.000000 0.000000
#
# Coordination Sequence:
#
# PCOD9108360 Si02
#       6
#     2   1   2   2   2   2
#     4  11  22  45  71 104 148 192 249 312 362 449
#     4  10  20  40  68 112 138 180 246 310 364 436
#     4  11  24  46  69 109 152 195 246 303 381 445
#     4  10  24  45  68 100 148 196 244 303 369 441
#     4  11  22  44  73 105 145 194 253 304 371 441
#     4  10  21  39  69 106 142 184 238 308 377 427
#
# _framework density 24.326263000000001
#
# number of rings (size 3 to 8) (size 9 to 14) (size 15 to 20)
#    0.000    1.455    1.818    3.818    0.000    0.000 
#   13.091    9.091    0.000    0.000    0.000    0.000 
#    0.000    0.000    0.000    0.000    0.000    0.000 
#
# Total GULP energy -61309.244001 kJ/mol
# GULP energy per Si atom -5573.567636 kJ/mol
# Density = 2.427090 g / cm^3
# Si number density = 24.326263 Si / 1000 Ang^3
#
#
#
# Elastic Constant Matrix: (Units=GPa)
#
#
# Indices 1 2 3 4 5 6 
#
# 1 174.0989 45.5858 69.6281 17.6375 17.1674 26.8506
# 2 45.5858 115.5484 65.1222 6.5561 7.8532 36.1296
# 3 69.6281 65.1222 189.3693 8.6840 28.7200 15.9394
# 4 17.6375 6.5561 8.6840 57.9498 16.6263 8.6812
# 5 17.1674 7.8532 28.7200 16.6263 75.3961 11.2265
# 6 26.8506 36.1296 15.9394 8.6812 11.2265 28.1240
#
#
#
# Elastic Compliance Matrix: (Units=1/GPa)
#
#
# Indices 1 2 3 4 5 6 
#
# 1 0.007652 0.000263 -0.002386 -0.001181 0.000300 -0.006046
# 2 0.000263 0.017953 -0.004917 0.001071 0.002991 -0.022053
# 3 -0.002386 -0.004917 0.007818 0.000111 -0.002724 0.005218
# 4 -0.001181 0.001071 0.000111 0.019181 -0.003388 -0.004879
# 5 0.000300 0.002991 -0.002724 -0.003388 0.015839 -0.007861
# 6 -0.006046 -0.022053 0.005218 -0.004879 -0.007861 0.071347
#
#
# Mechanical properties :
#
#
# Convention : Reuss Voigt Hill
#
# Bulk Modulus (GPa) = 51.69969 93.29876 72.49922
# Shear Modulus (GPa) = 31.18808 52.20603 41.69706
#
# Velocity S-wave (km/s) = 3.58449 4.63760 4.14463
# Velocity P-wave (km/s) = 6.19921 8.19224 7.26440
#
# Compressibility (1/GPa) = 0.01934248
#
# Stress axis : x y z
#
# Youngs Moduli (GPa) = 130.68591 55.70049 127.91002
#
# Poissons Ratio (x) = -0.01467 0.30526
# Poissons Ratio (y) = -0.03443 0.62896
# Poissons Ratio (z) = 0.31188 0.27389
#
# Static dielectric constant tensor:
#      x y z
#    x 1.998760 -0.037250 0.038920 
#    y -0.037250 2.040890 0.001570 
#    z 0.038920 0.001570 1.867550 
# 
# From -- ./inp_files/375745.got.cif
#   From: 2010.05.17/outbox.cif.g08.bks.cpg/sg2_188_cif.got.tgz:375745.got - 2010.06.03 11:33:40.
