data_PCOD9108480
_publ_section_title
;
Structure prediction by ZEFSAII (Michael W. Deem and Ramdas Pophale) SiO2 
 PCOD9108480
Probable space group: P -1
;
_chemical_formula_sum "Si O2"
_cell_formula_units_Z 14
_cell_length_a 14.688255
_cell_length_b 25.391981
_cell_length_c 27.664512
_cell_angle_alpha 169.930525
_cell_angle_beta 161.304452
_cell_angle_gamma 17.607130
_cell_volume 538.144175
_symmetry_space_group_name_H-M "P -1"
_symmetry_group_IT_number 2
_symmetry_cell_setting 'triclinic'
loop_
_space_group_symop_operation_xyz
x,y,z
-x,-y,-z
loop_
_atom_site_type_symbol
_atom_site_label
_atom_site_fract_x
_atom_site_fract_y
_atom_site_fract_z
Si Si1 0.168663 0.216381 0.384470
Si Si2 0.333223 0.299488 0.763455
Si Si3 0.328205 0.874904 0.889486
Si Si4 0.846449 0.887231 0.275762
Si Si5 0.992440 0.446820 0.819042
Si Si6 0.210584 0.603660 0.484466
Si Si7 0.594627 0.215791 0.977510
O O1 0.839168 0.288078 0.306085
O O2 0.410869 0.988161 0.339197
O O3 0.208187 0.027310 0.183291
O O4 0.268822 0.518262 0.700409
O O5 0.100041 0.505380 0.873477
O O6 0.111028 0.206136 0.531310
O O7 0.500000 0.500000 0.000000
O O8 0.692254 0.718071 0.934115
O O9 0.259932 0.794332 0.727700
O O10 0.201166 0.255403 0.180087
O O11 0.501268 0.946154 0.170905
O O12 0.906903 0.121498 0.478308
O O13 0.000000 0.000000 0.500000
O O14 0.000000 0.500000 0.000000
O O15 0.277281 0.388490 0.944657
O O16 0.500000 0.500000 0.500000
#
# Coordination Sequence:
#
# PCOD9108480 Si02
#       7
#     2   2   2   2   2   2   2
#     4  11  24  42  64  95 130 170 212 269 318 382
#     4  11  23  42  65  94 128 172 219 260 319 377
#     4  12  26  43  62  94 135 171 213 269 323 380
#     4  10  20  40  68  98 127 163 213 267 319 384
#     4  10  24  41  67  97 128 169 215 265 324 385
#     4  12  26  42  63  91 133 174 221 267 316 376
#     4  10  22  42  68  94 126 164 218 265 321 378
#
# _framework density 26.015333999999999
#
# number of rings (size 3 to 8) (size 9 to 14) (size 15 to 20)
#    0.000    1.143    2.857    3.857    4.000    4.000 
#    0.000    1.429    0.000    0.000    0.000    0.000 
#    0.000    0.000    0.000    0.000    0.000    0.000 
#
# Total GULP energy -78542.180761 kJ/mol
# GULP energy per Si atom -5610.155769 kJ/mol
# Density = 2.595612 g / cm^3
# Si number density = 26.015334 Si / 1000 Ang^3
#
#
#
# Elastic Constant Matrix: (Units=GPa)
#
#
# Indices 1 2 3 4 5 6 
#
# 1 185.0585 79.3074 111.4808 -50.9342 10.9047 3.0262
# 2 79.3074 175.7205 68.6803 -32.6574 -4.9835 27.9131
# 3 111.4808 68.6803 222.6936 -35.7474 -4.0371 33.3973
# 4 -50.9342 -32.6574 -35.7474 69.4829 1.5925 -14.4732
# 5 10.9047 -4.9835 -4.0371 1.5925 56.2607 -19.8220
# 6 3.0262 27.9131 33.3973 -14.4732 -19.8220 60.8687
#
#
#
# Elastic Compliance Matrix: (Units=1/GPa)
#
#
# Indices 1 2 3 4 5 6 
#
# 1 0.010566 -0.002830 -0.004200 0.005084 -0.001394 0.003832
# 2 -0.002830 0.007738 -0.000405 0.000733 0.000139 -0.002966
# 3 -0.004200 -0.000405 0.007212 -0.000315 0.000026 -0.003629
# 4 0.005084 0.000733 -0.000315 0.019162 -0.000030 0.004131
# 5 -0.001394 0.000139 0.000026 -0.000030 0.020394 0.006625
# 6 0.003832 -0.002966 -0.003629 0.004131 0.006625 0.022729
#
#
# Mechanical properties :
#
#
# Convention : Reuss Voigt Hill
#
# Bulk Modulus (GPa) = 93.93776 122.48996 108.21386
# Shear Modulus (GPa) = 47.07249 58.92273 52.99761
#
# Velocity S-wave (km/s) = 4.25833 4.76428 4.51840
# Velocity P-wave (km/s) = 7.76948 8.80060 8.30107
#
# Compressibility (1/GPa) = 0.01064535
#
# Stress axis : x y z
#
# Youngs Moduli (GPa) = 94.64683 129.23800 138.65846
#
# Poissons Ratio (x) = 0.36578 0.58238
# Poissons Ratio (y) = 0.26788 0.05609
# Poissons Ratio (z) = 0.39753 0.05228
#
# Static dielectric constant tensor:
#      x y z
#    x 2.129390 0.050950 0.055300 
#    y 0.050950 2.079160 0.022150 
#    z 0.055300 0.022150 1.961190 
# 
# From -- ./inp_files/533723.got.cif
#   From: 2010.05.17/outbox.cif.g08.bks.cpg/sg2_267_cif.got.tgz:533723.got - 2010.06.03 11:33:40.
