data_PCOD9108735
_publ_section_title
;
Structure prediction by ZEFSAII (Michael W. Deem and Ramdas Pophale) SiO2 
 PCOD9108735
Probable space group: P -1
;
_chemical_formula_sum "Si O2"
_cell_formula_units_Z 12
_cell_length_a 9.025727
_cell_length_b 11.485792
_cell_length_c 7.675372
_cell_angle_alpha 121.261973
_cell_angle_beta 48.945798
_cell_angle_gamma 93.684174
_cell_volume 463.286503
_symmetry_space_group_name_H-M "P -1"
_symmetry_group_IT_number 2
_symmetry_cell_setting 'triclinic'
loop_
_space_group_symop_operation_xyz
x,y,z
-x,-y,-z
loop_
_atom_site_type_symbol
_atom_site_label
_atom_site_fract_x
_atom_site_fract_y
_atom_site_fract_z
Si Si1 0.667226 0.309957 0.027131
Si Si2 0.442497 0.114912 0.974531
Si Si3 0.105782 0.116192 0.987279
Si Si4 0.054409 0.376784 0.645618
Si Si5 0.752469 0.696178 0.188646
Si Si6 0.346550 0.656042 0.517097
O O1 0.628474 0.173413 0.867542
O O2 0.471490 0.475077 0.267059
O O3 0.681404 0.300932 0.220859
O O4 0.882492 0.313907 0.787292
O O5 0.334786 0.054827 0.863567
O O6 0.231163 0.270316 0.296131
O O7 0.500000 0.000000 0.000000
O O8 0.890429 0.267627 0.324461
O O9 0.181102 0.168253 0.790447
O O10 0.000000 0.000000 0.000000
O O11 0.197914 0.362449 0.697490
O O12 0.916229 0.550450 0.842095
O O13 0.509719 0.718758 0.356615
#
# Coordination Sequence:
#
# PCOD9108735 Si02
#       6
#     2   2   2   2   2   2
#     4  10  20  40  70  99 129 169 216 267 325 388
#     4  12  27  44  62  95 135 179 219 268 324 386
#     4  12  27  44  62  95 135 179 219 268 324 386
#     4  10  21  41  73 101 126 168 219 269 324 390
#     4  10  21  41  73 101 126 168 219 269 324 390
#     4  10  20  40  70  99 129 169 216 267 325 388
#
# _framework density 25.901899
#
# number of rings (size 3 to 8) (size 9 to 14) (size 15 to 20)
#    0.000    1.333    3.333    2.000    0.000    5.333 
#    0.000    3.333    0.000    0.000    0.000    0.000 
#    0.000    0.000    0.000    0.000    0.000    0.000 
#
# Total GULP energy -67102.658020 kJ/mol
# GULP energy per Si atom -5591.888168 kJ/mol
# Density = 2.584295 g / cm^3
# Si number density = 25.901899 Si / 1000 Ang^3
#
#
#
# Elastic Constant Matrix: (Units=GPa)
#
#
# Indices 1 2 3 4 5 6 
#
# 1 115.9497 45.5124 0.9240 6.4264 -27.4239 13.1926
# 2 45.5124 161.3788 5.9693 -2.5636 -0.8267 46.9636
# 3 0.9240 5.9693 26.0678 2.8942 -15.9778 6.5886
# 4 6.4264 -2.5636 2.8942 26.3452 10.8862 -4.7987
# 5 -27.4239 -0.8267 -15.9778 10.8862 31.9218 -3.9168
# 6 13.1926 46.9636 6.5886 -4.7987 -3.9168 54.2706
#
#
#
# Elastic Compliance Matrix: (Units=1/GPa)
#
#
# Indices 1 2 3 4 5 6 
#
# 1 0.025567 -0.007948 0.036302 -0.032461 0.050636 -0.002960
# 2 -0.007948 0.010777 -0.012004 0.010096 -0.016767 -0.006254
# 3 0.036302 -0.012004 0.121341 -0.072980 0.115111 -0.011314
# 4 -0.032461 0.010096 -0.072980 0.096205 -0.095784 0.009608
# 5 0.050636 -0.016767 0.115111 -0.095784 0.163640 -0.008433
# 6 -0.002960 -0.006254 -0.011314 0.009608 -0.008433 0.026172
#
#
# Mechanical properties :
#
#
# Convention : Reuss Voigt Hill
#
# Bulk Modulus (GPa) = 5.25250 45.35643 25.30447
# Shear Modulus (GPa) = 10.53825 39.24021 24.88923
#
# Velocity S-wave (km/s) = 2.01925 3.89646 3.10321
# Velocity P-wave (km/s) = 2.73290 6.14753 4.75714
#
# Compressibility (1/GPa) = 0.19038551
#
# Stress axis : x y z
#
# Youngs Moduli (GPa) = 39.11304 92.79408 8.24124
#
# Poissons Ratio (x) = 0.73754 -0.29918
# Poissons Ratio (y) = 0.31087 0.09892
# Poissons Ratio (z) = -1.41989 1.11387
#
# Static dielectric constant tensor:
#      x y z
#    x 2.142860 0.034390 0.149980 
#    y 0.034390 2.046440 0.027510 
#    z 0.149980 0.027510 2.133540 
# 
# From -- ./inp_files/149710.got.cif
#   From: 2010.05.17/outbox.cif.g08.bks.cpg/sg2_75_cif.got.tgz:149710.got - 2010.06.03 11:33:40.
