data_PCOD9108636
_publ_section_title
;
Structure prediction by ZEFSAII (Michael W. Deem and Ramdas Pophale) SiO2 
 PCOD9108636
Probable space group: P -1
;
_chemical_formula_sum "Si O2"
_cell_formula_units_Z 16
_cell_length_a 11.764390
_cell_length_b 12.878311
_cell_length_c 7.251103
_cell_angle_alpha 101.589231
_cell_angle_beta 67.268688
_cell_angle_gamma 143.144732
_cell_volume 595.985837
_symmetry_space_group_name_H-M "P -1"
_symmetry_group_IT_number 2
_symmetry_cell_setting 'triclinic'
loop_
_space_group_symop_operation_xyz
x,y,z
-x,-y,-z
loop_
_atom_site_type_symbol
_atom_site_label
_atom_site_fract_x
_atom_site_fract_y
_atom_site_fract_z
Si Si1 0.999388 0.609276 0.704079
Si Si2 0.443990 0.698976 0.011583
Si Si3 0.191554 0.347620 0.932189
Si Si4 0.664738 0.536419 0.505876
Si Si5 0.973453 0.094271 0.451629
Si Si6 0.700999 0.822435 0.204922
Si Si7 0.228044 0.838337 0.289139
Si Si8 0.337809 0.797838 0.832832
O O1 0.765104 0.408539 0.790260
O O2 0.804930 0.696326 0.620151
O O3 0.978287 0.706381 0.864151
O O4 0.074577 0.680910 0.476892
O O5 0.401560 0.545843 0.946935
O O6 0.646728 0.844716 0.057924
O O7 0.422940 0.748851 0.854339
O O8 0.522941 0.350842 0.621562
O O9 0.190680 0.386368 0.733495
O O10 0.203965 0.230149 0.896876
O O11 0.500000 0.500000 0.500000
O O12 0.831624 0.336590 0.264058
O O13 0.848719 0.985066 0.306758
O O14 0.839070 0.085442 0.646178
O O15 0.000000 0.000000 0.500000
O O16 0.460984 0.998301 0.280825
O O17 0.242404 0.796210 0.065123
#
# Coordination Sequence:
#
# PCOD9108636 Si02
#       8
#     2   2   2   2   2   2   2   2
#     4  10  23  46  74 102 146 196 251 315 371 445
#     4  10  24  42  72 110 142 197 255 308 371 448
#     4   9  21  40  70 105 148 195 241 313 379 442
#     4  10  20  40  70 101 149 194 243 303 368 449
#     4  12  24  42  73 114 140 197 246 301 380 456
#     4  11  23  43  72 109 158 197 245 311 383 457
#     4  11  27  46  69 105 154 192 254 311 385 439
#     4  11  25  48  74 103 146 203 255 315 368 447
#
# _framework density 26.846274999999999
#
# number of rings (size 3 to 8) (size 9 to 14) (size 15 to 20)
#    0.750    0.750    2.500    2.625    1.750    3.500 
#    2.250    0.625    0.000    0.000    0.000    0.000 
#    0.000    0.000    0.000    0.000    0.000    0.000 
#
# Total GULP energy -89584.137819 kJ/mol
# GULP energy per Si atom -5599.008614 kJ/mol
# Density = 2.678517 g / cm^3
# Si number density = 26.846275 Si / 1000 Ang^3
#
#
#
# Elastic Constant Matrix: (Units=GPa)
#
#
# Indices 1 2 3 4 5 6 
#
# 1 132.5807 41.6300 11.7847 11.4024 18.5175 19.9494
# 2 41.6300 126.5671 35.3152 11.2899 6.6152 32.4942
# 3 11.7847 35.3152 99.8681 -3.2707 -9.5309 -0.7641
# 4 11.4024 11.2899 -3.2707 51.7375 -0.8805 0.9511
# 5 18.5175 6.6152 -9.5309 -0.8805 41.7171 9.4941
# 6 19.9494 32.4942 -0.7641 0.9511 9.4941 52.6128
#
#
#
# Elastic Compliance Matrix: (Units=1/GPa)
#
#
# Indices 1 2 3 4 5 6 
#
# 1 0.009130 -0.002069 -0.000753 -0.001641 -0.003586 -0.001518
# 2 -0.002069 0.011526 -0.003994 -0.002204 -0.000441 -0.006273
# 3 -0.000753 -0.003994 0.011896 0.001801 0.003196 0.002316
# 4 -0.001641 -0.002204 0.001801 0.020287 0.001610 0.001352
# 5 -0.003586 -0.000441 0.003196 0.001610 0.027136 -0.003248
# 6 -0.001518 -0.006273 0.002316 0.001352 -0.003248 0.024052
#
#
# Mechanical properties :
#
#
# Convention : Reuss Voigt Hill
#
# Bulk Modulus (GPa) = 52.85608 59.60840 56.23224
# Shear Modulus (GPa) = 40.33385 47.23253 43.78319
#
# Velocity S-wave (km/s) = 3.88029 4.19903 4.04280
# Velocity P-wave (km/s) = 6.30925 6.76469 6.54093
#
# Compressibility (1/GPa) = 0.01891930
#
# Stress axis : x y z
#
# Youngs Moduli (GPa) = 109.53365 86.76104 84.06088
#
# Poissons Ratio (x) = 0.17953 0.06331
# Poissons Ratio (y) = 0.22665 0.33572
# Poissons Ratio (z) = 0.08250 0.34651
#
# Static dielectric constant tensor:
#      x y z
#    x 2.074280 -0.045580 -0.016440 
#    y -0.045580 2.143470 -0.013280 
#    z -0.016440 -0.013280 2.154970 
# 
# From -- ./inp_files/313651.got.cif
#   From: 2010.05.17/outbox.cif.g08.bks.cpg/sg2_157_cif.got.tgz:313651.got - 2010.06.03 11:33:40.
