data_PCOD9108891
_publ_section_title
;
Structure prediction by ZEFSAII (Michael W. Deem and Ramdas Pophale) SiO2 
 PCOD9108891
Probable space group: P -1
;
_chemical_formula_sum "Si O2"
_cell_formula_units_Z 15
_cell_length_a 8.842218
_cell_length_b 10.563433
_cell_length_c 12.231810
_cell_angle_alpha 115.193173
_cell_angle_beta 142.988525
_cell_angle_gamma 64.458147
_cell_volume 613.539333
_symmetry_space_group_name_H-M "P -1"
_symmetry_group_IT_number 2
_symmetry_cell_setting 'triclinic'
loop_
_space_group_symop_operation_xyz
x,y,z
-x,-y,-z
loop_
_atom_site_type_symbol
_atom_site_label
_atom_site_fract_x
_atom_site_fract_y
_atom_site_fract_z
Si Si1 0.971069 0.339007 0.893256
Si Si2 0.513766 0.140240 0.127603
Si Si3 0.996673 0.239224 0.431141
Si Si4 0.411812 0.980622 0.636214
Si Si5 0.500000 0.500000 0.000000
Si Si6 0.748986 0.738158 0.635354
Si Si7 0.747827 0.222593 0.930856
Si Si8 0.929201 0.436297 0.674963
O O1 0.885674 0.344324 0.720593
O O2 0.797054 0.277550 0.858079
O O3 0.245382 0.240451 0.019042
O O4 0.000000 0.500000 0.000000
O O5 0.719987 0.221603 0.220202
O O6 0.606044 0.096037 0.286715
O O7 0.500000 0.000000 0.000000
O O8 0.152682 0.085985 0.497906
O O9 0.160554 0.289467 0.447007
O O10 0.939241 0.347646 0.537239
O O11 0.627911 0.080254 0.808028
O O12 0.510941 0.861340 0.560290
O O13 0.457747 0.659398 0.086250
O O14 0.794523 0.514964 0.137911
O O15 0.731004 0.583220 0.613887
O O16 0.983443 0.791058 0.855027
#
# Coordination Sequence:
#
# PCOD9108891 Si02
#       8
#     2   2   2   2   1   2   2   2
#     4  12  24  47  74 106 143 187 241 295 357 425
#     4  12  28  47  73 104 145 192 240 296 357 433
#     4  12  27  46  70 105 148 189 237 294 361 426
#     4  12  24  48  68 108 142 188 240 296 359 424
#     4  10  20  40  76 100 134 184 228 288 346 426
#     4  11  24  44  71 105 144 182 238 292 359 423
#     4  11  23  42  78 104 141 186 242 293 354 426
#     4  11  24  47  71 107 141 188 234 296 359 425
#
# _framework density 24.448311
#
# number of rings (size 3 to 8) (size 9 to 14) (size 15 to 20)
#    0.000    0.533    5.333    3.200    5.600    0.000 
#    4.800    1.333    0.000    0.000    0.000    0.000 
#    0.000    0.000    0.000    0.000    0.000    0.000 
#
# Total GULP energy -83882.510385 kJ/mol
# GULP energy per Si atom -5592.167359 kJ/mol
# Density = 2.439267 g / cm^3
# Si number density = 24.448311 Si / 1000 Ang^3
#
#
#
# Elastic Constant Matrix: (Units=GPa)
#
#
# Indices 1 2 3 4 5 6 
#
# 1 74.0403 39.7369 27.2501 0.4549 -4.5585 -2.0919
# 2 39.7369 124.1906 15.3868 -6.0648 6.8109 -33.8183
# 3 27.2501 15.3868 63.2249 12.9448 -2.8542 -6.0304
# 4 0.4549 -6.0648 12.9448 34.5422 -0.1210 -6.9902
# 5 -4.5585 6.8109 -2.8542 -0.1210 45.6745 -1.4943
# 6 -2.0919 -33.8183 -6.0304 -6.9902 -1.4943 43.2196
#
#
#
# Elastic Compliance Matrix: (Units=1/GPa)
#
#
# Indices 1 2 3 4 5 6 
#
# 1 0.020027 -0.007132 -0.007340 0.000124 0.002423 -0.005531
# 2 -0.007132 0.013761 -0.000323 0.004865 -0.002409 0.011081
# 3 -0.007340 -0.000323 0.020728 -0.007505 0.000627 0.001092
# 4 0.000124 0.004865 -0.007505 0.034288 -0.000820 0.008283
# 5 0.002423 -0.002409 0.000627 -0.000820 0.022498 -0.001035
# 6 -0.005531 0.011081 0.001092 0.008283 -0.001035 0.032997
#
#
# Mechanical properties :
#
#
# Convention : Reuss Voigt Hill
#
# Bulk Modulus (GPa) = 40.11731 47.35592 43.73662
# Shear Modulus (GPa) = 27.44269 36.62609 32.03439
#
# Velocity S-wave (km/s) = 3.35398 3.87473 3.62372
# Velocity P-wave (km/s) = 5.60745 6.27933 5.95288
#
# Compressibility (1/GPa) = 0.02492689
#
# Stress axis : x y z
#
# Youngs Moduli (GPa) = 49.93212 72.66745 48.24483
#
# Poissons Ratio (x) = 0.51825 0.35410
# Poissons Ratio (y) = 0.35610 0.01559
# Poissons Ratio (z) = 0.36649 0.02348
#
# Static dielectric constant tensor:
#      x y z
#    x 1.892530 0.020910 -0.031830 
#    y 0.020910 1.902600 -0.022980 
#    z -0.031830 -0.022980 1.978240 
# 
# From -- ./inp_files/391221.got.cif
#   From: 2010.05.17/outbox.cif.g08.bks.cpg/sg2_196_cif.got.tgz:391221.got - 2010.06.03 11:33:40.
