data_PCOD9108234
_publ_section_title
;
Structure prediction by ZEFSAII (Michael W. Deem and Ramdas Pophale) SiO2 
 PCOD9108234
Probable space group: P -1
;
_chemical_formula_sum "Si O2"
_cell_formula_units_Z 16
_cell_length_a 29.336957
_cell_length_b 10.016398
_cell_length_c 9.933778
_cell_angle_alpha 115.258742
_cell_angle_beta 34.777798
_cell_angle_gamma 143.499934
_cell_volume 718.377899
_symmetry_space_group_name_H-M "P -1"
_symmetry_group_IT_number 2
_symmetry_cell_setting 'triclinic'
loop_
_space_group_symop_operation_xyz
x,y,z
-x,-y,-z
loop_
_atom_site_type_symbol
_atom_site_label
_atom_site_fract_x
_atom_site_fract_y
_atom_site_fract_z
Si Si1 0.828077 0.848567 0.743933
Si Si2 0.928678 0.247872 0.477619
Si Si3 0.043909 0.239068 0.947053
Si Si4 0.626570 0.095574 0.922756
Si Si5 0.017727 0.223615 0.696242
Si Si6 0.537505 0.639004 0.606441
Si Si7 0.456704 0.324211 0.905497
Si Si8 0.609732 0.058916 0.631446
O O1 0.892254 0.787963 0.547785
O O2 0.945299 0.136568 0.488964
O O3 0.640631 0.566614 0.023493
O O4 0.861454 0.966092 0.863316
O O5 0.000000 0.500000 0.500000
O O6 0.734551 0.967591 0.802305
O O7 0.994336 0.286076 0.194143
O O8 0.974272 0.162274 0.933005
O O9 0.242442 0.583445 0.592982
O O10 0.000000 0.000000 0.000000
O O11 0.829954 0.420788 0.567121
O O12 0.578963 0.991629 0.837091
O O13 0.539064 0.835782 0.120040
O O14 0.544540 0.123230 0.156556
O O15 0.500000 0.500000 0.500000
O O16 0.662087 0.978063 0.429487
O O17 0.565797 0.565802 0.622354
O O18 0.500000 0.500000 0.000000
#
# Coordination Sequence:
#
# PCOD9108234 Si02
#       8
#     2   2   2   2   2   2   2   2
#     4  10  21  40  66  88 129 175 212 265 339 385
#     4  11  25  43  64  93 139 175 217 274 344 399
#     4  11  24  41  66  98 129 173 230 276 327 395
#     4  10  20  41  66  94 121 165 221 267 319 383
#     4  10  20  40  67  94 124 170 223 274 315 398
#     4  11  24  43  62  95 138 172 206 271 344 396
#     4  11  24  41  70  94 129 173 225 271 332 403
#     4  10  22  39  68  92 130 163 218 270 327 385
#
# _framework density 22.272402
#
# number of rings (size 3 to 8) (size 9 to 14) (size 15 to 20)
#    0.000    1.500    3.750    0.750    5.250    1.000 
#    0.000    2.500    0.000    0.000    0.000    0.000 
#    0.000    0.000    0.000    0.000    0.000    0.000 
#
# Total GULP energy -89201.087617 kJ/mol
# GULP energy per Si atom -5575.067976 kJ/mol
# Density = 2.222171 g / cm^3
# Si number density = 22.272402 Si / 1000 Ang^3
#
#
#
# Elastic Constant Matrix: (Units=GPa)
#
#
# Indices 1 2 3 4 5 6 
#
# 1 95.1093 42.6438 22.0366 -12.3963 24.8759 -7.1413
# 2 42.6438 127.0358 25.7605 -9.3474 22.7273 -7.2731
# 3 22.0366 25.7605 50.3196 -3.1197 13.2621 1.8241
# 4 -12.3963 -9.3474 -3.1197 34.0676 6.9408 8.5976
# 5 24.8759 22.7273 13.2621 6.9408 39.9268 -4.6553
# 6 -7.1413 -7.2731 1.8241 8.5976 -4.6553 52.8675
#
#
#
# Elastic Compliance Matrix: (Units=1/GPa)
#
#
# Indices 1 2 3 4 5 6 
#
# 1 0.015306 -0.002643 -0.002812 0.006235 -0.008174 0.000067
# 2 -0.002643 0.010176 -0.003028 0.002131 -0.003453 0.000497
# 3 -0.002812 -0.003028 0.024243 0.002040 -0.005214 -0.002424
# 4 0.006235 0.002131 0.002040 0.036522 -0.012825 -0.006004
# 5 -0.008174 -0.003453 -0.005214 -0.012825 0.036520 0.003902
# 6 0.000067 0.000497 -0.002424 -0.006004 0.003902 0.020396
#
#
# Mechanical properties :
#
#
# Convention : Reuss Voigt Hill
#
# Bulk Modulus (GPa) = 30.52468 50.37185 40.44826
# Shear Modulus (GPa) = 29.23138 37.50727 33.36933
#
# Velocity S-wave (km/s) = 3.62670 4.10814 3.87491
# Velocity P-wave (km/s) = 5.59216 6.72070 6.18223
#
# Compressibility (1/GPa) = 0.03276038
#
# Stress axis : x y z
#
# Youngs Moduli (GPa) = 65.33213 98.27116 41.24884
#
# Poissons Ratio (x) = 0.25972 0.11598
# Poissons Ratio (y) = 0.17267 0.12490
# Poissons Ratio (z) = 0.18369 0.29756
#
# Static dielectric constant tensor:
#      x y z
#    x 1.787340 0.017040 0.023950 
#    y 0.017040 1.912110 -0.058890 
#    z 0.023950 -0.058890 1.823270 
# 
# From -- ./inp_files/356614.got.cif
#   From: 2010.05.17/outbox.cif.g08.bks.cpg/sg2_179_cif.got.tgz:356614.got - 2010.06.03 11:33:40.
