data_PCOD9108716
_publ_section_title
;
Structure prediction by ZEFSAII (Michael W. Deem and Ramdas Pophale) SiO2 
 PCOD9108716
Probable space group: P -1
;
_chemical_formula_sum "Si O2"
_cell_formula_units_Z 16
_cell_length_a 17.534250
_cell_length_b 8.951616
_cell_length_c 12.049910
_cell_angle_alpha 108.253742
_cell_angle_beta 30.479345
_cell_angle_gamma 126.123269
_cell_volume 681.687677
_symmetry_space_group_name_H-M "P -1"
_symmetry_group_IT_number 2
_symmetry_cell_setting 'triclinic'
loop_
_space_group_symop_operation_xyz
x,y,z
-x,-y,-z
loop_
_atom_site_type_symbol
_atom_site_label
_atom_site_fract_x
_atom_site_fract_y
_atom_site_fract_z
Si Si1 0.586138 0.269975 0.826490
Si Si2 0.460590 0.298857 0.761442
Si Si3 0.992657 0.054982 0.790239
Si Si4 0.913836 0.278468 0.496851
Si Si5 0.158743 0.470471 0.807908
Si Si6 0.414285 0.248512 0.270907
Si Si7 0.996458 0.735412 0.387628
Si Si8 0.217047 0.569157 0.009480
O O1 0.462240 0.202792 0.852951
O O2 0.705177 0.189704 0.683264
O O3 0.766427 0.521148 0.642558
O O4 0.469271 0.228788 0.074957
O O5 0.638481 0.354420 0.474664
O O6 0.527918 0.525994 0.748791
O O7 0.240848 0.145794 0.946156
O O8 0.998757 0.122938 0.672317
O O9 0.059667 0.243037 0.831270
O O10 0.182691 0.068344 0.555618
O O11 0.916766 0.173486 0.577840
O O12 0.000000 0.500000 0.500000
O O13 0.082598 0.370262 0.214521
O O14 0.212272 0.498197 0.876368
O O15 0.000000 0.500000 0.000000
O O16 0.563223 0.272452 0.177488
O O17 0.113674 0.669232 0.169319
#
# Coordination Sequence:
#
# PCOD9108716 Si02
#       8
#     2   2   2   2   2   2   2   2
#     4  10  16  36  62  88 117 158 196 245 296 352
#     4  11  25  38  57  91 126 158 193 244 300 349
#     4  11  25  39  58  90 127 152 200 247 289 359
#     4   8  15  29  62  92 114 140 199 251 293 340
#     4  11  21  42  67  87 112 159 206 242 295 348
#     4  11  21  39  64  85 121 161 196 240 301 359
#     4  10  16  37  63  91 116 151 197 252 297 342
#     4  10  18  35  67  90 109 159 205 239 298 349
#
# _framework density 23.471160000000001
#
# number of rings (size 3 to 8) (size 9 to 14) (size 15 to 20)
#    0.000    2.000    7.500    1.125    0.000    3.000 
#    0.000    3.125    5.500    0.000    0.000    0.000 
#    0.000    0.000    0.000    0.000    0.000    0.000 
#
# Total GULP energy -89510.227863 kJ/mol
# GULP energy per Si atom -5594.389241 kJ/mol
# Density = 2.341774 g / cm^3
# Si number density = 23.471160 Si / 1000 Ang^3
#
#
#
# Elastic Constant Matrix: (Units=GPa)
#
#
# Indices 1 2 3 4 5 6 
#
# 1 88.4176 38.3488 50.3466 2.8969 7.1176 40.2714
# 2 38.3488 69.6274 62.4028 -13.1224 -6.4527 22.1846
# 3 50.3466 62.4028 186.9724 -6.2663 -26.7664 31.0296
# 4 2.8969 -13.1224 -6.2663 42.2683 9.9897 -1.1455
# 5 7.1176 -6.4527 -26.7664 9.9897 42.1992 5.5769
# 6 40.2714 22.1846 31.0296 -1.1455 5.5769 36.5448
#
#
#
# Elastic Compliance Matrix: (Units=1/GPa)
#
#
# Indices 1 2 3 4 5 6 
#
# 1 0.025731 -0.006610 -0.001363 -0.004120 -0.002203 -0.022978
# 2 -0.006610 0.025832 -0.006138 0.007537 -0.000227 -0.002915
# 3 -0.001363 -0.006138 0.009144 -0.001975 0.006023 -0.003517
# 4 -0.004120 0.007537 -0.001975 0.027594 -0.006398 0.003483
# 5 -0.002203 -0.000227 0.006023 -0.006398 0.030344 -0.007380
# 6 -0.022978 -0.002915 -0.003517 0.003483 -0.007380 0.058677
#
#
# Mechanical properties :
#
#
# Convention : Reuss Voigt Hill
#
# Bulk Modulus (GPa) = 30.78269 71.91264 51.34767
# Shear Modulus (GPa) = 23.10841 37.13039 30.11940
#
# Velocity S-wave (km/s) = 3.14115 3.98170 3.58614
# Velocity P-wave (km/s) = 5.12829 7.20026 6.25073
#
# Compressibility (1/GPa) = 0.03248579
#
# Stress axis : x y z
#
# Youngs Moduli (GPa) = 38.86370 38.71177 109.36567
#
# Poissons Ratio (x) = 0.25588 0.14901
# Poissons Ratio (y) = 0.25689 0.67127
# Poissons Ratio (z) = 0.05295 0.23761
#
# Static dielectric constant tensor:
#      x y z
#    x 1.896630 -0.045270 -0.031330 
#    y -0.045270 2.072970 -0.023790 
#    z -0.031330 -0.023790 1.879230 
# 
# From -- ./inp_files/464651.got.cif
#   From: 2010.05.17/outbox.cif.g08.bks.cpg/sg2_233_cif.got.tgz:464651.got - 2010.06.03 11:33:40.
