data_PCOD9108173
_publ_section_title
;
Structure prediction by ZEFSAII (Michael W. Deem and Ramdas Pophale) SiO2 
 PCOD9108173
Probable space group: P -1
;
_chemical_formula_sum "Si O2"
_cell_formula_units_Z 16
_cell_length_a 13.362527
_cell_length_b 8.791375
_cell_length_c 11.656382
_cell_angle_alpha 114.309149
_cell_angle_beta 86.355745
_cell_angle_gamma 139.258986
_cell_volume 740.055955
_symmetry_space_group_name_H-M "P -1"
_symmetry_group_IT_number 2
_symmetry_cell_setting 'triclinic'
loop_
_space_group_symop_operation_xyz
x,y,z
-x,-y,-z
loop_
_atom_site_type_symbol
_atom_site_label
_atom_site_fract_x
_atom_site_fract_y
_atom_site_fract_z
Si Si1 0.359386 0.713329 0.786096
Si Si2 0.333632 0.625977 0.028436
Si Si3 0.999370 0.364952 0.058124
Si Si4 0.843202 0.265925 0.636089
Si Si5 0.739168 0.473849 0.614058
Si Si6 0.805060 0.790787 0.924020
Si Si7 0.476314 0.278616 0.399156
Si Si8 0.965603 0.774120 0.487789
O O1 0.455180 0.680663 0.716823
O O2 0.194434 0.512856 0.658887
O O3 0.489523 0.041133 0.862269
O O4 0.309950 0.611389 0.889097
O O5 0.179013 0.513339 0.068203
O O6 0.310845 0.413245 0.021773
O O7 0.007539 0.454388 0.212313
O O8 0.000000 0.500000 0.000000
O O9 0.837620 0.026230 0.960609
O O10 0.750384 0.294689 0.589610
O O11 0.895332 0.182824 0.525204
O O12 0.717342 0.023574 0.664478
O O13 0.739009 0.592588 0.761037
O O14 0.585868 0.317179 0.493732
O O15 0.909483 0.731689 0.608381
O O16 0.000000 0.000000 0.000000
O O17 0.500000 0.500000 0.500000
O O18 0.000000 0.000000 0.500000
#
# Coordination Sequence:
#
# PCOD9108173 Si02
#       8
#     2   2   2   2   2   2   2   2
#     4  10  21  40  66  95 132 177 217 270 331 394
#     4  10  20  40  67  89 131 175 219 265 336 393
#     4  11  23  36  67  97 131 167 221 283 326 398
#     4  12  22  43  64  97 130 171 226 272 332 391
#     4  11  23  42  67  93 131 174 216 276 334 388
#     4  10  21  40  64  98 125 169 217 271 333 384
#     4  11  24  42  64  96 129 176 223 268 327 398
#     4  11  26  40  64  97 134 175 223 272 333 389
#
# _framework density 21.619986999999998
#
# number of rings (size 3 to 8) (size 9 to 14) (size 15 to 20)
#    0.000    1.250    3.750    3.000    7.000    1.000 
#    0.000    0.000    0.000   12.000    0.000    0.000 
#    0.000    0.000    0.000    0.000    0.000    0.000 
#
# Total GULP energy -89315.381642 kJ/mol
# GULP energy per Si atom -5582.211353 kJ/mol
# Density = 2.157078 g / cm^3
# Si number density = 21.619987 Si / 1000 Ang^3
#
#
#
# Elastic Constant Matrix: (Units=GPa)
#
#
# Indices 1 2 3 4 5 6 
#
# 1 49.0788 18.4073 0.0037 12.9825 -6.4500 -18.5245
# 2 18.4073 135.9251 22.4596 3.6581 -14.5159 -23.4681
# 3 0.0037 22.4596 47.0678 2.9182 5.6831 -4.9650
# 4 12.9825 3.6581 2.9182 28.5272 -2.8123 -5.0182
# 5 -6.4500 -14.5159 5.6831 -2.8123 23.5070 0.4173
# 6 -18.5245 -23.4681 -4.9650 -5.0182 0.4173 37.0639
#
#
#
# Elastic Compliance Matrix: (Units=1/GPa)
#
#
# Indices 1 2 3 4 5 6 
#
# 1 0.029037 -0.001251 0.001932 -0.010537 0.005245 0.012494
# 2 -0.001251 0.009993 -0.005181 0.001424 0.007159 0.005120
# 3 0.001932 -0.005181 0.025119 -0.003572 -0.009181 0.000670
# 4 -0.010537 0.001424 -0.003572 0.040501 0.003687 0.000599
# 5 0.005245 0.007159 -0.009181 0.003687 0.050958 0.005850
# 6 0.012494 0.005120 0.000670 0.000599 0.005850 0.036572
#
#
# Mechanical properties :
#
#
# Convention : Reuss Voigt Hill
#
# Bulk Modulus (GPa) = 18.13250 34.86811 26.50030
# Shear Modulus (GPa) = 22.77283 30.56636 26.66960
#
# Velocity S-wave (km/s) = 3.24901 3.76413 3.51602
# Velocity P-wave (km/s) = 4.74130 5.92067 5.36350
#
# Compressibility (1/GPa) = 0.05514959
#
# Stress axis : x y z
#
# Youngs Moduli (GPa) = 34.43935 100.07291 39.81119
#
# Poissons Ratio (x) = 0.12516 -0.07693
# Poissons Ratio (y) = 0.04307 0.20625
# Poissons Ratio (z) = -0.06655 0.51846
#
# Static dielectric constant tensor:
#      x y z
#    x 1.853050 -0.047400 -0.034290 
#    y -0.047400 1.848220 0.041770 
#    z -0.034290 0.041770 1.833890 
# 
# From -- ./inp_files/448053.got.cif
#   From: 2010.05.17/outbox.cif.g08.bks.cpg/sg2_225_cif.got.tgz:448053.got - 2010.06.03 11:33:40.
