data_PCOD9108681
_publ_section_title
;
Structure prediction by ZEFSAII (Michael W. Deem and Ramdas Pophale) SiO2 
 PCOD9108681
Probable space group: P -1
;
_chemical_formula_sum "Si O2"
_cell_formula_units_Z 16
_cell_length_a 15.877295
_cell_length_b 7.184758
_cell_length_c 21.958015
_cell_angle_alpha 69.936354
_cell_angle_beta 164.025025
_cell_angle_gamma 112.934560
_cell_volume 629.940374
_symmetry_space_group_name_H-M "P -1"
_symmetry_group_IT_number 2
_symmetry_cell_setting 'triclinic'
loop_
_space_group_symop_operation_xyz
x,y,z
-x,-y,-z
loop_
_atom_site_type_symbol
_atom_site_label
_atom_site_fract_x
_atom_site_fract_y
_atom_site_fract_z
Si Si1 0.321728 0.552980 0.067237
Si Si2 0.276883 0.154830 0.247831
Si Si3 0.337245 0.757562 0.618161
Si Si4 0.624602 0.154627 0.826940
Si Si5 0.759074 0.167726 0.126847
Si Si6 0.226380 0.110128 0.931034
Si Si7 0.240985 0.723800 0.335245
Si Si8 0.784951 0.407009 0.230816
O O1 0.465829 0.355331 0.186702
O O2 0.440202 0.654699 0.203101
O O3 0.397830 0.704720 0.045704
O O4 0.945584 0.469674 0.809874
O O5 0.473201 0.206488 0.317210
O O6 0.449148 0.282986 0.411008
O O7 0.278424 0.923538 0.296317
O O8 0.928852 0.193044 0.990528
O O9 0.018018 0.590417 0.405477
O O10 0.343774 0.980784 0.624393
O O11 0.762739 0.046764 0.990740
O O12 0.924525 0.317594 0.278261
O O13 0.926221 0.028162 0.216878
O O14 0.500000 0.000000 0.000000
O O15 0.001206 0.249350 0.781654
O O16 0.587224 0.222039 0.154582
O O17 0.500000 0.500000 0.000000
#
# Coordination Sequence:
#
# PCOD9108681 Si02
#       8
#     2   2   2   2   2   2   2   2
#     4  11  22  41  66  92 130 170 215 259 325 382
#     4  10  21  40  65  93 128 167 214 265 314 376
#     4  12  24  42  63  94 133 167 212 264 323 386
#     4  10  23  41  62  93 132 166 207 266 317 381
#     4   9  20  40  63  92 127 163 214 269 305 378
#     4   9  18  40  62  89 126 157 210 264 310 370
#     4  10  20  40  70  92 122 174 212 261 322 373
#     4  11  23  40  66  90 122 171 212 262 320 384
#
# _framework density 25.399229999999999
#
# number of rings (size 3 to 8) (size 9 to 14) (size 15 to 20)
#    0.000    1.750    2.500    2.625    0.000    1.500 
#    9.000    4.375    0.000    0.000    0.000    0.000 
#    0.000    0.000    0.000    0.000    0.000    0.000 
#
# Total GULP energy -89421.455782 kJ/mol
# GULP energy per Si atom -5588.840986 kJ/mol
# Density = 2.534142 g / cm^3
# Si number density = 25.399230 Si / 1000 Ang^3
#
#
#
# Elastic Constant Matrix: (Units=GPa)
#
#
# Indices 1 2 3 4 5 6 
#
# 1 99.4014 40.7516 25.0509 9.8001 -2.9326 -7.7145
# 2 40.7516 87.8965 24.8702 20.5689 -5.1671 -6.8984
# 3 25.0509 24.8702 117.0618 33.7212 -26.9245 -10.6006
# 4 9.8001 20.5689 33.7212 36.0743 -5.1424 -8.9709
# 5 -2.9326 -5.1671 -26.9245 -5.1424 35.2754 11.0324
# 6 -7.7145 -6.8984 -10.6006 -8.9709 11.0324 52.7147
#
#
#
# Elastic Compliance Matrix: (Units=1/GPa)
#
#
# Indices 1 2 3 4 5 6 
#
# 1 0.012887 -0.005789 -0.002427 0.002161 -0.001744 0.001373
# 2 -0.005789 0.015804 0.000289 -0.007622 0.001016 -0.000230
# 3 -0.002427 0.000289 0.014583 -0.012125 0.009663 -0.001471
# 4 0.002161 -0.007622 -0.012125 0.043369 -0.005566 0.005426
# 5 -0.001744 0.001016 0.009663 -0.005566 0.037070 -0.006884
# 6 0.001373 -0.000230 -0.001471 0.005426 -0.006884 0.021209
#
#
# Mechanical properties :
#
#
# Convention : Reuss Voigt Hill
#
# Bulk Modulus (GPa) = 36.46871 53.96725 45.21798
# Shear Modulus (GPa) = 29.42635 39.05867 34.24251
#
# Velocity S-wave (km/s) = 3.40744 3.92572 3.67573
# Velocity P-wave (km/s) = 5.46537 6.46855 5.98800
#
# Compressibility (1/GPa) = 0.02742077
#
# Stress axis : x y z
#
# Youngs Moduli (GPa) = 77.59679 63.27472 68.57409
#
# Poissons Ratio (x) = 0.36627 0.16645
# Poissons Ratio (y) = 0.44918 -0.01984
# Poissons Ratio (z) = 0.18835 -0.01831
#
# Static dielectric constant tensor:
#      x y z
#    x 2.101850 -0.037850 0.013650 
#    y -0.037850 2.100270 0.107720 
#    z 0.013650 0.107720 2.122580 
# 
# From -- ./inp_files/596985.got.cif
#   From: 2010.05.17/outbox.cif.g08.bks.cpg/sg2_299_cif.got.tgz:596985.got - 2010.06.03 11:33:40.
