data_PCOD9108590
_publ_section_title
;
Structure prediction by ZEFSAII (Michael W. Deem and Ramdas Pophale) SiO2 
 PCOD9108590
Probable space group: P -1
;
_chemical_formula_sum "Si O2"
_cell_formula_units_Z 16
_cell_length_a 10.420056
_cell_length_b 11.798813
_cell_length_c 8.734324
_cell_angle_alpha 42.100193
_cell_angle_beta 69.679356
_cell_angle_gamma 82.163061
_cell_volume 662.437147
_symmetry_space_group_name_H-M "P -1"
_symmetry_group_IT_number 2
_symmetry_cell_setting 'triclinic'
loop_
_space_group_symop_operation_xyz
x,y,z
-x,-y,-z
loop_
_atom_site_type_symbol
_atom_site_label
_atom_site_fract_x
_atom_site_fract_y
_atom_site_fract_z
Si Si1 0.398746 0.113811 0.350717
Si Si2 0.901947 0.089309 0.843947
Si Si3 0.648224 0.441884 0.516153
Si Si4 0.643050 0.061204 0.788639
Si Si5 0.349437 0.608346 0.070339
Si Si6 0.176051 0.877788 0.833711
Si Si7 0.913152 0.662394 0.035346
Si Si8 0.101704 0.366302 0.280538
O O1 0.500000 0.000000 0.500000
O O2 0.369640 0.031175 0.277268
O O3 0.257592 0.062314 0.559453
O O4 0.488384 0.308024 0.113438
O O5 0.774078 0.005709 0.874183
O O6 0.003451 0.226504 0.564096
O O7 0.823249 0.157630 0.950597
O O8 0.000000 0.000000 0.000000
O O9 0.500000 0.500000 0.500000
O O10 0.662830 0.270841 0.581885
O O11 0.657679 0.403076 0.731065
O O12 0.774955 0.592564 0.259548
O O13 0.500000 0.000000 0.000000
O O14 0.250659 0.434437 0.228372
O O15 0.269007 0.741195 0.880288
O O16 0.019878 0.830285 0.882497
O O17 0.008474 0.516265 0.157393
O O18 0.878301 0.686952 0.848862
#
# Coordination Sequence:
#
# PCOD9108590 Si02
#       8
#     2   2   2   2   2   2   2   2
#     4  10  21  39  69 103 136 182 231 279 356 424
#     4  12  25  44  69 103 139 184 237 292 355 423
#     4  12  25  42  66  99 138 180 232 286 355 421
#     4  12  23  44  70 100 141 188 235 288 355 430
#     4  10  20  41  65  95 132 173 222 276 342 411
#     4  10  20  40  69  96 131 174 220 286 344 414
#     4  10  21  40  71  99 128 175 229 282 353 410
#     4  10  21  41  72  99 131 175 229 289 348 416
#
# _framework density 24.153234000000001
#
# number of rings (size 3 to 8) (size 9 to 14) (size 15 to 20)
#    0.000    1.250    3.750    2.250    5.250    4.000 
#    2.250    1.875    0.000    0.000    0.000    0.000 
#    0.000    0.000    0.000    0.000    0.000    0.000 
#
# Total GULP energy -89356.768606 kJ/mol
# GULP energy per Si atom -5584.798038 kJ/mol
# Density = 2.409826 g / cm^3
# Si number density = 24.153234 Si / 1000 Ang^3
#
#
#
# Elastic Constant Matrix: (Units=GPa)
#
#
# Indices 1 2 3 4 5 6 
#
# 1 202.0155 66.4869 86.8900 6.1945 -19.9463 28.4663
# 2 66.4869 47.5467 28.8510 -10.1204 -6.5511 17.1363
# 3 86.8900 28.8510 177.4296 -4.8956 -48.9467 12.8479
# 4 6.1945 -10.1204 -4.8956 27.7843 -2.1135 -6.2807
# 5 -19.9463 -6.5511 -48.9467 -2.1135 62.5571 -6.7414
# 6 28.4663 17.1363 12.8479 -6.2807 -6.7414 40.8648
#
#
#
# Elastic Compliance Matrix: (Units=1/GPa)
#
#
# Indices 1 2 3 4 5 6 
#
# 1 0.012773 -0.016993 -0.004007 -0.010384 -0.001446 -0.002346
# 2 -0.016993 0.050971 0.001368 0.021192 0.001001 -0.006545
# 3 -0.004007 0.001368 0.009130 0.003688 0.006235 0.000943
# 4 -0.010384 0.021192 0.003688 0.048165 0.003987 0.005247
# 5 -0.001446 0.001001 0.006235 0.003987 0.020932 0.002693
# 6 -0.002346 -0.006545 0.000943 0.005247 0.002693 0.029804
#
#
# Mechanical properties :
#
#
# Convention : Reuss Voigt Hill
#
# Bulk Modulus (GPa) = 29.75345 87.93862 58.84603
# Shear Modulus (GPa) = 22.49799 42.55885 32.52842
#
# Velocity S-wave (km/s) = 3.05531 4.20221 3.67379
# Velocity P-wave (km/s) = 4.97915 7.74806 6.51246
#
# Compressibility (1/GPa) = 0.03360954
#
# Stress axis : x y z
#
# Youngs Moduli (GPa) = 78.29284 19.61890 109.53467
#
# Poissons Ratio (x) = 0.33338 0.43895
# Poissons Ratio (y) = 1.33041 -0.14987
# Poissons Ratio (z) = 0.31375 -0.02684
#
# Static dielectric constant tensor:
#      x y z
#    x 2.055500 -0.463830 -0.091580 
#    y -0.463830 3.058300 0.180490 
#    z -0.091580 0.180490 1.914330 
# 
# From -- ./inp_files/205177.got.cif
#   From: 2010.05.17/outbox.cif.g08.bks.cpg/sg2_103_cif.got.tgz:205177.got - 2010.06.03 11:33:40.
