data_PCOD9108056
_publ_section_title
;
Structure prediction by ZEFSAII (Michael W. Deem and Ramdas Pophale) SiO2 
 PCOD9108056
Probable space group: P -1
;
_chemical_formula_sum "Si O2"
_cell_formula_units_Z 16
_cell_length_a 11.851436
_cell_length_b 9.230501
_cell_length_c 12.501794
_cell_angle_alpha 131.189856
_cell_angle_beta 129.206194
_cell_angle_gamma 73.506000
_cell_volume 776.672206
_symmetry_space_group_name_H-M "P -1"
_symmetry_group_IT_number 2
_symmetry_cell_setting 'triclinic'
loop_
_space_group_symop_operation_xyz
x,y,z
-x,-y,-z
loop_
_atom_site_type_symbol
_atom_site_label
_atom_site_fract_x
_atom_site_fract_y
_atom_site_fract_z
Si Si1 0.040550 0.698994 0.834841
Si Si2 0.626605 0.815342 0.734931
Si Si3 0.377411 0.748400 0.043773
Si Si4 0.960378 0.904193 0.081641
Si Si5 0.911769 0.949822 0.310533
Si Si6 0.611902 0.618194 0.979628
Si Si7 0.123528 0.617274 0.547750
Si Si8 0.578260 0.469612 0.372881
O O1 0.935037 0.486528 0.650684
O O2 0.986455 0.870166 0.819143
O O3 0.202557 0.694934 0.884189
O O4 0.042332 0.770545 0.992691
O O5 0.629321 0.672536 0.566950
O O6 0.484829 0.704332 0.665466
O O7 0.602031 0.029316 0.793638
O O8 0.783235 0.845647 0.911048
O O9 0.396344 0.580139 0.055199
O O10 0.493589 0.735993 0.013963
O O11 0.987652 0.893580 0.219019
O O12 0.865946 0.151133 0.342204
O O13 0.771226 0.768333 0.155785
O O14 0.000000 0.000000 0.500000
O O15 0.561308 0.544333 0.795513
O O16 0.284314 0.569283 0.632298
O O17 0.000000 0.500000 0.500000
#
# Coordination Sequence:
#
# PCOD9108056 Si02
#       8
#     2   2   2   2   2   2   2   2
#     4  10  20  40  66  96 125 169 218 261 315 379
#     4  10  21  41  65  95 124 164 217 262 317 376
#     4  10  23  42  65  91 130 175 212 259 317 386
#     4  10  20  41  66  93 130 165 214 267 316 383
#     4  12  26  43  65  95 133 170 215 271 325 382
#     4  11  24  44  62  93 132 170 213 262 323 378
#     4  12  23  38  63 100 128 169 218 261 319 382
#     4  11  23  38  67  95 128 162 212 269 313 382
#
# _framework density 20.600709999999999
#
# number of rings (size 3 to 8) (size 9 to 14) (size 15 to 20)
#    0.000    1.250    3.750    2.250    1.750    2.500 
#    0.000    6.250    0.000    0.000    0.000    0.000 
#    0.000    0.000    0.000    0.000    0.000    0.000 
#
# Total GULP energy -89280.649856 kJ/mol
# GULP energy per Si atom -5580.040616 kJ/mol
# Density = 2.055382 g / cm^3
# Si number density = 20.600710 Si / 1000 Ang^3
#
#
#
# Elastic Constant Matrix: (Units=GPa)
#
#
# Indices 1 2 3 4 5 6 
#
# 1 90.5794 16.1758 25.8340 -2.6793 -6.3195 11.9412
# 2 16.1758 60.2779 34.8505 16.8664 -5.7688 4.9952
# 3 25.8340 34.8505 124.0639 2.1683 -5.1929 15.4130
# 4 -2.6793 16.8664 2.1683 34.2302 6.3950 -1.5120
# 5 -6.3195 -5.7688 -5.1929 6.3950 29.3175 -4.8824
# 6 11.9412 4.9952 15.4130 -1.5120 -4.8824 19.8969
#
#
#
# Elastic Compliance Matrix: (Units=1/GPa)
#
#
# Indices 1 2 3 4 5 6 
#
# 1 0.012730 -0.002796 -0.001165 0.002087 0.000577 -0.005735
# 2 -0.002796 0.025134 -0.006054 -0.013368 0.006284 0.000584
# 3 -0.001165 -0.006054 0.010687 0.002137 -0.001040 -0.006152
# 4 0.002087 -0.013368 0.002137 0.037714 -0.009880 0.000890
# 5 0.000577 0.006284 -0.001040 -0.009880 0.038712 0.007630
# 6 -0.005735 0.000584 -0.006152 0.000890 0.007630 0.060260
#
#
# Mechanical properties :
#
#
# Convention : Reuss Voigt Hill
#
# Bulk Modulus (GPa) = 35.06233 47.62688 41.34461
# Shear Modulus (GPa) = 23.28041 29.89298 26.58669
#
# Velocity S-wave (km/s) = 3.36531 3.81342 3.59635
# Velocity P-wave (km/s) = 5.67074 6.52371 6.11212
#
# Compressibility (1/GPa) = 0.02852063
#
# Stress axis : x y z
#
# Youngs Moduli (GPa) = 78.55653 39.78736 93.57150
#
# Poissons Ratio (x) = 0.11123 0.10903
# Poissons Ratio (y) = 0.21962 0.56647
# Poissons Ratio (z) = 0.09153 0.24087
#
# Static dielectric constant tensor:
#      x y z
#    x 1.776310 0.001680 -0.015010 
#    y 0.001680 1.729290 -0.021660 
#    z -0.015010 -0.021660 1.773670 
# 
# From -- ./inp_files/261560.got.cif
#   From: 2010.05.17/outbox.cif.g08.bks.cpg/sg2_131_cif.got.tgz:261560.got - 2010.06.03 11:33:40.
