data_PCOD9108774
_publ_section_title
;
Structure prediction by ZEFSAII (Michael W. Deem and Ramdas Pophale) SiO2 
 PCOD9108774
Probable space group: P -1
;
_chemical_formula_sum "Si O2"
_cell_formula_units_Z 16
_cell_length_a 7.597428
_cell_length_b 13.449769
_cell_length_c 16.635753
_cell_angle_alpha 43.479284
_cell_angle_beta 142.753506
_cell_angle_gamma 132.329069
_cell_volume 688.978794
_symmetry_space_group_name_H-M "P -1"
_symmetry_group_IT_number 2
_symmetry_cell_setting 'triclinic'
loop_
_space_group_symop_operation_xyz
x,y,z
-x,-y,-z
loop_
_atom_site_type_symbol
_atom_site_label
_atom_site_fract_x
_atom_site_fract_y
_atom_site_fract_z
Si Si1 0.073948 0.819305 0.574110
Si Si2 0.934112 0.098809 0.165878
Si Si3 0.971287 0.223086 0.663832
Si Si4 0.654583 0.368431 0.115072
Si Si5 0.702074 0.860538 0.568900
Si Si6 0.147016 0.628801 0.102389
Si Si7 0.396163 0.361553 0.603886
Si Si8 0.581450 0.776220 0.044423
O O1 0.941230 0.844378 0.597783
O O2 0.791337 0.767717 0.444401
O O3 0.259607 0.698475 0.731669
O O4 0.291675 0.964577 0.534062
O O5 0.154981 0.164176 0.280469
O O6 0.998861 0.229649 0.046439
O O7 0.587074 0.091931 0.070730
O O8 0.973990 0.936768 0.252513
O O9 0.627270 0.225001 0.525307
O O10 0.164141 0.351657 0.600746
O O11 0.096458 0.221946 0.801102
O O12 0.958789 0.461745 0.130648
O O13 0.500000 0.500000 0.000000
O O14 0.469099 0.256604 0.048236
O O15 0.314088 0.655661 0.232531
O O16 0.372771 0.647389 0.098257
O O17 0.500000 0.500000 0.500000
#
# Coordination Sequence:
#
# PCOD9108774 Si02
#       8
#     2   2   2   2   2   2   2   2
#     4  11  24  43  65  95 139 179 217 275 354 380
#     4  10  20  40  71  94 128 176 224 271 333 393
#     4  11  23  41  70 100 130 174 233 273 327 400
#     4  12  24  41  66  94 133 180 228 270 329 402
#     4  11  24  42  69  98 135 176 223 283 325 404
#     4   9  22  39  66  93 126 179 218 269 331 395
#     4  11  22  41  67  94 135 172 216 277 339 398
#     4   9  22  41  64  95 129 173 225 271 326 394
#
# _framework density 23.222776
#
# number of rings (size 3 to 8) (size 9 to 14) (size 15 to 20)
#    0.750    0.750    3.750    1.125    1.750    1.000 
#    0.000    1.250    0.000    0.000    0.000    0.000 
#    0.000    0.000    0.000    0.000    0.000    0.000 
#
# Total GULP energy -89228.321111 kJ/mol
# GULP energy per Si atom -5576.770069 kJ/mol
# Density = 2.316992 g / cm^3
# Si number density = 23.222776 Si / 1000 Ang^3
#
#
#
# Elastic Constant Matrix: (Units=GPa)
#
#
# Indices 1 2 3 4 5 6 
#
# 1 33.0596 4.8444 25.2922 2.6955 -9.4072 4.4484
# 2 4.8444 48.8975 21.0657 6.2418 -9.5356 13.1604
# 3 25.2922 21.0657 159.1310 13.8265 -24.7915 12.4350
# 4 2.6955 6.2418 13.8265 45.0248 -3.7443 -6.7767
# 5 -9.4072 -9.5356 -24.7915 -3.7443 29.1906 5.4303
# 6 4.4484 13.1604 12.4350 -6.7767 5.4303 31.4164
#
#
#
# Elastic Compliance Matrix: (Units=1/GPa)
#
#
# Indices 1 2 3 4 5 6 
#
# 1 0.036853 0.001981 -0.003880 -0.001428 0.010273 -0.006596
# 2 0.001981 0.027180 -0.000645 -0.004937 0.011011 -0.014379
# 3 -0.003880 -0.000645 0.008483 -0.002388 0.006204 -0.004126
# 4 -0.001428 -0.004937 -0.002388 0.024856 -0.002592 0.009025
# 5 0.010273 0.011011 0.006204 -0.002592 0.049380 -0.017617
# 6 -0.006596 -0.014379 -0.004126 0.009025 -0.017617 0.045413
#
#
# Mechanical properties :
#
#
# Convention : Reuss Voigt Hill
#
# Bulk Modulus (GPa) = 14.83030 38.16583 26.49806
# Shear Modulus (GPa) = 22.75537 33.78541 28.27039
#
# Velocity S-wave (km/s) = 3.13369 3.81837 3.49285
# Velocity P-wave (km/s) = 4.41512 5.99252 5.26325
#
# Compressibility (1/GPa) = 0.06742953
#
# Stress axis : x y z
#
# Youngs Moduli (GPa) = 27.13452 36.79151 117.88751
#
# Poissons Ratio (x) = -0.07289 0.45738
# Poissons Ratio (y) = -0.05376 0.07602
# Poissons Ratio (z) = 0.10528 0.02373
#
# Static dielectric constant tensor:
#      x y z
#    x 2.006140 0.066730 0.067990 
#    y 0.066730 1.931170 0.010220 
#    z 0.067990 0.010220 1.920240 
# 
# From -- ./inp_files/561374.got.cif
#   From: 2010.05.17/outbox.cif.g08.bks.cpg/sg2_281_cif.got.tgz:561374.got - 2010.06.03 11:33:40.
