data_PCOD9108745
_publ_section_title
;
Structure prediction by ZEFSAII (Michael W. Deem and Ramdas Pophale) SiO2 
 PCOD9108745
Probable space group: P -1
;
_chemical_formula_sum "Si O2"
_cell_formula_units_Z 12
_cell_length_a 10.159270
_cell_length_b 18.747930
_cell_length_c 14.587543
_cell_angle_alpha 21.258962
_cell_angle_beta 149.020206
_cell_angle_gamma 138.034897
_cell_volume 495.130632
_symmetry_space_group_name_H-M "P -1"
_symmetry_group_IT_number 2
_symmetry_cell_setting 'triclinic'
loop_
_space_group_symop_operation_xyz
x,y,z
-x,-y,-z
loop_
_atom_site_type_symbol
_atom_site_label
_atom_site_fract_x
_atom_site_fract_y
_atom_site_fract_z
Si Si1 0.458708 0.772731 0.747718
Si Si2 0.348699 0.842255 0.136835
Si Si3 0.451687 0.826157 0.886765
Si Si4 0.084771 0.092586 0.847453
Si Si5 0.837964 0.447381 0.882489
Si Si6 0.853613 0.734557 0.884533
O O1 0.471404 0.717768 0.928438
O O2 0.175886 0.800007 0.497639
O O3 0.500000 0.000000 0.500000
O O4 0.703870 0.650214 0.976644
O O5 0.555048 0.620729 0.506900
O O6 0.267807 0.911197 0.109716
O O7 0.073198 0.837355 0.931384
O O8 0.500000 0.000000 0.000000
O O9 0.228241 0.764763 0.884398
O O10 0.365127 0.071715 0.524920
O O11 0.730678 0.768903 0.175745
O O12 0.000000 0.000000 0.000000
O O13 0.004127 0.427041 0.913592
O O14 0.000000 0.500000 0.000000
#
# Coordination Sequence:
#
# PCOD9108745 Si02
#       6
#     2   2   2   2   2   2
#     4  10  20  40  71 100 134 176 222 272 333 400
#     4  12  25  44  69  97 133 179 228 281 336 396
#     4  11  22  44  70 103 135 177 223 276 335 397
#     4  12  21  41  76 100 130 180 226 270 337 398
#     4  12  27  43  65 100 138 177 230 277 333 402
#     4  11  21  44  69  96 138 175 221 276 334 398
#
# _framework density 24.236025999999999
#
# number of rings (size 3 to 8) (size 9 to 14) (size 15 to 20)
#    0.000    0.667    6.667    4.000    0.000    0.000 
#    0.000    5.833    0.000    0.000    0.000    0.000 
#    0.000    0.000    0.000    0.000    0.000    0.000 
#
# Total GULP energy -67208.630217 kJ/mol
# GULP energy per Si atom -5600.719185 kJ/mol
# Density = 2.418086 g / cm^3
# Si number density = 24.236026 Si / 1000 Ang^3
#
#
#
# Elastic Constant Matrix: (Units=GPa)
#
#
# Indices 1 2 3 4 5 6 
#
# 1 181.9470 43.9235 37.9538 3.1978 28.1923 -44.0632
# 2 43.9235 130.4450 43.1350 46.3511 3.1684 -9.5244
# 3 37.9538 43.1350 68.3862 24.1690 18.3099 -11.6391
# 4 3.1978 46.3511 24.1690 53.4551 2.9400 0.3710
# 5 28.1923 3.1684 18.3099 2.9400 33.0324 -2.5764
# 6 -44.0632 -9.5244 -11.6391 0.3710 -2.5764 47.8688
#
#
#
# Elastic Compliance Matrix: (Units=1/GPa)
#
#
# Indices 1 2 3 4 5 6 
#
# 1 0.009199 -0.003060 -0.001247 0.002978 -0.006572 0.007179
# 2 -0.003060 0.013540 -0.004905 -0.009598 0.004809 -0.000982
# 3 -0.001247 -0.004905 0.023986 -0.005935 -0.010986 0.003163
# 4 0.002978 -0.009598 -0.005935 0.029598 -0.001036 -0.000896
# 5 -0.006572 0.004809 -0.010986 -0.001036 0.041171 -0.005540
# 6 0.007179 -0.000982 0.003163 -0.000896 -0.005540 0.027782
#
#
# Mechanical properties :
#
#
# Convention : Reuss Voigt Hill
#
# Bulk Modulus (GPa) = 35.33267 70.08917 52.71092
# Shear Modulus (GPa) = 28.87949 43.92232 36.40090
#
# Velocity S-wave (km/s) = 3.45569 4.26170 3.87968
# Velocity P-wave (km/s) = 5.52563 7.29372 6.47035
#
# Compressibility (1/GPa) = 0.02830242
#
# Stress axis : x y z
#
# Youngs Moduli (GPa) = 108.70170 73.85417 41.69102
#
# Poissons Ratio (x) = 0.22598 0.05197
# Poissons Ratio (y) = 0.33261 0.20450
# Poissons Ratio (z) = 0.13551 0.36227
#
# Static dielectric constant tensor:
#      x y z
#    x 1.974760 0.009840 0.044740 
#    y 0.009840 1.980280 -0.012690 
#    z 0.044740 -0.012690 2.070870 
# 
# From -- ./inp_files/574313.got.cif
#   From: 2010.05.17/outbox.cif.g08.bks.cpg/sg2_288_cif.got.tgz:574313.got - 2010.06.03 11:33:40.
