data_PCOD9108707
_publ_section_title
;
Structure prediction by ZEFSAII (Michael W. Deem and Ramdas Pophale) SiO2 
 PCOD9108707
Probable space group: P -1
;
_chemical_formula_sum "Si O2"
_cell_formula_units_Z 15
_cell_length_a 7.770282
_cell_length_b 12.060244
_cell_length_c 12.180450
_cell_angle_alpha 59.053098
_cell_angle_beta 116.061864
_cell_angle_gamma 142.079734
_cell_volume 600.402737
_symmetry_space_group_name_H-M "P -1"
_symmetry_group_IT_number 2
_symmetry_cell_setting 'triclinic'
loop_
_space_group_symop_operation_xyz
x,y,z
-x,-y,-z
loop_
_atom_site_type_symbol
_atom_site_label
_atom_site_fract_x
_atom_site_fract_y
_atom_site_fract_z
Si Si1 0.841595 0.859515 0.924667
Si Si2 0.485523 0.547043 0.714563
Si Si3 0.886653 0.817216 0.330284
Si Si4 0.675034 0.847145 0.445984
Si Si5 0.199803 0.783570 0.002470
Si Si6 0.258398 0.868350 0.584371
Si Si7 0.500000 0.500000 0.000000
Si Si8 0.975340 0.583071 0.807336
O O1 0.532246 0.666457 0.973787
O O2 0.911005 0.980682 0.776993
O O3 0.951884 0.763011 0.982907
O O4 0.000000 0.000000 0.000000
O O5 0.217053 0.332244 0.713351
O O6 0.507375 0.685637 0.574039
O O7 0.494186 0.560757 0.840332
O O8 0.744910 0.583559 0.730879
O O9 0.654032 0.783734 0.349500
O O10 0.005149 0.792246 0.476371
O O11 0.637067 0.981324 0.368938
O O12 0.000000 0.000000 0.500000
O O13 0.160146 0.624678 0.127000
O O14 0.136200 0.710762 0.896819
O O15 0.500000 0.000000 0.000000
O O16 0.183217 0.698533 0.704556
O O17 0.500000 0.000000 0.500000
#
# Coordination Sequence:
#
# PCOD9108707 Si02
#       8
#     2   2   2   2   2   2   1   2
#     4  12  25  44  70 105 141 182 242 293 347 419
#     4  12  22  43  72 104 136 185 241 294 345 425
#     4  11  23  43  73 102 134 185 243 288 346 423
#     4  10  20  40  70  96 133 181 233 282 342 415
#     4  11  26  45  71 102 142 192 233 286 357 427
#     4  11  25  45  67 104 144 182 232 296 359 425
#     4  12  24  40  70 100 144 180 232 296 352 400
#     4  11  24  46  71 101 145 189 234 291 360 415
#
# _framework density 24.983232000000001
#
# number of rings (size 3 to 8) (size 9 to 14) (size 15 to 20)
#    0.000    0.800    5.333    3.600    0.000    3.200 
#    0.000    0.667    0.000    0.000    0.000    0.000 
#    0.000    0.000    0.000    0.000    0.000    0.000 
#
# Total GULP energy -83596.594000 kJ/mol
# GULP energy per Si atom -5573.106267 kJ/mol
# Density = 2.492637 g / cm^3
# Si number density = 24.983232 Si / 1000 Ang^3
#
#
#
# Elastic Constant Matrix: (Units=GPa)
#
#
# Indices 1 2 3 4 5 6 
#
# 1 40.0554 -2.5512 2.8736 1.9720 3.1077 -10.3868
# 2 -2.5512 155.7339 60.2313 -22.5425 4.8300 -24.8961
# 3 2.8736 60.2313 166.0310 -45.8431 -8.1407 -6.6433
# 4 1.9720 -22.5425 -45.8431 57.3220 -2.4320 -3.2729
# 5 3.1077 4.8300 -8.1407 -2.4320 30.4792 -1.5778
# 6 -10.3868 -24.8961 -6.6433 -3.2729 -1.5778 22.1730
#
#
#
# Elastic Compliance Matrix: (Units=1/GPa)
#
#
# Indices 1 2 3 4 5 6 
#
# 1 0.030254 0.004065 -0.001307 0.000419 -0.003103 0.018187
# 2 0.004065 0.009871 -0.002616 0.002279 -0.001853 0.012408
# 3 -0.001307 -0.002616 0.008919 0.006312 0.003449 0.000299
# 4 0.000419 0.002279 0.006312 0.024012 0.003635 0.008450
# 5 -0.003103 -0.001853 0.003449 0.003635 0.034657 0.000501
# 6 0.018187 0.012408 0.000299 0.008450 0.000501 0.068924
#
#
# Mechanical properties :
#
#
# Convention : Reuss Voigt Hill
#
# Bulk Modulus (GPa) = 20.27253 53.65866 36.96559
# Shear Modulus (GPa) = 25.93435 42.07929 34.00682
#
# Velocity S-wave (km/s) = 3.22540 4.10848 3.69343
# Velocity P-wave (km/s) = 4.69074 6.63556 5.74603
#
# Compressibility (1/GPa) = 0.04932783
#
# Stress axis : x y z
#
# Youngs Moduli (GPa) = 33.05323 101.31041 112.12471
#
# Poissons Ratio (x) = -0.41188 0.14657
# Poissons Ratio (y) = -0.13438 0.29334
# Poissons Ratio (z) = 0.04321 0.26505
#
# Static dielectric constant tensor:
#      x y z
#    x 1.985270 -0.173180 0.006360 
#    y -0.173180 1.898090 0.119030 
#    z 0.006360 0.119030 2.022160 
# 
# From -- ./inp_files/261131.got.cif
#   From: 2010.05.17/outbox.cif.g08.bks.cpg/sg2_131_cif.got.tgz:261131.got - 2010.06.03 11:33:40.
