data_PCOD9108130
_publ_section_title
;
Structure prediction by ZEFSAII (Michael W. Deem and Ramdas Pophale) SiO2 
 PCOD9108130
Probable space group: P -1
;
_chemical_formula_sum "Si O2"
_cell_formula_units_Z 13
_cell_length_a 6.974991
_cell_length_b 8.448996
_cell_length_c 9.266191
_cell_angle_alpha 77.395379
_cell_angle_beta 124.653849
_cell_angle_gamma 107.573013
_cell_volume 427.482431
_symmetry_space_group_name_H-M "P -1"
_symmetry_group_IT_number 2
_symmetry_cell_setting 'triclinic'
loop_
_space_group_symop_operation_xyz
x,y,z
-x,-y,-z
loop_
_atom_site_type_symbol
_atom_site_label
_atom_site_fract_x
_atom_site_fract_y
_atom_site_fract_z
Si Si1 0.500000 0.500000 0.500000
Si Si2 0.263743 0.737375 0.088057
Si Si3 0.715390 0.591767 0.953434
Si Si4 0.047015 0.564140 0.667723
Si Si5 0.541767 0.871522 0.463583
Si Si6 0.937486 0.110841 0.534722
Si Si7 0.202494 0.071391 0.950028
O O1 0.783913 0.507765 0.629529
O O2 0.552099 0.689707 0.565737
O O3 0.374763 0.825463 0.262660
O O4 0.981337 0.660911 0.987202
O O5 0.389849 0.580647 0.146404
O O6 0.287262 0.904382 0.970714
O O7 0.645249 0.764420 0.936049
O O8 0.769325 0.507070 0.144868
O O9 0.124527 0.756383 0.629744
O O10 0.000000 0.500000 0.500000
O O11 0.821183 0.913440 0.474498
O O12 0.666232 0.073392 0.520156
O O13 0.096010 0.135653 0.745465
O O14 0.000000 0.000000 0.000000
#
# Coordination Sequence:
#
# PCOD9108130 Si02
#       7
#     1   2   2   2   2   2   2
#     4  12  26  44  76 108 150 194 248 306 372 440
#     4  10  22  39  67 102 142 186 244 296 367 445
#     4  10  20  40  67 101 138 192 240 294 366 443
#     4  12  23  45  75 108 148 192 255 305 371 441
#     4  12  25  44  70 110 144 189 251 303 365 448
#     4  12  24  42  71 105 145 186 243 311 366 435
#     4  10  21  40  68 100 139 193 240 290 378 444
#
# _framework density 30.410605
#
# number of rings (size 3 to 8) (size 9 to 14) (size 15 to 20)
#    0.000    0.923    4.615    3.692    0.000    2.462 
#    0.000    3.077    0.000    2.769    0.000    0.000 
#    0.000    0.000    0.000    0.000    0.000    0.000 
#
# Total GULP energy -72396.106394 kJ/mol
# GULP energy per Si atom -5568.931261 kJ/mol
# Density = 3.034139 g / cm^3
# Si number density = 30.410605 Si / 1000 Ang^3
#
#
#
# Elastic Constant Matrix: (Units=GPa)
#
#
# Indices 1 2 3 4 5 6 
#
# 1 179.2203 78.8184 35.7875 19.1083 -11.6428 -7.2872
# 2 78.8184 294.1973 58.3701 9.8180 -5.8800 -35.9595
# 3 35.7875 58.3701 96.8825 15.4433 -17.3786 -16.0796
# 4 19.1083 9.8180 15.4433 51.0811 -6.1968 -4.2170
# 5 -11.6428 -5.8800 -17.3786 -6.1968 44.3506 4.4235
# 6 -7.2872 -35.9595 -16.0796 -4.2170 4.4235 78.5628
#
#
#
# Elastic Compliance Matrix: (Units=1/GPa)
#
#
# Indices 1 2 3 4 5 6 
#
# 1 0.006727 -0.001547 -0.001185 -0.001791 0.000893 -0.000473
# 2 -0.001547 0.004367 -0.001997 0.000382 -0.000707 0.001507
# 3 -0.001185 -0.001997 0.013343 -0.002592 0.004157 0.001334
# 4 -0.001791 0.000382 -0.002592 0.021179 0.001471 0.000532
# 5 0.000893 -0.000707 0.004157 0.001471 0.024592 -0.000695
# 6 -0.000473 0.001507 0.001334 0.000532 -0.000695 0.013715
#
#
# Mechanical properties :
#
#
# Convention : Reuss Voigt Hill
#
# Bulk Modulus (GPa) = 66.76677 101.80577 84.28627
# Shear Modulus (GPa) = 50.82546 61.28716 56.05631
#
# Velocity S-wave (km/s) = 4.09260 4.49410 4.29804
# Velocity P-wave (km/s) = 6.65847 7.77683 7.23928
#
# Compressibility (1/GPa) = 0.01497751
#
# Stress axis : x y z
#
# Youngs Moduli (GPa) = 148.66328 228.98246 74.94448
#
# Poissons Ratio (x) = 0.35427 0.08884
# Poissons Ratio (y) = 0.23001 0.14968
# Poissons Ratio (z) = 0.17623 0.45731
#
# Static dielectric constant tensor:
#      x y z
#    x 2.919650 -0.051650 -0.004100 
#    y -0.051650 2.329310 -0.273880 
#    z -0.004100 -0.273880 2.430670 
# 
# From -- ./inp_files/375984.got.cif
#   From: 2010.05.17/outbox.cif.g08.bks.cpg/sg2_188_cif.got.tgz:375984.got - 2010.06.03 11:33:40.
