data_PCOD9108059
_publ_section_title
;
Structure prediction by ZEFSAII (Michael W. Deem and Ramdas Pophale) SiO2 
 PCOD9108059
Probable space group: P -1
;
_chemical_formula_sum "Si O2"
_cell_formula_units_Z 14
_cell_length_a 10.485281
_cell_length_b 12.113520
_cell_length_c 11.175183
_cell_angle_alpha 49.344514
_cell_angle_beta 123.775385
_cell_angle_gamma 141.342169
_cell_volume 669.310170
_symmetry_space_group_name_H-M "P -1"
_symmetry_group_IT_number 2
_symmetry_cell_setting 'triclinic'
loop_
_space_group_symop_operation_xyz
x,y,z
-x,-y,-z
loop_
_atom_site_type_symbol
_atom_site_label
_atom_site_fract_x
_atom_site_fract_y
_atom_site_fract_z
Si Si1 0.983696 0.848249 0.513324
Si Si2 0.817816 0.314299 0.677687
Si Si3 0.476482 0.419911 0.176082
Si Si4 0.264207 0.792973 0.015345
Si Si5 0.905363 0.675831 0.358470
Si Si6 0.840007 0.594416 0.826978
Si Si7 0.420507 0.076281 0.489446
O O1 0.913653 0.810772 0.364598
O O2 0.834623 0.649559 0.649860
O O3 0.000000 0.000000 0.500000
O O4 0.208253 0.922395 0.555978
O O5 0.815506 0.277743 0.840973
O O6 0.922107 0.534391 0.542865
O O7 0.589546 0.197744 0.594113
O O8 0.920101 0.246211 0.704448
O O9 0.694572 0.559411 0.259106
O O10 0.306221 0.403733 0.168197
O O11 0.407804 0.209625 0.304077
O O12 0.500000 0.500000 0.000000
O O13 0.244783 0.622915 0.062623
O O14 0.078457 0.761338 0.874468
O O15 0.500000 0.000000 0.000000
O O16 0.500000 0.000000 0.500000
#
# Coordination Sequence:
#
# PCOD9108059 Si02
#       7
#     2   2   2   2   2   2   2
#     4  12  23  43  67  97 136 179 233 285 344 409
#     4  10  20  40  66  96 129 174 231 280 335 408
#     4  11  25  44  66  98 140 182 226 291 359 411
#     4  11  24  43  68 100 138 183 225 281 357 422
#     4  10  22  39  67  95 129 178 229 280 337 411
#     4  11  25  44  66  99 143 180 227 294 345 414
#     4  11  23  41  69 101 134 178 233 283 342 416
#
# _framework density 20.917059999999999
#
# number of rings (size 3 to 8) (size 9 to 14) (size 15 to 20)
#    0.000    1.143    4.286    1.714    0.000    6.286 
#    0.000    0.714    0.000    0.000    0.000    0.000 
#    0.000    0.000    0.000    0.000    0.000    0.000 
#
# Total GULP energy -78084.251977 kJ/mol
# GULP energy per Si atom -5577.446570 kJ/mol
# Density = 2.086945 g / cm^3
# Si number density = 20.917060 Si / 1000 Ang^3
#
#
#
# Elastic Constant Matrix: (Units=GPa)
#
#
# Indices 1 2 3 4 5 6 
#
# 1 170.2205 37.5557 54.8532 -2.3811 -11.0443 -1.1058
# 2 37.5557 92.9486 14.7663 5.4832 1.5713 8.4493
# 3 54.8532 14.7663 82.2001 9.6587 -11.5104 -5.3763
# 4 -2.3811 5.4832 9.6587 21.6757 -3.7564 -4.4628
# 5 -11.0443 1.5713 -11.5104 -3.7564 32.1272 1.2507
# 6 -1.1058 8.4493 -5.3763 -4.4628 1.2507 37.5317
#
#
#
# Elastic Compliance Matrix: (Units=1/GPa)
#
#
# Indices 1 2 3 4 5 6 
#
# 1 0.008406 -0.002892 -0.005347 0.004442 0.001611 0.000607
# 2 -0.002892 0.012587 -0.000331 -0.004425 -0.002113 -0.003422
# 3 -0.005347 -0.000331 0.017224 -0.007293 0.003442 0.001402
# 4 0.004442 -0.004425 -0.007293 0.053159 0.005103 0.006233
# 5 0.001611 -0.002113 0.003442 0.005103 0.033594 0.000503
# 6 0.000607 -0.003422 0.001402 0.006233 0.000503 0.028358
#
#
# Mechanical properties :
#
#
# Convention : Reuss Voigt Hill
#
# Bulk Modulus (GPa) = 47.44291 62.19108 54.81700
# Shear Modulus (GPa) = 28.17008 34.14654 31.15831
#
# Velocity S-wave (km/s) = 3.67379 4.04477 3.86374
# Velocity P-wave (km/s) = 6.38172 7.18403 6.79473
#
# Compressibility (1/GPa) = 0.02107796
#
# Stress axis : x y z
#
# Youngs Moduli (GPa) = 118.95829 79.44431 58.06020
#
# Poissons Ratio (x) = 0.22972 0.31043
# Poissons Ratio (y) = 0.34398 0.01923
# Poissons Ratio (z) = 0.63604 0.02632
#
# Static dielectric constant tensor:
#      x y z
#    x 1.798280 0.000510 0.073640 
#    y 0.000510 1.839660 0.017750 
#    z 0.073640 0.017750 1.867920 
# 
# From -- ./inp_files/392206.got.cif
#   From: 2010.05.17/outbox.cif.g08.bks.cpg/sg2_197_cif.got.tgz:392206.got - 2010.06.03 11:33:40.
