data_PCOD9108771
_publ_section_title
;
Structure prediction by ZEFSAII (Michael W. Deem and Ramdas Pophale) SiO2 
 PCOD9108771
Probable space group: P -1
;
_chemical_formula_sum "Si O2"
_cell_formula_units_Z 14
_cell_length_a 5.050337
_cell_length_b 19.157664
_cell_length_c 7.326904
_cell_angle_alpha 59.612141
_cell_angle_beta 66.980158
_cell_angle_gamma 95.121681
_cell_volume 524.731340
_symmetry_space_group_name_H-M "P -1"
_symmetry_group_IT_number 2
_symmetry_cell_setting 'triclinic'
loop_
_space_group_symop_operation_xyz
x,y,z
-x,-y,-z
loop_
_atom_site_type_symbol
_atom_site_label
_atom_site_fract_x
_atom_site_fract_y
_atom_site_fract_z
Si Si1 0.517946 0.356337 0.966540
Si Si2 0.540832 0.012344 0.211689
Si Si3 0.826590 0.542075 0.753512
Si Si4 0.502896 0.588379 0.481953
Si Si5 0.056262 0.888579 0.713710
Si Si6 0.448602 0.131705 0.816000
Si Si7 0.157150 0.726568 0.727198
O O1 0.787617 0.450450 0.784051
O O2 0.468540 0.344823 0.777304
O O3 0.644351 0.298859 0.138761
O O4 0.171486 0.347706 0.137280
O O5 0.661878 0.073520 0.271747
O O6 0.178324 0.959065 0.424091
O O7 0.671340 0.935516 0.233379
O O8 0.645785 0.081128 0.927725
O O9 0.769494 0.607804 0.534588
O O10 0.175897 0.572150 0.690165
O O11 0.500000 0.500000 0.000000
O O12 0.500000 0.500000 0.500000
O O13 0.043857 0.800333 0.742167
O O14 0.776938 0.871925 0.951396
O O15 0.627736 0.225806 0.562521
#
# Coordination Sequence:
#
# PCOD9108771 Si02
#       7
#     2   2   2   2   2   2   2
#     4  11  23  46  61  90 133 168 207 247 329 376
#     4   9  20  38  64  92 116 161 222 279 311 359
#     4  11  22  41  70 102 123 157 221 276 306 369
#     4  10  20  40  71  91 124 168 210 261 310 372
#     4  10  21  39  62  91 120 167 221 259 321 380
#     4  10  21  39  62  91 125 163 216 268 323 363
#     4  11  26  41  62  91 137 175 202 260 315 406
#
# _framework density 26.680319999999998
#
# number of rings (size 3 to 8) (size 9 to 14) (size 15 to 20)
#    0.000    1.714    0.000    5.571    4.000    0.000 
#   12.857    0.000    0.000    0.000    0.000    0.000 
#    0.000    0.000    0.000    0.000    0.000    0.000 
#
# Total GULP energy -78083.644923 kJ/mol
# GULP energy per Si atom -5577.403209 kJ/mol
# Density = 2.661959 g / cm^3
# Si number density = 26.680320 Si / 1000 Ang^3
#
#
#
# Elastic Constant Matrix: (Units=GPa)
#
#
# Indices 1 2 3 4 5 6 
#
# 1 115.0877 -2.6424 50.9225 -2.6935 -2.9469 -19.3108
# 2 -2.6424 35.4092 18.0487 11.5149 -16.9110 -14.7640
# 3 50.9225 18.0487 199.1749 4.8340 1.1365 -19.5108
# 4 -2.6935 11.5149 4.8340 50.7670 -9.3483 -11.7246
# 5 -2.9469 -16.9110 1.1365 -9.3483 50.4344 12.7801
# 6 -19.3108 -14.7640 -19.5108 -11.7246 12.7801 29.6624
#
#
#
# Elastic Compliance Matrix: (Units=1/GPa)
#
#
# Indices 1 2 3 4 5 6 
#
# 1 0.011566 0.005735 -0.002637 0.001783 0.000694 0.009056
# 2 0.005735 0.043700 -0.003698 -0.003392 0.010037 0.017387
# 3 -0.002637 -0.003698 0.006169 0.000077 -0.001856 0.001331
# 4 0.001783 -0.003392 0.000077 0.022604 0.001136 0.007969
# 5 0.000694 0.010037 -0.001856 0.001136 0.025034 -0.006111
# 6 0.009056 0.017387 0.001331 0.007969 -0.006111 0.054920
#
#
# Mechanical properties :
#
#
# Convention : Reuss Voigt Hill
#
# Bulk Modulus (GPa) = 16.60170 53.59216 35.09693
# Shear Modulus (GPa) = 26.98728 45.06229 36.02479
#
# Velocity S-wave (km/s) = 3.18387 4.11417 3.67855
# Velocity P-wave (km/s) = 4.44432 6.53444 5.58797
#
# Compressibility (1/GPa) = 0.06023481
#
# Stress axis : x y z
#
# Youngs Moduli (GPa) = 86.45711 22.88330 162.09946
#
# Poissons Ratio (x) = -0.13122 0.42745
# Poissons Ratio (y) = -0.49579 0.59942
# Poissons Ratio (z) = 0.22799 0.08462
#
# Static dielectric constant tensor:
#      x y z
#    x 2.129830 0.059470 0.033610 
#    y 0.059470 2.442300 0.093980 
#    z 0.033610 0.093980 2.154410 
# 
# From -- ./inp_files/142530.got.cif
#   From: 2010.05.17/outbox.cif.g08.bks.cpg/sg2_72_cif.got.tgz:142530.got - 2010.06.03 11:33:40.
