data_PCOD9108962
_publ_section_title
;
Structure prediction by ZEFSAII (Michael W. Deem and Ramdas Pophale) SiO2 
 PCOD9108962
Probable space group: P -1
;
_chemical_formula_sum "Si O2"
_cell_formula_units_Z 10
_cell_length_a 12.749872
_cell_length_b 7.495576
_cell_length_c 9.527798
_cell_angle_alpha 64.311825
_cell_angle_beta 48.266343
_cell_angle_gamma 101.560169
_cell_volume 420.411775
_symmetry_space_group_name_H-M "P -1"
_symmetry_group_IT_number 2
_symmetry_cell_setting 'triclinic'
loop_
_space_group_symop_operation_xyz
x,y,z
-x,-y,-z
loop_
_atom_site_type_symbol
_atom_site_label
_atom_site_fract_x
_atom_site_fract_y
_atom_site_fract_z
Si Si1 0.578833 0.872975 0.177766
Si Si2 0.090503 0.495475 0.239897
Si Si3 0.003673 0.192490 0.695601
Si Si4 0.424120 0.453362 0.241050
Si Si5 0.629834 0.333427 0.291868
O O1 0.510131 0.746806 0.127597
O O2 0.395944 0.658380 0.523016
O O3 0.696485 0.201552 0.983366
O O4 0.766948 0.915088 0.037124
O O5 0.007212 0.250899 0.506451
O O6 0.954770 0.555022 0.347653
O O7 0.150391 0.476811 0.041161
O O8 0.179395 0.215907 0.554053
O O9 0.515682 0.379911 0.284527
O O10 0.500000 0.500000 0.000000
O O11 0.500000 0.000000 0.500000
#
# Coordination Sequence:
#
# PCOD9108962 Si02
#       5
#     2   2   2   2   2
#     4   9  21  38  64  81 123 157 184 244 302 331
#     4   8  17  40  60  84 125 149 184 248 296 338
#     4   9  19  38  60  89 118 149 199 237 286 351
#     4  12  23  37  63  90 115 154 207 236 278 357
#     4  10  20  41  61  84 122 158 182 248 304 335
#
# _framework density 23.786206
#
# number of rings (size 3 to 8) (size 9 to 14) (size 15 to 20)
#    1.200    1.200    2.000    0.600    0.000    2.400 
#    0.000    1.000    0.000    0.000    0.000    0.000 
#    0.000    0.000    0.000    0.000    0.000    0.000 
#
# Total GULP energy -55752.590047 kJ/mol
# GULP energy per Si atom -5575.259005 kJ/mol
# Density = 2.373207 g / cm^3
# Si number density = 23.786206 Si / 1000 Ang^3
#
#
#
# Elastic Constant Matrix: (Units=GPa)
#
#
# Indices 1 2 3 4 5 6 
#
# 1 49.4662 16.8165 3.7800 16.0583 -3.4765 -7.0866
# 2 16.8165 66.5267 22.7937 11.8627 8.4640 13.7989
# 3 3.7800 22.7937 112.2079 48.8947 4.2870 4.2756
# 4 16.0583 11.8627 48.8947 45.2709 -2.3252 8.6027
# 5 -3.4765 8.4640 4.2870 -2.3252 36.5672 7.7186
# 6 -7.0866 13.7989 4.2756 8.6027 7.7186 26.5908
#
#
#
# Elastic Compliance Matrix: (Units=1/GPa)
#
#
# Indices 1 2 3 4 5 6 
#
# 1 0.036016 -0.013248 0.012673 -0.027624 -0.001795 0.023894
# 2 -0.013248 0.023020 -0.008201 0.010737 -0.001302 -0.017254
# 3 0.012673 -0.008201 0.022917 -0.030205 -0.004687 0.015081
# 4 -0.027624 0.010737 -0.030205 0.068482 0.009764 -0.033067
# 5 -0.001795 -0.001302 -0.004687 0.009764 0.031014 -0.011211
# 6 0.023894 -0.017254 0.015081 -0.033067 -0.011211 0.064455
#
#
# Mechanical properties :
#
#
# Convention : Reuss Voigt Hill
#
# Bulk Modulus (GPa) = 15.52767 34.99791 25.26279
# Shear Modulus (GPa) = 17.54855 34.00647 25.77751
#
# Velocity S-wave (km/s) = 2.71912 3.78520 3.29556
# Velocity P-wave (km/s) = 4.04974 5.81800 5.01246
#
# Compressibility (1/GPa) = 0.06440116
#
# Stress axis : x y z
#
# Youngs Moduli (GPa) = 27.76568 43.44011 43.63529
#
# Poissons Ratio (x) = 0.57549 -0.55300
# Poissons Ratio (y) = 0.36784 0.35787
# Poissons Ratio (z) = -0.35188 0.35627
#
# Static dielectric constant tensor:
#      x y z
#    x 1.879540 -0.023800 -0.034090 
#    y -0.023800 2.037530 0.016920 
#    z -0.034090 0.016920 1.944560 
# 
# From -- ./inp_files/130680.got.cif
#   From: 2010.05.17/outbox.cif.g08.bks.cpg/sg2_66_cif.got.tgz:130680.got - 2010.06.03 11:33:40.
