data_PCOD9108065
_publ_section_title
;
Structure prediction by ZEFSAII (Michael W. Deem and Ramdas Pophale) SiO2 
 PCOD9108065
Probable space group: P -1
;
_chemical_formula_sum "Si O2"
_cell_formula_units_Z 15
_cell_length_a 14.479662
_cell_length_b 9.198121
_cell_length_c 17.917448
_cell_angle_alpha 130.105931
_cell_angle_beta 22.783709
_cell_angle_gamma 140.274190
_cell_volume 569.953349
_symmetry_space_group_name_H-M "P -1"
_symmetry_group_IT_number 2
_symmetry_cell_setting 'triclinic'
loop_
_space_group_symop_operation_xyz
x,y,z
-x,-y,-z
loop_
_atom_site_type_symbol
_atom_site_label
_atom_site_fract_x
_atom_site_fract_y
_atom_site_fract_z
Si Si1 0.731121 0.667761 0.949064
Si Si2 0.124764 0.341535 0.473925
Si Si3 0.500000 0.500000 0.500000
Si Si4 0.303533 0.719811 0.571630
Si Si5 0.805897 0.931780 0.367479
Si Si6 0.354634 0.796529 0.322507
Si Si7 0.665767 0.288318 0.176946
Si Si8 0.331495 0.055363 0.201136
O O1 0.958045 0.616895 0.796511
O O2 0.500000 0.500000 0.000000
O O3 0.540071 0.691822 0.160668
O O4 0.962976 0.919163 0.819742
O O5 0.350078 0.586903 0.428655
O O6 0.201009 0.195650 0.317217
O O7 0.913883 0.369736 0.588844
O O8 0.925672 0.170635 0.634940
O O9 0.858524 0.754892 0.306669
O O10 0.518752 0.366214 0.368639
O O11 0.458236 0.712073 0.529526
O O12 0.500000 0.000000 0.500000
O O13 0.760965 0.114958 0.499062
O O14 0.574826 0.040391 0.194294
O O15 0.543088 0.236366 0.168026
O O16 0.000000 0.500000 0.000000
O O17 0.500000 0.000000 0.000000
#
# Coordination Sequence:
#
# PCOD9108065 Si02
#       8
#     2   2   1   2   2   2   2   2
#     4  11  22  42  66  90 131 175 220 274 332 398
#     4  10  21  42  61  90 135 168 220 276 338 402
#     4  10  20  40  66  96 132 174 212 280 344 402
#     4  10  22  43  67  94 131 178 223 280 333 396
#     4  10  23  40  67  97 128 170 225 277 339 398
#     4  10  22  38  62  93 123 171 221 271 334 400
#     4  10  21  36  61  91 129 168 220 272 331 406
#     4  10  23  39  63  96 130 177 220 276 342 405
#
# _framework density 26.317943
#
# number of rings (size 3 to 8) (size 9 to 14) (size 15 to 20)
#    0.000    1.867    1.333    1.600    0.000   11.733 
#    0.000    0.000    0.000    0.000    0.000    0.000 
#    0.000    0.000    0.000    0.000    0.000    0.000 
#
# Total GULP energy -83663.466196 kJ/mol
# GULP energy per Si atom -5577.564413 kJ/mol
# Density = 2.625804 g / cm^3
# Si number density = 26.317943 Si / 1000 Ang^3
#
#
#
# Elastic Constant Matrix: (Units=GPa)
#
#
# Indices 1 2 3 4 5 6 
#
# 1 69.0381 25.7981 38.3664 8.2752 -4.6610 16.6221
# 2 25.7981 163.5430 37.5183 19.4422 1.1755 13.9305
# 3 38.3664 37.5183 119.5433 45.3791 -7.6065 17.4382
# 4 8.2752 19.4422 45.3791 67.9986 4.1414 5.9584
# 5 -4.6610 1.1755 -7.6065 4.1414 38.4904 -0.9393
# 6 16.6221 13.9305 17.4382 5.9584 -0.9393 55.0190
#
#
#
# Elastic Compliance Matrix: (Units=1/GPa)
#
#
# Indices 1 2 3 4 5 6 
#
# 1 0.019038 -0.001619 -0.005902 0.002359 0.000844 -0.003712
# 2 -0.001619 0.006821 -0.001231 -0.000829 -0.000577 -0.000768
# 3 -0.005902 -0.001231 0.014285 -0.008520 0.003027 -0.001459
# 4 0.002359 -0.000829 -0.008520 0.020568 -0.003588 -0.000091
# 5 0.000844 -0.000577 0.003027 -0.003588 0.027079 -0.000217
# 6 -0.003712 -0.000768 -0.001459 -0.000091 -0.000217 0.019960
#
#
# Mechanical properties :
#
#
# Convention : Reuss Voigt Hill
#
# Bulk Modulus (GPa) = 44.17167 61.72113 52.94640
# Shear Modulus (GPa) = 37.65019 48.99772 43.32395
#
# Velocity S-wave (km/s) = 3.78642 4.31949 4.06171
# Velocity P-wave (km/s) = 5.99468 6.95560 6.49294
#
# Compressibility (1/GPa) = 0.02263895
#
# Stress axis : x y z
#
# Youngs Moduli (GPa) = 52.52723 146.61608 70.00305
#
# Poissons Ratio (x) = 0.23744 0.41315
# Poissons Ratio (y) = 0.08506 0.08616
# Poissons Ratio (z) = 0.31001 0.18046
#
# Static dielectric constant tensor:
#      x y z
#    x 1.388830 0.465190 0.076930 
#    y 0.465190 1.719960 -0.145720 
#    z 0.076930 -0.145720 2.061780 
# 
# From -- ./inp_files/600080.got.cif
#   From: 2010.05.17/outbox.cif.g08.bks.cpg/sg2_301_cif.got.tgz:600080.got - 2010.06.03 11:33:40.
