data_PCOD9108224
_publ_section_title
;
Structure prediction by ZEFSAII (Michael W. Deem and Ramdas Pophale) SiO2 
 PCOD9108224
Probable space group: P -1
;
_chemical_formula_sum "Si O2"
_cell_formula_units_Z 14
_cell_length_a 10.620550
_cell_length_b 8.514632
_cell_length_c 9.667504
_cell_angle_alpha 53.904811
_cell_angle_beta 120.496545
_cell_angle_gamma 127.115793
_cell_volume 547.411891
_symmetry_space_group_name_H-M "P -1"
_symmetry_group_IT_number 2
_symmetry_cell_setting 'triclinic'
loop_
_space_group_symop_operation_xyz
x,y,z
-x,-y,-z
loop_
_atom_site_type_symbol
_atom_site_label
_atom_site_fract_x
_atom_site_fract_y
_atom_site_fract_z
Si Si1 0.060379 0.068169 0.331836
Si Si2 0.782601 0.231717 0.137585
Si Si3 0.638105 0.584669 0.156451
Si Si4 0.563399 0.118341 0.329488
Si Si5 0.233284 0.340764 0.528348
Si Si6 0.266252 0.795500 0.191234
Si Si7 0.904257 0.729028 0.028968
O O1 0.211329 0.204511 0.445643
O O2 0.936160 0.178364 0.230339
O O3 0.116317 0.125458 0.178009
O O4 0.949256 0.813662 0.431018
O O5 0.680581 0.107323 0.278915
O O6 0.828048 0.481512 0.062376
O O7 0.703003 0.193962 0.961685
O O8 0.652171 0.363008 0.300807
O O9 0.642440 0.659518 0.280538
O O10 0.805491 0.743198 0.097805
O O11 0.500000 0.500000 0.000000
O O12 0.500000 0.000000 0.500000
O O13 0.396062 0.023129 0.201735
O O14 0.271548 0.582802 0.373924
O O15 0.088094 0.774244 0.130916
#
# Coordination Sequence:
#
# PCOD9108224 Si02
#       7
#     2   2   2   2   2   2   2
#     4  10  21  41  65 102 123 163 217 265 318 369
#     4  10  20  40  67  93 129 164 210 267 313 378
#     4  11  27  46  59  93 136 172 208 260 326 384
#     4  11  24  42  64  93 129 171 215 255 317 377
#     4  11  22  40  65  95 134 160 214 270 312 375
#     4  11  20  41  66  98 122 166 217 262 313 378
#     4  10  21  42  70  88 124 172 214 261 320 376
#
# _framework density 25.57489
#
# number of rings (size 3 to 8) (size 9 to 14) (size 15 to 20)
#    0.000    1.429    4.286    1.286    4.000    2.286 
#    5.143    1.429    0.000    0.000    0.000    0.000 
#    0.000    0.000    0.000    0.000    0.000    0.000 
#
# Total GULP energy -78086.481640 kJ/mol
# GULP energy per Si atom -5577.605831 kJ/mol
# Density = 2.551668 g / cm^3
# Si number density = 25.574890 Si / 1000 Ang^3
#
#
#
# Elastic Constant Matrix: (Units=GPa)
#
#
# Indices 1 2 3 4 5 6 
#
# 1 68.0149 15.1725 43.5951 -3.2986 -21.5603 0.4915
# 2 15.1725 92.2657 40.9469 7.2565 -6.3575 0.2768
# 3 43.5951 40.9469 144.8701 12.7134 -35.4145 -10.7155
# 4 -3.2986 7.2565 12.7134 62.8293 11.2226 -0.4809
# 5 -21.5603 -6.3575 -35.4145 11.2226 34.5425 -2.3763
# 6 0.4915 0.2768 -10.7155 -0.4809 -2.3763 18.8649
#
#
#
# Elastic Compliance Matrix: (Units=1/GPa)
#
#
# Indices 1 2 3 4 5 6 
#
# 1 0.020036 -0.001020 -0.003976 0.000542 0.007946 -0.001751
# 2 -0.001020 0.012675 -0.004107 -0.000238 -0.002633 -0.002830
# 3 -0.003976 -0.004107 0.013467 -0.004661 0.012724 0.009297
# 4 0.000542 -0.000238 -0.004661 0.018825 -0.010844 -0.003544
# 5 0.007946 -0.002633 0.012724 -0.010844 0.050900 0.013194
# 6 -0.001751 -0.002830 0.009297 -0.003544 0.013194 0.059948
#
#
# Mechanical properties :
#
#
# Convention : Reuss Voigt Hill
#
# Bulk Modulus (GPa) = 35.75107 56.06440 45.90773
# Shear Modulus (GPa) = 24.58428 36.94309 30.76368
#
# Velocity S-wave (km/s) = 3.10379 3.80479 3.47203
# Velocity P-wave (km/s) = 5.18209 6.42426 5.83632
#
# Compressibility (1/GPa) = 0.02797119
#
# Stress axis : x y z
#
# Youngs Moduli (GPa) = 49.90979 78.89736 74.25491
#
# Poissons Ratio (x) = 0.08050 0.29521
# Poissons Ratio (y) = 0.05092 0.30500
# Poissons Ratio (z) = 0.19842 0.32407
#
# Static dielectric constant tensor:
#      x y z
#    x 1.994050 0.002140 -0.016990 
#    y 0.002140 2.055330 0.135760 
#    z -0.016990 0.135760 2.384090 
# 
# From -- ./inp_files/242739.got.cif
#   From: 2010.05.17/outbox.cif.g08.bks.cpg/sg2_122_cif.got.tgz:242739.got - 2010.06.03 11:33:40.
