data_PCOD9108010
_publ_section_title
;
Structure prediction by ZEFSAII (Michael W. Deem and Ramdas Pophale) SiO2 
 PCOD9108010
Probable space group: P -1
;
_chemical_formula_sum "Si O2"
_cell_formula_units_Z 16
_cell_length_a 16.267026
_cell_length_b 9.466687
_cell_length_c 9.048732
_cell_angle_alpha 107.518829
_cell_angle_beta 97.610892
_cell_angle_gamma 137.500139
_cell_volume 749.723443
_symmetry_space_group_name_H-M "P -1"
_symmetry_group_IT_number 2
_symmetry_cell_setting 'triclinic'
loop_
_space_group_symop_operation_xyz
x,y,z
-x,-y,-z
loop_
_atom_site_type_symbol
_atom_site_label
_atom_site_fract_x
_atom_site_fract_y
_atom_site_fract_z
Si Si1 0.830900 0.783077 0.082255
Si Si2 0.356544 0.352745 0.498880
Si Si3 0.090457 0.982280 0.135600
Si Si4 0.888108 0.421178 0.848746
Si Si5 0.843930 0.314837 0.470143
Si Si6 0.360019 0.759458 0.205456
Si Si7 0.653344 0.759869 0.200159
Si Si8 0.666973 0.332190 0.474484
O O1 0.779745 0.844918 0.185050
O O2 0.829189 0.825624 0.922623
O O3 0.713227 0.479903 0.977851
O O4 0.992736 0.954903 0.196249
O O5 0.500000 0.500000 0.500000
O O6 0.210385 0.080815 0.296144
O O7 0.362553 0.310758 0.655691
O O8 0.340159 0.507382 0.524819
O O9 0.970824 0.700716 0.943270
O O10 0.858094 0.310921 0.648036
O O11 0.737179 0.236237 0.834027
O O12 0.000000 0.500000 0.000000
O O13 0.799594 0.423050 0.480473
O O14 0.000000 0.500000 0.500000
O O15 0.715158 0.018145 0.288459
O O16 0.346351 0.700118 0.359256
O O17 0.522977 0.036515 0.291779
O O18 0.500000 0.500000 0.000000
#
# Coordination Sequence:
#
# PCOD9108010 Si02
#       8
#     2   2   2   2   2   2   2   2
#     4  10  20  40  66  94 129 170 219 273 336 396
#     4  12  27  42  68 101 135 178 232 280 334 401
#     4  10  21  39  68  96 126 170 224 272 331 402
#     4  10  21  38  64  97 127 165 219 276 327 395
#     4  11  25  45  70  97 136 181 218 271 346 405
#     4   9  19  38  68  90 125 174 219 275 331 389
#     4  12  27  45  68  99 141 180 226 283 341 402
#     4  10  22  41  68  95 129 171 228 271 331 400
#
# _framework density 21.341204000000001
#
# number of rings (size 3 to 8) (size 9 to 14) (size 15 to 20)
#    0.000    1.500    1.250    3.000   10.500    0.500 
#    4.500    1.250    0.000    0.000    0.000    0.000 
#    0.000    0.000    0.000    0.000    0.000    0.000 
#
# Total GULP energy -89355.737123 kJ/mol
# GULP energy per Si atom -5584.733570 kJ/mol
# Density = 2.129263 g / cm^3
# Si number density = 21.341204 Si / 1000 Ang^3
#
#
#
# Elastic Constant Matrix: (Units=GPa)
#
#
# Indices 1 2 3 4 5 6 
#
# 1 139.8213 37.6697 27.9917 3.4380 -1.9601 10.2745
# 2 37.6697 56.1540 14.8703 12.6020 -1.2828 2.1357
# 3 27.9917 14.8703 90.7209 18.3354 13.2008 10.0857
# 4 3.4380 12.6020 18.3354 22.7303 -5.7864 2.2091
# 5 -1.9601 -1.2828 13.2008 -5.7864 37.8741 4.1069
# 6 10.2745 2.1357 10.0857 2.2091 4.1069 31.7932
#
#
#
# Elastic Compliance Matrix: (Units=1/GPa)
#
#
# Indices 1 2 3 4 5 6 
#
# 1 0.009677 -0.006794 -0.003116 0.005682 0.002485 -0.002398
# 2 -0.006794 0.025240 0.001061 -0.014536 -0.002246 0.001464
# 3 -0.003116 0.001061 0.016218 -0.014984 -0.007834 -0.002156
# 4 0.005682 -0.014536 -0.014984 0.067538 0.015649 -0.002821
# 5 0.002485 -0.002246 -0.007834 0.015649 0.031944 -0.003381
# 6 -0.002398 0.001464 -0.002156 -0.002821 -0.003381 0.033447
#
#
# Mechanical properties :
#
#
# Convention : Reuss Voigt Hill
#
# Bulk Modulus (GPa) = 29.90570 49.75108 39.82839
# Shear Modulus (GPa) = 23.48436 32.22380 27.85408
#
# Velocity S-wave (km/s) = 3.32086 3.89000 3.61664
# Velocity P-wave (km/s) = 5.36169 6.59841 6.01193
#
# Compressibility (1/GPa) = 0.03343844
#
# Stress axis : x y z
#
# Youngs Moduli (GPa) = 103.33255 39.61972 61.65921
#
# Poissons Ratio (x) = 0.26918 0.19211
# Poissons Ratio (y) = 0.70204 -0.06542
# Poissons Ratio (z) = 0.32194 -0.04204
#
# Static dielectric constant tensor:
#      x y z
#    x 1.820920 -0.037920 -0.003780 
#    y -0.037920 1.787180 0.044610 
#    z -0.003780 0.044610 1.773970 
# 
# From -- ./inp_files/299265.got.cif
#   From: 2010.05.17/outbox.cif.g08.bks.cpg/sg2_150_cif.got.tgz:299265.got - 2010.06.03 11:33:40.
