data_PCOD9108879
_publ_section_title
;
Structure prediction by ZEFSAII (Michael W. Deem and Ramdas Pophale) SiO2 
 PCOD9108879
Probable space group: P -1
;
_chemical_formula_sum "Si O2"
_cell_formula_units_Z 14
_cell_length_a 8.732733
_cell_length_b 6.942215
_cell_length_c 11.669071
_cell_angle_alpha 90.705349
_cell_angle_beta 68.848653
_cell_angle_gamma 52.777604
_cell_volume 499.407491
_symmetry_space_group_name_H-M "P -1"
_symmetry_group_IT_number 2
_symmetry_cell_setting 'triclinic'
loop_
_space_group_symop_operation_xyz
x,y,z
-x,-y,-z
loop_
_atom_site_type_symbol
_atom_site_label
_atom_site_fract_x
_atom_site_fract_y
_atom_site_fract_z
Si Si1 0.161779 0.849985 0.795471
Si Si2 0.177945 0.386431 0.804815
Si Si3 0.661764 0.762738 0.996106
Si Si4 0.011833 0.481099 0.359905
Si Si5 0.141349 0.795021 0.557106
Si Si6 0.611259 0.524636 0.722900
Si Si7 0.665700 0.250360 0.922692
O O1 0.217757 0.582914 0.790421
O O2 0.192334 0.882133 0.653940
O O3 0.364094 0.779076 0.809550
O O4 0.085755 0.930405 0.102101
O O5 0.922799 0.548566 0.899633
O O6 0.183740 0.307292 0.670821
O O7 0.326673 0.211218 0.868364
O O8 0.606029 0.551846 0.983347
O O9 0.381034 0.971289 0.048642
O O10 0.229745 0.429223 0.278062
O O11 0.000000 0.500000 0.500000
O O12 0.005053 0.258648 0.346631
O O13 0.337374 0.560462 0.425181
O O14 0.000000 0.000000 0.500000
O O15 0.668203 0.300047 0.786124
#
# Coordination Sequence:
#
# PCOD9108879 Si02
#       7
#     2   2   2   2   2   2   2
#     4  11  22  41  69 100 128 180 228 270 338 404
#     4  10  21  41  69  98 129 177 233 271 334 407
#     4  11  22  41  69  98 128 176 230 282 328 398
#     4   9  21  41  68  97 138 175 213 280 337 399
#     4  10  20  40  74  96 129 174 221 277 331 400
#     4  11  22  43  65  98 138 169 220 277 338 398
#     4  12  25  41  65  95 138 175 223 285 339 394
#
# _framework density 28.03322
#
# number of rings (size 3 to 8) (size 9 to 14) (size 15 to 20)
#    0.000    1.429    4.286    1.286    0.000    0.571 
#    0.000    5.000    3.143    0.000    0.000    0.000 
#    0.000    0.000    0.000    0.000    0.000    0.000 
#
# Total GULP energy -78048.022906 kJ/mol
# GULP energy per Si atom -5574.858779 kJ/mol
# Density = 2.796941 g / cm^3
# Si number density = 28.033220 Si / 1000 Ang^3
#
#
#
# Elastic Constant Matrix: (Units=GPa)
#
#
# Indices 1 2 3 4 5 6 
#
# 1 201.3867 77.7623 72.1932 -26.6247 5.6767 -16.5759
# 2 77.7623 144.9265 46.2229 -18.4290 10.9796 -0.6917
# 3 72.1932 46.2229 160.8508 -30.8806 12.8047 -8.9850
# 4 -26.6247 -18.4290 -30.8806 44.5966 -10.5208 -0.6889
# 5 5.6767 10.9796 12.8047 -10.5208 64.9277 -15.1551
# 6 -16.5759 -0.6917 -8.9850 -0.6889 -15.1551 64.5829
#
#
#
# Elastic Compliance Matrix: (Units=1/GPa)
#
#
# Indices 1 2 3 4 5 6 
#
# 1 0.007238 -0.003075 -0.001969 0.001954 0.001015 0.001810
# 2 -0.003075 0.009075 -0.001020 0.000914 -0.001173 -0.001100
# 3 -0.001969 -0.001020 0.008231 0.003992 -0.000503 0.000553
# 4 0.001954 0.000914 0.003992 0.027689 0.003906 0.002279
# 5 0.001015 -0.001173 -0.000503 0.003906 0.017239 0.004265
# 6 0.001810 -0.001100 0.000553 0.002279 0.004265 0.017039
#
#
# Mechanical properties :
#
#
# Convention : Reuss Voigt Hill
#
# Bulk Modulus (GPa) = 80.54796 99.94675 90.24735
# Shear Modulus (GPa) = 48.64843 55.55383 52.10113
#
# Velocity S-wave (km/s) = 4.17031 4.45647 4.31577
# Velocity P-wave (km/s) = 7.21000 7.88737 7.55628
#
# Compressibility (1/GPa) = 0.01241496
#
# Stress axis : x y z
#
# Youngs Moduli (GPa) = 138.16764 110.18883 121.48610
#
# Poissons Ratio (x) = 0.33884 0.23924
# Poissons Ratio (y) = 0.42488 0.12395
# Poissons Ratio (z) = 0.27209 0.11242
#
# Static dielectric constant tensor:
#      x y z
#    x 2.409180 0.341740 -0.196150 
#    y 0.341740 2.573340 -0.283590 
#    z -0.196150 -0.283590 1.834900 
# 
# From -- ./inp_files/378283.got.cif
#   From: 2010.05.17/outbox.cif.g08.bks.cpg/sg2_190_cif.got.tgz:378283.got - 2010.06.03 11:33:40.
