data_PCOD9108467
_publ_section_title
;
Structure prediction by ZEFSAII (Michael W. Deem and Ramdas Pophale) SiO2 
 PCOD9108467
Probable space group: P -1
;
_chemical_formula_sum "Si O2"
_cell_formula_units_Z 12
_cell_length_a 12.366814
_cell_length_b 9.120536
_cell_length_c 7.082324
_cell_angle_alpha 123.754152
_cell_angle_beta 70.815265
_cell_angle_gamma 131.686011
_cell_volume 494.925077
_symmetry_space_group_name_H-M "P -1"
_symmetry_group_IT_number 2
_symmetry_cell_setting 'triclinic'
loop_
_space_group_symop_operation_xyz
x,y,z
-x,-y,-z
loop_
_atom_site_type_symbol
_atom_site_label
_atom_site_fract_x
_atom_site_fract_y
_atom_site_fract_z
Si Si1 0.933012 0.796687 0.030002
Si Si2 0.351949 0.390835 0.111563
Si Si3 0.900518 0.160478 0.697947
Si Si4 0.104967 0.623646 0.780771
Si Si5 0.406088 0.811427 0.579339
Si Si6 0.397402 0.232148 0.332959
O O1 0.765936 0.681381 0.031693
O O2 0.986435 0.658878 0.823016
O O3 0.004889 0.876239 0.249314
O O4 0.000000 0.000000 0.000000
O O5 0.358161 0.578191 0.356237
O O6 0.334449 0.214104 0.145787
O O7 0.500000 0.500000 0.000000
O O8 0.015962 0.356940 0.632426
O O9 0.746997 0.929391 0.571389
O O10 0.859699 0.286389 0.956016
O O11 0.256687 0.765859 0.687690
O O12 0.504477 0.844847 0.726866
O O13 0.500000 0.000000 0.500000
O O14 0.500000 0.500000 0.500000
#
# Coordination Sequence:
#
# PCOD9108467 Si02
#       6
#     2   2   2   2   2   2
#     4  10  20  40  68  97 130 175 230 271 335 406
#     4  11  25  43  68  98 138 184 224 274 345 418
#     4   9  20  41  68 100 132 179 225 281 340 408
#     4   9  22  41  66 102 133 177 229 277 345 394
#     4  11  27  43  65 102 141 178 226 287 339 405
#     4  10  23  45  63  96 138 178 229 275 345 399
#
# _framework density 24.246095
#
# number of rings (size 3 to 8) (size 9 to 14) (size 15 to 20)
#    1.000    1.000    1.667    0.000    9.333    1.333 
#    0.000    3.333    0.000    0.000    0.000    0.000 
#    0.000    0.000    0.000    0.000    0.000    0.000 
#
# Total GULP energy -66950.750910 kJ/mol
# GULP energy per Si atom -5579.229243 kJ/mol
# Density = 2.419091 g / cm^3
# Si number density = 24.246095 Si / 1000 Ang^3
#
#
#
# Elastic Constant Matrix: (Units=GPa)
#
#
# Indices 1 2 3 4 5 6 
#
# 1 173.2476 74.3929 25.8346 -13.8672 5.0942 26.1513
# 2 74.3929 165.6617 20.2313 -14.3296 -1.7797 10.8840
# 3 25.8346 20.2313 72.2405 -3.7531 -10.5197 7.0054
# 4 -13.8672 -14.3296 -3.7531 33.7163 8.1204 2.4930
# 5 5.0942 -1.7797 -10.5197 8.1204 19.6087 -8.8459
# 6 26.1513 10.8840 7.0054 2.4930 -8.8459 61.9058
#
#
#
# Elastic Compliance Matrix: (Units=1/GPa)
#
#
# Indices 1 2 3 4 5 6 
#
# 1 0.008624 -0.003002 -0.002730 0.004068 -0.007485 -0.004040
# 2 -0.003002 0.007666 -0.000947 0.001876 0.000181 -0.000022
# 3 -0.002730 -0.000947 0.016445 -0.002415 0.010952 0.001121
# 4 0.004068 0.001876 -0.002415 0.037230 -0.020392 -0.006188
# 5 -0.007485 0.000181 0.010952 -0.020392 0.073222 0.013175
# 6 -0.004040 -0.000022 0.001121 -0.006188 0.013175 0.019869
#
#
# Mechanical properties :
#
#
# Convention : Reuss Voigt Hill
#
# Bulk Modulus (GPa) = 51.61212 72.45193 62.03203
# Shear Modulus (GPa) = 27.34136 42.42557 34.88346
#
# Velocity S-wave (km/s) = 3.36171 4.18759 3.79717
# Velocity P-wave (km/s) = 6.03333 7.30260 6.69810
#
# Compressibility (1/GPa) = 0.01937529
#
# Stress axis : x y z
#
# Youngs Moduli (GPa) = 115.95655 130.44618 60.80936
#
# Poissons Ratio (x) = 0.39165 0.16601
# Poissons Ratio (y) = 0.34815 0.05760
# Poissons Ratio (z) = 0.31657 0.12357
#
# Static dielectric constant tensor:
#      x y z
#    x 1.799250 -0.075070 0.023020 
#    y -0.075070 1.908640 0.038560 
#    z 0.023020 0.038560 2.063990 
# 
# From -- ./inp_files/244535.got.cif
#   From: 2010.05.17/outbox.cif.g08.bks.cpg/sg2_123_cif.got.tgz:244535.got - 2010.06.03 11:33:40.
