data_PCOD9108345
_publ_section_title
;
Structure prediction by ZEFSAII (Michael W. Deem and Ramdas Pophale) SiO2 
 PCOD9108345
Probable space group: P -1
;
_chemical_formula_sum "Si O2"
_cell_formula_units_Z 14
_cell_length_a 6.647075
_cell_length_b 11.021942
_cell_length_c 10.735602
_cell_angle_alpha 129.021690
_cell_angle_beta 92.588502
_cell_angle_gamma 63.308305
_cell_volume 512.947636
_symmetry_space_group_name_H-M "P -1"
_symmetry_group_IT_number 2
_symmetry_cell_setting 'triclinic'
loop_
_space_group_symop_operation_xyz
x,y,z
-x,-y,-z
loop_
_atom_site_type_symbol
_atom_site_label
_atom_site_fract_x
_atom_site_fract_y
_atom_site_fract_z
Si Si1 0.277195 0.852646 0.380125
Si Si2 0.971134 0.410594 0.603325
Si Si3 0.831021 0.341688 0.947914
Si Si4 0.322409 0.215218 0.254969
Si Si5 0.274030 0.785271 0.606029
Si Si6 0.746323 0.742331 0.234756
Si Si7 0.825202 0.062807 0.919456
O O1 0.279772 0.692503 0.198974
O O2 0.379471 0.798025 0.486540
O O3 0.462555 0.887855 0.336267
O O4 0.000000 0.000000 0.500000
O O5 0.845520 0.633030 0.756696
O O6 0.762461 0.383419 0.528019
O O7 0.168449 0.321338 0.442968
O O8 0.097890 0.301746 0.663125
O O9 0.118676 0.223026 0.849015
O O10 0.743226 0.270564 0.013593
O O11 0.768957 0.547957 0.087145
O O12 0.567078 0.206668 0.275884
O O13 0.339954 0.020116 0.120608
O O14 0.999906 0.949730 0.734007
O O15 0.000000 0.000000 0.000000
#
# Coordination Sequence:
#
# PCOD9108345 Si02
#       7
#     2   2   2   2   2   2   2
#     4  12  24  45  73 109 144 185 240 298 360 431
#     4  10  20  40  68 102 140 179 235 293 347 427
#     4  11  25  46  68 109 145 191 237 293 367 429
#     4  10  22  40  68 101 137 189 229 292 353 417
#     4  11  22  42  69 105 138 179 247 291 359 423
#     4  11  24  44  75 104 148 187 237 300 363 425
#     4  11  25  46  66  98 145 184 243 292 354 436
#
# _framework density 27.293234999999999
#
# number of rings (size 3 to 8) (size 9 to 14) (size 15 to 20)
#    0.000    1.143    4.286    1.714    0.000    2.286 
#    2.571    0.000    0.000    0.000    0.000    0.000 
#    0.000    0.000    0.000    0.000    0.000    0.000 
#
# Total GULP energy -78301.399868 kJ/mol
# GULP energy per Si atom -5592.957133 kJ/mol
# Density = 2.723111 g / cm^3
# Si number density = 27.293235 Si / 1000 Ang^3
#
#
#
# Elastic Constant Matrix: (Units=GPa)
#
#
# Indices 1 2 3 4 5 6 
#
# 1 202.9127 45.5983 28.0031 11.4913 4.5763 9.3193
# 2 45.5983 96.5771 26.7073 12.8441 9.1210 6.8392
# 3 28.0031 26.7073 91.2967 6.2357 33.5586 5.3920
# 4 11.4913 12.8441 6.2357 42.3754 12.6859 14.0151
# 5 4.5763 9.1210 33.5586 12.6859 47.2370 -4.6142
# 6 9.3193 6.8392 5.3920 14.0151 -4.6142 39.0678
#
#
#
# Elastic Compliance Matrix: (Units=1/GPa)
#
#
# Indices 1 2 3 4 5 6 
#
# 1 0.005667 -0.002253 -0.001397 -0.000863 0.001078 -0.000328
# 2 -0.002253 0.012593 -0.003057 -0.002944 0.000740 -0.000102
# 3 -0.001397 -0.003057 0.017002 0.004154 -0.012908 -0.004493
# 4 -0.000863 -0.002944 0.004154 0.031961 -0.012128 -0.012750
# 5 0.001078 0.000740 -0.012908 -0.012128 0.034307 0.009797
# 6 -0.000328 -0.000102 -0.004493 -0.012750 0.009797 0.032044
#
#
# Mechanical properties :
#
#
# Convention : Reuss Voigt Hill
#
# Bulk Modulus (GPa) = 45.77379 65.71154 55.74267
# Shear Modulus (GPa) = 32.41042 45.10123 38.75583
#
# Velocity S-wave (km/s) = 3.44973 4.06947 3.77235
# Velocity P-wave (km/s) = 5.71621 6.79773 6.28030
#
# Compressibility (1/GPa) = 0.02184656
#
# Stress axis : x y z
#
# Youngs Moduli (GPa) = 176.46160 79.41184 58.81503
#
# Poissons Ratio (x) = 0.17893 0.08217
# Poissons Ratio (y) = 0.39759 0.17982
# Poissons Ratio (z) = 0.24655 0.24279
#
# Static dielectric constant tensor:
#      x y z
#    x 2.131040 -0.011720 -0.027800 
#    y -0.011720 2.184180 0.058490 
#    z -0.027800 0.058490 2.122220 
# 
# From -- ./inp_files/365407.got.cif
#   From: 2010.05.17/outbox.cif.g08.bks.cpg/sg2_183_cif.got.tgz:365407.got - 2010.06.03 11:33:40.
