data_PCOD9108272
_publ_section_title
;
Structure prediction by ZEFSAII (Michael W. Deem and Ramdas Pophale) SiO2 
 PCOD9108272
Probable space group: P -1
;
_chemical_formula_sum "Si O2"
_cell_formula_units_Z 16
_cell_length_a 7.533331
_cell_length_b 15.556805
_cell_length_c 10.347551
_cell_angle_alpha 134.608238
_cell_angle_beta 119.183963
_cell_angle_gamma 82.124582
_cell_volume 711.391366
_symmetry_space_group_name_H-M "P -1"
_symmetry_group_IT_number 2
_symmetry_cell_setting 'triclinic'
loop_
_space_group_symop_operation_xyz
x,y,z
-x,-y,-z
loop_
_atom_site_type_symbol
_atom_site_label
_atom_site_fract_x
_atom_site_fract_y
_atom_site_fract_z
Si Si1 0.476274 0.797586 0.336100
Si Si2 0.267045 0.382751 0.673917
Si Si3 0.476944 0.288428 0.283930
Si Si4 0.632305 0.062237 0.786593
Si Si5 0.945839 0.440606 0.058198
Si Si6 0.068677 0.042154 0.919194
Si Si7 0.162652 0.806932 0.737154
Si Si8 0.426643 0.464556 0.258864
O O1 0.642309 0.719386 0.331392
O O2 0.486703 0.867861 0.276028
O O3 0.515483 0.909175 0.575966
O O4 0.239967 0.695068 0.154626
O O5 0.146641 0.464530 0.794975
O O6 0.477252 0.487938 0.797144
O O7 0.071407 0.294344 0.419795
O O8 0.695669 0.260879 0.361311
O O9 0.492799 0.346042 0.206249
O O10 0.459298 0.404534 0.485121
O O11 0.278701 0.163087 0.107331
O O12 0.866583 0.072534 0.821103
O O13 0.692080 0.126663 0.016615
O O14 0.175733 0.430182 0.168309
O O15 0.000000 0.500000 0.000000
O O16 0.119889 0.918724 0.757034
O O17 0.000000 0.000000 0.000000
#
# Coordination Sequence:
#
# PCOD9108272 Si02
#       8
#     2   2   2   2   2   2   2   2
#     4  11  24  44  68 100 140 183 234 275 351 413
#     4  12  25  46  75 100 138 188 232 285 351 416
#     4  11  24  42  65 107 141 171 232 295 347 408
#     4  10  23  42  70 101 133 183 226 292 343 410
#     4  12  26  44  70 100 136 188 231 280 340 425
#     4  10  20  40  67  96 134 180 224 283 346 407
#     4  11  23  41  72 103 135 179 233 290 347 409
#     4  11  25  44  68 102 142 180 228 291 344 410
#
# _framework density 22.491136999999998
#
# number of rings (size 3 to 8) (size 9 to 14) (size 15 to 20)
#    0.000    1.000    3.750    3.000    3.500    1.500 
#    2.250    0.000    0.000    3.750    0.000    0.000 
#    0.000    0.000    0.000    0.000    0.000    0.000 
#
# Total GULP energy -89324.282067 kJ/mol
# GULP energy per Si atom -5582.767629 kJ/mol
# Density = 2.243995 g / cm^3
# Si number density = 22.491137 Si / 1000 Ang^3
#
#
#
# Elastic Constant Matrix: (Units=GPa)
#
#
# Indices 1 2 3 4 5 6 
#
# 1 101.1181 40.6809 46.3278 24.9264 15.6099 -20.1192
# 2 40.6809 49.6886 11.9276 13.5946 3.5267 -13.8728
# 3 46.3278 11.9276 128.6537 16.1787 32.1499 8.2968
# 4 24.9264 13.5946 16.1787 36.1076 3.6912 2.0729
# 5 15.6099 3.5267 32.1499 3.6912 40.9465 0.6850
# 6 -20.1192 -13.8728 8.2968 2.0729 0.6850 26.8698
#
#
#
# Elastic Compliance Matrix: (Units=1/GPa)
#
#
# Indices 1 2 3 4 5 6 
#
# 1 0.022285 -0.010045 -0.006316 -0.009378 -0.002064 0.014227
# 2 -0.010045 0.032518 0.000507 -0.006190 0.001028 0.009562
# 3 -0.006316 0.000507 0.012333 -0.000160 -0.007170 -0.008080
# 4 -0.009378 -0.006190 -0.000160 0.037209 0.001098 -0.013067
# 5 -0.002064 0.001028 -0.007170 0.001098 0.030645 0.000333
# 6 0.014227 0.009562 -0.008080 -0.013067 0.000333 0.056301
#
#
# Mechanical properties :
#
#
# Convention : Reuss Voigt Hill
#
# Bulk Modulus (GPa) = 28.22563 53.03698 40.63130
# Shear Modulus (GPa) = 21.29394 32.81973 27.05683
#
# Velocity S-wave (km/s) = 3.08030 3.82413 3.47219
# Velocity P-wave (km/s) = 5.02274 6.56743 5.84632
#
# Compressibility (1/GPa) = 0.03542879
#
# Stress axis : x y z
#
# Youngs Moduli (GPa) = 44.87247 30.75237 81.08286
#
# Poissons Ratio (x) = 0.30890 0.51212
# Poissons Ratio (y) = 0.45074 -0.04112
# Poissons Ratio (z) = 0.28341 -0.01560
#
# Static dielectric constant tensor:
#      x y z
#    x 1.740850 0.041500 -0.080970 
#    y 0.041500 1.894080 -0.045150 
#    z -0.080970 -0.045150 1.872520 
# 
# From -- ./inp_files/399856.got.cif
#   From: 2010.05.17/outbox.cif.g08.bks.cpg/sg2_200_cif.got.tgz:399856.got - 2010.06.03 11:33:40.
