data_PCOD9108897
_publ_section_title
;
Structure prediction by ZEFSAII (Michael W. Deem and Ramdas Pophale) SiO2 
 PCOD9108897
Probable space group: P -1
;
_chemical_formula_sum "Si O2"
_cell_formula_units_Z 15
_cell_length_a 17.251634
_cell_length_b 14.137880
_cell_length_c 11.670944
_cell_angle_alpha 127.164941
_cell_angle_beta 149.948780
_cell_angle_gamma 31.984870
_cell_volume 658.077037
_symmetry_space_group_name_H-M "P -1"
_symmetry_group_IT_number 2
_symmetry_cell_setting 'triclinic'
loop_
_space_group_symop_operation_xyz
x,y,z
-x,-y,-z
loop_
_atom_site_type_symbol
_atom_site_label
_atom_site_fract_x
_atom_site_fract_y
_atom_site_fract_z
Si Si1 0.114458 0.954090 0.739608
Si Si2 0.475728 0.703398 0.371070
Si Si3 0.893832 0.698987 0.487935
Si Si4 0.223711 0.722045 0.265284
Si Si5 0.293455 0.081312 0.965855
Si Si6 0.816507 0.347865 0.369097
Si Si7 0.243943 0.097111 0.297282
Si Si8 0.000000 0.500000 0.000000
O O1 0.269661 0.981099 0.945871
O O2 0.890347 0.118340 0.668260
O O3 0.257913 0.743506 0.804053
O O4 0.000000 0.000000 0.500000
O O5 0.287819 0.746105 0.245663
O O6 0.596222 0.551015 0.311497
O O7 0.319457 0.913105 0.275331
O O8 0.732602 0.592748 0.687077
O O9 0.836573 0.794220 0.606781
O O10 0.000000 0.500000 0.500000
O O11 0.107150 0.636921 0.640059
O O12 0.606667 0.885215 0.192989
O O13 0.500000 0.500000 0.500000
O O14 0.017376 0.742388 0.999021
O O15 0.089497 0.185433 0.676577
O O16 0.194778 0.264541 0.032677
O O17 0.500000 0.000000 0.500000
#
# Coordination Sequence:
#
# PCOD9108897 Si02
#       8
#     2   2   2   2   2   2   2   1
#     4  10  22  43  68 104 138 177 239 304 360 424
#     4  11  24  45  71 103 142 186 242 294 361 426
#     4  12  25  44  66 105 146 191 239 297 372 434
#     4  12  26  45  72 104 138 190 243 291 363 438
#     4  10  21  42  71 102 140 187 243 295 358 435
#     4  10  23  43  70 103 141 191 238 299 362 431
#     4  12  27  47  71 102 147 188 242 303 361 434
#     4  10  20  40  76  98 140 182 244 292 354 420
#
# _framework density 22.793683000000001
#
# number of rings (size 3 to 8) (size 9 to 14) (size 15 to 20)
#    0.000    1.067    1.333    5.600    1.867    3.200 
#    2.400    2.000    0.000    0.000    0.000    0.000 
#    0.000    0.000    0.000    0.000    0.000    0.000 
#
# Total GULP energy -83712.885333 kJ/mol
# GULP energy per Si atom -5580.859022 kJ/mol
# Density = 2.274180 g / cm^3
# Si number density = 22.793683 Si / 1000 Ang^3
#
#
#
# Elastic Constant Matrix: (Units=GPa)
#
#
# Indices 1 2 3 4 5 6 
#
# 1 164.3759 72.8388 29.7964 8.1711 21.1688 -18.9556
# 2 72.8388 186.7470 31.4151 5.8034 14.2370 -11.2173
# 3 29.7964 31.4151 130.1710 -9.7326 6.9896 -14.1048
# 4 8.1711 5.8034 -9.7326 35.0207 -2.2311 -0.2753
# 5 21.1688 14.2370 6.9896 -2.2311 31.7353 -0.3544
# 6 -18.9556 -11.2173 -14.1048 -0.2753 -0.3544 43.9924
#
#
#
# Elastic Compliance Matrix: (Units=1/GPa)
#
#
# Indices 1 2 3 4 5 6 
#
# 1 0.008339 -0.002546 -0.000933 -0.002038 -0.004329 0.002597
# 2 -0.002546 0.006643 -0.000995 -0.000853 -0.001119 0.000263
# 3 -0.000933 -0.000995 0.008604 0.002751 -0.000609 0.002115
# 4 -0.002038 -0.000853 0.002751 0.030144 0.003255 0.000001
# 5 -0.004329 -0.001119 -0.000609 0.003255 0.035241 -0.002042
# 6 0.002597 0.000263 0.002115 0.000001 -0.002042 0.024579
#
#
# Mechanical properties :
#
#
# Convention : Reuss Voigt Hill
#
# Bulk Modulus (GPa) = 68.32161 83.26605 75.79383
# Shear Modulus (GPa) = 39.25321 45.29924 42.27623
#
# Velocity S-wave (km/s) = 4.15433 4.46282 4.31133
# Velocity P-wave (km/s) = 7.28356 7.94766 7.62285
#
# Compressibility (1/GPa) = 0.01463666
#
# Stress axis : x y z
#
# Youngs Moduli (GPa) = 119.91179 150.53129 116.23058
#
# Poissons Ratio (x) = 0.38331 0.10843
# Poissons Ratio (y) = 0.30534 0.11571
# Poissons Ratio (z) = 0.11187 0.14985
#
# Static dielectric constant tensor:
#      x y z
#    x 1.862690 0.014660 -0.042540 
#    y 0.014660 1.812110 -0.013020 
#    z -0.042540 -0.013020 1.925360 
# 
# From -- ./inp_files/465913.got.cif
#   From: 2010.05.17/outbox.cif.g08.bks.cpg/sg2_233_cif.got.tgz:465913.got - 2010.06.03 11:33:40.
