data_PCOD9108419
_publ_section_title
;
Structure prediction by ZEFSAII (Michael W. Deem and Ramdas Pophale) SiO2 
 PCOD9108419
Probable space group: P -1
;
_chemical_formula_sum "Si O2"
_cell_formula_units_Z 16
_cell_length_a 7.803897
_cell_length_b 16.955230
_cell_length_c 5.598491
_cell_angle_alpha 114.110184
_cell_angle_beta 116.538484
_cell_angle_gamma 74.463157
_cell_volume 601.595033
_symmetry_space_group_name_H-M "P -1"
_symmetry_group_IT_number 2
_symmetry_cell_setting 'triclinic'
loop_
_space_group_symop_operation_xyz
x,y,z
-x,-y,-z
loop_
_atom_site_type_symbol
_atom_site_label
_atom_site_fract_x
_atom_site_fract_y
_atom_site_fract_z
Si Si1 0.570487 0.087113 0.259269
Si Si2 0.007545 0.102365 0.087341
Si Si3 0.775228 0.338959 0.757624
Si Si4 0.984551 0.147638 0.619100
Si Si5 0.385929 0.341547 0.736306
Si Si6 0.044484 0.400253 0.330842
Si Si7 0.556585 0.169770 0.862705
Si Si8 0.695089 0.519848 0.769003
O O1 0.803885 0.088477 0.420729
O O2 0.509757 0.113616 0.525917
O O3 0.503404 0.151035 0.078502
O O4 0.500000 0.000000 0.000000
O O5 0.100633 0.131355 0.426915
O O6 0.088528 0.124320 0.905927
O O7 0.790764 0.152165 0.995860
O O8 0.000000 0.000000 0.000000
O O9 0.888434 0.246595 0.665048
O O10 0.547897 0.335898 0.625181
O O11 0.814023 0.424698 0.741890
O O12 0.848802 0.362903 0.095475
O O13 0.172745 0.335317 0.500637
O O14 0.468640 0.266544 0.870765
O O15 0.362418 0.436181 0.959971
O O16 0.185092 0.412447 0.208132
O O17 0.000000 0.500000 0.500000
O O18 0.500000 0.500000 0.500000
#
# Coordination Sequence:
#
# PCOD9108419 Si02
#       8
#     2   2   2   2   2   2   2   2
#     4  10  20  41  68  98 136 184 239 301 371 445
#     4  10  20  40  68  94 137 181 238 298 372 446
#     4  12  24  48  73 107 149 197 252 313 373 443
#     4  10  23  41  69 103 137 190 240 308 365 446
#     4  12  25  48  72 106 150 196 252 307 377 444
#     4  12  27  47  68 107 147 196 262 303 371 448
#     4  10  23  40  71 101 139 187 244 308 362 451
#     4  12  26  42  78 105 148 206 244 307 378 450
#
# _framework density 26.595965
#
# number of rings (size 3 to 8) (size 9 to 14) (size 15 to 20)
#    0.000    1.000    5.000    2.250    5.250    1.000 
#    0.000    7.500    0.000    0.000    0.000    0.000 
#    0.000    0.000    0.000    0.000    0.000    0.000 
#
# Total GULP energy -89508.750113 kJ/mol
# GULP energy per Si atom -5594.296882 kJ/mol
# Density = 2.653543 g / cm^3
# Si number density = 26.595965 Si / 1000 Ang^3
#
#
#
# Elastic Constant Matrix: (Units=GPa)
#
#
# Indices 1 2 3 4 5 6 
#
# 1 87.6738 18.4215 24.8755 -13.3868 1.0152 -13.3526
# 2 18.4215 129.4582 10.8218 -21.7898 -5.7527 -3.5083
# 3 24.8755 10.8218 134.6738 -10.5876 -24.0281 1.1258
# 4 -13.3868 -21.7898 -10.5876 55.5266 0.5819 -3.2591
# 5 1.0152 -5.7527 -24.0281 0.5819 42.3139 -3.7451
# 6 -13.3526 -3.5083 1.1258 -3.2591 -3.7451 30.1388
#
#
#
# Elastic Compliance Matrix: (Units=1/GPa)
#
#
# Indices 1 2 3 4 5 6 
#
# 1 0.013748 -0.001178 -0.002534 0.002746 -0.001421 0.006169
# 2 -0.001178 0.008493 -0.000013 0.003090 0.001218 0.000953
# 3 -0.002534 -0.000013 0.008873 0.000981 0.005020 -0.000726
# 4 0.002746 0.003090 0.000981 0.020287 0.000973 0.003854
# 5 -0.001421 0.001218 0.005020 0.000973 0.026915 0.002775
# 6 0.006169 0.000953 -0.000726 0.003854 0.002775 0.036812
#
#
# Mechanical properties :
#
#
# Convention : Reuss Voigt Hill
#
# Bulk Modulus (GPa) = 42.25733 51.11594 46.68664
# Shear Modulus (GPa) = 38.32421 45.44167 41.88294
#
# Velocity S-wave (km/s) = 3.80014 4.13800 3.97266
# Velocity P-wave (km/s) = 5.93109 6.48782 6.21569
#
# Compressibility (1/GPa) = 0.02366453
#
# Stress axis : x y z
#
# Youngs Moduli (GPa) = 72.74025 117.74186 112.69871
#
# Poissons Ratio (x) = 0.13873 0.28555
# Poissons Ratio (y) = 0.08570 0.00143
# Poissons Ratio (z) = 0.18431 0.00149
#
# Static dielectric constant tensor:
#      x y z
#    x 2.126510 0.089980 -0.088980 
#    y 0.089980 2.072330 -0.054450 
#    z -0.088980 -0.054450 2.171840 
# 
# From -- ./inp_files/49158.got.cif
#   From: 2010.05.17/outbox.cif.g08.bks.cpg/sg2_25_cif.got.tgz:49158.got - 2010.06.03 11:33:40.
