data_PCOD9108220
_publ_section_title
;
Structure prediction by ZEFSAII (Michael W. Deem and Ramdas Pophale) SiO2 
 PCOD9108220
Probable space group: P -1
;
_chemical_formula_sum "Si O2"
_cell_formula_units_Z 16
_cell_length_a 10.477636
_cell_length_b 9.979822
_cell_length_c 10.056111
_cell_angle_alpha 59.611679
_cell_angle_beta 79.861707
_cell_angle_gamma 108.933239
_cell_volume 779.869253
_symmetry_space_group_name_H-M "P -1"
_symmetry_group_IT_number 2
_symmetry_cell_setting 'triclinic'
loop_
_space_group_symop_operation_xyz
x,y,z
-x,-y,-z
loop_
_atom_site_type_symbol
_atom_site_label
_atom_site_fract_x
_atom_site_fract_y
_atom_site_fract_z
Si Si1 0.866920 0.395863 0.181061
Si Si2 0.560220 0.163245 0.802506
Si Si3 0.414492 0.173920 0.343664
Si Si4 0.568162 0.455196 0.843420
Si Si5 0.254356 0.372292 0.026460
Si Si6 0.620366 0.046726 0.285894
Si Si7 0.110740 0.677030 0.472036
Si Si8 0.902247 0.991587 0.646177
O O1 0.777725 0.201600 0.227255
O O2 0.892907 0.369705 0.345118
O O3 0.778423 0.509176 0.130057
O O4 0.000000 0.500000 0.000000
O O5 0.583530 0.338345 0.786290
O O6 0.718621 0.226224 0.665810
O O7 0.421327 0.080221 0.768489
O O8 0.500000 0.000000 0.000000
O O9 0.427619 0.360551 0.285191
O O10 0.528025 0.153703 0.234567
O O11 0.435620 0.091556 0.514744
O O12 0.255898 0.061289 0.363802
O O13 0.698150 0.518038 0.898249
O O14 0.399820 0.351471 0.982179
O O15 0.122591 0.172771 0.173454
O O16 0.050011 0.817964 0.395341
O O17 0.000000 0.500000 0.500000
O O18 0.000000 0.000000 0.500000
#
# Coordination Sequence:
#
# PCOD9108220 Si02
#       8
#     2   2   2   2   2   2   2   2
#     4  12  25  45  74 101 137 190 234 282 349 429
#     4  12  26  42  68 102 139 182 228 296 356 407
#     4  10  20  40  67  93 127 179 230 285 326 408
#     4  10  22  39  69 100 133 172 229 293 348 401
#     4  10  22  41  68  96 133 179 236 281 329 422
#     4  11  21  42  70  94 134 175 240 283 340 410
#     4  12  28  47  68 106 147 180 232 295 351 415
#     4  11  22  41  66  96 133 184 226 270 344 420
#
# _framework density 20.516259000000002
#
# number of rings (size 3 to 8) (size 9 to 14) (size 15 to 20)
#    0.000    1.000    3.750    3.000    8.750    0.500 
#    0.000    0.625    0.000    0.000    0.000    0.000 
#    0.000    0.000    0.000    0.000    0.000    0.000 
#
# Total GULP energy -89161.870449 kJ/mol
# GULP energy per Si atom -5572.616903 kJ/mol
# Density = 2.046956 g / cm^3
# Si number density = 20.516259 Si / 1000 Ang^3
#
#
#
# Elastic Constant Matrix: (Units=GPa)
#
#
# Indices 1 2 3 4 5 6 
#
# 1 38.0843 23.3548 17.1936 0.9118 1.6090 1.8792
# 2 23.3548 162.9377 46.3256 -6.0695 -6.0905 -3.5890
# 3 17.1936 46.3256 100.3139 -9.9163 3.3028 2.5980
# 4 0.9118 -6.0695 -9.9163 34.0144 -4.9112 6.8999
# 5 1.6090 -6.0905 3.3028 -4.9112 38.0853 -1.0004
# 6 1.8792 -3.5890 2.5980 6.8999 -1.0004 34.5738
#
#
#
# Elastic Compliance Matrix: (Units=1/GPa)
#
#
# Indices 1 2 3 4 5 6 
#
# 1 0.030277 -0.003468 -0.003744 -0.002534 -0.001869 -0.001273
# 2 -0.003468 0.007580 -0.002931 0.000612 0.001721 0.001123
# 3 -0.003744 -0.002931 0.012377 0.003395 -0.000992 -0.001737
# 4 -0.002534 0.000612 0.003395 0.032434 0.003924 -0.006413
# 5 -0.001869 0.001721 -0.000992 0.003924 0.027213 0.000359
# 6 -0.001273 0.001123 -0.001737 -0.006413 0.000359 0.030530
#
#
# Mechanical properties :
#
#
# Convention : Reuss Voigt Hill
#
# Bulk Modulus (GPa) = 33.39117 52.78708 43.08913
# Shear Modulus (GPa) = 29.29486 35.63213 32.46350
#
# Velocity S-wave (km/s) = 3.78284 4.17198 3.98217
# Velocity P-wave (km/s) = 5.94900 6.99947 6.49550
#
# Compressibility (1/GPa) = 0.02994804
#
# Stress axis : x y z
#
# Youngs Moduli (GPa) = 33.02871 131.93291 80.79275
#
# Poissons Ratio (x) = 0.45748 0.30249
# Poissons Ratio (y) = 0.11453 0.23683
# Poissons Ratio (z) = 0.12366 0.38673
#
# Static dielectric constant tensor:
#      x y z
#    x 1.776950 0.007400 -0.033090 
#    y 0.007400 1.775640 -0.012140 
#    z -0.033090 -0.012140 1.834550 
# 
# From -- ./inp_files/242946.got.cif
#   From: 2010.05.17/outbox.cif.g08.bks.cpg/sg2_122_cif.got.tgz:242946.got - 2010.06.03 11:33:40.
