data_PCOD9108693
_publ_section_title
;
Structure prediction by ZEFSAII (Michael W. Deem and Ramdas Pophale) SiO2 
 PCOD9108693
Probable space group: P -1
;
_chemical_formula_sum "Si O2"
_cell_formula_units_Z 14
_cell_length_a 11.742548
_cell_length_b 13.146170
_cell_length_c 7.157741
_cell_angle_alpha 92.713417
_cell_angle_beta 72.884849
_cell_angle_gamma 143.915718
_cell_volume 585.262046
_symmetry_space_group_name_H-M "P -1"
_symmetry_group_IT_number 2
_symmetry_cell_setting 'triclinic'
loop_
_space_group_symop_operation_xyz
x,y,z
-x,-y,-z
loop_
_atom_site_type_symbol
_atom_site_label
_atom_site_fract_x
_atom_site_fract_y
_atom_site_fract_z
Si Si1 0.759979 0.114723 0.413958
Si Si2 0.730756 0.164625 0.012411
Si Si3 0.217562 0.681760 0.310721
Si Si4 0.496890 0.740828 0.419789
Si Si5 0.325215 0.295062 0.899688
Si Si6 0.182773 0.293217 0.293550
Si Si7 0.147408 0.334676 0.715737
O O1 0.737742 0.179725 0.593910
O O2 0.998144 0.237468 0.308712
O O3 0.600938 0.906173 0.500398
O O4 0.719995 0.140596 0.236142
O O5 0.815090 0.329698 0.895240
O O6 0.912203 0.212245 0.861956
O O7 0.500000 0.000000 0.000000
O O8 0.389536 0.721588 0.293397
O O9 0.000000 0.500000 0.500000
O O10 0.685287 0.805951 0.246262
O O11 0.317791 0.545581 0.595006
O O12 0.581284 0.488967 0.822417
O O13 0.240744 0.335648 0.839849
O O14 0.203883 0.207936 0.148154
O O15 0.143578 0.258292 0.529951
#
# Coordination Sequence:
#
# PCOD9108693 Si02
#       7
#     2   2   2   2   2   2   2
#     4  12  25  43  68 101 141 182 227 284 344 403
#     4  12  25  43  69 102 138 178 230 286 336 405
#     4  12  24  47  69  97 139 181 229 283 342 408
#     4  11  23  41  69 101 140 181 221 284 343 401
#     4  10  22  43  71 101 134 180 236 275 334 412
#     4  10  20  40  70  94 132 180 223 277 335 396
#     4  11  22  47  69  98 139 182 230 282 337 407
#
# _framework density 23.920911
#
# number of rings (size 3 to 8) (size 9 to 14) (size 15 to 20)
#    0.000    0.857    5.714    3.000    0.000    1.143 
#    0.000   10.000    0.000    0.000    0.000    0.000 
#    0.000    0.000    0.000    0.000    0.000    0.000 
#
# Total GULP energy -78189.883167 kJ/mol
# GULP energy per Si atom -5584.991655 kJ/mol
# Density = 2.386647 g / cm^3
# Si number density = 23.920911 Si / 1000 Ang^3
#
#
#
# Elastic Constant Matrix: (Units=GPa)
#
#
# Indices 1 2 3 4 5 6 
#
# 1 136.2272 32.5586 28.2754 -4.2898 -13.5594 22.3466
# 2 32.5586 75.0219 41.2436 4.0474 -3.1377 -0.4730
# 3 28.2754 41.2436 107.5432 10.1632 -13.6016 0.8729
# 4 -4.2898 4.0474 10.1632 20.0493 -0.2295 -7.7089
# 5 -13.5594 -3.1377 -13.6016 -0.2295 43.5215 2.4009
# 6 22.3466 -0.4730 0.8729 -7.7089 2.4009 42.6718
#
#
#
# Elastic Compliance Matrix: (Units=1/GPa)
#
#
# Indices 1 2 3 4 5 6 
#
# 1 0.009507 -0.003652 -0.000842 0.001341 0.002713 -0.004912
# 2 -0.003652 0.018329 -0.006287 -0.000443 -0.001909 0.002272
# 3 -0.000842 -0.006287 0.012918 -0.005859 0.003354 -0.001140
# 4 0.001341 -0.000443 -0.005859 0.056972 -0.001686 0.009800
# 5 0.002713 -0.001909 0.003354 -0.001686 0.024901 -0.003216
# 6 -0.004912 0.002272 -0.001140 0.009800 -0.003216 0.028007
#
#
# Mechanical properties :
#
#
# Convention : Reuss Voigt Hill
#
# Bulk Modulus (GPa) = 52.10978 58.10529 55.10754
# Shear Modulus (GPa) = 27.99618 35.69615 31.84616
#
# Velocity S-wave (km/s) = 3.42477 3.86717 3.65267
# Velocity P-wave (km/s) = 6.12129 6.65457 6.39349
#
# Compressibility (1/GPa) = 0.01919026
#
# Stress axis : x y z
#
# Youngs Moduli (GPa) = 105.19079 54.55738 77.40902
#
# Poissons Ratio (x) = 0.19927 0.06521
# Poissons Ratio (y) = 0.38420 0.48668
# Poissons Ratio (z) = 0.08861 0.34301
#
# Static dielectric constant tensor:
#      x y z
#    x 1.908410 -0.028550 -0.006500 
#    y -0.028550 2.054360 -0.080200 
#    z -0.006500 -0.080200 1.899180 
# 
# From -- ./inp_files/258492.got.cif
#   From: 2010.05.17/outbox.cif.g08.bks.cpg/sg2_130_cif.got.tgz:258492.got - 2010.06.03 11:33:40.
