data_PCOD9108348
_publ_section_title
;
Structure prediction by ZEFSAII (Michael W. Deem and Ramdas Pophale) SiO2 
 PCOD9108348
Probable space group: P -1
;
_chemical_formula_sum "Si O2"
_cell_formula_units_Z 16
_cell_length_a 9.304582
_cell_length_b 11.494034
_cell_length_c 8.025345
_cell_angle_alpha 122.450755
_cell_angle_beta 109.638922
_cell_angle_gamma 63.381554
_cell_volume 642.274853
_symmetry_space_group_name_H-M "P -1"
_symmetry_group_IT_number 2
_symmetry_cell_setting 'triclinic'
loop_
_space_group_symop_operation_xyz
x,y,z
-x,-y,-z
loop_
_atom_site_type_symbol
_atom_site_label
_atom_site_fract_x
_atom_site_fract_y
_atom_site_fract_z
Si Si1 0.314587 0.096219 0.994810
Si Si2 0.811806 0.079204 0.453889
Si Si3 0.264863 0.616104 0.964021
Si Si4 0.030219 0.153699 0.141759
Si Si5 0.526673 0.216137 0.644029
Si Si6 0.370627 0.459804 0.531352
Si Si7 0.754370 0.681043 0.140294
Si Si8 0.084100 0.671927 0.427195
O O1 0.289879 0.244425 0.997722
O O2 0.231817 0.998885 0.781087
O O3 0.215464 0.127723 0.150215
O O4 0.500000 0.000000 0.000000
O O5 0.681869 0.079688 0.545452
O O6 0.803534 0.246250 0.551121
O O7 0.000000 0.000000 0.500000
O O8 0.331923 0.554368 0.760055
O O9 0.251501 0.481511 0.963468
O O10 0.090099 0.737927 0.956121
O O11 0.388030 0.684536 0.146840
O O12 0.985168 0.230603 0.361200
O O13 0.000000 0.000000 0.000000
O O14 0.444631 0.295575 0.502143
O O15 0.381122 0.216303 0.706971
O O16 0.500000 0.500000 0.500000
O O17 0.198588 0.513145 0.410791
O O18 0.933523 0.673354 0.258247
#
# Coordination Sequence:
#
# PCOD9108348 Si02
#       8
#     2   2   2   2   2   2   2   2
#     4  12  29  46  71 110 143 187 247 307 360 422
#     4  12  24  45  72 102 139 192 243 283 364 435
#     4  10  25  46  71 103 143 194 239 289 367 435
#     4  11  25  46  74 102 142 188 235 300 360 431
#     4  11  25  44  73 100 144 191 236 297 359 431
#     4  10  20  40  68 103 133 180 234 291 349 417
#     4  11  26  48  68 104 146 187 242 297 362 438
#     4  11  24  44  73 101 141 184 242 292 364 436
#
# _framework density 24.911453999999999
#
# number of rings (size 3 to 8) (size 9 to 14) (size 15 to 20)
#    0.000    1.000    3.750    2.250    3.500    6.500 
#    0.000    0.000    0.000    0.000    0.000    0.000 
#    0.000    0.000    0.000    0.000    0.000    0.000 
#
# Total GULP energy -89696.324082 kJ/mol
# GULP energy per Si atom -5606.020255 kJ/mol
# Density = 2.485475 g / cm^3
# Si number density = 24.911454 Si / 1000 Ang^3
#
#
#
# Elastic Constant Matrix: (Units=GPa)
#
#
# Indices 1 2 3 4 5 6 
#
# 1 138.9747 53.1967 32.0747 4.8278 -15.4272 -17.3564
# 2 53.1967 126.2068 36.0412 -4.9934 9.5936 -13.1852
# 3 32.0747 36.0412 59.9392 4.5703 11.2506 -3.3880
# 4 4.8278 -4.9934 4.5703 30.0069 -0.6186 5.0522
# 5 -15.4272 9.5936 11.2506 -0.6186 43.2901 -1.1446
# 6 -17.3564 -13.1852 -3.3880 5.0522 -1.1446 57.3771
#
#
#
# Elastic Compliance Matrix: (Units=1/GPa)
#
#
# Indices 1 2 3 4 5 6 
#
# 1 0.010513 -0.003447 -0.004337 -0.001893 0.005674 0.002412
# 2 -0.003447 0.011063 -0.004516 0.002876 -0.002441 0.000931
# 3 -0.004337 -0.004516 0.023196 -0.003589 -0.006646 -0.000797
# 4 -0.001893 0.002876 -0.003589 0.035199 0.000038 -0.003222
# 5 0.005674 -0.002441 -0.006646 0.000038 0.027425 0.001307
# 6 0.002412 0.000931 -0.000797 -0.003222 0.001307 0.018635
#
#
# Mechanical properties :
#
#
# Convention : Reuss Voigt Hill
#
# Bulk Modulus (GPa) = 49.57610 63.08288 56.32949
# Shear Modulus (GPa) = 31.77533 39.72203 35.74868
#
# Velocity S-wave (km/s) = 3.57533 3.99749 3.79229
# Velocity P-wave (km/s) = 6.08179 6.83259 6.46809
#
# Compressibility (1/GPa) = 0.02017101
#
# Stress axis : x y z
#
# Youngs Moduli (GPa) = 95.12159 90.39483 43.11067
#
# Poissons Ratio (x) = 0.31158 0.18699
# Poissons Ratio (y) = 0.32787 0.19469
# Poissons Ratio (z) = 0.41258 0.40822
#
# Static dielectric constant tensor:
#      x y z
#    x 1.937040 -0.004790 -0.026840 
#    y -0.004790 2.019980 0.025090 
#    z -0.026840 0.025090 1.951330 
# 
# From -- ./inp_files/190276.got.cif
#   From: 2010.05.17/outbox.cif.g08.bks.cpg/sg2_96_cif.got.tgz:190276.got - 2010.06.03 11:33:40.
