data_PCOD9108889
_publ_section_title
;
Structure prediction by ZEFSAII (Michael W. Deem and Ramdas Pophale) SiO2 
 PCOD9108889
Probable space group: P -1
;
_chemical_formula_sum "Si O2"
_cell_formula_units_Z 12
_cell_length_a 8.080659
_cell_length_b 19.539682
_cell_length_c 18.904031
_cell_angle_alpha 159.516276
_cell_angle_beta 28.463996
_cell_angle_gamma 150.710669
_cell_volume 476.191555
_symmetry_space_group_name_H-M "P -1"
_symmetry_group_IT_number 2
_symmetry_cell_setting 'triclinic'
loop_
_space_group_symop_operation_xyz
x,y,z
-x,-y,-z
loop_
_atom_site_type_symbol
_atom_site_label
_atom_site_fract_x
_atom_site_fract_y
_atom_site_fract_z
Si Si1 0.715659 0.508752 0.771786
Si Si2 0.298294 0.809202 0.254465
Si Si3 0.467325 0.818801 0.577468
Si Si4 0.621727 0.034558 0.867372
Si Si5 0.434360 0.268214 0.773037
Si Si6 0.521807 0.275398 0.260659
O O1 0.769982 0.401451 0.574775
O O2 0.645785 0.319771 0.670134
O O3 0.053625 0.691094 0.848402
O O4 0.386111 0.607478 0.995983
O O5 0.425823 0.836299 0.314893
O O6 0.875038 0.793851 0.399354
O O7 0.506550 0.994445 0.305023
O O8 0.395913 0.896726 0.756790
O O9 0.010514 0.165115 0.818233
O O10 0.690468 0.885071 0.757644
O O11 0.450567 0.186863 0.122838
O O12 0.500000 0.500000 0.000000
O O13 0.500000 0.500000 0.500000
#
# Coordination Sequence:
#
# PCOD9108889 Si02
#       6
#     2   2   2   2   2   2
#     4  11  24  45  68 105 133 179 225 279 332 404
#     4  10  22  42  65 106 141 170 220 279 337 405
#     4  11  25  38  70 103 140 174 213 283 349 393
#     4  11  25  47  65 103 134 178 227 284 330 398
#     4  10  20  40  75  97 131 175 228 275 329 394
#     4  11  27  46  71  94 134 183 235 272 332 403
#
# _framework density 25.199943000000001
#
# number of rings (size 3 to 8) (size 9 to 14) (size 15 to 20)
#    0.000    1.333    3.333    2.500    4.667    4.667 
#    0.000    1.667    0.000    0.000    0.000    0.000 
#    0.000    0.000    0.000    0.000    0.000    0.000 
#
# Total GULP energy -67150.652437 kJ/mol
# GULP energy per Si atom -5595.887703 kJ/mol
# Density = 2.514259 g / cm^3
# Si number density = 25.199943 Si / 1000 Ang^3
#
#
#
# Elastic Constant Matrix: (Units=GPa)
#
#
# Indices 1 2 3 4 5 6 
#
# 1 104.9455 6.6402 65.6114 7.5149 32.3020 -10.1238
# 2 6.6402 71.4574 2.3455 10.8537 5.1268 -0.1354
# 3 65.6114 2.3455 161.1038 12.5121 30.2355 -10.4740
# 4 7.5149 10.8537 12.5121 23.4416 3.8021 1.2442
# 5 32.3020 5.1268 30.2355 3.8021 68.7668 2.0585
# 6 -10.1238 -0.1354 -10.4740 1.2442 2.0585 20.3601
#
#
#
# Elastic Compliance Matrix: (Units=1/GPa)
#
#
# Indices 1 2 3 4 5 6 
#
# 1 0.014529 -0.000621 -0.004525 -0.001456 -0.004872 0.005474
# 2 -0.000621 0.015172 0.000786 -0.007152 -0.000811 0.000716
# 3 -0.004525 0.000786 0.008799 -0.003477 -0.001689 0.002665
# 4 -0.001456 -0.007152 -0.003477 0.048551 0.000228 -0.005550
# 5 -0.004872 -0.000811 -0.001689 0.000228 0.017774 -0.005108
# 6 0.005474 0.000716 0.002665 -0.005550 -0.005108 0.054069
#
#
# Mechanical properties :
#
#
# Convention : Reuss Voigt Hill
#
# Bulk Modulus (GPa) = 33.57780 54.07788 43.82784
# Shear Modulus (GPa) = 28.16273 40.04098 34.10186
#
# Velocity S-wave (km/s) = 3.34664 3.99046 3.68265
# Velocity P-wave (km/s) = 5.31853 6.53742 5.95922
#
# Compressibility (1/GPa) = 0.02978158
#
# Stress axis : x y z
#
# Youngs Moduli (GPa) = 68.82881 65.91046 113.65128
#
# Poissons Ratio (x) = 0.04090 0.51423
# Poissons Ratio (y) = 0.04271 -0.08934
# Poissons Ratio (z) = 0.31142 -0.05181
#
# Static dielectric constant tensor:
#      x y z
#    x 2.076420 0.023000 0.012590 
#    y 0.023000 1.939050 -0.042790 
#    z 0.012590 -0.042790 2.041300 
# 
# From -- ./inp_files/591510.got.cif
#   From: 2010.05.17/outbox.cif.g08.bks.cpg/sg2_296_cif.got.tgz:591510.got - 2010.06.03 11:33:40.
