data_PCOD9108285
_publ_section_title
;
Structure prediction by ZEFSAII (Michael W. Deem and Ramdas Pophale) SiO2 
 PCOD9108285
Probable space group: P -1
;
_chemical_formula_sum "Si O2"
_cell_formula_units_Z 16
_cell_length_a 8.962969
_cell_length_b 11.967954
_cell_length_c 16.870488
_cell_angle_alpha 120.005551
_cell_angle_beta 30.059895
_cell_angle_gamma 106.769525
_cell_volume 740.275728
_symmetry_space_group_name_H-M "P -1"
_symmetry_group_IT_number 2
_symmetry_cell_setting 'triclinic'
loop_
_space_group_symop_operation_xyz
x,y,z
-x,-y,-z
loop_
_atom_site_type_symbol
_atom_site_label
_atom_site_fract_x
_atom_site_fract_y
_atom_site_fract_z
Si Si1 0.352751 0.914941 0.287107
Si Si2 0.507598 0.604361 0.104492
Si Si3 0.132608 0.012989 0.856149
Si Si4 0.282079 0.240196 0.163907
Si Si5 0.323117 0.496852 0.305071
Si Si6 0.469032 0.050058 0.129160
Si Si7 0.334400 0.700837 0.632338
Si Si8 0.245879 0.528803 0.751144
O O1 0.395533 0.762416 0.184291
O O2 0.625727 0.903674 0.222573
O O3 0.416499 0.016852 0.230205
O O4 0.000000 0.000000 0.500000
O O5 0.308457 0.596075 0.272293
O O6 0.500000 0.500000 0.000000
O O7 0.874864 0.565247 0.945924
O O8 0.313948 0.857087 0.691728
O O9 0.000000 0.000000 0.000000
O O10 0.811055 0.070670 0.974294
O O11 0.436519 0.350991 0.155754
O O12 0.985144 0.303555 0.265946
O O13 0.199551 0.179098 0.262715
O O14 0.495728 0.096132 0.978578
O O15 0.561754 0.502995 0.266915
O O16 0.000000 0.500000 0.500000
O O17 0.318723 0.650630 0.711684
O O18 0.622370 0.598007 0.415521
#
# Coordination Sequence:
#
# PCOD9108285 Si02
#       8
#     2   2   2   2   2   2   2   2
#     4  11  25  39  65  99 132 169 222 278 340 398
#     4  12  28  48  69  97 144 183 226 283 348 407
#     4   9  19  37  62  93 128 171 227 272 332 397
#     4  10  20  40  67  97 129 168 227 272 335 397
#     4  12  26  42  70 103 134 178 230 283 333 408
#     4   9  20  39  67  92 127 175 215 274 330 407
#     4  10  21  39  68 101 133 183 228 278 334 414
#     4  11  24  41  68  98 140 178 231 278 344 402
#
# _framework density 21.613567
#
# number of rings (size 3 to 8) (size 9 to 14) (size 15 to 20)
#    0.000    1.500    1.250    4.125   10.500    0.000 
#    0.000    0.000    0.000    3.000    0.000    0.000 
#    0.000    0.000    0.000    0.000    0.000    0.000 
#
# Total GULP energy -89222.447156 kJ/mol
# GULP energy per Si atom -5576.402947 kJ/mol
# Density = 2.156437 g / cm^3
# Si number density = 21.613567 Si / 1000 Ang^3
#
#
#
# Elastic Constant Matrix: (Units=GPa)
#
#
# Indices 1 2 3 4 5 6 
#
# 1 92.3766 9.9364 14.2825 -12.7232 -5.5808 0.8626
# 2 9.9364 57.6188 11.0955 -0.2022 -1.7421 3.7872
# 3 14.2825 11.0955 79.3471 -8.2583 -8.4992 9.6440
# 4 -12.7232 -0.2022 -8.2583 27.1247 -2.0699 3.8257
# 5 -5.5808 -1.7421 -8.4992 -2.0699 16.8934 1.6051
# 6 0.8626 3.7872 9.6440 3.8257 1.6051 43.6679
#
#
#
# Elastic Compliance Matrix: (Units=1/GPa)
#
#
# Indices 1 2 3 4 5 6 
#
# 1 0.012209 -0.001762 -0.000819 0.005867 0.004213 -0.000576
# 2 -0.001762 0.018148 -0.002221 -0.001226 0.000112 -0.000945
# 3 -0.000819 -0.002221 0.014942 0.005304 0.008033 -0.003851
# 4 0.005867 -0.001226 0.005304 0.042753 0.010223 -0.005302
# 5 0.004213 0.000112 0.008033 0.010223 0.066386 -0.005203
# 6 -0.000576 -0.000945 -0.003851 -0.005302 -0.005203 0.024500
#
#
# Mechanical properties :
#
#
# Convention : Reuss Voigt Hill
#
# Bulk Modulus (GPa) = 28.01586 33.33017 30.67302
# Shear Modulus (GPa) = 24.94496 30.47240 27.70868
#
# Velocity S-wave (km/s) = 3.40094 3.75890 3.58439
# Velocity P-wave (km/s) = 5.33031 5.85607 5.59936
#
# Compressibility (1/GPa) = 0.03569407
#
# Stress axis : x y z
#
# Youngs Moduli (GPa) = 81.90367 55.10176 66.92747
#
# Poissons Ratio (x) = 0.09708 0.05484
# Poissons Ratio (y) = 0.14431 0.14867
# Poissons Ratio (z) = 0.06711 0.12240
#
# Static dielectric constant tensor:
#      x y z
#    x 1.999720 -0.018160 -0.004330 
#    y -0.018160 1.887630 -0.076100 
#    z -0.004330 -0.076100 1.872040 
# 
# From -- ./inp_files/559163.got.cif
#   From: 2010.05.17/outbox.cif.g08.bks.cpg/sg2_280_cif.got.tgz:559163.got - 2010.06.03 11:33:40.
