data_PCOD9108740
_publ_section_title
;
Structure prediction by ZEFSAII (Michael W. Deem and Ramdas Pophale) SiO2 
 PCOD9108740
Probable space group: P -1
;
_chemical_formula_sum "Si O2"
_cell_formula_units_Z 14
_cell_length_a 9.046364
_cell_length_b 9.457844
_cell_length_c 12.952396
_cell_angle_alpha 79.881076
_cell_angle_beta 44.574340
_cell_angle_gamma 52.099347
_cell_volume 540.757240
_symmetry_space_group_name_H-M "P -1"
_symmetry_group_IT_number 2
_symmetry_cell_setting 'triclinic'
loop_
_space_group_symop_operation_xyz
x,y,z
-x,-y,-z
loop_
_atom_site_type_symbol
_atom_site_label
_atom_site_fract_x
_atom_site_fract_y
_atom_site_fract_z
Si Si1 0.200723 0.955136 0.286859
Si Si2 0.168645 0.272363 0.925706
Si Si3 0.520217 0.243457 0.274651
Si Si4 0.177643 0.958678 0.059103
Si Si5 0.766874 0.433527 0.445606
Si Si6 0.199192 0.112557 0.518398
Si Si7 0.145353 0.304031 0.709880
O O1 0.002168 0.193069 0.360855
O O2 0.019757 0.900832 0.414227
O O3 0.283640 0.893626 0.132051
O O4 0.488858 0.844247 0.226229
O O5 0.052941 0.289712 0.867575
O O6 0.673655 0.809013 0.614097
O O7 0.148753 0.143406 0.023649
O O8 0.000000 0.500000 0.000000
O O9 0.352711 0.447738 0.398975
O O10 0.837330 0.070517 0.197604
O O11 0.613493 0.211241 0.112185
O O12 0.500000 0.500000 0.500000
O O13 0.906961 0.504055 0.309524
O O14 0.492709 0.888621 0.444324
O O15 0.028133 0.267810 0.679392
#
# Coordination Sequence:
#
# PCOD9108740 Si02
#       7
#     2   2   2   2   2   2   2
#     4  12  25  44  77 106 144 184 250 300 353 424
#     4  12  28  45  70 104 146 190 240 304 365 419
#     4  10  22  41  76 106 149 191 232 288 370 437
#     4  11  22  43  74 104 144 197 233 285 365 439
#     4  11  20  40  72 110 140 183 237 300 357 416
#     4  10  20  42  74 105 139 190 235 291 356 430
#     4  10  20  40  70  99 141 189 227 281 360 431
#
# _framework density 25.889623
#
# number of rings (size 3 to 8) (size 9 to 14) (size 15 to 20)
#    0.000    1.143    4.286    3.000    2.000    0.571 
#    0.000    1.429   18.857    0.000    0.000    0.000 
#    0.000    0.000    0.000    0.000    0.000    0.000 
#
# Total GULP energy -78466.125688 kJ/mol
# GULP energy per Si atom -5604.723263 kJ/mol
# Density = 2.583070 g / cm^3
# Si number density = 25.889623 Si / 1000 Ang^3
#
#
#
# Elastic Constant Matrix: (Units=GPa)
#
#
# Indices 1 2 3 4 5 6 
#
# 1 130.9051 55.9980 39.5502 11.4489 7.1641 34.4699
# 2 55.9980 115.9659 40.3202 13.7467 -7.9561 26.5974
# 3 39.5502 40.3202 133.6222 -0.8198 23.4506 4.5505
# 4 11.4489 13.7467 -0.8198 48.7212 -0.4944 0.1007
# 5 7.1641 -7.9561 23.4506 -0.4944 45.2095 0.9505
# 6 34.4699 26.5974 4.5505 0.1007 0.9505 48.5082
#
#
#
# Elastic Compliance Matrix: (Units=1/GPa)
#
#
# Indices 1 2 3 4 5 6 
#
# 1 0.011505 -0.003337 -0.001977 -0.001796 -0.001276 -0.006132
# 2 -0.003337 0.013287 -0.003736 -0.002969 0.004870 -0.004653
# 3 -0.001977 -0.003736 0.010104 0.001626 -0.005622 0.002612
# 4 -0.001796 -0.002969 0.001626 0.021797 -0.000900 0.002724
# 5 -0.001276 0.004870 -0.005622 -0.000900 0.026122 -0.001746
# 6 -0.006132 -0.004653 0.002612 0.002724 -0.001746 0.027307
#
#
# Mechanical properties :
#
#
# Convention : Reuss Voigt Hill
#
# Bulk Modulus (GPa) = 59.53548 72.47002 66.00275
# Shear Modulus (GPa) = 37.36358 44.79608 41.07983
#
# Velocity S-wave (km/s) = 3.80305 4.16417 3.98770
# Velocity P-wave (km/s) = 6.50616 7.15353 6.83751
#
# Compressibility (1/GPa) = 0.01679671
#
# Stress axis : x y z
#
# Youngs Moduli (GPa) = 86.91683 75.26353 98.97046
#
# Poissons Ratio (x) = 0.25112 0.19565
# Poissons Ratio (y) = 0.29001 0.36976
# Poissons Ratio (z) = 0.17182 0.28119
#
# Static dielectric constant tensor:
#      x y z
#    x 1.983150 0.010990 0.055450 
#    y 0.010990 1.960340 -0.073190 
#    z 0.055450 -0.073190 1.984710 
# 
# From -- ./inp_files/379470.got.cif
#   From: 2010.05.17/outbox.cif.g08.bks.cpg/sg2_190_cif.got.tgz:379470.got - 2010.06.03 11:33:40.
