data_PCOD9108303
_publ_section_title
;
Structure prediction by ZEFSAII (Michael W. Deem and Ramdas Pophale) SiO2 
 PCOD9108303
Probable space group: P -1
;
_chemical_formula_sum "Si O2"
_cell_formula_units_Z 16
_cell_length_a 8.949169
_cell_length_b 19.392104
_cell_length_c 11.213549
_cell_angle_alpha 30.719710
_cell_angle_beta 48.430846
_cell_angle_gamma 59.168642
_cell_volume 735.163544
_symmetry_space_group_name_H-M "P -1"
_symmetry_group_IT_number 2
_symmetry_cell_setting 'triclinic'
loop_
_space_group_symop_operation_xyz
x,y,z
-x,-y,-z
loop_
_atom_site_type_symbol
_atom_site_label
_atom_site_fract_x
_atom_site_fract_y
_atom_site_fract_z
Si Si1 0.531414 0.769634 0.903673
Si Si2 0.686717 0.267112 0.168682
Si Si3 0.747300 0.361915 0.239921
Si Si4 0.430010 0.143890 0.859447
Si Si5 0.237556 0.022739 0.374870
Si Si6 0.181212 0.429330 0.910014
Si Si7 0.168221 0.595599 0.436182
Si Si8 0.884603 0.664251 0.300255
O O1 0.479940 0.745433 0.827703
O O2 0.684196 0.906784 0.646455
O O3 0.636357 0.651770 0.083482
O O4 0.311105 0.739325 0.126083
O O5 0.663432 0.365447 0.145759
O O6 0.687110 0.122397 0.447941
O O7 0.907327 0.299201 0.940574
O O8 0.610991 0.258583 0.551945
O O9 0.788796 0.504993 0.073384
O O10 0.973372 0.325241 0.163917
O O11 0.237022 0.208948 0.813914
O O12 0.362360 0.120752 0.066137
O O13 0.500000 0.000000 0.000000
O O14 0.000000 0.000000 0.500000
O O15 0.169815 0.542866 0.647206
O O16 0.230175 0.469924 0.508657
O O17 0.953578 0.615810 0.463932
#
# Coordination Sequence:
#
# PCOD9108303 Si02
#       8
#     2   2   2   2   2   2   2   2
#     4  11  24  38  69 100 126 164 227 274 318 378
#     4  11  22  43  64  97 128 172 217 267 322 385
#     4  11  24  42  62  94 137 172 212 257 332 390
#     4  12  24  40  65  97 128 174 217 262 329 391
#     4  12  23  43  72  88 125 174 223 271 316 383
#     4  11  22  41  64  96 133 173 211 268 324 395
#     4  10  20  40  67  98 129 168 221 272 321 378
#     4  10  21  39  68  96 129 170 219 271 321 380
#
# _framework density 21.763864999999999
#
# number of rings (size 3 to 8) (size 9 to 14) (size 15 to 20)
#    0.000    1.000    3.750    3.750    0.000    0.500 
#    4.500    0.000    0.000    5.250    0.000    0.000 
#    0.000    0.000    0.000    0.000    0.000    0.000 
#
# Total GULP energy -89225.884246 kJ/mol
# GULP energy per Si atom -5576.617765 kJ/mol
# Density = 2.171433 g / cm^3
# Si number density = 21.763865 Si / 1000 Ang^3
#
#
#
# Elastic Constant Matrix: (Units=GPa)
#
#
# Indices 1 2 3 4 5 6 
#
# 1 117.8870 52.6477 39.2586 0.0871 1.1758 25.1581
# 2 52.6477 64.4609 4.7163 -10.2568 3.8875 12.3339
# 3 39.2586 4.7163 75.9097 16.0712 -4.8552 5.3526
# 4 0.0871 -10.2568 16.0712 30.5622 -2.2615 5.5134
# 5 1.1758 3.8875 -4.8552 -2.2615 44.0753 -8.4391
# 6 25.1581 12.3339 5.3526 5.5134 -8.4391 36.4569
#
#
#
# Elastic Compliance Matrix: (Units=1/GPa)
#
#
# Indices 1 2 3 4 5 6 
#
# 1 0.018947 -0.012919 -0.008883 0.001602 -0.001806 -0.008061
# 2 -0.012919 0.027671 0.003357 0.007884 -0.001810 -0.002550
# 3 -0.008883 0.003357 0.019463 -0.009655 0.002384 0.004148
# 4 0.001602 0.007884 -0.009655 0.041964 -0.001375 -0.009020
# 5 -0.001806 -0.001810 0.002384 -0.001375 0.024503 0.007388
# 6 -0.008061 -0.002550 0.004148 -0.009020 0.007388 0.036320
#
#
# Mechanical properties :
#
#
# Convention : Reuss Voigt Hill
#
# Bulk Modulus (GPa) = 34.25624 50.16699 42.21162
# Shear Modulus (GPa) = 23.20313 32.99452 28.09883
#
# Velocity S-wave (km/s) = 3.26871 3.89784 3.59705
# Velocity P-wave (km/s) = 5.47906 6.58469 6.05715
#
# Compressibility (1/GPa) = 0.02919176
#
# Stress axis : x y z
#
# Youngs Moduli (GPa) = 52.77746 36.13907 51.37988
#
# Poissons Ratio (x) = 0.46689 0.45639
# Poissons Ratio (y) = 0.68184 -0.17249
# Poissons Ratio (z) = 0.46881 -0.12133
#
# Static dielectric constant tensor:
#      x y z
#    x 1.835770 0.009350 -0.038800 
#    y 0.009350 1.861370 0.012060 
#    z -0.038800 0.012060 1.825530 
# 
# From -- ./inp_files/391007.got.cif
#   From: 2010.05.17/outbox.cif.g08.bks.cpg/sg2_196_cif.got.tgz:391007.got - 2010.06.03 11:33:40.
