data_PCOD9108822
_publ_section_title
;
Structure prediction by ZEFSAII (Michael W. Deem and Ramdas Pophale) SiO2 
 PCOD9108822
Probable space group: P -1
;
_chemical_formula_sum "Si O2"
_cell_formula_units_Z 16
_cell_length_a 8.948808
_cell_length_b 13.691580
_cell_length_c 11.529402
_cell_angle_alpha 122.061950
_cell_angle_beta 37.695669
_cell_angle_gamma 100.020582
_cell_volume 644.257761
_symmetry_space_group_name_H-M "P -1"
_symmetry_group_IT_number 2
_symmetry_cell_setting 'triclinic'
loop_
_space_group_symop_operation_xyz
x,y,z
-x,-y,-z
loop_
_atom_site_type_symbol
_atom_site_label
_atom_site_fract_x
_atom_site_fract_y
_atom_site_fract_z
Si Si1 0.064048 0.764318 0.389564
Si Si2 0.816182 0.279821 0.279428
Si Si3 0.844359 0.409183 0.553446
Si Si4 0.226789 0.021528 0.803447
Si Si5 0.569874 0.146296 0.655720
Si Si6 0.029948 0.410903 0.088917
Si Si7 0.314496 0.636229 0.917877
Si Si8 0.343162 0.306130 0.454928
O O1 0.148220 0.645435 0.357679
O O2 0.170589 0.855341 0.441998
O O3 0.743613 0.803898 0.590182
O O4 0.203157 0.730377 0.156124
O O5 0.943381 0.281401 0.327156
O O6 0.530324 0.278584 0.437668
O O7 0.799060 0.409318 0.317715
O O8 0.018048 0.172467 0.994830
O O9 0.534474 0.499232 0.754452
O O10 0.000000 0.500000 0.500000
O O11 0.465035 0.052761 0.725625
O O12 0.344244 0.919932 0.564569
O O13 0.000000 0.000000 0.000000
O O14 0.329054 0.298954 0.880520
O O15 0.924255 0.380474 0.014472
O O16 0.941192 0.562318 0.255790
O O17 0.485250 0.678768 0.748888
#
# Coordination Sequence:
#
# PCOD9108822 Si02
#       8
#     2   2   2   2   2   2   2   2
#     4  12  27  36  60  96 137 171 208 263 320 384
#     4  10  20  40  72  91 123 177 217 260 320 379
#     4  12  22  38  61  96 139 172 210 257 317 384
#     4  10  22  44  71  91 117 164 223 275 317 365
#     4  10  25  43  65  97 123 161 225 269 313 377
#     4  10  20  41  66  90 134 174 208 262 311 386
#     4  11  23  38  59  91 135 174 208 248 316 384
#     4  11  22  43  61  95 137 172 208 255 323 395
#
# _framework density 24.834781
#
# number of rings (size 3 to 8) (size 9 to 14) (size 15 to 20)
#    0.000    1.250    3.750    1.875    7.000    3.500 
#    0.000    0.625    0.000   17.250    0.000    0.000 
#    0.000    0.000    0.000    0.000    0.000    0.000 
#
# Total GULP energy -89131.088702 kJ/mol
# GULP energy per Si atom -5570.693044 kJ/mol
# Density = 2.477826 g / cm^3
# Si number density = 24.834781 Si / 1000 Ang^3
#
#
#
# Elastic Constant Matrix: (Units=GPa)
#
#
# Indices 1 2 3 4 5 6 
#
# 1 127.9995 49.3486 23.1125 -2.1449 24.8464 34.2684
# 2 49.3486 114.2284 17.3910 -36.7065 9.9733 30.3176
# 3 23.1125 17.3910 76.1235 -14.0946 13.5497 4.5143
# 4 -2.1449 -36.7065 -14.0946 34.9173 -4.5932 1.6831
# 5 24.8464 9.9733 13.5497 -4.5932 29.5543 -7.4598
# 6 34.2684 30.3176 4.5143 1.6831 -7.4598 53.0226
#
#
#
# Elastic Compliance Matrix: (Units=1/GPa)
#
#
# Indices 1 2 3 4 5 6 
#
# 1 0.014479 -0.004605 -0.001667 -0.005919 -0.012844 -0.008202
# 2 -0.004605 0.020481 0.001948 0.022119 -0.003027 -0.010028
# 3 -0.001667 0.001948 0.015821 0.007669 -0.005939 -0.002462
# 4 -0.005919 0.022119 0.007669 0.055130 -0.000280 -0.011264
# 5 -0.012844 -0.003027 -0.005939 -0.000280 0.052874 0.017985
# 6 -0.008202 -0.010028 -0.002462 -0.011264 0.017985 0.032992
#
#
# Mechanical properties :
#
#
# Convention : Reuss Voigt Hill
#
# Bulk Modulus (GPa) = 23.73484 55.33948 39.53716
# Shear Modulus (GPa) = 23.31334 38.73213 31.02273
#
# Velocity S-wave (km/s) = 3.06721 3.95345 3.53819
# Velocity P-wave (km/s) = 4.70335 6.57047 5.71370
#
# Compressibility (1/GPa) = 0.04213216
#
# Stress axis : x y z
#
# Youngs Moduli (GPa) = 69.06643 48.82596 63.20808
#
# Poissons Ratio (x) = 0.22484 0.10539
# Poissons Ratio (y) = 0.31804 -0.12313
# Poissons Ratio (z) = 0.11515 -0.09511
#
# Static dielectric constant tensor:
#      x y z
#    x 2.050250 0.036410 0.015710 
#    y 0.036410 2.167580 -0.003100 
#    z 0.015710 -0.003100 2.127000 
# 
# From -- ./inp_files/399510.got.cif
#   From: 2010.05.17/outbox.cif.g08.bks.cpg/sg2_200_cif.got.tgz:399510.got - 2010.06.03 11:33:40.
