data_PCOD9108269
_publ_section_title
;
Structure prediction by ZEFSAII (Michael W. Deem and Ramdas Pophale) SiO2 
 PCOD9108269
Probable space group: P -1
;
_chemical_formula_sum "Si O2"
_cell_formula_units_Z 16
_cell_length_a 7.655850
_cell_length_b 8.785995
_cell_length_c 19.026521
_cell_angle_alpha 136.693439
_cell_angle_beta 87.569702
_cell_angle_gamma 117.981198
_cell_volume 674.162862
_symmetry_space_group_name_H-M "P -1"
_symmetry_group_IT_number 2
_symmetry_cell_setting 'triclinic'
loop_
_space_group_symop_operation_xyz
x,y,z
-x,-y,-z
loop_
_atom_site_type_symbol
_atom_site_label
_atom_site_fract_x
_atom_site_fract_y
_atom_site_fract_z
Si Si1 0.723781 0.035771 0.989855
Si Si2 0.870001 0.310790 0.306477
Si Si3 0.382641 0.224387 0.958678
Si Si4 0.121381 0.214235 0.371039
Si Si5 0.109935 0.718775 0.226719
Si Si6 0.247075 0.814605 0.104054
Si Si7 0.277463 0.928026 0.448674
Si Si8 0.605495 0.507943 0.395900
O O1 0.933753 0.373356 0.117731
O O2 0.698123 0.813638 0.972170
O O3 0.751932 0.993238 0.892550
O O4 0.500000 0.000000 0.000000
O O5 0.655779 0.304473 0.297568
O O6 0.948508 0.257595 0.359648
O O7 0.070095 0.635545 0.389556
O O8 0.825016 0.064760 0.174637
O O9 0.587268 0.217931 0.948008
O O10 0.500000 0.500000 0.000000
O O11 0.341370 0.354049 0.363031
O O12 0.249646 0.381155 0.496798
O O13 0.000906 0.876684 0.269619
O O14 0.270361 0.830299 0.193488
O O15 0.252766 0.863399 0.344051
O O16 0.000000 0.500000 0.000000
O O17 0.500000 0.000000 0.500000
O O18 0.290447 0.203103 0.552030
#
# Coordination Sequence:
#
# PCOD9108269 Si02
#       8
#     2   2   2   2   2   2   2   2
#     4   9  19  38  64  90 129 174 222 284 344 402
#     4  12  23  40  67  97 136 183 231 278 347 412
#     4  11  24  41  64  99 137 172 223 289 344 413
#     4  10  22  38  66  94 132 177 226 282 340 399
#     4  10  20  40  67  96 131 182 225 283 348 409
#     4   9  20  40  68  88 124 175 229 278 340 409
#     4  11  22  42  67  97 143 181 224 289 345 410
#     4  10  22  42  64  95 134 178 233 280 336 407
#
# _framework density 23.733138
#
# number of rings (size 3 to 8) (size 9 to 14) (size 15 to 20)
#    0.000    1.750    2.500    1.500    5.250    0.000 
#    2.250    3.750    5.500    0.000    0.000    0.000 
#    0.000    0.000    0.000    0.000    0.000    0.000 
#
# Total GULP energy -89147.125958 kJ/mol
# GULP energy per Si atom -5571.695372 kJ/mol
# Density = 2.367912 g / cm^3
# Si number density = 23.733138 Si / 1000 Ang^3
#
#
#
# Elastic Constant Matrix: (Units=GPa)
#
#
# Indices 1 2 3 4 5 6 
#
# 1 72.0291 31.3939 14.7561 2.9498 4.4140 -17.2626
# 2 31.3939 184.1795 40.5361 6.1855 -6.4118 -18.9884
# 3 14.7561 40.5361 33.1914 -3.2777 0.5520 -7.1071
# 4 2.9498 6.1855 -3.2777 42.6604 4.1600 7.9272
# 5 4.4140 -6.4118 0.5520 4.1600 22.0272 2.8121
# 6 -17.2626 -18.9884 -7.1071 7.9272 2.8121 39.4758
#
#
#
# Elastic Compliance Matrix: (Units=1/GPa)
#
#
# Indices 1 2 3 4 5 6 
#
# 1 0.017435 -0.001252 -0.004901 -0.002274 -0.004186 0.006895
# 2 -0.001252 0.008043 -0.009140 -0.002440 0.003033 0.001950
# 3 -0.004901 -0.009140 0.044193 0.005321 -0.003870 0.000624
# 4 -0.002274 -0.002440 0.005321 0.025933 -0.004507 -0.006097
# 5 -0.004186 0.003033 -0.003870 -0.004507 0.048531 -0.003621
# 6 0.006895 0.001950 0.000624 -0.006097 -0.003621 0.030879
#
#
# Mechanical properties :
#
#
# Convention : Reuss Voigt Hill
#
# Bulk Modulus (GPa) = 25.58505 51.41912 38.50208
# Shear Modulus (GPa) = 22.86980 34.34694 28.60837
#
# Velocity S-wave (km/s) = 3.10760 3.80835 3.47568
# Velocity P-wave (km/s) = 4.86620 6.40708 5.68905
#
# Compressibility (1/GPa) = 0.03908532
#
# Stress axis : x y z
#
# Youngs Moduli (GPa) = 57.35627 124.33059 22.62781
#
# Poissons Ratio (x) = 0.15563 0.11090
# Poissons Ratio (y) = 0.07179 0.20682
# Poissons Ratio (z) = 0.28111 1.13641
#
# Static dielectric constant tensor:
#      x y z
#    x 1.926330 0.017390 0.057700 
#    y 0.017390 1.886330 -0.013030 
#    z 0.057700 -0.013030 2.075280 
# 
# From -- ./inp_files/556569.got.cif
#   From: 2010.05.17/outbox.cif.g08.bks.cpg/sg2_279_cif.got.tgz:556569.got - 2010.06.03 11:33:40.
