data_PCOD9108277
_publ_section_title
;
Structure prediction by ZEFSAII (Michael W. Deem and Ramdas Pophale) SiO2 
 PCOD9108277
Probable space group: P -1
;
_chemical_formula_sum "Si O2"
_cell_formula_units_Z 15
_cell_length_a 9.085776
_cell_length_b 9.812118
_cell_length_c 13.025956
_cell_angle_alpha 35.429722
_cell_angle_beta 91.770597
_cell_angle_gamma 79.824581
_cell_volume 630.729467
_symmetry_space_group_name_H-M "P -1"
_symmetry_group_IT_number 2
_symmetry_cell_setting 'triclinic'
loop_
_space_group_symop_operation_xyz
x,y,z
-x,-y,-z
loop_
_atom_site_type_symbol
_atom_site_label
_atom_site_fract_x
_atom_site_fract_y
_atom_site_fract_z
Si Si1 0.292251 0.784232 0.500584
Si Si2 0.251681 0.583430 0.411819
Si Si3 0.813591 0.791932 0.503708
Si Si4 0.500000 0.000000 0.500000
Si Si5 0.065426 0.007094 0.882961
Si Si6 0.871309 0.511845 0.186424
Si Si7 0.665380 0.023480 0.963726
Si Si8 0.034377 0.801909 0.812010
O O1 0.320493 0.602891 0.512854
O O2 0.439620 0.849934 0.500424
O O3 0.230746 0.647831 0.672510
O O4 0.147121 0.036670 0.312985
O O5 0.250259 0.330504 0.515837
O O6 0.065087 0.749877 0.316646
O O7 0.327530 0.728745 0.244657
O O8 0.679744 0.891925 0.524341
O O9 0.969449 0.586954 0.682053
O O10 0.868754 0.018184 0.330067
O O11 0.067931 0.781459 0.946778
O O12 0.237179 0.006964 0.909683
O O13 0.000000 0.000000 0.000000
O O14 0.765862 0.796471 0.031480
O O15 0.906562 0.435470 0.115493
O O16 0.500000 0.000000 0.000000
#
# Coordination Sequence:
#
# PCOD9108277 Si02
#       8
#     2   2   2   1   2   2   2   2
#     4  10  22  39  65  97 129 161 218 265 319 380
#     4  10  23  42  62  96 125 173 216 259 320 384
#     4  11  22  37  67  95 131 165 212 270 325 375
#     4  12  22  38  60 102 134 160 206 282 318 372
#     4   9  20  41  65  89 125 168 215 259 309 384
#     4  11  21  43  65  94 126 174 211 261 327 386
#     4  11  25  42  63  91 132 169 215 271 316 380
#     4  10  20  40  67  97 125 168 216 260 326 388
#
# _framework density 23.781987000000001
#
# number of rings (size 3 to 8) (size 9 to 14) (size 15 to 20)
#    0.000    1.600    4.000    0.800    3.733    3.200 
#    0.000    9.333    0.000    0.000    0.000    0.000 
#    0.000    0.000    0.000    0.000    0.000    0.000 
#
# Total GULP energy -83717.706228 kJ/mol
# GULP energy per Si atom -5581.180415 kJ/mol
# Density = 2.372786 g / cm^3
# Si number density = 23.781987 Si / 1000 Ang^3
#
#
#
# Elastic Constant Matrix: (Units=GPa)
#
#
# Indices 1 2 3 4 5 6 
#
# 1 179.6831 48.1108 23.9926 1.0849 -2.6988 18.0864
# 2 48.1108 205.5264 29.0895 -8.8254 -3.7384 25.7218
# 3 23.9926 29.0895 54.8376 -3.7880 -11.6613 2.4271
# 4 1.0849 -8.8254 -3.7880 37.0147 -0.2504 -1.8537
# 5 -2.6988 -3.7384 -11.6613 -0.2504 19.2150 -5.2007
# 6 18.0864 25.7218 2.4271 -1.8537 -5.2007 49.6427
#
#
#
# Elastic Compliance Matrix: (Units=1/GPa)
#
#
# Indices 1 2 3 4 5 6 
#
# 1 0.006328 -0.000949 -0.002521 -0.000772 -0.001339 -0.001859
# 2 -0.000949 0.005831 -0.002789 0.000991 -0.001395 -0.002648
# 3 -0.002521 -0.002789 0.023899 0.002091 0.014387 0.002780
# 4 -0.000772 0.000991 0.002091 0.027547 0.001956 0.000899
# 5 -0.001339 -0.001395 0.014387 0.001956 0.062262 0.007103
# 6 -0.001859 -0.002648 0.002780 0.000899 0.007103 0.022835
#
#
# Mechanical properties :
#
#
# Convention : Reuss Voigt Hill
#
# Bulk Modulus (GPa) = 42.48136 71.38144 56.93140
# Shear Modulus (GPa) = 29.57400 43.76476 36.66938
#
# Velocity S-wave (km/s) = 3.53022 4.29447 3.93096
# Velocity P-wave (km/s) = 5.87522 7.39392 6.67788
#
# Compressibility (1/GPa) = 0.02353974
#
# Stress axis : x y z
#
# Youngs Moduli (GPa) = 158.03196 171.49427 41.84311
#
# Poissons Ratio (x) = 0.16279 0.10548
# Poissons Ratio (y) = 0.15001 0.11670
# Poissons Ratio (z) = 0.39837 0.47829
#
# Static dielectric constant tensor:
#      x y z
#    x 1.901670 -0.002970 -0.043200 
#    y -0.002970 1.944070 0.018450 
#    z -0.043200 0.018450 1.950980 
# 
# From -- ./inp_files/379385.got.cif
#   From: 2010.05.17/outbox.cif.g08.bks.cpg/sg2_190_cif.got.tgz:379385.got - 2010.06.03 11:33:40.
