data_PCOD9108091
_publ_section_title
;
Structure prediction by ZEFSAII (Michael W. Deem and Ramdas Pophale) SiO2 
 PCOD9108091
Probable space group: P -1
;
_chemical_formula_sum "Si O2"
_cell_formula_units_Z 15
_cell_length_a 7.877518
_cell_length_b 8.989354
_cell_length_c 9.671681
_cell_angle_alpha 76.762625
_cell_angle_beta 109.341667
_cell_angle_gamma 66.773233
_cell_volume 540.378487
_symmetry_space_group_name_H-M "P -1"
_symmetry_group_IT_number 2
_symmetry_cell_setting 'triclinic'
loop_
_space_group_symop_operation_xyz
x,y,z
-x,-y,-z
loop_
_atom_site_type_symbol
_atom_site_label
_atom_site_fract_x
_atom_site_fract_y
_atom_site_fract_z
Si Si1 0.547483 0.306446 0.520744
Si Si2 0.119067 0.665618 0.548239
Si Si3 0.000000 0.000000 0.500000
Si Si4 0.336231 0.173491 0.329176
Si Si5 0.315899 0.824561 0.110854
Si Si6 0.035654 0.239488 0.007029
Si Si7 0.645123 0.069994 0.180793
Si Si8 0.172482 0.332201 0.764386
O O1 0.500000 0.500000 0.500000
O O2 0.747556 0.236471 0.482475
O O3 0.348272 0.318303 0.394641
O O4 0.602400 0.207592 0.702605
O O5 0.226508 0.481818 0.698763
O O6 0.024058 0.630949 0.394854
O O7 0.944897 0.837077 0.545728
O O8 0.142632 0.949981 0.696270
O O9 0.120521 0.224668 0.186515
O O10 0.500000 0.000000 0.500000
O O11 0.472347 0.151275 0.233760
O O12 0.158958 0.037905 0.021790
O O13 0.201472 0.711711 0.084764
O O14 0.430387 0.802968 0.000587
O O15 0.098163 0.347640 0.897864
O O16 0.679284 0.876194 0.193520
#
# Coordination Sequence:
#
# PCOD9108091 Si02
#       8
#     2   2   1   2   2   2   2   2
#     4  12  26  46  67  98 140 188 221 285 351 411
#     4  10  20  40  66  98 134 177 228 274 342 411
#     4  10  20  40  66  98 128 182 228 272 332 408
#     4  12  26  43  66 104 141 172 232 290 344 401
#     4  10  22  44  71  99 135 186 233 268 347 422
#     4  10  21  41  72 100 139 178 229 290 336 406
#     4  10  23  39  70 100 132 179 226 283 341 409
#     4   9  20  38  68 101 131 173 229 282 335 405
#
# _framework density 27.758322
#
# number of rings (size 3 to 8) (size 9 to 14) (size 15 to 20)
#    0.000    1.600    4.000    0.000    5.600    3.200 
#    2.400    2.000    0.000    0.000    0.000    0.000 
#    0.000    0.000    0.000    0.000    0.000    0.000 
#
# Total GULP energy -83706.959445 kJ/mol
# GULP energy per Si atom -5580.463963 kJ/mol
# Density = 2.769514 g / cm^3
# Si number density = 27.758322 Si / 1000 Ang^3
#
#
#
# Elastic Constant Matrix: (Units=GPa)
#
#
# Indices 1 2 3 4 5 6 
#
# 1 53.4796 7.0463 50.5013 7.3749 -3.6962 23.2571
# 2 7.0463 111.2142 38.1640 -2.0608 4.8468 15.3084
# 3 50.5013 38.1640 231.1068 9.4795 -14.3537 25.7672
# 4 7.3749 -2.0608 9.4795 53.9792 21.1594 11.6527
# 5 -3.6962 4.8468 -14.3537 21.1594 51.6940 4.8005
# 6 23.2571 15.3084 25.7672 11.6527 4.8005 37.1207
#
#
#
# Elastic Compliance Matrix: (Units=1/GPa)
#
#
# Indices 1 2 3 4 5 6 
#
# 1 0.030649 0.001948 -0.004986 -0.000583 0.002411 -0.016673
# 2 0.001948 0.010239 -0.001796 0.002132 -0.001761 -0.004638
# 3 -0.004986 -0.001796 0.005893 -0.001155 0.001931 -0.000113
# 4 -0.000583 0.002132 -0.001155 0.024042 -0.009847 -0.005986
# 5 0.002411 -0.001761 0.001931 -0.009847 0.024453 -0.002196
# 6 -0.016673 -0.004638 -0.000113 -0.005986 -0.002196 0.041539
#
#
# Mechanical properties :
#
#
# Convention : Reuss Voigt Hill
#
# Bulk Modulus (GPa) = 26.94526 65.24710 46.09618
# Shear Modulus (GPa) = 31.47531 48.56472 40.02001
#
# Velocity S-wave (km/s) = 3.37100 4.18731 3.80113
# Velocity P-wave (km/s) = 4.98796 6.85088 5.99225
#
# Compressibility (1/GPa) = 0.03711228
#
# Stress axis : x y z
#
# Youngs Moduli (GPa) = 32.62801 97.66283 169.68666
#
# Poissons Ratio (x) = -0.19029 0.84613
# Poissons Ratio (y) = -0.06357 0.30482
# Poissons Ratio (z) = 0.16270 0.17544
#
# Static dielectric constant tensor:
#      x y z
#    x 2.065410 0.215410 0.074740 
#    y 0.215410 2.143000 -0.093040 
#    z 0.074740 -0.093040 2.126410 
# 
# From -- ./inp_files/157629.got.cif
#   From: 2010.05.17/outbox.cif.g08.bks.cpg/sg2_79_cif.got.tgz:157629.got - 2010.06.03 11:33:40.
