data_PCOD9108657
_publ_section_title
;
Structure prediction by ZEFSAII (Michael W. Deem and Ramdas Pophale) SiO2 
 PCOD9108657
Probable space group: P -1
;
_chemical_formula_sum "Si O2"
_cell_formula_units_Z 14
_cell_length_a 6.936506
_cell_length_b 9.500804
_cell_length_c 9.085469
_cell_angle_alpha 114.836807
_cell_angle_beta 87.840548
_cell_angle_gamma 71.073566
_cell_volume 503.337465
_symmetry_space_group_name_H-M "P -1"
_symmetry_group_IT_number 2
_symmetry_cell_setting 'triclinic'
loop_
_space_group_symop_operation_xyz
x,y,z
-x,-y,-z
loop_
_atom_site_type_symbol
_atom_site_label
_atom_site_fract_x
_atom_site_fract_y
_atom_site_fract_z
Si Si1 0.303766 0.805545 0.836401
Si Si2 0.000000 0.000000 0.500000
Si Si3 0.710477 0.992437 0.691930
Si Si4 0.620039 0.317099 0.536737
Si Si5 0.717164 0.772535 0.334150
Si Si6 0.326640 0.434023 0.123767
Si Si7 0.154314 0.168688 0.077658
Si Si8 0.000000 0.500000 0.000000
O O1 0.399974 0.317491 0.600384
O O2 0.382961 0.685414 0.640578
O O3 0.080557 0.808908 0.884621
O O4 0.271727 0.000460 0.908748
O O5 0.198882 0.860221 0.516850
O O6 0.876800 0.077358 0.708429
O O7 0.804998 0.876092 0.490114
O O8 0.741246 0.877289 0.782838
O O9 0.475702 0.103140 0.702196
O O10 0.682059 0.444566 0.690229
O O11 0.908318 0.654433 0.187056
O O12 0.467268 0.728125 0.928936
O O13 0.150240 0.346226 0.094828
O O14 0.251546 0.510735 0.002493
#
# Coordination Sequence:
#
# PCOD9108657 Si02
#       8
#     2   1   2   2   2   2   2   1
#     4  11  25  47  73 115 147 199 247 309 374 446
#     4  10  20  40  70 104 146 190 250 294 358 446
#     4  10  20  44  73 108 141 201 250 305 363 458
#     4  11  24  46  76 111 148 197 245 312 377 448
#     4  10  24  43  74 104 147 195 254 307 375 446
#     4  12  28  47  73 108 152 197 248 312 375 445
#     4  11  25  46  78 110 150 198 251 305 380 443
#     4  12  28  48  66 106 146 200 244 310 384 434
#
# _framework density 27.814340999999999
#
# number of rings (size 3 to 8) (size 9 to 14) (size 15 to 20)
#    0.000    1.143    1.429    3.429    2.000    5.714 
#    2.571    0.000    0.000    0.000    0.000    0.000 
#    0.000    0.000    0.000    0.000    0.000    0.000 
#
# Total GULP energy -78080.641869 kJ/mol
# GULP energy per Si atom -5577.188705 kJ/mol
# Density = 2.775103 g / cm^3
# Si number density = 27.814341 Si / 1000 Ang^3
#
#
#
# Elastic Constant Matrix: (Units=GPa)
#
#
# Indices 1 2 3 4 5 6 
#
# 1 108.0052 30.2627 29.5158 5.8947 5.5345 -3.8484
# 2 30.2627 97.3869 35.2150 -3.4873 11.7754 -8.1496
# 3 29.5158 35.2150 147.0097 12.2851 25.3748 8.2622
# 4 5.8947 -3.4873 12.2851 46.3949 1.7867 1.1114
# 5 5.5345 11.7754 25.3748 1.7867 56.8977 3.0856
# 6 -3.8484 -8.1496 8.2622 1.1114 3.0856 58.4059
#
#
#
# Elastic Compliance Matrix: (Units=1/GPa)
#
#
# Indices 1 2 3 4 5 6 
#
# 1 0.010494 -0.002776 -0.001404 -0.001190 0.000189 0.000515
# 2 -0.002776 0.012414 -0.002450 0.001941 -0.001372 0.001931
# 3 -0.001404 -0.002450 0.008440 -0.002092 -0.002977 -0.001431
# 4 -0.001190 0.001941 -0.002092 0.022406 -0.000060 0.000065
# 5 0.000189 -0.001372 -0.002977 -0.000060 0.019212 -0.000772
# 6 0.000515 0.001931 -0.001431 0.000065 -0.000772 0.017667
#
#
# Mechanical properties :
#
#
# Convention : Reuss Voigt Hill
#
# Bulk Modulus (GPa) = 55.28592 60.26543 57.77568
# Shear Modulus (GPa) = 45.48649 49.50026 47.49337
#
# Velocity S-wave (km/s) = 4.04835 4.22319 4.13669
# Velocity P-wave (km/s) = 6.46313 6.74496 6.60555
#
# Compressibility (1/GPa) = 0.01808779
#
# Stress axis : x y z
#
# Youngs Moduli (GPa) = 95.29375 80.55502 118.47946
#
# Poissons Ratio (x) = 0.22358 0.16638
# Poissons Ratio (y) = 0.26449 0.29031
# Poissons Ratio (z) = 0.13382 0.19739
#
# Static dielectric constant tensor:
#      x y z
#    x -6.284230 -1.190430 -1.892330 
#    y -1.190430 4.291130 -1.132220 
#    z -1.892330 -1.132220 2.047600 
# 
# From -- ./inp_files/172892.got.cif
#   From: 2010.05.17/outbox.cif.g08.bks.cpg/sg2_87_cif.got.tgz:172892.got - 2010.06.03 11:33:40.
