data_PCOD9108564
_publ_section_title
;
Structure prediction by ZEFSAII (Michael W. Deem and Ramdas Pophale) SiO2 
 PCOD9108564
Probable space group: P -1
;
_chemical_formula_sum "Si O2"
_cell_formula_units_Z 16
_cell_length_a 7.460811
_cell_length_b 8.518941
_cell_length_c 13.944219
_cell_angle_alpha 122.485167
_cell_angle_beta 114.483189
_cell_angle_gamma 72.542454
_cell_volume 676.905247
_symmetry_space_group_name_H-M "P -1"
_symmetry_group_IT_number 2
_symmetry_cell_setting 'triclinic'
loop_
_space_group_symop_operation_xyz
x,y,z
-x,-y,-z
loop_
_atom_site_type_symbol
_atom_site_label
_atom_site_fract_x
_atom_site_fract_y
_atom_site_fract_z
Si Si1 0.817153 0.868641 0.212507
Si Si2 0.595375 0.394632 0.393347
Si Si3 0.342748 0.042179 0.600272
Si Si4 0.960242 0.806034 0.565996
Si Si5 0.378498 0.717391 0.357802
Si Si6 0.982732 0.518466 0.836971
Si Si7 0.005097 0.102636 0.932086
Si Si8 0.209692 0.221888 0.280582
O O1 0.660385 0.940189 0.281187
O O2 0.844977 0.646864 0.162579
O O3 0.818504 0.921515 0.117204
O O4 0.995345 0.982131 0.329298
O O5 0.500000 0.500000 0.500000
O O6 0.823291 0.310952 0.421921
O O7 0.556798 0.552639 0.355692
O O8 0.420874 0.258273 0.295970
O O9 0.157807 0.169300 0.551670
O O10 0.539521 0.122427 0.633972
O O11 0.333414 0.834140 0.485929
O O12 0.830572 0.738024 0.602655
O O13 0.204442 0.605032 0.241950
O O14 0.947195 0.635010 0.767578
O O15 0.006491 0.678979 0.973284
O O16 0.835012 0.991902 0.811870
O O17 0.000000 0.000000 0.000000
#
# Coordination Sequence:
#
# PCOD9108564 Si02
#       8
#     2   2   2   2   2   2   2   2
#     4  11  22  37  66  97 124 172 219 275 325 393
#     4  11  23  37  61  95 135 177 219 265 318 397
#     4  11  23  40  62  96 144 176 214 269 334 397
#     4  11  23  39  63  96 139 177 216 265 329 395
#     4  10  23  40  61  96 138 181 216 264 331 399
#     4  10  20  40  69  93 124 173 229 270 325 396
#     4   9  20  43  70  92 123 171 226 274 336 393
#     4   9  22  40  65  94 131 178 220 268 333 389
#
# _framework density 23.636984999999999
#
# number of rings (size 3 to 8) (size 9 to 14) (size 15 to 20)
#    0.000    1.750    1.250    2.250    5.250    2.000 
#    0.000    0.625    5.500    9.750    0.000    0.000 
#    0.000    0.000    0.000    0.000    0.000    0.000 
#
# Total GULP energy -89100.886241 kJ/mol
# GULP energy per Si atom -5568.805390 kJ/mol
# Density = 2.358319 g / cm^3
# Si number density = 23.636985 Si / 1000 Ang^3
#
#
#
# Elastic Constant Matrix: (Units=GPa)
#
#
# Indices 1 2 3 4 5 6 
#
# 1 91.0399 54.4957 34.0793 -2.9612 -8.4513 -5.5605
# 2 54.4957 116.6361 51.9093 6.4041 -10.9660 -2.0567
# 3 34.0793 51.9093 103.7782 25.3032 -15.9859 10.5386
# 4 -2.9612 6.4041 25.3032 57.4034 15.0029 2.1329
# 5 -8.4513 -10.9660 -15.9859 15.0029 27.4501 -2.9356
# 6 -5.5605 -2.0567 10.5386 2.1329 -2.9356 46.8284
#
#
#
# Elastic Compliance Matrix: (Units=1/GPa)
#
#
# Indices 1 2 3 4 5 6 
#
# 1 0.016131 -0.006301 -0.003280 0.003148 -0.000949 0.002174
# 2 -0.006301 0.013738 -0.004755 -0.000034 0.000903 0.000983
# 3 -0.003280 -0.004755 0.018168 -0.011006 0.013328 -0.003350
# 4 0.003148 -0.000034 -0.011006 0.027819 -0.020628 0.000289
# 5 -0.000949 0.000903 0.013328 -0.020628 0.055679 0.001357
# 6 0.002174 0.000983 -0.003350 0.000289 0.001357 0.022482
#
#
# Mechanical properties :
#
#
# Convention : Reuss Voigt Hill
#
# Bulk Modulus (GPa) = 51.63838 65.82477 58.73157
# Shear Modulus (GPa) = 26.43499 37.73437 32.08468
#
# Velocity S-wave (km/s) = 3.34784 3.99985 3.68828
# Velocity P-wave (km/s) = 6.06942 7.01715 6.56042
#
# Compressibility (1/GPa) = 0.01936544
#
# Stress axis : x y z
#
# Youngs Moduli (GPa) = 61.99398 72.79160 55.04079
#
# Poissons Ratio (x) = 0.45863 0.18054
# Poissons Ratio (y) = 0.39060 0.26172
# Poissons Ratio (z) = 0.20334 0.34612
#
# Static dielectric constant tensor:
#      x y z
#    x 1.965840 -0.028890 0.018100 
#    y -0.028890 2.012910 -0.033200 
#    z 0.018100 -0.033200 1.984700 
# 
# From -- ./inp_files/493673.got.cif
#   From: 2010.05.17/outbox.cif.g08.bks.cpg/sg2_247_cif.got.tgz:493673.got - 2010.06.03 11:33:40.
