data_PCOD9108470
_publ_section_title
;
Structure prediction by ZEFSAII (Michael W. Deem and Ramdas Pophale) SiO2 
 PCOD9108470
Probable space group: P -1
;
_chemical_formula_sum "Si O2"
_cell_formula_units_Z 14
_cell_length_a 11.120354
_cell_length_b 7.060745
_cell_length_c 19.209233
_cell_angle_alpha 52.888334
_cell_angle_beta 150.525419
_cell_angle_gamma 109.352778
_cell_volume 514.511044
_symmetry_space_group_name_H-M "P -1"
_symmetry_group_IT_number 2
_symmetry_cell_setting 'triclinic'
loop_
_space_group_symop_operation_xyz
x,y,z
-x,-y,-z
loop_
_atom_site_type_symbol
_atom_site_label
_atom_site_fract_x
_atom_site_fract_y
_atom_site_fract_z
Si Si1 0.389134 0.723494 0.493539
Si Si2 0.744174 0.451247 0.406457
Si Si3 0.459457 0.000356 0.743409
Si Si4 0.354215 0.736637 0.026611
Si Si5 0.982431 0.506461 0.907775
Si Si6 0.752346 0.699244 0.563023
Si Si7 0.373043 0.256481 0.980647
O O1 0.195167 0.784442 0.453696
O O2 0.505779 0.851784 0.462745
O O3 0.301797 0.535671 0.446079
O O4 0.692131 0.561570 0.719344
O O5 0.564249 0.486937 0.238427
O O6 0.000000 0.500000 0.500000
O O7 0.562618 0.726738 0.297634
O O8 0.774621 0.785995 0.929716
O O9 0.274099 0.102100 0.557915
O O10 0.417467 0.857710 0.822342
O O11 0.062747 0.737652 0.876125
O O12 0.489955 0.697714 0.028513
O O13 0.318254 0.010998 0.982361
O O14 0.000000 0.500000 0.000000
O O15 0.074759 0.520251 0.789561
#
# Coordination Sequence:
#
# PCOD9108470 Si02
#       7
#     2   2   2   2   2   2   2
#     4  10  21  39  66  95 134 177 219 285 331 393
#     4  10  20  40  68  97 131 177 235 279 321 403
#     4  10  23  41  70  97 134 180 223 275 341 396
#     4  10  22  38  69  98 133 183 225 279 337 403
#     4  12  24  43  66 102 144 179 217 280 355 402
#     4  10  21  41  69 101 127 172 242 278 322 408
#     4  10  21  44  70  96 129 182 237 275 327 401
#
# _framework density 27.2103
#
# number of rings (size 3 to 8) (size 9 to 14) (size 15 to 20)
#    0.000    1.714    2.857    1.714    0.000    6.286 
#    0.000    5.714    3.143    0.000    0.000    0.000 
#    0.000    0.000    0.000    0.000    0.000    0.000 
#
# Total GULP energy -78242.593574 kJ/mol
# GULP energy per Si atom -5588.756684 kJ/mol
# Density = 2.714837 g / cm^3
# Si number density = 27.210300 Si / 1000 Ang^3
#
#
#
# Elastic Constant Matrix: (Units=GPa)
#
#
# Indices 1 2 3 4 5 6 
#
# 1 223.7121 26.5968 54.1106 -3.4141 -33.6347 6.9848
# 2 26.5968 101.2349 16.2771 -7.2056 7.2805 22.4830
# 3 54.1106 16.2771 68.3097 10.1103 -40.3485 10.8592
# 4 -3.4141 -7.2056 10.1103 41.1605 8.8002 0.1425
# 5 -33.6347 7.2805 -40.3485 8.8002 57.5893 5.0456
# 6 6.9848 22.4830 10.8592 0.1425 5.0456 38.9206
#
#
#
# Elastic Compliance Matrix: (Units=1/GPa)
#
#
# Indices 1 2 3 4 5 6 
#
# 1 0.005692 -0.000753 -0.004885 0.001606 -0.000319 0.000812
# 2 -0.000753 0.013168 -0.007112 0.005619 -0.007549 -0.004529
# 3 -0.004885 -0.007112 0.044760 -0.019757 0.033456 -0.011768
# 4 0.001606 0.005619 -0.019757 0.034365 -0.019247 0.004347
# 5 -0.000319 -0.007549 0.033456 -0.019247 0.045454 -0.010738
# 6 0.000812 -0.004529 -0.011768 0.004347 -0.010738 0.032824
#
#
# Mechanical properties :
#
#
# Convention : Reuss Voigt Hill
#
# Bulk Modulus (GPa) = 26.23295 65.24731 45.74013
# Shear Modulus (GPa) = 23.31331 47.28557 35.29944
#
# Velocity S-wave (km/s) = 2.93026 4.17319 3.60569
# Velocity P-wave (km/s) = 4.59460 6.87399 5.84645
#
# Compressibility (1/GPa) = 0.03812000
#
# Stress axis : x y z
#
# Youngs Moduli (GPa) = 175.67725 75.94059 22.34154
#
# Poissons Ratio (x) = 0.05720 0.10913
# Poissons Ratio (y) = 0.13231 0.15890
# Poissons Ratio (z) = 0.85815 0.54010
#
# Static dielectric constant tensor:
#      x y z
#    x 2.219350 0.000120 -0.047820 
#    y 0.000120 2.143210 -0.114100 
#    z -0.047820 -0.114100 2.154510 
# 
# From -- ./inp_files/593493.got.cif
#   From: 2010.05.17/outbox.cif.g08.bks.cpg/sg2_297_cif.got.tgz:593493.got - 2010.06.03 11:33:40.
