data_PCOD9108197
_publ_section_title
;
Structure prediction by ZEFSAII (Michael W. Deem and Ramdas Pophale) SiO2 
 PCOD9108197
Probable space group: P -1
;
_chemical_formula_sum "Si O2"
_cell_formula_units_Z 16
_cell_length_a 10.936116
_cell_length_b 14.192306
_cell_length_c 11.479486
_cell_angle_alpha 149.127602
_cell_angle_beta 138.827301
_cell_angle_gamma 42.432547
_cell_volume 579.128763
_symmetry_space_group_name_H-M "P -1"
_symmetry_group_IT_number 2
_symmetry_cell_setting 'triclinic'
loop_
_space_group_symop_operation_xyz
x,y,z
-x,-y,-z
loop_
_atom_site_type_symbol
_atom_site_label
_atom_site_fract_x
_atom_site_fract_y
_atom_site_fract_z
Si Si1 0.417194 0.115631 0.850593
Si Si2 0.835899 0.543282 0.085923
Si Si3 0.738438 0.222009 0.555263
Si Si4 0.920437 0.892871 0.729703
Si Si5 0.796106 0.569140 0.355866
Si Si6 0.671426 0.384399 0.278576
Si Si7 0.260301 0.328274 0.195481
Si Si8 0.062034 0.031438 0.766029
O O1 0.589839 0.199441 0.020361
O O2 0.378559 0.205759 0.047282
O O3 0.240745 0.236211 0.771131
O O4 0.401877 0.901289 0.627993
O O5 0.803486 0.505515 0.158947
O O6 0.063937 0.466056 0.147603
O O7 0.709290 0.440414 0.805112
O O8 0.935780 0.139728 0.683857
O O9 0.796802 0.154828 0.392936
O O10 0.100775 0.712985 0.635603
O O11 0.756908 0.798463 0.556705
O O12 0.910171 0.018713 0.742307
O O13 0.000000 0.000000 0.000000
O O14 0.659503 0.484761 0.249982
O O15 0.000000 0.500000 0.500000
O O16 0.627869 0.549195 0.521316
O O17 0.188072 0.170144 0.049477
#
# Coordination Sequence:
#
# PCOD9108197 Si02
#       8
#     2   2   2   2   2   2   2   2
#     4  11  24  41  61  98 134 165 198 258 327 373
#     4  11  21  39  70  90 121 172 216 250 310 375
#     4   9  21  37  61  93 129 156 204 264 305 371
#     4  11  22  36  65  92 114 167 217 257 307 366
#     4  10  21  40  62  89 120 158 215 262 299 368
#     4  11  24  41  60  92 132 161 208 260 318 367
#     4  10  20  40  67  92 124 166 210 259 301 378
#     4   9  19  37  61  94 120 155 215 264 300 358
#
# _framework density 27.627707999999998
#
# number of rings (size 3 to 8) (size 9 to 14) (size 15 to 20)
#    0.000    1.750    2.500    3.000    7.000    0.500 
#    4.500    1.875    0.000    0.000    0.000    0.000 
#    0.000    0.000    0.000    0.000    0.000    0.000 
#
# Total GULP energy -89481.052574 kJ/mol
# GULP energy per Si atom -5592.565786 kJ/mol
# Density = 2.756483 g / cm^3
# Si number density = 27.627708 Si / 1000 Ang^3
#
#
#
# Elastic Constant Matrix: (Units=GPa)
#
#
# Indices 1 2 3 4 5 6 
#
# 1 80.5487 7.9282 31.6581 3.5719 20.6276 32.5745
# 2 7.9282 73.7413 25.8816 3.1451 5.6531 18.5706
# 3 31.6581 25.8816 195.8126 0.8411 16.5761 6.1888
# 4 3.5719 3.1451 0.8411 53.1170 7.3428 12.6059
# 5 20.6276 5.6531 16.5761 7.3428 51.3252 -1.3428
# 6 32.5745 18.5706 6.1888 12.6059 -1.3428 33.6359
#
#
#
# Elastic Compliance Matrix: (Units=1/GPa)
#
#
# Indices 1 2 3 4 5 6 
#
# 1 0.032484 0.008569 -0.003906 0.008789 -0.015025 -0.039365
# 2 0.008569 0.018901 -0.002789 0.003858 -0.005697 -0.019894
# 3 -0.003906 -0.002789 0.005952 -0.000765 0.000183 0.004522
# 4 0.008789 0.003858 -0.000765 0.023750 -0.007624 -0.019706
# 5 -0.015025 -0.005697 0.000183 -0.007624 0.027747 0.021628
# 6 -0.039365 -0.019894 0.004522 -0.019706 0.021628 0.086253
#
#
# Mechanical properties :
#
#
# Convention : Reuss Voigt Hill
#
# Bulk Modulus (GPa) = 16.37082 53.44874 34.90978
# Shear Modulus (GPa) = 23.61816 46.59127 35.10472
#
# Velocity S-wave (km/s) = 2.92699 4.11103 3.56846
# Velocity P-wave (km/s) = 4.16670 6.47473 5.44443
#
# Compressibility (1/GPa) = 0.06108428
#
# Stress axis : x y z
#
# Youngs Moduli (GPa) = 30.78411 52.90814 168.00967
#
# Poissons Ratio (x) = -0.45337 0.65628
# Poissons Ratio (y) = -0.26379 0.46860
# Poissons Ratio (z) = 0.12025 0.14757
#
# Static dielectric constant tensor:
#      x y z
#    x 2.356710 -0.070540 0.050420 
#    y -0.070540 2.247210 0.070330 
#    z 0.050420 0.070330 2.247590 
# 
# From -- ./inp_files/272745.got.cif
#   From: 2010.05.17/outbox.cif.g08.bks.cpg/sg2_137_cif.got.tgz:272745.got - 2010.06.03 11:33:40.
