data_PCOD9108271
_publ_section_title
;
Structure prediction by ZEFSAII (Michael W. Deem and Ramdas Pophale) SiO2 
 PCOD9108271
Probable space group: P -1
;
_chemical_formula_sum "Si O2"
_cell_formula_units_Z 16
_cell_length_a 6.531520
_cell_length_b 8.975552
_cell_length_c 17.518652
_cell_angle_alpha 125.684553
_cell_angle_beta 108.076955
_cell_angle_gamma 50.014525
_cell_volume 635.709796
_symmetry_space_group_name_H-M "P -1"
_symmetry_group_IT_number 2
_symmetry_cell_setting 'triclinic'
loop_
_space_group_symop_operation_xyz
x,y,z
-x,-y,-z
loop_
_atom_site_type_symbol
_atom_site_label
_atom_site_fract_x
_atom_site_fract_y
_atom_site_fract_z
Si Si1 0.164477 0.608439 0.048912
Si Si2 0.271352 0.414944 0.154611
Si Si3 0.091801 0.063617 0.207429
Si Si4 0.015547 0.777453 0.922792
Si Si5 0.664706 0.808172 0.259269
Si Si6 0.459381 0.651963 0.321013
Si Si7 0.832018 0.418609 0.423563
Si Si8 0.115375 0.942423 0.581098
O O1 0.357064 0.463332 0.099158
O O2 0.036698 0.871565 0.137488
O O3 0.000000 0.500000 0.000000
O O4 0.215189 0.610957 0.965203
O O5 0.255418 0.204500 0.087127
O O6 0.442621 0.439730 0.243182
O O7 0.956536 0.618839 0.199679
O O8 0.974582 0.227437 0.169225
O O9 0.983447 0.225446 0.317035
O O10 0.416613 0.917945 0.205195
O O11 0.000000 0.000000 0.000000
O O12 0.607165 0.694299 0.286385
O O13 0.680784 0.999578 0.356994
O O14 0.578490 0.625462 0.410168
O O15 0.154387 0.874307 0.347680
O O16 0.000000 0.500000 0.500000
O O17 0.779743 0.304117 0.451139
O O18 0.000000 0.000000 0.500000
#
# Coordination Sequence:
#
# PCOD9108271 Si02
#       8
#     2   2   2   2   2   2   2   2
#     4   9  18  40  69  95 139 181 228 285 343 415
#     4  10  20  40  67  96 133 181 227 277 346 415
#     4  11  21  42  68  99 143 181 228 291 346 400
#     4   9  20  36  65  96 136 178 224 289 340 416
#     4  11  22  41  70  95 133 188 223 285 355 401
#     4  11  24  45  70  98 138 182 235 283 348 409
#     4  12  27  45  73 104 139 188 235 285 344 416
#     4  11  26  45  67 100 136 177 232 295 346 408
#
# _framework density 25.168718999999999
#
# number of rings (size 3 to 8) (size 9 to 14) (size 15 to 20)
#    0.000    1.500    2.500    2.250    3.500    2.500 
#    0.000    6.250   11.000    0.000    0.000    0.000 
#    0.000    0.000    0.000    0.000    0.000    0.000 
#
# Total GULP energy -89330.671801 kJ/mol
# GULP energy per Si atom -5583.166988 kJ/mol
# Density = 2.511143 g / cm^3
# Si number density = 25.168719 Si / 1000 Ang^3
#
#
#
# Elastic Constant Matrix: (Units=GPa)
#
#
# Indices 1 2 3 4 5 6 
#
# 1 130.9033 57.8679 55.2485 11.9227 9.6929 23.2617
# 2 57.8679 114.5120 49.0264 -15.6573 8.7004 26.0616
# 3 55.2485 49.0264 148.6529 -11.4259 26.4648 20.1385
# 4 11.9227 -15.6573 -11.4259 53.3487 8.8150 -0.3039
# 5 9.6929 8.7004 26.4648 8.8150 54.0462 2.3216
# 6 23.2617 26.0616 20.1385 -0.3039 2.3216 53.4409
#
#
#
# Elastic Compliance Matrix: (Units=1/GPa)
#
#
# Indices 1 2 3 4 5 6 
#
# 1 0.011837 -0.005059 -0.003091 -0.004980 0.001086 -0.001596
# 2 -0.005059 0.013552 -0.001484 0.004966 -0.001196 -0.003767
# 3 -0.003091 -0.001484 0.009543 0.003004 -0.004313 -0.001323
# 4 -0.004980 0.004966 0.003004 0.022787 -0.005049 -0.001037
# 5 0.001086 -0.001196 -0.004313 -0.005049 0.021402 0.000777
# 6 -0.001596 -0.003767 -0.001323 -0.001037 0.000777 0.021703
#
#
# Mechanical properties :
#
#
# Convention : Reuss Voigt Hill
#
# Bulk Modulus (GPa) = 63.83974 79.81710 71.82842
# Shear Modulus (GPa) = 39.89991 47.62886 43.76438
#
# Velocity S-wave (km/s) = 3.98590 4.35487 4.17446
# Velocity P-wave (km/s) = 6.82664 7.55435 7.19969
#
# Compressibility (1/GPa) = 0.01566422
#
# Stress axis : x y z
#
# Youngs Moduli (GPa) = 84.48208 73.79075 104.78532
#
# Poissons Ratio (x) = 0.37328 0.32387
# Poissons Ratio (y) = 0.42736 0.15555
# Poissons Ratio (z) = 0.26112 0.10954
#
# Static dielectric constant tensor:
#      x y z
#    x 2.006340 -0.040950 -0.034780 
#    y -0.040950 2.025160 0.056800 
#    z -0.034780 0.056800 2.075240 
# 
# From -- ./inp_files/548339.got.cif
#   From: 2010.05.17/outbox.cif.g08.bks.cpg/sg2_275_cif.got.tgz:548339.got - 2010.06.03 11:33:40.
