data_PCOD9108642
_publ_section_title
;
Structure prediction by ZEFSAII (Michael W. Deem and Ramdas Pophale) SiO2 
 PCOD9108642
Probable space group: P -1
;
_chemical_formula_sum "Si O2"
_cell_formula_units_Z 14
_cell_length_a 10.619643
_cell_length_b 7.529558
_cell_length_c 12.929479
_cell_angle_alpha 128.061734
_cell_angle_beta 140.133210
_cell_angle_gamma 71.536470
_cell_volume 496.062905
_symmetry_space_group_name_H-M "P -1"
_symmetry_group_IT_number 2
_symmetry_cell_setting 'triclinic'
loop_
_space_group_symop_operation_xyz
x,y,z
-x,-y,-z
loop_
_atom_site_type_symbol
_atom_site_label
_atom_site_fract_x
_atom_site_fract_y
_atom_site_fract_z
Si Si1 0.553731 0.813118 0.324914
Si Si2 0.959981 0.481765 0.348816
Si Si3 0.620304 0.259309 0.408111
Si Si4 0.806367 0.989245 0.741772
Si Si5 0.787552 0.626785 0.116167
Si Si6 0.868151 0.623532 0.822161
Si Si7 0.315638 0.034493 0.968486
O O1 0.628627 0.998783 0.345969
O O2 0.728085 0.856467 0.537800
O O3 0.370541 0.902996 0.291820
O O4 0.436710 0.547497 0.120174
O O5 0.826467 0.630867 0.264397
O O6 0.000000 0.500000 0.500000
O O7 0.187275 0.592396 0.484552
O O8 0.821238 0.206736 0.149441
O O9 0.660418 0.400101 0.594788
O O10 0.421878 0.215677 0.193964
O O11 0.837058 0.811026 0.785149
O O12 0.016688 0.211553 0.951361
O O13 0.812385 0.869076 0.161242
O O14 0.955618 0.500102 0.139913
O O15 0.500000 0.000000 0.000000
#
# Coordination Sequence:
#
# PCOD9108642 Si02
#       7
#     2   2   2   2   2   2   2
#     4  10  20  40  70 102 135 182 232 276 340 411
#     4  11  24  48  67 102 135 174 233 282 343 414
#     4  11  23  43  68 101 136 182 224 280 345 399
#     4   9  19  39  69  97 139 180 228 282 335 403
#     4  10  23  44  68 100 137 177 230 277 344 406
#     4   9  20  41  61 102 134 176 227 276 337 400
#     4  12  25  47  71  99 135 181 229 288 341 405
#
# _framework density 28.222228999999999
#
# number of rings (size 3 to 8) (size 9 to 14) (size 15 to 20)
#    0.000    1.714    2.857    0.857    0.000    2.286 
#   15.429    0.000    0.000    0.000    0.000    0.000 
#    0.000    0.000    0.000    0.000    0.000    0.000 
#
# Total GULP energy -78406.392673 kJ/mol
# GULP energy per Si atom -5600.456619 kJ/mol
# Density = 2.815799 g / cm^3
# Si number density = 28.222229 Si / 1000 Ang^3
#
#
#
# Elastic Constant Matrix: (Units=GPa)
#
#
# Indices 1 2 3 4 5 6 
#
# 1 80.4980 19.2762 30.4554 -6.8667 17.6107 14.4591
# 2 19.2762 142.4839 41.6366 -29.7543 13.9414 20.1810
# 3 30.4554 41.6366 222.1225 -8.4943 9.6884 13.6718
# 4 -6.8667 -29.7543 -8.4943 58.4952 12.5172 1.0056
# 5 17.6107 13.9414 9.6884 12.5172 48.8788 -2.2050
# 6 14.4591 20.1810 13.6718 1.0056 -2.2050 42.0779
#
#
#
# Elastic Compliance Matrix: (Units=1/GPa)
#
#
# Indices 1 2 3 4 5 6 
#
# 1 0.015580 0.000439 -0.001466 0.003336 -0.006551 -0.005511
# 2 0.000439 0.009604 -0.001157 0.005784 -0.004364 -0.004748
# 3 -0.001466 -0.001157 0.004961 0.000002 -0.000151 -0.000561
# 4 0.003336 0.005784 0.000002 0.022399 -0.008810 -0.004918
# 5 -0.006551 -0.004364 -0.000151 -0.008810 0.026620 0.005998
# 6 -0.005511 -0.004748 -0.000561 -0.004918 0.005998 0.028551
#
#
# Mechanical properties :
#
#
# Convention : Reuss Voigt Hill
#
# Bulk Modulus (GPa) = 38.79385 69.76010 54.27698
# Shear Modulus (GPa) = 41.43341 53.47279 47.45310
#
# Velocity S-wave (km/s) = 3.83575 4.35754 4.10495
# Velocity P-wave (km/s) = 5.77867 7.07738 6.46074
#
# Compressibility (1/GPa) = 0.02577728
#
# Stress axis : x y z
#
# Youngs Moduli (GPa) = 64.18608 104.11906 201.57014
#
# Poissons Ratio (x) = -0.04567 0.29548
# Poissons Ratio (y) = -0.02816 0.23315
# Poissons Ratio (z) = 0.09409 0.12043
#
# Static dielectric constant tensor:
#      x y z
#    x 2.383400 -0.058670 -0.071530 
#    y -0.058670 2.125000 0.003360 
#    z -0.071530 0.003360 2.192460 
# 
# From -- ./inp_files/525971.got.cif
#   From: 2010.05.17/outbox.cif.g08.bks.cpg/sg2_263_cif.got.tgz:525971.got - 2010.06.03 11:33:40.
