data_PCOD9108223
_publ_section_title
;
Structure prediction by ZEFSAII (Michael W. Deem and Ramdas Pophale) SiO2 
 PCOD9108223
Probable space group: P -1
;
_chemical_formula_sum "Si O2"
_cell_formula_units_Z 14
_cell_length_a 8.847219
_cell_length_b 9.020650
_cell_length_c 17.826429
_cell_angle_alpha 63.815122
_cell_angle_beta 74.908019
_cell_angle_gamma 32.459324
_cell_volume 666.424844
_symmetry_space_group_name_H-M "P -1"
_symmetry_group_IT_number 2
_symmetry_cell_setting 'triclinic'
loop_
_space_group_symop_operation_xyz
x,y,z
-x,-y,-z
loop_
_atom_site_type_symbol
_atom_site_label
_atom_site_fract_x
_atom_site_fract_y
_atom_site_fract_z
Si Si1 0.610932 0.306854 0.921493
Si Si2 0.278827 0.139350 0.060575
Si Si3 0.186722 0.939769 0.882501
Si Si4 0.174437 0.212500 0.495524
Si Si5 0.393157 0.106158 0.775604
Si Si6 0.135639 0.196736 0.326267
Si Si7 0.836546 0.187348 0.554796
O O1 0.307810 0.673550 0.880524
O O2 0.699020 0.077121 0.908062
O O3 0.652325 0.207972 0.024093
O O4 0.854153 0.224842 0.886672
O O5 0.380249 0.086620 0.142819
O O6 0.000000 0.500000 0.000000
O O7 0.500000 0.000000 0.000000
O O8 0.256445 0.045822 0.807180
O O9 0.114210 0.245963 0.407227
O O10 0.000000 0.500000 0.500000
O O11 0.030844 0.171285 0.559248
O O12 0.500000 0.000000 0.500000
O O13 0.142525 0.461471 0.745659
O O14 0.569534 0.991524 0.703518
O O15 0.141546 0.994769 0.355876
O O16 0.500000 0.500000 0.500000
O O17 0.000000 0.000000 0.500000
#
# Coordination Sequence:
#
# PCOD9108223 Si02
#       7
#     2   2   2   2   2   2   2
#     4  10  21  38  60  86 113 157 225 266 313 376
#     4  12  24  40  62  90 120 166 224 274 311 381
#     4  10  21  37  61  85 118 163 206 267 323 387
#     4  11  22  41  70 101 125 166 219 264 310 393
#     4  12  24  41  62  92 130 170 210 275 339 376
#     4  11  24  42  63  95 132 169 209 262 337 403
#     4  10  20  40  67  93 128 172 214 252 314 407
#
# _framework density 21.007619999999999
#
# number of rings (size 3 to 8) (size 9 to 14) (size 15 to 20)
#    0.000    1.143    1.429    6.857    4.000    0.000 
#    0.000    8.571    0.000    0.000    0.000    0.000 
#    0.000    0.000    0.000    0.000    0.000    0.000 
#
# Total GULP energy -77972.353480 kJ/mol
# GULP energy per Si atom -5569.453820 kJ/mol
# Density = 2.095981 g / cm^3
# Si number density = 21.007620 Si / 1000 Ang^3
#
#
#
# Elastic Constant Matrix: (Units=GPa)
#
#
# Indices 1 2 3 4 5 6 
#
# 1 108.7574 37.4721 33.8644 -5.9215 -33.7876 -0.0006
# 2 37.4721 155.4298 23.2062 -10.2715 -22.5340 -15.7907
# 3 33.8644 23.2062 51.8413 -2.2978 -30.3024 -9.4001
# 4 -5.9215 -10.2715 -2.2978 40.2916 -7.1257 0.1271
# 5 -33.7876 -22.5340 -30.3024 -7.1257 43.1320 7.4260
# 6 -0.0006 -15.7907 -9.4001 0.1271 7.4260 41.1143
#
#
#
# Elastic Compliance Matrix: (Units=1/GPa)
#
#
# Indices 1 2 3 4 5 6 
#
# 1 0.013628 -0.001657 -0.003857 0.002798 0.008076 -0.002986
# 2 -0.001657 0.007614 -0.000466 0.002067 0.002281 0.002399
# 3 -0.003857 -0.000466 0.035931 0.005269 0.022158 0.004018
# 4 0.002798 0.002067 0.005269 0.028119 0.011652 -0.000193
# 5 0.008076 0.002281 0.022158 0.011652 0.048692 -0.002889
# 6 -0.002986 0.002399 0.004018 -0.000193 -0.002889 0.026685
#
#
# Mechanical properties :
#
#
# Convention : Reuss Voigt Hill
#
# Bulk Modulus (GPa) = 22.11753 56.12376 39.12065
# Shear Modulus (GPa) = 26.63814 39.67331 33.15572
#
# Velocity S-wave (km/s) = 3.56479 4.35042 3.97706
# Velocity P-wave (km/s) = 5.24356 7.21171 6.30491
#
# Compressibility (1/GPa) = 0.04521300
#
# Stress axis : x y z
#
# Youngs Moduli (GPa) = 73.37735 131.33979 27.83080
#
# Poissons Ratio (x) = 0.21766 0.10734
# Poissons Ratio (y) = 0.12160 0.01297
# Poissons Ratio (z) = 0.28302 0.06121
#
# Static dielectric constant tensor:
#      x y z
#    x 1.936510 -0.001270 -0.071060 
#    y -0.001270 1.750420 -0.037770 
#    z -0.071060 -0.037770 1.773440 
# 
# From -- ./inp_files/223333.got.cif
#   From: 2010.05.17/outbox.cif.g08.bks.cpg/sg2_112_cif.got.tgz:223333.got - 2010.06.03 11:33:40.
