data_PCOD9108549
_publ_section_title
;
Structure prediction by ZEFSAII (Michael W. Deem and Ramdas Pophale) SiO2 
 PCOD9108549
Probable space group: P -1
;
_chemical_formula_sum "Si O2"
_cell_formula_units_Z 16
_cell_length_a 9.553417
_cell_length_b 27.013697
_cell_length_c 12.655919
_cell_angle_alpha 151.032643
_cell_angle_beta 151.166000
_cell_angle_gamma 40.291355
_cell_volume 762.783234
_symmetry_space_group_name_H-M "P -1"
_symmetry_group_IT_number 2
_symmetry_cell_setting 'triclinic'
loop_
_space_group_symop_operation_xyz
x,y,z
-x,-y,-z
loop_
_atom_site_type_symbol
_atom_site_label
_atom_site_fract_x
_atom_site_fract_y
_atom_site_fract_z
Si Si1 0.244665 0.415231 0.678934
Si Si2 0.196789 0.332800 0.266344
Si Si3 0.759998 0.547950 0.694919
Si Si4 0.743205 0.767225 0.172795
Si Si5 0.354457 0.904544 0.039907
Si Si6 0.661479 0.873705 0.523946
Si Si7 0.619397 0.153009 0.273727
Si Si8 0.591096 0.216565 0.599658
O O1 0.127509 0.391686 0.439397
O O2 0.378001 0.311336 0.616798
O O3 0.004019 0.463818 0.685012
O O4 0.500000 0.500000 0.000000
O O5 0.291913 0.409661 0.379308
O O6 0.452704 0.256253 0.323837
O O7 0.915530 0.266657 0.917283
O O8 0.500000 0.500000 0.500000
O O9 0.836798 0.651614 0.002241
O O10 0.522744 0.808281 0.016648
O O11 0.606393 0.793817 0.244607
O O12 0.035976 0.832703 0.477430
O O13 0.430284 0.010539 0.346060
O O14 0.440508 0.919898 0.001990
O O15 0.011185 0.882030 0.785162
O O16 0.499235 0.837234 0.452925
O O17 0.555671 0.141735 0.334809
#
# Coordination Sequence:
#
# PCOD9108549 Si02
#       8
#     2   2   2   2   2   2   2   2
#     4  11  24  42  65  90 129 174 218 260 323 381
#     4  11  22  43  63  88 131 171 206 267 320 376
#     4  12  25  38  64  96 122 169 216 259 315 374
#     4  11  22  43  63  88 133 164 207 264 324 373
#     4  10  21  44  66  92 126 167 209 263 327 372
#     4  10  25  39  67  96 122 167 214 261 319 393
#     4  10  20  40  69  88 126 169 204 265 317 379
#     4  11  23  40  64  94 126 167 212 260 321 375
#
# _framework density 20.975815999999998
#
# number of rings (size 3 to 8) (size 9 to 14) (size 15 to 20)
#    0.000    1.250    3.750    1.500    3.500    1.500 
#    0.000    4.375    0.000    0.000    0.000    0.000 
#    0.000    0.000    0.000    0.000    0.000    0.000 
#
# Total GULP energy -89299.365027 kJ/mol
# GULP energy per Si atom -5581.210314 kJ/mol
# Density = 2.092807 g / cm^3
# Si number density = 20.975816 Si / 1000 Ang^3
#
#
#
# Elastic Constant Matrix: (Units=GPa)
#
#
# Indices 1 2 3 4 5 6 
#
# 1 149.5177 14.2603 33.5945 -3.5472 -5.9324 -0.9580
# 2 14.2603 39.3944 10.3510 -7.9730 8.4114 -13.3565
# 3 33.5945 10.3510 44.1571 -1.4660 -19.5021 0.2529
# 4 -3.5472 -7.9730 -1.4660 20.0516 -2.2669 -1.6256
# 5 -5.9324 8.4114 -19.5021 -2.2669 31.7254 1.9305
# 6 -0.9580 -13.3565 0.2529 -1.6256 1.9305 36.3668
#
#
#
# Elastic Compliance Matrix: (Units=1/GPa)
#
#
# Indices 1 2 3 4 5 6 
#
# 1 0.008311 -0.000055 -0.007680 0.000568 -0.003139 0.000444
# 2 -0.000055 0.046232 -0.021743 0.015434 -0.025698 0.019183
# 3 -0.007680 -0.021743 0.048900 -0.003349 0.034789 -0.010524
# 4 0.000568 0.015434 -0.003349 0.056255 -0.002533 0.008356
# 5 -0.003139 -0.025698 0.034789 -0.002533 0.059745 -0.013047
# 6 0.000444 0.019183 -0.010524 0.008356 -0.013047 0.035694
#
#
# Mechanical properties :
#
#
# Convention : Reuss Voigt Hill
#
# Bulk Modulus (GPa) = 22.47809 38.83118 30.65464
# Shear Modulus (GPa) = 15.20130 29.28633 22.24382
#
# Velocity S-wave (km/s) = 2.69496 3.74062 3.25999
# Velocity P-wave (km/s) = 4.51920 6.09991 5.36806
#
# Compressibility (1/GPa) = 0.04448776
#
# Stress axis : x y z
#
# Youngs Moduli (GPa) = 120.32629 21.63023 20.45005
#
# Poissons Ratio (x) = 0.00118 0.15705
# Poissons Ratio (y) = 0.00658 0.44464
# Poissons Ratio (z) = 0.92409 0.47030
#
# Static dielectric constant tensor:
#      x y z
#    x 1.763660 -0.006680 -0.050550 
#    y -0.006680 1.702240 -0.001050 
#    z -0.050550 -0.001050 1.774670 
# 
# From -- ./inp_files/46223.got.cif
#   From: 2010.05.17/outbox.cif.g08.bks.cpg/sg2_24_cif.got.tgz:46223.got - 2010.06.03 11:33:40.
