data_PCOD9108845
_publ_section_title
;
Structure prediction by ZEFSAII (Michael W. Deem and Ramdas Pophale) SiO2 
 PCOD9108845
Probable space group: P -1
;
_chemical_formula_sum "Si O2"
_cell_formula_units_Z 16
_cell_length_a 5.762578
_cell_length_b 26.075862
_cell_length_c 5.698659
_cell_angle_alpha 127.486615
_cell_angle_beta 73.076559
_cell_angle_gamma 102.237912
_cell_volume 649.364664
_symmetry_space_group_name_H-M "P -1"
_symmetry_group_IT_number 2
_symmetry_cell_setting 'triclinic'
loop_
_space_group_symop_operation_xyz
x,y,z
-x,-y,-z
loop_
_atom_site_type_symbol
_atom_site_label
_atom_site_fract_x
_atom_site_fract_y
_atom_site_fract_z
Si Si1 0.126581 0.934404 0.846346
Si Si2 0.491965 0.722097 0.858312
Si Si3 0.998378 0.718368 0.217472
Si Si4 0.365770 0.933275 0.269804
Si Si5 0.778290 0.616846 0.718521
Si Si6 0.708127 0.490593 0.119738
Si Si7 0.238707 0.651608 0.346566
Si Si8 0.735594 0.824989 0.793757
O O1 0.229213 0.913780 0.502422
O O2 0.959575 0.875522 0.836655
O O3 0.268590 0.953171 0.096930
O O4 0.000000 0.000000 0.000000
O O5 0.589240 0.671497 0.871837
O O6 0.459091 0.678093 0.514377
O O7 0.678154 0.781904 0.922112
O O8 0.217173 0.740162 0.041216
O O9 0.794285 0.770127 0.434570
O O10 0.144161 0.711380 0.395666
O O11 0.899700 0.644003 0.997302
O O12 0.500000 0.000000 0.500000
O O13 0.512781 0.871126 0.979038
O O14 0.685762 0.544927 0.479346
O O15 0.008018 0.630466 0.515752
O O16 0.500000 0.500000 0.000000
O O17 0.682883 0.414774 0.980146
O O18 0.000000 0.500000 0.000000
#
# Coordination Sequence:
#
# PCOD9108845 Si02
#       8
#     2   2   2   2   2   2   2   2
#     4  12  28  52  82 118 157 199 259 318 388 476
#     4  11  24  44  68 101 144 197 248 315 384 464
#     4  11  26  43  67 108 143 196 256 319 380 475
#     4  12  28  52  83 118 156 205 253 320 395 467
#     4  10  22  43  70  99 148 191 256 324 387 462
#     4  10  20  40  73 103 143 205 259 328 412 472
#     4  10  22  43  67 100 146 188 255 315 385 467
#     4  12  28  46  79 105 157 197 255 312 397 464
#
# _framework density 24.639467
#
# number of rings (size 3 to 8) (size 9 to 14) (size 15 to 20)
#    0.000    1.000    3.750    1.500    3.500    2.500 
#    0.000    0.625    0.000    0.000    0.000    0.000 
#    0.000    0.000    0.000    0.000    0.000    0.000 
#
# Total GULP energy -89121.777111 kJ/mol
# GULP energy per Si atom -5570.111069 kJ/mol
# Density = 2.458339 g / cm^3
# Si number density = 24.639467 Si / 1000 Ang^3
#
#
#
# Elastic Constant Matrix: (Units=GPa)
#
#
# Indices 1 2 3 4 5 6 
#
# 1 93.7800 41.4677 55.6404 -2.1711 -12.4821 -13.0215
# 2 41.4677 130.9608 28.2749 14.4953 -4.0245 2.5874
# 3 55.6404 28.2749 124.2857 4.0529 -28.7550 -23.5898
# 4 -2.1711 14.4953 4.0529 45.1912 0.6725 -4.4485
# 5 -12.4821 -4.0245 -28.7550 0.6725 37.3327 -7.8958
# 6 -13.0215 2.5874 -23.5898 -4.4485 -7.8958 37.6300
#
#
#
# Elastic Compliance Matrix: (Units=1/GPa)
#
#
# Indices 1 2 3 4 5 6 
#
# 1 0.016645 -0.004410 -0.005624 0.003011 0.001377 0.003182
# 2 -0.004410 0.009740 -0.001411 -0.003567 -0.002289 -0.003982
# 3 -0.005624 -0.001411 0.015763 -0.000374 0.012353 0.010580
# 4 0.003011 -0.003567 -0.000374 0.023836 0.000757 0.004030
# 5 0.001377 -0.002289 0.012353 0.000757 0.040070 0.016875
# 6 0.003182 -0.003982 0.010580 0.004030 0.016875 0.038600
#
#
# Mechanical properties :
#
#
# Convention : Reuss Voigt Hill
#
# Bulk Modulus (GPa) = 51.92437 66.64361 59.28399
# Shear Modulus (GPa) = 28.74173 38.94034 33.84103
#
# Velocity S-wave (km/s) = 3.41910 3.97974 3.71003
# Velocity P-wave (km/s) = 6.05858 6.94435 6.51653
#
# Compressibility (1/GPa) = 0.01925878
#
# Stress axis : x y z
#
# Youngs Moduli (GPa) = 60.07843 102.66891 63.43918
#
# Poissons Ratio (x) = 0.45278 0.35678
# Poissons Ratio (y) = 0.26495 0.08948
# Poissons Ratio (z) = 0.33788 0.14482
#
# Static dielectric constant tensor:
#      x y z
#    x 1.953030 0.209510 -0.196090 
#    y 0.209510 1.882270 0.046960 
#    z -0.196090 0.046960 1.825090 
# 
# From -- ./inp_files/14781.got.cif
#   From: 2010.05.17/outbox.cif.g08.bks.cpg/sg2_8_cif.got.tgz:14781.got - 2010.06.03 11:33:40.
