data_PCOD9108789
_publ_section_title
;
Structure prediction by ZEFSAII (Michael W. Deem and Ramdas Pophale) SiO2 
 PCOD9108789
Probable space group: P -1
;
_chemical_formula_sum "Si O2"
_cell_formula_units_Z 13
_cell_length_a 9.126967
_cell_length_b 9.024358
_cell_length_c 14.961804
_cell_angle_alpha 127.332412
_cell_angle_beta 141.375926
_cell_angle_gamma 46.002018
_cell_volume 547.751139
_symmetry_space_group_name_H-M "P -1"
_symmetry_group_IT_number 2
_symmetry_cell_setting 'triclinic'
loop_
_space_group_symop_operation_xyz
x,y,z
-x,-y,-z
loop_
_atom_site_type_symbol
_atom_site_label
_atom_site_fract_x
_atom_site_fract_y
_atom_site_fract_z
Si Si1 0.836684 0.963516 0.149435
Si Si2 0.479255 0.907260 0.233803
Si Si3 0.109327 0.299711 0.100420
Si Si4 0.442721 0.569829 0.601947
Si Si5 0.412220 0.290694 0.969845
Si Si6 0.000000 0.000000 0.500000
Si Si7 0.580071 0.176663 0.627374
O O1 0.699703 0.879344 0.125262
O O2 0.124452 0.905768 0.297937
O O3 0.869918 0.822938 0.025867
O O4 0.660725 0.201026 0.122193
O O5 0.508180 0.749318 0.109480
O O6 0.434563 0.814326 0.269867
O O7 0.731277 0.955359 0.372596
O O8 0.224940 0.124935 0.168761
O O9 0.309458 0.403373 0.231888
O O10 0.821012 0.484455 0.042663
O O11 0.500000 0.500000 0.500000
O O12 0.186624 0.784626 0.559499
O O13 0.413165 0.392637 0.578711
O O14 0.500000 0.000000 0.500000
#
# Coordination Sequence:
#
# PCOD9108789 Si02
#       7
#     2   2   2   2   2   1   2
#     4  10  23  41  70 103 131 177 242 277 336 409
#     4  10  24  40  65 100 137 177 226 280 342 409
#     4  10  20  42  72  98 131 183 233 281 334 401
#     4  11  23  43  71  97 135 182 230 282 341 407
#     4  10  20  40  71  98 128 176 232 282 327 406
#     4  10  22  42  68  94 126 180 236 268 330 412
#     4  12  26  45  67 103 148 181 221 292 354 407
#
# _framework density 23.733405999999999
#
# number of rings (size 3 to 8) (size 9 to 14) (size 15 to 20)
#    0.000    1.538    1.538    3.231    2.154    3.077 
#    0.000    6.154    0.000    0.000    0.000    0.000 
#    0.000    0.000    0.000    0.000    0.000    0.000 
#
# Total GULP energy -72580.947256 kJ/mol
# GULP energy per Si atom -5583.149789 kJ/mol
# Density = 2.367939 g / cm^3
# Si number density = 23.733406 Si / 1000 Ang^3
#
#
#
# Elastic Constant Matrix: (Units=GPa)
#
#
# Indices 1 2 3 4 5 6 
#
# 1 60.8366 42.9512 -5.2253 -11.6403 -22.6776 13.5816
# 2 42.9512 189.4883 39.8693 -38.8150 -1.1707 0.3299
# 3 -5.2253 39.8693 59.4294 -4.7975 9.6890 -0.0193
# 4 -11.6403 -38.8150 -4.7975 36.7257 0.6126 6.4362
# 5 -22.6776 -1.1707 9.6890 0.6126 42.2480 -7.9750
# 6 13.5816 0.3299 -0.0193 6.4362 -7.9750 43.7761
#
#
#
# Elastic Compliance Matrix: (Units=1/GPa)
#
#
# Indices 1 2 3 4 5 6 
#
# 1 0.028640 -0.006771 0.005301 0.003644 0.012581 -0.007076
# 2 -0.006771 0.009525 -0.006098 0.007046 -0.001954 0.000634
# 3 0.005301 -0.006098 0.021684 -0.001566 -0.002620 -0.001836
# 4 0.003644 0.007046 -0.001566 0.036744 0.000761 -0.006448
# 5 0.012581 -0.001954 -0.002620 0.000761 0.031279 0.001697
# 6 -0.007076 0.000634 -0.001836 -0.006448 0.001697 0.026290
#
#
# Mechanical properties :
#
#
# Convention : Reuss Voigt Hill
#
# Bulk Modulus (GPa) = 22.36442 51.66052 37.01247
# Shear Modulus (GPa) = 27.14429 40.02723 33.58576
#
# Velocity S-wave (km/s) = 3.38556 4.11120 3.76590
# Velocity P-wave (km/s) = 4.97255 6.65960 5.87693
#
# Compressibility (1/GPa) = 0.04471389
#
# Stress axis : x y z
#
# Youngs Moduli (GPa) = 34.91671 104.98481 46.11753
#
# Poissons Ratio (x) = 0.71080 -0.24447
# Poissons Ratio (y) = 0.23640 0.28122
# Poissons Ratio (z) = -0.18509 0.64018
#
# Static dielectric constant tensor:
#      x y z
#    x 1.934100 -0.014750 -0.022970 
#    y -0.014750 1.881590 0.037880 
#    z -0.022970 0.037880 1.981960 
# 
# From -- ./inp_files/493734.got.cif
#   From: 2010.05.17/outbox.cif.g08.bks.cpg/sg2_247_cif.got.tgz:493734.got - 2010.06.03 11:33:40.
