data_PCOD9108504
_publ_section_title
;
Structure prediction by ZEFSAII (Michael W. Deem and Ramdas Pophale) SiO2 
 PCOD9108504
Probable space group: P -1
;
_chemical_formula_sum "Si O2"
_cell_formula_units_Z 14
_cell_length_a 16.335182
_cell_length_b 8.849369
_cell_length_c 15.384692
_cell_angle_alpha 36.685107
_cell_angle_beta 152.280319
_cell_angle_gamma 142.354657
_cell_volume 590.547471
_symmetry_space_group_name_H-M "P -1"
_symmetry_group_IT_number 2
_symmetry_cell_setting 'triclinic'
loop_
_space_group_symop_operation_xyz
x,y,z
-x,-y,-z
loop_
_atom_site_type_symbol
_atom_site_label
_atom_site_fract_x
_atom_site_fract_y
_atom_site_fract_z
Si Si1 0.834601 0.870922 0.970613
Si Si2 0.537263 0.428024 0.667361
Si Si3 0.972400 0.554273 0.650156
Si Si4 0.559937 0.389444 0.323129
Si Si5 0.569212 0.923575 0.007290
Si Si6 0.991997 0.909098 0.658168
Si Si7 0.933576 0.739639 0.860478
O O1 0.873522 0.590200 0.150652
O O2 0.627657 0.848417 0.756931
O O3 0.899050 0.053756 0.029951
O O4 0.000000 0.000000 0.000000
O O5 0.500000 0.500000 0.500000
O O6 0.441147 0.508120 0.625448
O O7 0.749223 0.604978 0.802056
O O8 0.506867 0.112157 0.793764
O O9 0.768689 0.381178 0.507016
O O10 0.946619 0.638611 0.685703
O O11 0.039328 0.841719 0.535647
O O12 0.530105 0.608965 0.125399
O O13 0.789027 0.018195 0.160120
O O14 0.500000 0.000000 0.000000
O O15 0.891520 0.874884 0.670930
O O16 0.000000 0.500000 0.000000
#
# Coordination Sequence:
#
# PCOD9108504 Si02
#       7
#     2   2   2   2   2   2   2
#     4  12  25  44  67  94 137 181 215 277 344 396
#     4  11  21  37  63 102 132 167 220 278 333 388
#     4  10  22  42  70  99 132 173 228 270 329 408
#     4  10  22  43  67  97 126 179 225 268 334 403
#     4   9  18  36  65  93 132 173 223 265 324 401
#     4  10  20  40  68  99 131 177 221 273 331 395
#     4  12  24  42  65  95 132 174 221 273 338 396
#
# _framework density 23.706814000000001
#
# number of rings (size 3 to 8) (size 9 to 14) (size 15 to 20)
#    0.000    1.429    2.857    3.429    0.000    4.571 
#    2.571    2.857    0.000    0.000    0.000    0.000 
#    0.000    0.000    0.000    0.000    0.000    0.000 
#
# Total GULP energy -78139.247998 kJ/mol
# GULP energy per Si atom -5581.374857 kJ/mol
# Density = 2.365286 g / cm^3
# Si number density = 23.706814 Si / 1000 Ang^3
#
#
#
# Elastic Constant Matrix: (Units=GPa)
#
#
# Indices 1 2 3 4 5 6 
#
# 1 59.9805 18.2971 19.4079 2.2613 -9.0780 11.8387
# 2 18.2971 73.9020 28.6585 22.5117 -0.5348 0.7196
# 3 19.4079 28.6585 88.5399 9.5972 -7.2189 6.8602
# 4 2.2613 22.5117 9.5972 45.8145 18.9215 1.6609
# 5 -9.0780 -0.5348 -7.2189 18.9215 45.4990 6.5173
# 6 11.8387 0.7196 6.8602 1.6609 6.5173 41.6963
#
#
#
# Elastic Compliance Matrix: (Units=1/GPa)
#
#
# Indices 1 2 3 4 5 6 
#
# 1 0.020574 -0.004019 -0.002326 -0.000262 0.004673 -0.006109
# 2 -0.004019 0.018983 -0.004173 -0.009307 0.002416 0.001493
# 3 -0.002326 -0.004173 0.013703 -0.001731 0.002648 -0.001867
# 4 -0.000262 -0.009307 -0.001731 0.032586 -0.014194 0.001440
# 5 0.004673 0.002416 0.002648 -0.014194 0.030114 -0.005946
# 6 -0.006109 0.001493 -0.001867 0.001440 -0.005946 0.026871
#
#
# Mechanical properties :
#
#
# Convention : Reuss Voigt Hill
#
# Bulk Modulus (GPa) = 31.03361 39.46104 35.24733
# Shear Modulus (GPa) = 28.63572 37.00590 32.82081
#
# Velocity S-wave (km/s) = 3.47927 3.95521 3.72485
# Velocity P-wave (km/s) = 5.40920 6.12698 5.77924
#
# Compressibility (1/GPa) = 0.03222313
#
# Stress axis : x y z
#
# Youngs Moduli (GPa) = 48.60614 52.67971 72.97494
#
# Poissons Ratio (x) = 0.21169 0.16976
# Poissons Ratio (y) = 0.19533 0.30455
# Poissons Ratio (z) = 0.11307 0.21985
#
# Static dielectric constant tensor:
#      x y z
#    x 1.937580 0.040450 -0.080950 
#    y 0.040450 2.073080 -0.048290 
#    z -0.080950 -0.048290 1.983350 
# 
# From -- ./inp_files/423873.got.cif
#   From: 2010.05.17/outbox.cif.g08.bks.cpg/sg2_212_cif.got.tgz:423873.got - 2010.06.03 11:33:40.
