data_PCOD9108721
_publ_section_title
;
Structure prediction by ZEFSAII (Michael W. Deem and Ramdas Pophale) SiO2 
 PCOD9108721
Probable space group: P -1
;
_chemical_formula_sum "Si O2"
_cell_formula_units_Z 16
_cell_length_a 12.326992
_cell_length_b 5.255859
_cell_length_c 12.364899
_cell_angle_alpha 101.899332
_cell_angle_beta 119.382985
_cell_angle_gamma 98.404280
_cell_volume 653.685726
_symmetry_space_group_name_H-M "P -1"
_symmetry_group_IT_number 2
_symmetry_cell_setting 'triclinic'
loop_
_space_group_symop_operation_xyz
x,y,z
-x,-y,-z
loop_
_atom_site_type_symbol
_atom_site_label
_atom_site_fract_x
_atom_site_fract_y
_atom_site_fract_z
Si Si1 0.043146 0.810115 0.090104
Si Si2 0.175428 0.337431 0.861703
Si Si3 0.581966 0.811318 0.977011
Si Si4 0.552482 0.640159 0.264873
Si Si5 0.375252 0.530671 0.501181
Si Si6 0.746574 0.027013 0.527748
Si Si7 0.692207 0.171529 0.864620
Si Si8 0.010571 0.294729 0.580564
O O1 0.199585 0.876434 0.167605
O O2 0.958116 0.822835 0.155820
O O3 0.000000 0.500000 0.000000
O O4 0.000000 0.000000 0.000000
O O5 0.134905 0.402654 0.728294
O O6 0.284800 0.181526 0.897107
O O7 0.238176 0.593029 0.993409
O O8 0.515788 0.487900 0.120682
O O9 0.634557 0.916578 0.891950
O O10 0.500000 0.000000 0.000000
O O11 0.583449 0.435283 0.349743
O O12 0.425490 0.738159 0.238016
O O13 0.678036 0.895824 0.369356
O O14 0.500000 0.500000 0.500000
O O15 0.336749 0.780966 0.456097
O O16 0.264937 0.238548 0.428610
O O17 0.884432 0.231972 0.588826
O O18 0.000000 0.500000 0.500000
O O19 0.000000 0.000000 0.500000
#
# Coordination Sequence:
#
# PCOD9108721 Si02
#       8
#     2   2   2   2   2   2   2   2
#     4  10  20  40  70  97 140 177 221 290 356 438
#     4  10  25  45  67 107 138 187 243 296 365 439
#     4  11  23  42  71 104 144 184 236 296 369 432
#     4   9  23  39  67 102 144 181 234 289 367 424
#     4  10  21  42  71 103 146 184 233 292 356 438
#     4  10  23  46  67 101 142 183 243 290 359 421
#     4  10  21  42  67 106 139 178 228 291 372 431
#     4  12  29  49  73  99 139 200 252 304 351 420
#
# _framework density 24.476593999999999
#
# number of rings (size 3 to 8) (size 9 to 14) (size 15 to 20)
#    0.750    1.000    1.250    1.875    1.750    6.000 
#    2.250    0.000    0.000    0.000    0.000    0.000 
#    0.000    0.000    0.000    0.000    0.000    0.000 
#
# Total GULP energy -89375.048059 kJ/mol
# GULP energy per Si atom -5585.940504 kJ/mol
# Density = 2.442088 g / cm^3
# Si number density = 24.476594 Si / 1000 Ang^3
#
#
#
# Elastic Constant Matrix: (Units=GPa)
#
#
# Indices 1 2 3 4 5 6 
#
# 1 113.5107 21.3858 17.5327 -0.5799 13.2669 -8.9582
# 2 21.3858 102.2496 36.5306 -16.3677 7.5141 -6.5915
# 3 17.5327 36.5306 132.9312 -7.1152 15.4546 -6.0136
# 4 -0.5799 -16.3677 -7.1152 28.1915 2.8618 2.0867
# 5 13.2669 7.5141 15.4546 2.8618 31.5694 -5.5056
# 6 -8.9582 -6.5915 -6.0136 2.0867 -5.5056 43.1995
#
#
#
# Elastic Compliance Matrix: (Units=1/GPa)
#
#
# Indices 1 2 3 4 5 6 
#
# 1 0.009658 -0.001653 -0.000426 -0.000645 -0.003168 0.001319
# 2 -0.001653 0.012246 -0.002603 0.006513 -0.001420 0.000668
# 3 -0.000426 -0.002603 0.008773 0.001037 -0.003549 0.000233
# 4 -0.000645 0.006513 0.001037 0.040206 -0.005723 -0.001667
# 5 -0.003168 -0.001420 -0.003549 -0.005723 0.036217 0.003524
# 6 0.001319 0.000668 0.000233 -0.001667 0.003524 0.024086
#
#
# Mechanical properties :
#
#
# Convention : Reuss Voigt Hill
#
# Bulk Modulus (GPa) = 46.92216 55.50996 51.21606
# Shear Modulus (GPa) = 33.86280 38.80823 36.33551
#
# Velocity S-wave (km/s) = 3.72355 3.98618 3.85710
# Velocity P-wave (km/s) = 6.13989 6.62678 6.38798
#
# Compressibility (1/GPa) = 0.02131189
#
# Stress axis : x y z
#
# Youngs Moduli (GPa) = 103.54022 81.66024 113.98590
#
# Poissons Ratio (x) = 0.13500 0.04856
# Poissons Ratio (y) = 0.17117 0.29674
# Poissons Ratio (z) = 0.04411 0.21259
#
# Static dielectric constant tensor:
#      x y z
#    x 1.977970 0.038760 -0.001370 
#    y 0.038760 1.949070 0.021760 
#    z -0.001370 0.021760 1.966180 
# 
# From -- ./inp_files/410624.got.cif
#   From: 2010.05.17/outbox.cif.g08.bks.cpg/sg2_206_cif.got.tgz:410624.got - 2010.06.03 11:33:40.
