data_PCOD9108807
_publ_section_title
;
Structure prediction by ZEFSAII (Michael W. Deem and Ramdas Pophale) SiO2 
 PCOD9108807
Probable space group: P -1
;
_chemical_formula_sum "Si O2"
_cell_formula_units_Z 16
_cell_length_a 13.788880
_cell_length_b 9.302973
_cell_length_c 8.189043
_cell_angle_alpha 127.472552
_cell_angle_beta 60.858457
_cell_angle_gamma 89.706144
_cell_volume 655.739719
_symmetry_space_group_name_H-M "P -1"
_symmetry_group_IT_number 2
_symmetry_cell_setting 'triclinic'
loop_
_space_group_symop_operation_xyz
x,y,z
-x,-y,-z
loop_
_atom_site_type_symbol
_atom_site_label
_atom_site_fract_x
_atom_site_fract_y
_atom_site_fract_z
Si Si1 0.848443 0.614314 0.842958
Si Si2 0.087029 0.628608 0.810064
Si Si3 0.821758 0.236142 0.454897
Si Si4 0.402505 0.209433 0.647275
Si Si5 0.527868 0.194681 0.218689
Si Si6 0.440283 0.575599 0.352299
Si Si7 0.239453 0.205846 0.308813
Si Si8 0.934938 0.891552 0.377127
O O1 0.852819 0.399421 0.640497
O O2 0.814325 0.748621 0.799795
O O3 0.976925 0.592105 0.792712
O O4 0.735169 0.724407 0.135484
O O5 0.111228 0.788821 0.792377
O O6 0.212485 0.427306 0.548189
O O7 0.957014 0.305847 0.926276
O O8 0.676966 0.333542 0.603754
O O9 0.865312 0.033275 0.380115
O O10 0.423657 0.190807 0.422936
O O11 0.449109 0.378109 0.774611
O O12 0.500000 0.000000 0.500000
O O13 0.483557 0.344921 0.206416
O O14 0.591382 0.297361 0.362314
O O15 0.625412 0.972241 0.941962
O O16 0.159287 0.141836 0.451748
O O17 0.000000 0.000000 0.500000
#
# Coordination Sequence:
#
# PCOD9108807 Si02
#       8
#     2   2   2   2   2   2   2   2
#     4  11  23  46  71 102 149 191 234 292 360 435
#     4  11  26  48  71 102 143 193 237 294 367 431
#     4  11  25  45  75 103 142 190 239 302 352 436
#     4  10  20  40  72 102 143 190 236 292 356 425
#     4   9  21  43  70 104 144 190 238 302 348 429
#     4   9  22  43  68 107 141 188 241 299 356 409
#     4  11  23  45  68 101 147 185 236 293 354 429
#     4  12  27  43  71 109 139 185 240 299 363 428
#
# _framework density 24.399925
#
# number of rings (size 3 to 8) (size 9 to 14) (size 15 to 20)
#    0.750    0.750    1.250    3.750    7.000    0.500 
#    6.750    2.500    0.000    0.000    0.000    0.000 
#    0.000    0.000    0.000    0.000    0.000    0.000 
#
# Total GULP energy -89621.343242 kJ/mol
# GULP energy per Si atom -5601.333953 kJ/mol
# Density = 2.434439 g / cm^3
# Si number density = 24.399925 Si / 1000 Ang^3
#
#
#
# Elastic Constant Matrix: (Units=GPa)
#
#
# Indices 1 2 3 4 5 6 
#
# 1 74.8344 1.8189 21.0876 1.4267 -3.5631 -4.0977
# 2 1.8189 158.8163 54.1667 -7.0448 -12.6385 -4.1841
# 3 21.0876 54.1667 164.6187 -12.7221 -6.5737 -9.2393
# 4 1.4267 -7.0448 -12.7221 47.2000 -4.7598 -6.7446
# 5 -3.5631 -12.6385 -6.5737 -4.7598 30.9774 2.7652
# 6 -4.0977 -4.1841 -9.2393 -6.7446 2.7652 22.5419
#
#
#
# Elastic Compliance Matrix: (Units=1/GPa)
#
#
# Indices 1 2 3 4 5 6 
#
# 1 0.014038 0.000605 -0.001897 -0.000493 0.001242 0.001587
# 2 0.000605 0.007331 -0.002298 0.000787 0.002655 0.000438
# 3 -0.001897 -0.002298 0.007422 0.002174 0.000498 0.002860
# 4 -0.000493 0.000787 0.002174 0.023342 0.003644 0.007484
# 5 0.001242 0.002655 0.000498 0.003644 0.034370 -0.002203
# 6 0.001587 0.000438 0.002860 0.007484 -0.002203 0.048414
#
#
# Mechanical properties :
#
#
# Convention : Reuss Voigt Hill
#
# Bulk Modulus (GPa) = 46.27269 61.37953 53.82611
# Shear Modulus (GPa) = 33.48947 41.55694 37.52321
#
# Velocity S-wave (km/s) = 3.70878 4.13141 3.92579
# Velocity P-wave (km/s) = 6.11110 6.92592 6.53122
#
# Compressibility (1/GPa) = 0.02161102
#
# Stress axis : x y z
#
# Youngs Moduli (GPa) = 71.23499 136.40225 134.72940
#
# Poissons Ratio (x) = -0.08251 0.25555
# Poissons Ratio (y) = -0.04309 0.30966
# Poissons Ratio (z) = 0.13512 0.31350
#
# Static dielectric constant tensor:
#      x y z
#    x 1.984840 0.013540 0.043340 
#    y 0.013540 1.997460 0.019980 
#    z 0.043340 0.019980 1.902530 
# 
# From -- ./inp_files/444997.got.cif
#   From: 2010.05.17/outbox.cif.g08.bks.cpg/sg2_223_cif.got.tgz:444997.got - 2010.06.03 11:33:40.
