data_PCOD9108955
_publ_section_title
;
Structure prediction by ZEFSAII (Michael W. Deem and Ramdas Pophale) SiO2 
 PCOD9108955
Probable space group: P -1
;
_chemical_formula_sum "Si O2"
_cell_formula_units_Z 15
_cell_length_a 7.487983
_cell_length_b 9.899527
_cell_length_c 9.924199
_cell_angle_alpha 119.327307
_cell_angle_beta 108.517258
_cell_angle_gamma 66.593664
_cell_volume 581.594346
_symmetry_space_group_name_H-M "P -1"
_symmetry_group_IT_number 2
_symmetry_cell_setting 'triclinic'
loop_
_space_group_symop_operation_xyz
x,y,z
-x,-y,-z
loop_
_atom_site_type_symbol
_atom_site_label
_atom_site_fract_x
_atom_site_fract_y
_atom_site_fract_z
Si Si1 0.951035 0.759536 0.139154
Si Si2 0.367661 0.403119 0.739228
Si Si3 0.240447 0.918306 0.891970
Si Si4 0.010655 0.683722 0.704014
Si Si5 0.857264 0.821005 0.459910
Si Si6 0.500000 0.000000 0.500000
Si Si7 0.411825 0.123799 0.235068
Si Si8 0.318987 0.454603 0.062925
O O1 0.926321 0.776874 0.303991
O O2 0.153137 0.625629 0.091277
O O3 0.906897 0.933627 0.149613
O O4 0.789691 0.679680 0.994833
O O5 0.360750 0.224536 0.604585
O O6 0.520945 0.498999 0.782067
O O7 0.150663 0.508802 0.691868
O O8 0.394291 0.395761 0.902215
O O9 0.415564 0.837235 0.789765
O O10 0.119748 0.801319 0.857283
O O11 0.339168 0.992939 0.069382
O O12 0.003622 0.731197 0.567169
O O13 0.782940 0.726223 0.710249
O O14 0.747998 0.002912 0.562305
O O15 0.494145 0.037960 0.350682
#
# Coordination Sequence:
#
# PCOD9108955 Si02
#       8
#     2   2   2   2   2   1   2   2
#     4  10  20  41  60  95 128 157 212 271 312 381
#     4  10  21  40  62  89 121 168 213 256 318 390
#     4  11  23  39  67  95 127 167 215 266 316 379
#     4  11  24  41  61  92 130 170 214 260 322 380
#     4  10  22  40  61  87 127 168 209 264 318 373
#     4  10  20  42  64  88 128 166 206 260 322 376
#     4  10  23  40  63  96 126 169 210 267 319 371
#     4   9  21  37  66  90 120 164 210 263 323 371
#
# _framework density 25.791173000000001
#
# number of rings (size 3 to 8) (size 9 to 14) (size 15 to 20)
#    0.000    1.867    1.333    1.600    3.733    3.733 
#    4.800    0.667    0.000    0.000    0.000    0.000 
#    0.000    0.000    0.000    0.000    0.000    0.000 
#
# Total GULP energy -83723.628784 kJ/mol
# GULP energy per Si atom -5581.575252 kJ/mol
# Density = 2.573247 g / cm^3
# Si number density = 25.791173 Si / 1000 Ang^3
#
#
#
# Elastic Constant Matrix: (Units=GPa)
#
#
# Indices 1 2 3 4 5 6 
#
# 1 71.6063 19.9679 23.9162 7.4661 3.9488 -20.4568
# 2 19.9679 116.2679 22.4969 3.7540 7.9885 -12.7190
# 3 23.9162 22.4969 85.3544 -15.4812 -6.5009 1.3432
# 4 7.4661 3.7540 -15.4812 43.5010 0.5152 -2.7815
# 5 3.9488 7.9885 -6.5009 0.5152 39.9034 -8.6579
# 6 -20.4568 -12.7190 1.3432 -2.7815 -8.6579 29.1885
#
#
#
# Elastic Compliance Matrix: (Units=1/GPa)
#
#
# Indices 1 2 3 4 5 6 
#
# 1 0.021058 -0.000550 -0.006901 -0.005104 0.000087 0.014376
# 2 -0.000550 0.009784 -0.002880 -0.001540 -0.001620 0.003383
# 3 -0.006901 -0.002880 0.015910 0.006718 0.002590 -0.005415
# 4 -0.005104 -0.001540 0.006718 0.026265 0.001200 -0.001699
# 5 0.000087 -0.001620 0.002590 0.001200 0.027405 0.007479
# 6 0.014376 0.003383 -0.005415 -0.001699 0.007479 0.048116
#
#
# Mechanical properties :
#
#
# Convention : Reuss Voigt Hill
#
# Bulk Modulus (GPa) = 38.33052 45.11006 41.72029
# Shear Modulus (GPa) = 28.10638 36.30842 32.20740
#
# Velocity S-wave (km/s) = 3.30474 3.75612 3.53764
# Velocity P-wave (km/s) = 5.42733 6.02824 5.73566
#
# Compressibility (1/GPa) = 0.02608887
#
# Stress axis : x y z
#
# Youngs Moduli (GPa) = 47.48841 102.21077 62.85504
#
# Poissons Ratio (x) = 0.05619 0.43376
# Poissons Ratio (y) = 0.02611 0.18105
# Poissons Ratio (z) = 0.32771 0.29442
#
# Static dielectric constant tensor:
#      x y z
#    x 2.168870 -0.036600 0.002860 
#    y -0.036600 2.176370 0.068350 
#    z 0.002860 0.068350 2.058420 
# 
# From -- ./inp_files/388460.got.cif
#   From: 2010.05.17/outbox.cif.g08.bks.cpg/sg2_195_cif.got.tgz:388460.got - 2010.06.03 11:33:40.
