data_PCOD9108492
_publ_section_title
;
Structure prediction by ZEFSAII (Michael W. Deem and Ramdas Pophale) SiO2 
 PCOD9108492
Probable space group: P -1
;
_chemical_formula_sum "Si O2"
_cell_formula_units_Z 12
_cell_length_a 4.922774
_cell_length_b 7.212309
_cell_length_c 16.737474
_cell_angle_alpha 137.764208
_cell_angle_beta 72.889739
_cell_angle_gamma 103.136107
_cell_volume 381.728763
_symmetry_space_group_name_H-M "P -1"
_symmetry_group_IT_number 2
_symmetry_cell_setting 'triclinic'
loop_
_space_group_symop_operation_xyz
x,y,z
-x,-y,-z
loop_
_atom_site_type_symbol
_atom_site_label
_atom_site_fract_x
_atom_site_fract_y
_atom_site_fract_z
Si Si1 0.827574 0.905493 0.364831
Si Si2 0.000000 0.500000 0.000000
Si Si3 0.676071 0.790322 0.029048
Si Si4 0.706046 0.942038 0.753316
Si Si5 0.681360 0.366608 0.138197
Si Si6 0.905290 0.386268 0.601192
Si Si7 0.500000 0.500000 0.500000
O O1 0.006794 0.776130 0.380113
O O2 0.626879 0.656493 0.276553
O O3 0.038016 0.957447 0.291510
O O4 0.702938 0.197789 0.498602
O O5 0.573909 0.696468 0.919597
O O6 0.251277 0.280495 0.905094
O O7 0.320226 0.798718 0.097726
O O8 0.733698 0.118021 0.115231
O O9 0.021065 0.621994 0.938642
O O10 0.792857 0.687114 0.720612
O O11 0.509829 0.774543 0.652514
O O12 0.184813 0.415978 0.532303
#
# Coordination Sequence:
#
# PCOD9108492 Si02
#       7
#     2   1   2   2   2   2   1
#     4  10  22  43  71 103 141 183 234 284 346 422
#     4  12  26  48  72 100 138 184 238 296 350 420
#     4  11  27  47  72 104 141 185 239 293 358 420
#     4  11  24  44  70 101 141 186 233 291 351 419
#     4  11  25  46  71 103 140 185 235 293 355 426
#     4  10  23  44  68 103 143 185 233 288 347 416
#     4  10  20  40  68  98 134 182 228 278 344 410
#
# _framework density 31.435932999999999
#
# number of rings (size 3 to 8) (size 9 to 14) (size 15 to 20)
#    0.000    1.333    0.000    5.000    0.000   10.667 
#    0.000   24.167    0.000    0.000    0.000    0.000 
#    0.000    0.000    0.000    0.000    0.000    0.000 
#
# Total GULP energy -66952.478088 kJ/mol
# GULP energy per Si atom -5579.373174 kJ/mol
# Density = 3.136438 g / cm^3
# Si number density = 31.435933 Si / 1000 Ang^3
#
#
#
# Elastic Constant Matrix: (Units=GPa)
#
#
# Indices 1 2 3 4 5 6 
#
# 1 184.3673 39.2443 55.2059 12.0909 27.6101 -31.9100
# 2 39.2443 206.9511 38.4787 5.2153 12.3498 -11.7312
# 3 55.2059 38.4787 209.0099 6.9766 48.8014 -17.3503
# 4 12.0909 5.2153 6.9766 49.0256 19.6646 5.4172
# 5 27.6101 12.3498 48.8014 19.6646 42.7369 -3.0176
# 6 -31.9100 -11.7312 -17.3503 5.4172 -3.0176 48.1325
#
#
#
# Elastic Compliance Matrix: (Units=1/GPa)
#
#
# Indices 1 2 3 4 5 6 
#
# 1 0.006983 -0.000775 -0.000669 -0.000862 -0.002836 0.004119
# 2 -0.000775 0.005145 -0.000681 -0.000305 -0.000030 0.000527
# 3 -0.000669 -0.000681 0.007094 0.002537 -0.008559 0.001125
# 4 -0.000862 -0.000305 0.002537 0.026601 -0.014749 -0.003650
# 5 -0.002836 -0.000030 -0.008559 -0.014749 0.041751 -0.000696
# 6 0.004119 0.000527 0.001125 -0.003650 -0.000696 0.024408
#
#
# Mechanical properties :
#
#
# Convention : Reuss Voigt Hill
#
# Bulk Modulus (GPa) = 66.79644 96.24292 81.51968
# Shear Modulus (GPa) = 41.24578 59.13896 50.19237
#
# Velocity S-wave (km/s) = 3.62616 4.34205 4.00015
# Velocity P-wave (km/s) = 6.23110 7.47127 6.87919
#
# Compressibility (1/GPa) = 0.01497086
#
# Stress axis : x y z
#
# Youngs Moduli (GPa) = 143.19515 194.35742 140.96794
#
# Poissons Ratio (x) = 0.15072 0.09429
# Poissons Ratio (y) = 0.11104 0.09607
# Poissons Ratio (z) = 0.09578 0.13245
#
# Static dielectric constant tensor:
#      x y z
#    x 1.920440 0.034790 -0.201360 
#    y 0.034790 2.071470 0.029680 
#    z -0.201360 0.029680 2.501620 
# 
# From -- ./inp_files/581419.got.cif
#   From: 2010.05.17/outbox.cif.g08.bks.cpg/sg2_291_cif.got.tgz:581419.got - 2010.06.03 11:33:40.
