data_PCOD9108338
_publ_section_title
;
Structure prediction by ZEFSAII (Michael W. Deem and Ramdas Pophale) SiO2 
 PCOD9108338
Probable space group: P -1
;
_chemical_formula_sum "Si O2"
_cell_formula_units_Z 15
_cell_length_a 9.142428
_cell_length_b 12.058282
_cell_length_c 12.024620
_cell_angle_alpha 141.799432
_cell_angle_beta 99.186562
_cell_angle_gamma 102.266505
_cell_volume 673.983888
_symmetry_space_group_name_H-M "P -1"
_symmetry_group_IT_number 2
_symmetry_cell_setting 'triclinic'
loop_
_space_group_symop_operation_xyz
x,y,z
-x,-y,-z
loop_
_atom_site_type_symbol
_atom_site_label
_atom_site_fract_x
_atom_site_fract_y
_atom_site_fract_z
Si Si1 0.121285 0.754618 0.461594
Si Si2 0.695362 0.637798 0.576050
Si Si3 0.352882 0.375819 0.706234
Si Si4 0.625367 0.246811 0.672083
Si Si5 0.762514 0.350764 0.002636
Si Si6 0.743360 0.277028 0.328200
Si Si7 0.320828 0.979732 0.096920
Si Si8 0.000000 0.000000 0.500000
O O1 0.282159 0.746869 0.424980
O O2 0.146594 0.766193 0.605030
O O3 0.944893 0.535540 0.225929
O O4 0.116728 0.943650 0.551094
O O5 0.500000 0.500000 0.500000
O O6 0.677437 0.625773 0.430666
O O7 0.792510 0.520089 0.529945
O O8 0.763109 0.879186 0.809131
O O9 0.517798 0.357029 0.733216
O O10 0.377565 0.591477 0.929645
O O11 0.180889 0.175934 0.588488
O O12 0.500000 0.000000 0.500000
O O13 0.768753 0.359285 0.877462
O O14 0.710817 0.125071 0.868135
O O15 0.532676 0.127437 0.215661
O O16 0.757622 0.206610 0.151342
#
# Coordination Sequence:
#
# PCOD9108338 Si02
#       8
#     2   2   2   2   2   2   2   1
#     4  11  24  44  66  96 142 180 225 291 339 410
#     4  10  20  40  68 102 135 174 229 284 338 401
#     4  11  22  42  68 100 140 178 226 282 344 410
#     4  12  22  41  69  96 128 180 233 273 341 411
#     4  11  24  41  64 100 138 177 227 282 348 406
#     4  10  21  42  67  96 134 178 233 277 344 405
#     4  10  21  39  68 101 131 178 231 283 336 411
#     4  10  24  42  62 102 130 184 218 280 350 394
#
# _framework density 22.255725999999999
#
# number of rings (size 3 to 8) (size 9 to 14) (size 15 to 20)
#    0.000    1.333    2.667    4.000    0.000    0.533 
#    0.000    2.000    0.000    0.000    0.000    0.000 
#    0.000    0.000    0.000    0.000    0.000    0.000 
#
# Total GULP energy -83612.139508 kJ/mol
# GULP energy per Si atom -5574.142634 kJ/mol
# Density = 2.220507 g / cm^3
# Si number density = 22.255726 Si / 1000 Ang^3
#
#
#
# Elastic Constant Matrix: (Units=GPa)
#
#
# Indices 1 2 3 4 5 6 
#
# 1 60.6090 28.4879 17.1790 8.2565 -6.0612 -16.6570
# 2 28.4879 131.0666 10.8961 0.4343 -2.1561 -11.6612
# 3 17.1790 10.8961 36.3798 -9.3835 -5.2621 -14.8249
# 4 8.2565 0.4343 -9.3835 34.4461 -7.7355 -8.7575
# 5 -6.0612 -2.1561 -5.2621 -7.7355 31.3338 7.3697
# 6 -16.6570 -11.6612 -14.8249 -8.7575 7.3697 35.9718
#
#
#
# Elastic Compliance Matrix: (Units=1/GPa)
#
#
# Indices 1 2 3 4 5 6 
#
# 1 0.023194 -0.003853 -0.010360 -0.007500 -0.000177 0.003432
# 2 -0.003853 0.008574 0.000059 0.001130 -0.000180 0.001332
# 3 -0.010360 0.000059 0.046119 0.021132 0.006730 0.017995
# 4 -0.007500 0.001130 0.021132 0.042214 0.009311 0.013972
# 5 -0.000177 -0.000180 0.006730 0.009311 0.035873 -0.002449
# 6 0.003432 0.001332 0.017995 0.013972 -0.002449 0.041140
#
#
# Mechanical properties :
#
#
# Convention : Reuss Voigt Hill
#
# Bulk Modulus (GPa) = 20.16941 37.90903 29.03922
# Shear Modulus (GPa) = 20.66566 31.78318 26.22442
#
# Velocity S-wave (km/s) = 3.05053 3.78311 3.43639
# Velocity P-wave (km/s) = 4.63572 6.01273 5.36855
#
# Compressibility (1/GPa) = 0.04958002
#
# Stress axis : x y z
#
# Youngs Moduli (GPa) = 43.11511 116.63221 21.68290
#
# Poissons Ratio (x) = 0.44935 0.22464
# Poissons Ratio (y) = 0.16611 -0.00129
# Poissons Ratio (z) = 0.44668 -0.00694
#
# Static dielectric constant tensor:
#      x y z
#    x 1.847680 -0.024530 -0.000390 
#    y -0.024530 1.815300 0.002340 
#    z -0.000390 0.002340 1.840190 
# 
# From -- ./inp_files/176739.got.cif
#   From: 2010.05.17/outbox.cif.g08.bks.cpg/sg2_89_cif.got.tgz:176739.got - 2010.06.03 11:33:40.
