data_PCOD9108960
_publ_section_title
;
Structure prediction by ZEFSAII (Michael W. Deem and Ramdas Pophale) SiO2 
 PCOD9108960
Probable space group: P -1
;
_chemical_formula_sum "Si O2"
_cell_formula_units_Z 16
_cell_length_a 13.085232
_cell_length_b 8.466751
_cell_length_c 7.039382
_cell_angle_alpha 100.439515
_cell_angle_beta 103.461334
_cell_angle_gamma 100.923929
_cell_volume 723.692114
_symmetry_space_group_name_H-M "P -1"
_symmetry_group_IT_number 2
_symmetry_cell_setting 'triclinic'
loop_
_space_group_symop_operation_xyz
x,y,z
-x,-y,-z
loop_
_atom_site_type_symbol
_atom_site_label
_atom_site_fract_x
_atom_site_fract_y
_atom_site_fract_z
Si Si1 0.588727 0.920690 0.625153
Si Si2 0.166155 0.155538 0.719086
Si Si3 0.822534 0.100345 0.664549
Si Si4 0.405360 0.325464 0.752239
Si Si5 0.465376 0.720260 0.862029
Si Si6 0.074456 0.368922 0.488558
Si Si7 0.226131 0.683507 0.646593
Si Si8 0.086657 0.849573 0.887663
O O1 0.604034 0.768470 0.469638
O O2 0.550384 0.843224 0.794212
O O3 0.500000 0.000000 0.500000
O O4 0.705315 0.046531 0.702668
O O5 0.289985 0.266849 0.801493
O O6 0.081020 0.264414 0.657908
O O7 0.161413 0.042315 0.503071
O O8 0.130773 0.029615 0.849595
O O9 0.813887 0.242459 0.543675
O O10 0.905860 0.141002 0.881933
O O11 0.447814 0.521777 0.782678
O O12 0.493144 0.259550 0.900711
O O13 0.350882 0.752701 0.761938
O O14 0.194315 0.487174 0.553180
O O15 0.000000 0.500000 0.500000
O O16 0.028947 0.244932 0.270825
O O17 0.163841 0.738710 0.809886
#
# Coordination Sequence:
#
# PCOD9108960 Si02
#       8
#     2   2   2   2   2   2   2   2
#     4  11  22  36  56  85 119 151 191 235 277 334
#     4  10  20  41  61  84 121 148 186 244 288 337
#     4  10  22  39  57  88 117 155 191 232 288 338
#     4  10  23  37  59  86 116 157 192 229 286 345
#     4  11  21  38  59  84 117 158 193 230 282 344
#     4  10  21  40  64  86 113 151 191 242 295 335
#     4  10  21  38  60  83 121 150 189 245 282 331
#     4  10  22  38  61  87 112 151 198 234 287 346
#
# _framework density 22.10885
#
# number of rings (size 3 to 8) (size 9 to 14) (size 15 to 20)
#    0.000    1.750    2.500    1.500    1.750    1.500 
#    0.000    2.500    0.000    0.000    0.000    0.000 
#    0.000    0.000    0.000    0.000    0.000    0.000 
#
# Total GULP energy -89350.179430 kJ/mol
# GULP energy per Si atom -5584.386214 kJ/mol
# Density = 2.205853 g / cm^3
# Si number density = 22.108850 Si / 1000 Ang^3
#
#
#
# Elastic Constant Matrix: (Units=GPa)
#
#
# Indices 1 2 3 4 5 6 
#
# 1 53.9662 5.5216 7.0872 -9.9195 4.3248 5.7144
# 2 5.5216 75.0172 6.3146 -17.6278 -3.7397 7.2780
# 3 7.0872 6.3146 69.7805 -21.8988 4.6774 4.4563
# 4 -9.9195 -17.6278 -21.8988 25.4658 0.1365 10.2961
# 5 4.3248 -3.7397 4.6774 0.1365 27.7727 -6.0679
# 6 5.7144 7.2780 4.4563 10.2961 -6.0679 26.6925
#
#
#
# Elastic Compliance Matrix: (Units=1/GPa)
#
#
# Indices 1 2 3 4 5 6 
#
# 1 0.025757 0.006552 0.008859 0.031626 -0.009849 -0.023218
# 2 0.006552 0.023374 0.011631 0.039360 -0.005751 -0.026207
# 3 0.008859 0.011631 0.031865 0.052539 -0.012770 -0.033557
# 4 0.031626 0.039360 0.052539 0.162999 -0.030255 -0.096025
# 5 -0.009849 -0.005751 -0.012770 -0.030255 0.045125 0.027737
# 6 -0.023218 -0.026207 -0.033557 -0.096025 0.027737 0.098527
#
#
# Mechanical properties :
#
#
# Convention : Reuss Voigt Hill
#
# Bulk Modulus (GPa) = 7.40307 26.29009 16.84658
# Shear Modulus (GPa) = 13.20682 27.97556 20.59119
#
# Velocity S-wave (km/s) = 2.44673 3.56104 3.05512
# Velocity P-wave (km/s) = 3.36716 5.36890 4.48123
#
# Compressibility (1/GPa) = 0.13507908
#
# Stress axis : x y z
#
# Youngs Moduli (GPa) = 38.82396 42.78291 31.38194
#
# Poissons Ratio (x) = -0.28030 -0.27801
# Poissons Ratio (y) = -0.25436 -0.36499
# Poissons Ratio (z) = -0.34394 -0.49759
#
# Static dielectric constant tensor:
#      x y z
#    x 1.868050 0.003510 0.039420 
#    y 0.003510 1.860050 0.004160 
#    z 0.039420 0.004160 1.760170 
# 
# From -- ./inp_files/37399.got.cif
#   From: 2010.05.17/outbox.cif.g08.bks.cpg/sg2_19_cif.got.tgz:37399.got - 2010.06.03 11:33:40.
