data_PCOD9108632
_publ_section_title
;
Structure prediction by ZEFSAII (Michael W. Deem and Ramdas Pophale) SiO2 
 PCOD9108632
Probable space group: P -1
;
_chemical_formula_sum "Si O2"
_cell_formula_units_Z 10
_cell_length_a 16.585114
_cell_length_b 6.904941
_cell_length_c 5.725186
_cell_angle_alpha 111.653978
_cell_angle_beta 81.683725
_cell_angle_gamma 50.340497
_cell_volume 397.443316
_symmetry_space_group_name_H-M "P -1"
_symmetry_group_IT_number 2
_symmetry_cell_setting 'triclinic'
loop_
_space_group_symop_operation_xyz
x,y,z
-x,-y,-z
loop_
_atom_site_type_symbol
_atom_site_label
_atom_site_fract_x
_atom_site_fract_y
_atom_site_fract_z
Si Si1 0.494638 0.824612 0.737221
Si Si2 0.690879 0.169123 0.135240
Si Si3 0.139916 0.919759 0.321037
Si Si4 0.096969 0.734402 0.651000
Si Si5 0.260149 0.279555 0.759198
O O1 0.622840 0.492264 0.435642
O O2 0.422049 0.768241 0.861977
O O3 0.403986 0.040621 0.649923
O O4 0.500000 0.000000 0.000000
O O5 0.763999 0.890060 0.171650
O O6 0.773848 0.083806 0.848018
O O7 0.143481 0.855372 0.561640
O O8 0.190582 0.600598 0.060675
O O9 0.995203 0.222420 0.453585
O O10 0.207843 0.395860 0.572619
O O11 0.000000 0.000000 0.000000
#
# Coordination Sequence:
#
# PCOD9108632 Si02
#       5
#     2   2   2   2   2
#     4   9  20  43  72 102 143 187 227 291 349 413
#     4   9  21  42  71 104 139 186 238 277 351 424
#     4  10  20  40  70 100 141 183 227 294 352 408
#     4   9  20  40  67 101 142 180 229 294 350 411
#     4   9  20  41  67 101 139 180 234 284 339 426
#
# _framework density 25.160819
#
# number of rings (size 3 to 8) (size 9 to 14) (size 15 to 20)
#    1.200    1.600    0.000    0.000    0.000    4.800 
#    0.000   17.000    0.000    1.200    0.000    1.400 
#    0.000    0.000    0.000    0.000    0.000    0.000 
#
# Total GULP energy -55823.701656 kJ/mol
# GULP energy per Si atom -5582.370166 kJ/mol
# Density = 2.510355 g / cm^3
# Si number density = 25.160819 Si / 1000 Ang^3
#
#
#
# Elastic Constant Matrix: (Units=GPa)
#
#
# Indices 1 2 3 4 5 6 
#
# 1 146.3471 77.0006 77.0355 -13.8821 -24.6502 4.5354
# 2 77.0006 182.5134 64.7394 -28.7742 -4.6718 -14.6033
# 3 77.0355 64.7394 94.4755 -24.8749 -21.5520 13.8740
# 4 -13.8821 -28.7742 -24.8749 46.6885 27.3342 -2.4445
# 5 -24.6502 -4.6718 -21.5520 27.3342 44.0383 -1.1147
# 6 4.5354 -14.6033 13.8740 -2.4445 -1.1147 52.4424
#
#
#
# Elastic Compliance Matrix: (Units=1/GPa)
#
#
# Indices 1 2 3 4 5 6 
#
# 1 0.014271 -0.003698 -0.009328 -0.007507 0.007691 0.000017
# 2 -0.003698 0.009818 -0.004119 0.007385 -0.007519 0.004328
# 3 -0.009328 -0.004119 0.024003 0.005769 0.002347 -0.006372
# 4 -0.007507 0.007385 0.005769 0.042817 -0.027106 0.002599
# 5 0.007691 -0.007519 0.002347 -0.027106 0.044094 -0.003706
# 6 0.000017 0.004328 -0.006372 0.002599 -0.003706 0.022000
#
#
# Mechanical properties :
#
#
# Convention : Reuss Voigt Hill
#
# Bulk Modulus (GPa) = 72.44293 95.65410 84.04851
# Shear Modulus (GPa) = 25.52390 42.27121 33.89755
#
# Velocity S-wave (km/s) = 3.18847 4.10328 3.67445
# Velocity P-wave (km/s) = 6.51226 7.78131 7.17490
#
# Compressibility (1/GPa) = 0.01380397
#
# Stress axis : x y z
#
# Youngs Moduli (GPa) = 70.07005 101.85011 41.66087
#
# Poissons Ratio (x) = 0.37660 0.38860
# Poissons Ratio (y) = 0.25909 0.17161
# Poissons Ratio (z) = 0.65360 0.41954
#
# Static dielectric constant tensor:
#      x y z
#    x 2.095340 -0.038040 0.070750 
#    y -0.038040 2.037280 -0.107300 
#    z 0.070750 -0.107300 2.069140 
# 
# From -- ./inp_files/113735.got.cif
#   From: 2010.05.17/outbox.cif.g08.bks.cpg/sg2_57_cif.got.tgz:113735.got - 2010.06.03 11:33:40.
