data_PCOD9108400
_publ_section_title
;
Structure prediction by ZEFSAII (Michael W. Deem and Ramdas Pophale) SiO2 
 PCOD9108400
Probable space group: P -1
;
_chemical_formula_sum "Si O2"
_cell_formula_units_Z 16
_cell_length_a 12.615011
_cell_length_b 9.047958
_cell_length_c 17.664606
_cell_angle_alpha 124.942121
_cell_angle_beta 29.641804
_cell_angle_gamma 112.055322
_cell_volume 779.346714
_symmetry_space_group_name_H-M "P -1"
_symmetry_group_IT_number 2
_symmetry_cell_setting 'triclinic'
loop_
_space_group_symop_operation_xyz
x,y,z
-x,-y,-z
loop_
_atom_site_type_symbol
_atom_site_label
_atom_site_fract_x
_atom_site_fract_y
_atom_site_fract_z
Si Si1 0.717549 0.820108 0.300670
Si Si2 0.023317 0.020084 0.231939
Si Si3 0.456734 0.539574 0.686721
Si Si4 0.001002 0.286006 0.460793
Si Si5 0.684338 0.521823 0.834647
Si Si6 0.980950 0.204424 0.039366
Si Si7 0.057706 0.648859 0.731961
Si Si8 0.518442 0.755210 0.855791
O O1 0.642493 0.635857 0.307256
O O2 0.500000 0.000000 0.500000
O O3 0.903078 0.857546 0.253182
O O4 0.830891 0.801912 0.142040
O O5 0.944046 0.167096 0.392986
O O6 0.957195 0.146566 0.234667
O O7 0.289351 0.924260 0.044293
O O8 0.263644 0.713096 0.822520
O O9 0.693024 0.486115 0.480561
O O10 0.496972 0.594134 0.763630
O O11 0.261614 0.189835 0.291247
O O12 0.000000 0.500000 0.500000
O O13 0.820043 0.327193 0.651350
O O14 0.569642 0.670608 0.883465
O O15 0.872351 0.585945 0.781953
O O16 0.500000 0.500000 0.000000
O O17 0.991197 0.332082 0.143325
O O18 0.000000 0.000000 0.000000
#
# Coordination Sequence:
#
# PCOD9108400 Si02
#       8
#     2   2   2   2   2   2   2   2
#     4  12  26  41  67 101 139 178 234 280 328 409
#     4  12  22  42  69  99 133 175 235 278 331 403
#     4  12  24  45  70 101 135 187 231 277 341 411
#     4  10  20  40  68  93 122 176 225 269 330 399
#     4  11  25  41  64 100 131 173 223 282 346 398
#     4  12  25  44  67 103 138 180 226 283 349 402
#     4  12  23  43  67  95 138 178 222 282 340 407
#     4  11  22  40  72  94 127 177 229 277 334 405
#
# _framework density 20.530014999999999
#
# number of rings (size 3 to 8) (size 9 to 14) (size 15 to 20)
#    0.000    0.500    7.500    1.875    1.750    0.000 
#    0.000    0.625    0.000    0.000    0.000    0.000 
#    0.000    0.000    0.000    0.000    0.000    0.000 
#
# Total GULP energy -89449.456243 kJ/mol
# GULP energy per Si atom -5590.591015 kJ/mol
# Density = 2.048329 g / cm^3
# Si number density = 20.530015 Si / 1000 Ang^3
#
#
#
# Elastic Constant Matrix: (Units=GPa)
#
#
# Indices 1 2 3 4 5 6 
#
# 1 127.0059 29.8456 65.8892 -4.5969 13.1776 17.8540
# 2 29.8456 70.2546 33.9658 -3.3410 7.9110 14.8907
# 3 65.8892 33.9658 179.1772 -9.5440 9.7336 -11.4290
# 4 -4.5969 -3.3410 -9.5440 23.9973 1.4993 0.1974
# 5 13.1776 7.9110 9.7336 1.4993 47.2749 15.9365
# 6 17.8540 14.8907 -11.4290 0.1974 15.9365 29.9890
#
#
#
# Elastic Compliance Matrix: (Units=1/GPa)
#
#
# Indices 1 2 3 4 5 6 
#
# 1 0.011685 -0.000916 -0.004709 0.000260 0.000798 -0.008722
# 2 -0.000916 0.018771 -0.003982 0.000841 0.001680 -0.011191
# 3 -0.004709 -0.003982 0.009001 0.002248 -0.003300 0.009950
# 4 0.000260 0.000841 0.002248 0.042876 -0.002481 0.001320
# 5 0.000798 0.001680 -0.003300 -0.002481 0.027127 -0.016966
# 6 -0.008722 -0.011191 0.009950 0.001320 -0.016966 0.056894
#
#
# Mechanical properties :
#
#
# Convention : Reuss Voigt Hill
#
# Bulk Modulus (GPa) = 49.39940 70.64877 60.02408
# Shear Modulus (GPa) = 25.99903 36.70138 31.35020
#
# Velocity S-wave (km/s) = 3.56250 4.23270 3.91198
# Velocity P-wave (km/s) = 6.40595 7.64034 7.05021
#
# Compressibility (1/GPa) = 0.02024316
#
# Stress axis : x y z
#
# Youngs Moduli (GPa) = 85.58272 53.27390 111.09706
#
# Poissons Ratio (x) = 0.04880 0.52315
# Poissons Ratio (y) = 0.07840 0.44235
# Poissons Ratio (z) = 0.40301 0.21212
#
# Static dielectric constant tensor:
#      x y z
#    x 1.754330 0.021090 0.004090 
#    y 0.021090 1.741530 0.016490 
#    z 0.004090 0.016490 1.758140 
# 
# From -- ./inp_files/271338.got.cif
#   From: 2010.05.17/outbox.cif.g08.bks.cpg/sg2_136_cif.got.tgz:271338.got - 2010.06.03 11:33:40.
