data_PCOD9108560
_publ_section_title
;
Structure prediction by ZEFSAII (Michael W. Deem and Ramdas Pophale) SiO2 
 PCOD9108560
Probable space group: P -1
;
_chemical_formula_sum "Si O2"
_cell_formula_units_Z 13
_cell_length_a 6.911796
_cell_length_b 7.830768
_cell_length_c 12.382592
_cell_angle_alpha 80.929920
_cell_angle_beta 49.598405
_cell_angle_gamma 76.924466
_cell_volume 497.086316
_symmetry_space_group_name_H-M "P -1"
_symmetry_group_IT_number 2
_symmetry_cell_setting 'triclinic'
loop_
_space_group_symop_operation_xyz
x,y,z
-x,-y,-z
loop_
_atom_site_type_symbol
_atom_site_label
_atom_site_fract_x
_atom_site_fract_y
_atom_site_fract_z
Si Si1 0.285217 0.078216 0.306752
Si Si2 0.876818 0.287497 0.557796
Si Si3 0.504131 0.390205 0.848596
Si Si4 0.128493 0.251901 0.132681
Si Si5 0.231806 0.783296 0.936763
Si Si6 0.857795 0.649991 0.223490
Si Si7 0.500000 0.500000 0.500000
O O1 0.129891 0.127959 0.246835
O O2 0.577826 0.080653 0.166672
O O3 0.170295 0.228897 0.419028
O O4 0.235066 0.895160 0.387727
O O5 0.791655 0.352677 0.702582
O O6 0.723966 0.423915 0.515774
O O7 0.413828 0.591906 0.892300
O O8 0.319023 0.363345 0.817601
O O9 0.413571 0.262392 0.983156
O O10 0.947998 0.211441 0.104573
O O11 0.016104 0.450847 0.189531
O O12 0.047652 0.782342 0.107305
O O13 0.661636 0.659700 0.391433
#
# Coordination Sequence:
#
# PCOD9108560 Si02
#       7
#     2   2   2   2   2   2   1
#     4  11  22  37  61  88 120 148 194 243 294 341
#     4  10  22  37  57  88 119 157 188 240 298 340
#     4   8  17  34  58  81 118 152 193 233 285 345
#     4   9  17  36  59  82 117 158 182 238 300 335
#     4   9  19  36  61  89 114 149 201 239 278 351
#     4   8  15  30  57  85 107 154 191 227 284 340
#     4  10  16  36  60  76 116 160 186 226 286 350
#
# _framework density 26.152401000000001
#
# number of rings (size 3 to 8) (size 9 to 14) (size 15 to 20)
#    0.000    2.769    1.538    1.846    0.000    3.692 
#    0.000   10.000    3.385    0.000    0.000    0.000 
#    0.000    0.000    0.000    0.000    0.000    0.000 
#
# Total GULP energy -72422.290365 kJ/mol
# GULP energy per Si atom -5570.945413 kJ/mol
# Density = 2.609288 g / cm^3
# Si number density = 26.152401 Si / 1000 Ang^3
#
#
#
# Elastic Constant Matrix: (Units=GPa)
#
#
# Indices 1 2 3 4 5 6 
#
# 1 81.1569 12.0899 26.4512 -8.7749 -1.1065 -8.4215
# 2 12.0899 84.5594 28.3795 -4.9963 11.4141 -5.7337
# 3 26.4512 28.3795 154.7742 -21.0745 -4.6000 -4.0169
# 4 -8.7749 -4.9963 -21.0745 38.8295 -3.0709 -1.8563
# 5 -1.1065 11.4141 -4.6000 -3.0709 43.7419 -11.3804
# 6 -8.4215 -5.7337 -4.0169 -1.8563 -11.3804 24.1341
#
#
#
# Elastic Compliance Matrix: (Units=1/GPa)
#
#
# Indices 1 2 3 4 5 6 
#
# 1 0.013897 -0.001211 -0.001602 0.002544 0.002104 0.005483
# 2 -0.001211 0.013306 -0.002333 -0.000080 -0.003583 0.000654
# 3 -0.001602 -0.002333 0.007775 0.003786 0.002023 0.001426
# 4 0.002544 -0.000080 0.003786 0.028955 0.003973 0.005599
# 5 0.002104 -0.003583 0.002023 0.003973 0.027901 0.013682
# 6 0.005483 0.000654 0.001426 0.005599 0.013682 0.050623
#
#
# Mechanical properties :
#
#
# Convention : Reuss Voigt Hill
#
# Bulk Modulus (GPa) = 40.50972 50.48129 45.49550
# Shear Modulus (GPa) = 31.06025 38.24577 34.65301
#
# Velocity S-wave (km/s) = 3.44999 3.82831 3.64406
# Velocity P-wave (km/s) = 5.60298 6.23586 5.92787
#
# Compressibility (1/GPa) = 0.02468544
#
# Stress axis : x y z
#
# Youngs Moduli (GPa) = 71.95814 75.15657 128.61432
#
# Poissons Ratio (x) = 0.09104 0.20600
# Poissons Ratio (y) = 0.08716 0.30007
# Poissons Ratio (z) = 0.11525 0.17535
#
# Static dielectric constant tensor:
#      x y z
#    x 2.096590 0.007230 0.012060 
#    y 0.007230 2.055550 0.077770 
#    z 0.012060 0.077770 2.196630 
# 
# From -- ./inp_files/170305.got.cif
#   From: 2010.05.17/outbox.cif.g08.bks.cpg/sg2_86_cif.got.tgz:170305.got - 2010.06.03 11:33:40.
