data_PCOD9108809
_publ_section_title
;
Structure prediction by ZEFSAII (Michael W. Deem and Ramdas Pophale) SiO2 
 PCOD9108809
Probable space group: P -1
;
_chemical_formula_sum "Si O2"
_cell_formula_units_Z 15
_cell_length_a 11.583863
_cell_length_b 13.471894
_cell_length_c 8.435158
_cell_angle_alpha 121.766714
_cell_angle_beta 39.666454
_cell_angle_gamma 130.100541
_cell_volume 641.459323
_symmetry_space_group_name_H-M "P -1"
_symmetry_group_IT_number 2
_symmetry_cell_setting 'triclinic'
loop_
_space_group_symop_operation_xyz
x,y,z
-x,-y,-z
loop_
_atom_site_type_symbol
_atom_site_label
_atom_site_fract_x
_atom_site_fract_y
_atom_site_fract_z
Si Si1 0.743888 0.920841 0.410985
Si Si2 0.280058 0.982994 0.157713
Si Si3 0.380315 0.520496 0.788997
Si Si4 0.495418 0.227107 0.940467
Si Si5 0.000000 0.500000 0.000000
Si Si6 0.141616 0.802368 0.608838
Si Si7 0.259798 0.763570 0.802751
Si Si8 0.717085 0.699395 0.047631
O O1 0.815731 0.977436 0.558527
O O2 0.501581 0.843521 0.610581
O O3 0.806415 0.816581 0.180544
O O4 0.807379 0.046859 0.339612
O O5 0.330312 0.085994 0.049428
O O6 0.500000 0.000000 0.000000
O O7 0.176959 0.838334 0.075883
O O8 0.500000 0.500000 0.500000
O O9 0.382757 0.433878 0.863941
O O10 0.149104 0.474046 0.946112
O O11 0.479529 0.669667 0.864119
O O12 0.708041 0.222704 0.688126
O O13 0.432244 0.271991 0.883193
O O14 0.196062 0.620980 0.815863
O O15 0.188811 0.771623 0.708584
O O16 0.906533 0.713288 0.753056
#
# Coordination Sequence:
#
# PCOD9108809 Si02
#       8
#     2   2   2   2   1   2   2   2
#     4  11  22  44  75 104 145 187 237 301 359 415
#     4  10  20  40  72 103 131 189 242 285 355 416
#     4  12  28  50  73 103 147 192 242 296 359 431
#     4  12  25  47  75 103 145 193 234 302 360 424
#     4  12  26  46  78 102 142 196 242 288 360 430
#     4  12  24  44  71 107 142 186 241 292 360 430
#     4  11  21  43  70 101 141 187 233 294 353 420
#     4  12  26  45  69 112 146 188 240 294 363 432
#
# _framework density 23.384179
#
# number of rings (size 3 to 8) (size 9 to 14) (size 15 to 20)
#    0.000    0.533    5.333    5.200    0.000    1.600 
#    0.000    1.333    0.000    0.000    0.000    0.000 
#    0.000    0.000    0.000    0.000    0.000    0.000 
#
# Total GULP energy -83755.564636 kJ/mol
# GULP energy per Si atom -5583.704309 kJ/mol
# Density = 2.333096 g / cm^3
# Si number density = 23.384179 Si / 1000 Ang^3
#
#
#
# Elastic Constant Matrix: (Units=GPa)
#
#
# Indices 1 2 3 4 5 6 
#
# 1 56.8766 -7.3023 -5.4992 2.4340 -2.5220 -12.5914
# 2 -7.3023 56.0753 0.7029 -21.8898 3.7784 -18.3075
# 3 -5.4992 0.7029 72.4222 4.8486 3.3997 12.5980
# 4 2.4340 -21.8898 4.8486 41.3412 4.8584 10.7479
# 5 -2.5220 3.7784 3.3997 4.8584 31.8619 -2.7361
# 6 -12.5914 -18.3075 12.5980 10.7479 -2.7361 33.5622
#
#
#
# Elastic Compliance Matrix: (Units=1/GPa)
#
#
# Indices 1 2 3 4 5 6 
#
# 1 0.021121 0.005985 -0.000560 -0.001404 0.002269 0.012033
# 2 0.005985 0.028148 -0.003022 0.011402 -0.003006 0.014838
# 3 -0.000560 -0.003022 0.015234 -0.001245 -0.001750 -0.007321
# 4 -0.001404 0.011402 -0.001245 0.032487 -0.006695 -0.004789
# 5 0.002269 -0.003006 -0.001750 -0.006695 0.033537 0.004747
# 6 0.012033 0.014838 -0.007321 -0.004789 0.004747 0.047072
#
#
# Mechanical properties :
#
#
# Convention : Reuss Voigt Hill
#
# Bulk Modulus (GPa) = 14.42816 17.90854 16.16835
# Shear Modulus (GPa) = 25.52385 34.51790 30.02087
#
# Velocity S-wave (km/s) = 3.30737 3.84620 3.58692
# Velocity P-wave (km/s) = 4.55723 5.23444 4.90753
#
# Compressibility (1/GPa) = 0.06930892
#
# Stress axis : x y z
#
# Youngs Moduli (GPa) = 47.34653 35.52635 65.64396
#
# Poissons Ratio (x) = -0.21263 0.03677
# Poissons Ratio (y) = -0.28338 0.19838
# Poissons Ratio (z) = 0.02652 0.10736
#
# Static dielectric constant tensor:
#      x y z
#    x 1.883990 0.027240 -0.010100 
#    y 0.027240 1.885800 0.043630 
#    z -0.010100 0.043630 1.922490 
# 
# From -- ./inp_files/262879.got.cif
#   From: 2010.05.17/outbox.cif.g08.bks.cpg/sg2_132_cif.got.tgz:262879.got - 2010.06.03 11:33:40.
