data_PCOD9108857
_publ_section_title
;
Structure prediction by ZEFSAII (Michael W. Deem and Ramdas Pophale) SiO2 
 PCOD9108857
Probable space group: P -1
;
_chemical_formula_sum "Si O2"
_cell_formula_units_Z 16
_cell_length_a 15.926130
_cell_length_b 11.835356
_cell_length_c 20.056122
_cell_angle_alpha 49.093225
_cell_angle_beta 152.539080
_cell_angle_gamma 151.330992
_cell_volume 693.360385
_symmetry_space_group_name_H-M "P -1"
_symmetry_group_IT_number 2
_symmetry_cell_setting 'triclinic'
loop_
_space_group_symop_operation_xyz
x,y,z
-x,-y,-z
loop_
_atom_site_type_symbol
_atom_site_label
_atom_site_fract_x
_atom_site_fract_y
_atom_site_fract_z
Si Si1 0.874783 0.263924 0.131824
Si Si2 0.803104 0.002447 0.394665
Si Si3 0.244487 0.338747 0.703089
Si Si4 0.284432 0.495441 0.452021
Si Si5 0.164699 0.368069 0.169552
Si Si6 0.916099 0.640153 0.031513
Si Si7 0.605608 0.896142 0.695213
Si Si8 0.192422 0.895277 0.387341
O O1 0.982216 0.512074 0.115365
O O2 0.137897 0.360249 0.328212
O O3 0.875351 0.190991 0.088447
O O4 0.500000 0.000000 0.000000
O O5 0.922370 0.090832 0.521144
O O6 0.968012 0.256125 0.373358
O O7 0.407493 0.686290 0.224184
O O8 0.000000 0.000000 0.500000
O O9 0.454064 0.628650 0.710303
O O10 0.103777 0.267883 0.705696
O O11 0.518295 0.395099 0.867435
O O12 0.585944 0.592530 0.648088
O O13 0.457577 0.777153 0.468724
O O14 0.041396 0.258198 0.050748
O O15 0.167096 0.887559 0.166658
O O16 0.283426 0.783799 0.499022
O O17 0.834029 0.068408 0.721896
#
# Coordination Sequence:
#
# PCOD9108857 Si02
#       8
#     2   2   2   2   2   2   2   2
#     4  12  27  42  63 107 146 177 226 292 350 409
#     4  10  20  40  73  99 131 175 233 275 335 416
#     4  12  24  44  73  99 135 186 234 279 355 411
#     4  11  21  44  71 100 133 184 229 287 338 415
#     4  11  24  45  70  99 140 190 227 276 355 420
#     4  12  25  46  66 101 141 179 227 290 347 420
#     4  11  25  49  67 100 140 177 239 293 346 404
#     4  11  24  45  73 100 135 180 238 291 341 414
#
# _framework density 23.076022999999999
#
# number of rings (size 3 to 8) (size 9 to 14) (size 15 to 20)
#    0.000    0.750    5.000    3.000    3.500    0.500 
#    2.250    0.000    0.000    0.000    0.000    0.000 
#    0.000    0.000    0.000    0.000    0.000    0.000 
#
# Total GULP energy -89529.445400 kJ/mol
# GULP energy per Si atom -5595.590338 kJ/mol
# Density = 2.302350 g / cm^3
# Si number density = 23.076023 Si / 1000 Ang^3
#
#
#
# Elastic Constant Matrix: (Units=GPa)
#
#
# Indices 1 2 3 4 5 6 
#
# 1 180.0689 16.8219 51.5600 -3.3869 -26.9736 34.1270
# 2 16.8219 55.8815 12.6631 -8.2756 -2.4928 1.9618
# 3 51.5600 12.6631 83.1533 -12.8899 -29.1323 10.0105
# 4 -3.3869 -8.2756 -12.8899 25.2157 -2.4337 -2.2505
# 5 -26.9736 -2.4928 -29.1323 -2.4337 35.0729 5.4082
# 6 34.1270 1.9618 10.0105 -2.2505 5.4082 34.1730
#
#
#
# Elastic Compliance Matrix: (Units=1/GPa)
#
#
# Indices 1 2 3 4 5 6 
#
# 1 0.009052 -0.001734 -0.001988 -0.000575 0.006603 -0.009441
# 2 -0.001734 0.019476 -0.001707 0.005314 -0.001254 0.001662
# 3 -0.001988 -0.001707 0.023045 0.012208 0.019408 -0.006935
# 4 -0.000575 0.005314 0.012208 0.048693 0.013807 -0.002286
# 5 0.006603 -0.001254 0.019408 0.013807 0.053631 -0.019786
# 6 -0.009441 0.001662 -0.006935 -0.002286 -0.019786 0.043608
#
#
# Mechanical properties :
#
#
# Convention : Reuss Voigt Hill
#
# Bulk Modulus (GPa) = 24.55965 53.46599 39.01282
# Shear Modulus (GPa) = 22.52906 34.76290 28.64598
#
# Velocity S-wave (km/s) = 3.12797 3.88551 3.52714
# Velocity P-wave (km/s) = 4.86945 6.58403 5.79055
#
# Compressibility (1/GPa) = 0.04071719
#
# Stress axis : x y z
#
# Youngs Moduli (GPa) = 110.46994 51.34442 43.39279
#
# Poissons Ratio (x) = 0.08901 0.08627
# Poissons Ratio (y) = 0.19151 0.07406
# Poissons Ratio (z) = 0.21962 0.08763
#
# Static dielectric constant tensor:
#      x y z
#    x 1.856110 0.014230 -0.001550 
#    y 0.014230 1.939600 -0.047500 
#    z -0.001550 -0.047500 1.869010 
# 
# From -- ./inp_files/573594.got.cif
#   From: 2010.05.17/outbox.cif.g08.bks.cpg/sg2_287_cif.got.tgz:573594.got - 2010.06.03 11:33:40.
