data_PCOD9108301
_publ_section_title
;
Structure prediction by ZEFSAII (Michael W. Deem and Ramdas Pophale) SiO2 
 PCOD9108301
Probable space group: P -1
;
_chemical_formula_sum "Si O2"
_cell_formula_units_Z 15
_cell_length_a 9.363492
_cell_length_b 10.887798
_cell_length_c 12.887433
_cell_angle_alpha 105.376235
_cell_angle_beta 33.603898
_cell_angle_gamma 120.928481
_cell_volume 585.874850
_symmetry_space_group_name_H-M "P -1"
_symmetry_group_IT_number 2
_symmetry_cell_setting 'triclinic'
loop_
_space_group_symop_operation_xyz
x,y,z
-x,-y,-z
loop_
_atom_site_type_symbol
_atom_site_label
_atom_site_fract_x
_atom_site_fract_y
_atom_site_fract_z
Si Si1 0.348007 0.518178 0.238844
Si Si2 0.523077 0.864236 0.829703
Si Si3 0.089289 0.167011 0.582346
Si Si4 0.242475 0.038239 0.660423
Si Si5 0.091248 0.381455 0.937444
Si Si6 0.606831 0.372611 0.551484
Si Si7 0.500000 0.500000 0.500000
Si Si8 0.369930 0.262005 0.062824
O O1 0.704621 0.586067 0.077379
O O2 0.223448 0.536935 0.429203
O O3 0.232852 0.353356 0.223479
O O4 0.390965 0.626435 0.142889
O O5 0.736564 0.826794 0.625730
O O6 0.487264 0.785862 0.944044
O O7 0.723502 0.046363 0.760043
O O8 0.200068 0.785985 0.947844
O O9 0.179643 0.085776 0.596763
O O10 0.213364 0.335092 0.579526
O O11 0.400301 0.195789 0.663538
O O12 0.500000 0.000000 0.500000
O O13 0.913543 0.889103 0.853405
O O14 0.348609 0.418487 0.700028
O O15 0.000000 0.500000 0.000000
O O16 0.712704 0.413231 0.380549
#
# Coordination Sequence:
#
# PCOD9108301 Si02
#       8
#     2   2   2   2   2   2   1   2
#     4   9  20  35  58  84 119 153 191 238 295 339
#     4  10  18  35  58  87 118 149 194 234 294 345
#     4   9  20  33  59  86 115 153 193 242 283 345
#     4  10  22  38  57  83 116 159 197 237 297 348
#     4  10  18  34  62  88 115 154 195 236 295 354
#     4   9  21  37  59  87 114 153 196 243 287 353
#     4  10  16  36  54  80 116 144 186 246 292 326
#     4  10  19  36  56  85 118 152 191 244 284 353
#
# _framework density 25.602736
#
# number of rings (size 3 to 8) (size 9 to 14) (size 15 to 20)
#    0.800    1.600    1.333    1.600    1.867    0.533 
#    0.000    6.667    0.000    6.400    0.000    0.000 
#    0.000    0.000    0.000    0.000    0.000    0.000 
#
# Total GULP energy -83660.509836 kJ/mol
# GULP energy per Si atom -5577.367322 kJ/mol
# Density = 2.554446 g / cm^3
# Si number density = 25.602736 Si / 1000 Ang^3
#
#
#
# Elastic Constant Matrix: (Units=GPa)
#
#
# Indices 1 2 3 4 5 6 
#
# 1 78.6129 14.2191 15.8804 -25.6524 -9.2214 30.4752
# 2 14.2191 132.5022 26.3505 -39.0061 -1.5539 20.9486
# 3 15.8804 26.3505 70.0215 -33.1619 9.5391 10.4433
# 4 -25.6524 -39.0061 -33.1619 36.7185 19.9609 0.4691
# 5 -9.2214 -1.5539 9.5391 19.9609 45.1651 -5.9382
# 6 30.4752 20.9486 10.4433 0.4691 -5.9382 29.8357
#
#
#
# Elastic Compliance Matrix: (Units=1/GPa)
#
#
# Indices 1 2 3 4 5 6 
#
# 1 0.005157 -0.008156 -0.018119 -0.032756 0.020576 0.011411
# 2 -0.008156 0.003186 -0.012013 -0.019453 0.011268 0.012847
# 3 -0.018119 -0.012013 0.002262 -0.030721 0.012824 0.029186
# 4 -0.032756 -0.019453 -0.030721 -0.064707 0.036424 0.066137
# 5 0.020576 0.011268 0.012824 0.036424 0.003547 -0.033285
# 6 0.011411 0.012847 0.029186 0.066137 -0.033285 -0.005040
#
#
# Mechanical properties :
#
#
# Convention : Reuss Voigt Hill
#
# Bulk Modulus (GPa) = -15.15819 43.78183 14.31182
# Shear Modulus (GPa) = -4951.01625 37.32295 -2456.84665
#
# Velocity S-wave (km/s) = -44.02252 3.82222 -31.01107
# Velocity P-wave (km/s) = 50.89115 6.05118 35.73019
#
# Compressibility (1/GPa) = -0.06597092
#
# Stress axis : x y z
#
# Youngs Moduli (GPa) = 193.91778 313.89775 442.12257
#
# Poissons Ratio (x) = 2.56011 8.01069
# Poissons Ratio (y) = 1.58157 5.31126
# Poissons Ratio (z) = 3.51354 3.77089
#
# Static dielectric constant tensor:
#      x y z
#    x 2.036360 -0.031200 -0.126000 
#    y -0.031200 2.107470 0.045480 
#    z -0.126000 0.045480 2.121490 
# 
# From -- ./inp_files/496615.got.cif
#   From: 2010.05.17/outbox.cif.g08.bks.cpg/sg2_249_cif.got.tgz:496615.got - 2010.06.03 11:33:40.
