data_PCOD9108158
_publ_section_title
;
Structure prediction by ZEFSAII (Michael W. Deem and Ramdas Pophale) SiO2 
 PCOD9108158
Probable space group: P -1
;
_chemical_formula_sum "Si O2"
_cell_formula_units_Z 16
_cell_length_a 20.949477
_cell_length_b 7.771247
_cell_length_c 16.207845
_cell_angle_alpha 107.454805
_cell_angle_beta 16.474716
_cell_angle_gamma 102.225189
_cell_volume 685.198199
_symmetry_space_group_name_H-M "P -1"
_symmetry_group_IT_number 2
_symmetry_cell_setting 'triclinic'
loop_
_space_group_symop_operation_xyz
x,y,z
-x,-y,-z
loop_
_atom_site_type_symbol
_atom_site_label
_atom_site_fract_x
_atom_site_fract_y
_atom_site_fract_z
Si Si1 0.133791 0.982259 0.593815
Si Si2 0.028540 0.435875 0.669794
Si Si3 0.563525 0.433114 0.819011
Si Si4 0.642798 0.515311 0.494590
Si Si5 0.656108 0.697342 0.064003
Si Si6 0.894875 0.364239 0.000460
Si Si7 0.768178 0.964489 0.697121
Si Si8 0.584422 0.080906 0.113309
O O1 0.106062 0.968873 0.527410
O O2 0.931856 0.136787 0.914070
O O3 0.251902 0.772310 0.446397
O O4 0.341462 0.076643 0.370319
O O5 0.877176 0.425224 0.935953
O O6 0.285192 0.437741 0.384173
O O7 0.097670 0.255412 0.499651
O O8 0.888536 0.613308 0.816144
O O9 0.342921 0.420196 0.038356
O O10 0.500000 0.500000 0.000000
O O11 0.553224 0.358292 0.633501
O O12 0.884847 0.559707 0.230441
O O13 0.451594 0.716062 0.773732
O O14 0.693611 0.450409 0.327961
O O15 0.623994 0.911127 0.106273
O O16 0.752686 0.044767 0.819792
O O17 0.500000 0.000000 0.000000
#
# Coordination Sequence:
#
# PCOD9108158 Si02
#       8
#     2   2   2   2   2   2   2   2
#     4   8  17  33  58  88 115 159 207 251 304 361
#     4  11  22  40  62  91 128 158 206 254 308 371
#     4  11  22  37  63  92 126 168 200 250 318 368
#     4  10  20  40  67  88 122 167 205 258 315 358
#     4  11  24  40  60  96 126 160 208 255 307 369
#     4   9  19  40  65  89 117 164 214 252 306 374
#     4   9  17  34  61  84 121 161 196 254 300 360
#     4   9  19  36  57  88 126 157 202 254 302 368
#
# _framework density 23.350906999999999
#
# number of rings (size 3 to 8) (size 9 to 14) (size 15 to 20)
#    0.000    2.250    1.250    3.000    1.750    2.500 
#    6.750    3.750    0.000    0.000    0.000    0.000 
#    0.000    0.000    0.000    0.000    0.000    0.000 
#
# Total GULP energy -89202.713682 kJ/mol
# GULP energy per Si atom -5575.169605 kJ/mol
# Density = 2.329776 g / cm^3
# Si number density = 23.350907 Si / 1000 Ang^3
#
#
#
# Elastic Constant Matrix: (Units=GPa)
#
#
# Indices 1 2 3 4 5 6 
#
# 1 109.7545 47.8656 57.7066 10.3352 29.4010 -0.1670
# 2 47.8656 107.1406 52.8114 14.0795 15.7461 -10.6767
# 3 57.7066 52.8114 123.6672 8.3741 43.4941 4.9225
# 4 10.3352 14.0795 8.3741 37.7065 13.1285 -7.6670
# 5 29.4010 15.7461 43.4941 13.1285 47.3036 -0.0062
# 6 -0.1670 -10.6767 4.9225 -7.6670 -0.0062 35.3404
#
#
#
# Elastic Compliance Matrix: (Units=1/GPa)
#
#
# Indices 1 2 3 4 5 6 
#
# 1 0.013644 -0.003968 -0.003151 -0.000251 -0.004193 -0.000751
# 2 -0.003968 0.014099 -0.005405 -0.003394 0.003686 0.004258
# 3 -0.003151 -0.005405 0.015895 0.002731 -0.011616 -0.003271
# 4 -0.000251 -0.003394 0.002731 0.031877 -0.010071 0.005507
# 5 -0.004193 0.003686 -0.011616 -0.010071 0.035995 0.000533
# 6 -0.000751 0.004258 -0.003271 0.005507 0.000533 0.031230
#
#
# Mechanical properties :
#
#
# Convention : Reuss Voigt Hill
#
# Bulk Modulus (GPa) = 53.79006 73.03660 63.41333
# Shear Modulus (GPa) = 28.73808 36.21534 32.47671
#
# Velocity S-wave (km/s) = 3.51195 3.94244 3.73340
# Velocity P-wave (km/s) = 6.28733 7.21592 6.76757
#
# Compressibility (1/GPa) = 0.01859080
#
# Stress axis : x y z
#
# Youngs Moduli (GPa) = 73.29213 70.92515 62.91130
#
# Poissons Ratio (x) = 0.28144 0.19820
# Poissons Ratio (y) = 0.29084 0.34005
# Poissons Ratio (z) = 0.23091 0.38337
#
# Static dielectric constant tensor:
#      x y z
#    x 1.919750 0.009340 -0.033850 
#    y 0.009340 1.949460 0.031500 
#    z -0.033850 0.031500 1.947130 
# 
# From -- ./inp_files/540266.got.cif
#   From: 2010.05.17/outbox.cif.g08.bks.cpg/sg2_271_cif.got.tgz:540266.got - 2010.06.03 11:33:40.
