data_PCOD9108458
_publ_section_title
;
Structure prediction by ZEFSAII (Michael W. Deem and Ramdas Pophale) SiO2 
 PCOD9108458
Probable space group: P -1
;
_chemical_formula_sum "Si O2"
_cell_formula_units_Z 14
_cell_length_a 12.672739
_cell_length_b 7.523065
_cell_length_c 8.476463
_cell_angle_alpha 130.015282
_cell_angle_beta 90.715624
_cell_angle_gamma 80.500089
_cell_volume 605.727185
_symmetry_space_group_name_H-M "P -1"
_symmetry_group_IT_number 2
_symmetry_cell_setting 'triclinic'
loop_
_space_group_symop_operation_xyz
x,y,z
-x,-y,-z
loop_
_atom_site_type_symbol
_atom_site_label
_atom_site_fract_x
_atom_site_fract_y
_atom_site_fract_z
Si Si1 0.414275 0.238211 0.112241
Si Si2 0.685007 0.856696 0.249519
Si Si3 0.392321 0.545604 0.860692
Si Si4 0.904122 0.247209 0.521929
Si Si5 0.929734 0.710034 0.215005
Si Si6 0.730989 0.123523 0.676315
Si Si7 0.262909 0.404514 0.493451
O O1 0.491171 0.407215 0.148465
O O2 0.354463 0.337275 0.324365
O O3 0.329113 0.160855 0.946279
O O4 0.500000 0.000000 0.000000
O O5 0.595387 0.724007 0.236925
O O6 0.804198 0.704419 0.202404
O O7 0.675037 0.092669 0.487064
O O8 0.312974 0.551643 0.712085
O O9 0.333054 0.713551 0.095922
O O10 0.838488 0.431836 0.503182
O O11 0.014249 0.306552 0.622185
O O12 0.929028 0.976864 0.305104
O O13 0.832366 0.224775 0.667258
O O14 0.000000 0.500000 0.000000
O O15 0.754050 0.853634 0.591908
#
# Coordination Sequence:
#
# PCOD9108458 Si02
#       7
#     2   2   2   2   2   2   2
#     4  12  24  41  65  93 129 174 215 264 323 373
#     4  10  24  42  66  92 128 169 212 272 316 384
#     4  11  23  42  63  94 130 173 215 263 319 377
#     4  10  23  41  70  94 128 171 207 266 325 376
#     4  10  20  40  68  97 123 164 216 259 324 384
#     4  10  22  42  65  96 134 165 217 261 319 384
#     4  11  24  43  65  98 134 166 217 266 314 387
#
# _framework density 23.112715000000001
#
# number of rings (size 3 to 8) (size 9 to 14) (size 15 to 20)
#    0.000    1.429    1.429    3.429    4.000    1.714 
#    2.571   11.429    0.000   18.000    0.000    0.000 
#    0.000    0.000    0.000    0.000    0.000    0.000 
#
# Total GULP energy -78156.330933 kJ/mol
# GULP energy per Si atom -5582.595067 kJ/mol
# Density = 2.306011 g / cm^3
# Si number density = 23.112715 Si / 1000 Ang^3
#
#
#
# Elastic Constant Matrix: (Units=GPa)
#
#
# Indices 1 2 3 4 5 6 
#
# 1 103.2705 31.2890 57.3707 -15.4527 12.6401 -9.2011
# 2 31.2890 82.9623 28.4581 1.6142 6.6334 -18.0955
# 3 57.3707 28.4581 171.5801 -5.9188 -6.1095 -10.4527
# 4 -15.4527 1.6142 -5.9188 33.9743 -5.1861 0.1977
# 5 12.6401 6.6334 -6.1095 -5.1861 40.0624 -5.3248
# 6 -9.2011 -18.0955 -10.4527 0.1977 -5.3248 38.6964
#
#
#
# Elastic Compliance Matrix: (Units=1/GPa)
#
#
# Indices 1 2 3 4 5 6 
#
# 1 0.014423 -0.003825 -0.004140 0.005433 -0.003850 -0.000035
# 2 -0.003825 0.015260 -0.001034 -0.002843 -0.001073 0.005814
# 3 -0.004140 -0.001034 0.007535 -0.000109 0.002738 0.000945
# 4 0.005433 -0.002843 -0.000109 0.032473 0.002967 0.000176
# 5 -0.003850 -0.001073 0.002738 0.002967 0.027567 0.003101
# 6 -0.000035 0.005814 0.000945 0.000176 0.003101 0.029234
#
#
# Mechanical properties :
#
#
# Convention : Reuss Voigt Hill
#
# Bulk Modulus (GPa) = 52.02819 65.78314 58.90567
# Shear Modulus (GPa) = 33.13493 38.59296 35.86395
#
# Velocity S-wave (km/s) = 3.79043 4.09072 3.94343
# Velocity P-wave (km/s) = 6.45879 7.12991 6.80263
#
# Compressibility (1/GPa) = 0.01922035
#
# Stress axis : x y z
#
# Youngs Moduli (GPa) = 69.33237 65.52968 132.70877
#
# Poissons Ratio (x) = 0.25066 0.54942
# Poissons Ratio (y) = 0.26520 0.13724
# Poissons Ratio (z) = 0.28704 0.06777
#
# Static dielectric constant tensor:
#      x y z
#    x 1.870910 -0.035310 0.024090 
#    y -0.035310 1.828530 -0.022510 
#    z 0.024090 -0.022510 1.886490 
# 
# From -- ./inp_files/241409.got.cif
#   From: 2010.05.17/outbox.cif.g08.bks.cpg/sg2_121_cif.got.tgz:241409.got - 2010.06.03 11:33:40.
