data_PCOD9108352
_publ_section_title
;
Structure prediction by ZEFSAII (Michael W. Deem and Ramdas Pophale) SiO2 
 PCOD9108352
Probable space group: P -1
;
_chemical_formula_sum "Si O2"
_cell_formula_units_Z 15
_cell_length_a 9.340580
_cell_length_b 14.811101
_cell_length_c 8.966215
_cell_angle_alpha 96.843767
_cell_angle_beta 72.291198
_cell_angle_gamma 44.467206
_cell_volume 714.985694
_symmetry_space_group_name_H-M "P -1"
_symmetry_group_IT_number 2
_symmetry_cell_setting 'triclinic'
loop_
_space_group_symop_operation_xyz
x,y,z
-x,-y,-z
loop_
_atom_site_type_symbol
_atom_site_label
_atom_site_fract_x
_atom_site_fract_y
_atom_site_fract_z
Si Si1 0.981934 0.197569 0.972055
Si Si2 0.422510 0.803923 0.264165
Si Si3 0.485665 0.398332 0.022839
Si Si4 0.206115 0.639811 0.630746
Si Si5 0.000000 0.000000 0.000000
Si Si6 0.076343 0.895090 0.649407
Si Si7 0.046371 0.576170 0.432778
Si Si8 0.298979 0.169894 0.651229
O O1 0.103204 0.203821 0.813021
O O2 0.137022 0.037960 0.950963
O O3 0.754741 0.250915 0.979864
O O4 0.881425 0.305882 0.161318
O O5 0.257882 0.853440 0.466652
O O6 0.595708 0.801926 0.266885
O O7 0.543372 0.657237 0.118074
O O8 0.209070 0.942049 0.248400
O O9 0.280612 0.474747 0.226572
O O10 0.500000 0.500000 0.000000
O O11 0.500000 0.500000 0.500000
O O12 0.106710 0.774102 0.599034
O O13 0.099748 0.607092 0.570415
O O14 0.153041 0.889292 0.787188
O O15 0.825190 0.722224 0.430718
O O16 0.000000 0.500000 0.500000
O O17 0.500000 0.000000 0.500000
#
# Coordination Sequence:
#
# PCOD9108352 Si02
#       8
#     2   2   2   2   1   2   2   2
#     4  11  24  44  72 103 140 186 243 292 365 442
#     4  11  25  42  73 101 140 190 244 293 361 436
#     4  12  24  45  74 100 141 192 243 296 357 437
#     4  11  24  43  71 101 138 186 236 299 362 429
#     4  10  20  40  68 104 136 176 232 302 348 424
#     4  10  22  42  69 101 139 182 245 290 353 440
#     4  12  29  47  71 108 149 185 244 307 370 429
#     4  12  28  48  71 104 149 196 239 305 371 434
#
# _framework density 20.979441000000001
#
# number of rings (size 3 to 8) (size 9 to 14) (size 15 to 20)
#    0.000    0.800    4.000    2.400    5.600    1.600 
#    0.000    3.333    0.000    0.000    0.000    0.000 
#    0.000    0.000    0.000    0.000    0.000    0.000 
#
# Total GULP energy -83524.200444 kJ/mol
# GULP energy per Si atom -5568.280030 kJ/mol
# Density = 2.093169 g / cm^3
# Si number density = 20.979441 Si / 1000 Ang^3
#
#
#
# Elastic Constant Matrix: (Units=GPa)
#
#
# Indices 1 2 3 4 5 6 
#
# 1 162.7042 57.5795 73.6594 5.9313 25.3461 28.9964
# 2 57.5795 88.3977 43.1237 -9.8396 -6.4138 24.0141
# 3 73.6594 43.1237 68.6363 -7.0394 0.2091 15.5767
# 4 5.9313 -9.8396 -7.0394 30.7413 8.8807 -0.9061
# 5 25.3461 -6.4138 0.2091 8.8807 36.5397 4.3808
# 6 28.9964 24.0141 15.5767 -0.9061 4.3808 32.8444
#
#
#
# Elastic Compliance Matrix: (Units=1/GPa)
#
#
# Indices 1 2 3 4 5 6 
#
# 1 0.017058 -0.003926 -0.015529 -0.005096 -0.010771 -0.003529
# 2 -0.003926 0.020194 -0.006027 0.003689 0.006509 -0.009207
# 3 -0.015529 -0.006027 0.035630 0.006994 0.007765 0.000376
# 4 -0.005096 0.003689 0.006994 0.037763 -0.005060 0.000202
# 5 -0.010771 0.006509 0.007765 -0.005060 0.037658 -0.004095
# 6 -0.003529 -0.009207 0.000376 0.000202 -0.004095 0.040667
#
#
# Mechanical properties :
#
#
# Convention : Reuss Voigt Hill
#
# Bulk Modulus (GPa) = 45.62214 74.27369 59.94792
# Shear Modulus (GPa) = 20.22325 29.71679 24.97002
#
# Velocity S-wave (km/s) = 3.10813 3.76769 3.45369
# Velocity P-wave (km/s) = 5.88846 7.37613 6.67387
#
# Compressibility (1/GPa) = 0.02191918
#
# Stress axis : x y z
#
# Youngs Moduli (GPa) = 58.62195 49.52032 28.06598
#
# Poissons Ratio (x) = 0.19440 0.43585
# Poissons Ratio (y) = 0.23013 0.16914
# Poissons Ratio (z) = 0.91036 0.29844
#
# Static dielectric constant tensor:
#      x y z
#    x 1.690430 -0.010520 0.047080 
#    y -0.010520 2.396480 -0.194790 
#    z 0.047080 -0.194790 1.768540 
# 
# From -- ./inp_files/207654.got.cif
#   From: 2010.05.17/outbox.cif.g08.bks.cpg/sg2_104_cif.got.tgz:207654.got - 2010.06.03 11:33:40.
