data_PCOD9108195
_publ_section_title
;
Structure prediction by ZEFSAII (Michael W. Deem and Ramdas Pophale) SiO2 
 PCOD9108195
Probable space group: P -1
;
_chemical_formula_sum "Si O2"
_cell_formula_units_Z 16
_cell_length_a 11.432878
_cell_length_b 9.970984
_cell_length_c 9.410391
_cell_angle_alpha 69.973045
_cell_angle_beta 116.808813
_cell_angle_gamma 123.737342
_cell_volume 790.073597
_symmetry_space_group_name_H-M "P -1"
_symmetry_group_IT_number 2
_symmetry_cell_setting 'triclinic'
loop_
_space_group_symop_operation_xyz
x,y,z
-x,-y,-z
loop_
_atom_site_type_symbol
_atom_site_label
_atom_site_fract_x
_atom_site_fract_y
_atom_site_fract_z
Si Si1 0.374568 0.766832 0.070468
Si Si2 0.099728 0.914920 0.545459
Si Si3 0.130105 0.427714 0.987341
Si Si4 0.706682 0.977082 0.121953
Si Si5 0.160475 0.137465 0.992260
Si Si6 0.310856 0.040727 0.350019
Si Si7 0.084856 0.437418 0.289910
Si Si8 0.379178 0.749763 0.406877
O O1 0.280556 0.596690 0.007687
O O2 0.530804 0.867584 0.041713
O O3 0.413594 0.754917 0.257458
O O4 0.268171 0.850748 0.986239
O O5 0.006835 0.723202 0.605941
O O6 0.243030 0.988884 0.701053
O O7 0.171769 0.966658 0.410587
O O8 0.000000 0.000000 0.500000
O O9 0.154550 0.301266 0.954292
O O10 0.106499 0.383181 0.160532
O O11 0.003415 0.463044 0.836864
O O12 0.797682 0.900502 0.124450
O O13 0.273844 0.119005 0.167425
O O14 0.000000 0.000000 0.000000
O O15 0.464356 0.183022 0.449040
O O16 0.331325 0.886827 0.369461
O O17 0.237772 0.567306 0.405628
#
# Coordination Sequence:
#
# PCOD9108195 Si02
#       8
#     2   2   2   2   2   2   2   2
#     4  10  20  40  67  92 121 171 214 260 309 376
#     4  12  24  41  63  95 130 166 208 262 319 381
#     4  10  21  38  66  92 128 164 215 263 310 373
#     4  11  22  40  67  93 125 166 218 258 311 379
#     4  12  24  40  65  97 127 165 212 267 314 371
#     4  11  23  41  64  94 130 166 212 254 323 377
#     4  10  21  40  64  93 125 170 214 254 316 382
#     4  10  21  40  65  92 124 169 208 263 312 377
#
# _framework density 20.251277000000002
#
# number of rings (size 3 to 8) (size 9 to 14) (size 15 to 20)
#    0.000    1.250    3.750    3.000    1.750    1.000 
#    2.250    1.875    0.000    0.000    0.000    0.000 
#    0.000    0.000    0.000    0.000    0.000    0.000 
#
# Total GULP energy -89275.914326 kJ/mol
# GULP energy per Si atom -5579.744645 kJ/mol
# Density = 2.020518 g / cm^3
# Si number density = 20.251277 Si / 1000 Ang^3
#
#
#
# Elastic Constant Matrix: (Units=GPa)
#
#
# Indices 1 2 3 4 5 6 
#
# 1 65.0073 38.6961 -20.2614 2.8403 0.7177 2.3110
# 2 38.6961 121.2209 2.9749 13.2512 -5.5016 5.2306
# 3 -20.2614 2.9749 34.1581 4.0858 7.1453 12.0390
# 4 2.8403 13.2512 4.0858 24.0950 4.5842 3.3700
# 5 0.7177 -5.5016 7.1453 4.5842 25.2962 4.1389
# 6 2.3110 5.2306 12.0390 3.3700 4.1389 32.4349
#
#
#
# Elastic Compliance Matrix: (Units=1/GPa)
#
#
# Indices 1 2 3 4 5 6 
#
# 1 0.028307 -0.009703 0.021903 0.000879 -0.008008 -0.007651
# 2 -0.009703 0.012369 -0.007924 -0.005659 0.005990 0.001462
# 3 0.021903 -0.007924 0.052348 -0.001981 -0.013870 -0.017737
# 4 0.000879 -0.005659 -0.001981 0.046828 -0.008830 -0.002153
# 5 -0.008008 0.005990 -0.013870 -0.008830 0.046625 -0.000279
# 6 -0.007651 0.001462 -0.017737 -0.002153 -0.000279 0.037983
#
#
# Mechanical properties :
#
#
# Convention : Reuss Voigt Hill
#
# Bulk Modulus (GPa) = 9.84495 29.24504 19.54499
# Shear Modulus (GPa) = 20.01861 29.63034 24.82447
#
# Velocity S-wave (km/s) = 3.14747 3.82924 3.50497
# Velocity P-wave (km/s) = 4.25214 5.83294 5.10411
#
# Compressibility (1/GPa) = 0.10157492
#
# Stress axis : x y z
#
# Youngs Moduli (GPa) = 35.32637 80.84928 19.10306
#
# Poissons Ratio (x) = 0.78450 -0.41841
# Poissons Ratio (y) = 0.34278 0.15137
# Poissons Ratio (z) = -0.77375 0.64065
#
# Static dielectric constant tensor:
#      x y z
#    x 1.703610 0.061700 -0.026830 
#    y 0.061700 1.690960 0.033200 
#    z -0.026830 0.033200 1.687650 
# 
# From -- ./inp_files/243183.got.cif
#   From: 2010.05.17/outbox.cif.g08.bks.cpg/sg2_122_cif.got.tgz:243183.got - 2010.06.03 11:33:40.
