data_PCOD9108808
_publ_section_title
;
Structure prediction by ZEFSAII (Michael W. Deem and Ramdas Pophale) SiO2 
 PCOD9108808
Probable space group: P -1
;
_chemical_formula_sum "Si O2"
_cell_formula_units_Z 15
_cell_length_a 12.772847
_cell_length_b 6.818589
_cell_length_c 6.936360
_cell_angle_alpha 86.438967
_cell_angle_beta 94.259543
_cell_angle_gamma 64.659329
_cell_volume 541.507969
_symmetry_space_group_name_H-M "P -1"
_symmetry_group_IT_number 2
_symmetry_cell_setting 'triclinic'
loop_
_space_group_symop_operation_xyz
x,y,z
-x,-y,-z
loop_
_atom_site_type_symbol
_atom_site_label
_atom_site_fract_x
_atom_site_fract_y
_atom_site_fract_z
Si Si1 0.752347 0.876811 0.831887
Si Si2 0.388325 0.968577 0.558283
Si Si3 0.489841 0.494349 0.270697
Si Si4 0.000000 0.000000 0.000000
Si Si5 0.819228 0.855113 0.253945
Si Si6 0.129757 0.757231 0.680096
Si Si7 0.924605 0.415996 0.708608
Si Si8 0.344784 0.415413 0.968588
O O1 0.675997 0.044138 0.648589
O O2 0.846024 0.660531 0.751892
O O3 0.810919 0.934789 0.021970
O O4 0.668709 0.790075 0.936683
O O5 0.290441 0.158753 0.659862
O O6 0.500000 0.000000 0.500000
O O7 0.429782 0.766403 0.723452
O O8 0.500000 0.500000 0.500000
O O9 0.547921 0.624825 0.156451
O O10 0.370037 0.532203 0.151649
O O11 0.982370 0.115587 0.209494
O O12 0.930452 0.243333 0.880672
O O13 0.938725 0.638811 0.291884
O O14 0.832641 0.046153 0.360432
O O15 0.115797 0.657275 0.485628
O O16 0.231316 0.574418 0.829528
#
# Coordination Sequence:
#
# PCOD9108808 Si02
#       8
#     2   2   2   1   2   2   2   2
#     4  12  28  45  79 111 162 193 252 317 398 453
#     4  12  28  49  72 112 152 201 251 321 391 450
#     4  11  27  48  78 105 149 201 267 308 380 454
#     4  10  20  40  72 102 144 184 254 304 356 436
#     4  11  27  48  73 111 154 201 249 323 378 459
#     4  11  24  45  77 108 149 197 260 301 379 456
#     4  11  26  48  75 115 149 211 253 313 380 467
#     4  11  25  47  72 111 142 202 248 318 366 465
#
# _framework density 27.700423000000001
#
# number of rings (size 3 to 8) (size 9 to 14) (size 15 to 20)
#    0.000    0.800    4.000    2.000    7.467    5.333 
#    0.000    0.000    0.000    0.000    0.000    0.000 
#    0.000    0.000    0.000    0.000    0.000    0.000 
#
# Total GULP energy -83861.900822 kJ/mol
# GULP energy per Si atom -5590.793388 kJ/mol
# Density = 2.763738 g / cm^3
# Si number density = 27.700423 Si / 1000 Ang^3
#
#
#
# Elastic Constant Matrix: (Units=GPa)
#
#
# Indices 1 2 3 4 5 6 
#
# 1 76.9278 30.3211 63.5188 7.9586 0.3398 -12.6888
# 2 30.3211 84.3512 33.6964 -0.5608 3.9954 -4.0916
# 3 63.5188 33.6964 186.7460 3.3831 18.1307 -7.3470
# 4 7.9586 -0.5608 3.3831 65.0094 -3.0799 -1.4182
# 5 0.3398 3.9954 18.1307 -3.0799 61.2441 -5.5902
# 6 -12.6888 -4.0916 -7.3470 -1.4182 -5.5902 36.7337
#
#
#
# Elastic Compliance Matrix: (Units=1/GPa)
#
#
# Indices 1 2 3 4 5 6 
#
# 1 0.021381 -0.004999 -0.006346 -0.002083 0.002517 0.005862
# 2 -0.004999 0.013984 -0.000789 0.000734 -0.000650 -0.000398
# 3 -0.006346 -0.000789 0.007835 0.000230 -0.002318 -0.001057
# 4 -0.002083 0.000734 0.000230 0.015667 0.000694 0.000119
# 5 0.002517 -0.000650 -0.002318 0.000694 0.017352 0.003001
# 6 0.005862 -0.000398 -0.001057 0.000119 0.003001 0.029453
#
#
# Mechanical properties :
#
#
# Convention : Reuss Voigt Hill
#
# Bulk Modulus (GPa) = 52.82202 67.01085 59.91644
# Shear Modulus (GPa) = 36.69703 47.29668 41.99685
#
# Velocity S-wave (km/s) = 3.64370 4.13660 3.89795
# Velocity P-wave (km/s) = 6.06733 6.85996 6.47578
#
# Compressibility (1/GPa) = 0.01893150
#
# Stress axis : x y z
#
# Youngs Moduli (GPa) = 46.77031 71.51213 127.63135
#
# Poissons Ratio (x) = 0.35750 0.80999
# Poissons Ratio (y) = 0.23381 0.10065
# Poissons Ratio (z) = 0.29682 0.05639
#
# Static dielectric constant tensor:
#      x y z
#    x 1.549010 0.086060 -0.035780 
#    y 0.086060 2.135730 0.056380 
#    z -0.035780 0.056380 2.142610 
# 
# From -- ./inp_files/104964.got.cif
#   From: 2010.05.17/outbox.cif.g08.bks.cpg/sg2_53_cif.got.tgz:104964.got - 2010.06.03 11:33:40.
