data_PCOD9108685
_publ_section_title
;
Structure prediction by ZEFSAII (Michael W. Deem and Ramdas Pophale) SiO2 
 PCOD9108685
Probable space group: P -1
;
_chemical_formula_sum "Si O2"
_cell_formula_units_Z 13
_cell_length_a 7.751292
_cell_length_b 12.792343
_cell_length_c 5.435400
_cell_angle_alpha 100.662972
_cell_angle_beta 59.724884
_cell_angle_gamma 106.516805
_cell_volume 445.680181
_symmetry_space_group_name_H-M "P -1"
_symmetry_group_IT_number 2
_symmetry_cell_setting 'triclinic'
loop_
_space_group_symop_operation_xyz
x,y,z
-x,-y,-z
loop_
_atom_site_type_symbol
_atom_site_label
_atom_site_fract_x
_atom_site_fract_y
_atom_site_fract_z
Si Si1 0.442753 0.254801 0.753315
Si Si2 0.782017 0.427339 0.352090
Si Si3 0.932712 0.147057 0.443335
Si Si4 0.217277 0.033880 0.000395
Si Si5 0.500000 0.000000 0.500000
Si Si6 0.411944 0.412890 0.236841
Si Si7 0.034370 0.280531 0.914042
O O1 0.667642 0.322707 0.556055
O O2 0.277786 0.292397 0.712414
O O3 0.380429 0.122404 0.742278
O O4 0.390621 0.296672 0.074996
O O5 0.602646 0.427609 0.287116
O O6 0.791914 0.543686 0.526247
O O7 0.970724 0.392141 0.075665
O O8 0.717044 0.062372 0.527595
O O9 0.931652 0.220858 0.718316
O O10 0.129596 0.090490 0.311943
O O11 0.985754 0.211759 0.173459
O O12 0.365458 0.952484 0.841318
O O13 0.000000 0.000000 0.000000
O O14 0.500000 0.500000 0.000000
#
# Coordination Sequence:
#
# PCOD9108685 Si02
#       7
#     2   2   2   2   1   2   2
#     4  10  22  40  66  92 133 180 211 278 335 384
#     4  10  22  40  66  96 130 175 222 275 321 404
#     4  10  24  42  61  99 130 173 221 278 321 396
#     4   9  20  40  64  96 133 166 221 269 323 392
#     4  10  20  40  70  92 130 178 216 274 340 382
#     4   9  21  41  63  96 132 168 222 273 332 387
#     4  11  25  40  68  97 132 172 227 264 332 396
#
# _framework density 29.168897000000001
#
# number of rings (size 3 to 8) (size 9 to 14) (size 15 to 20)
#    0.000    2.154    0.000    0.923   10.769    1.231 
#    0.000   26.154    0.000    0.000    0.000    0.000 
#    0.000    0.000    0.000    0.000    0.000    0.000 
#
# Total GULP energy -72447.561192 kJ/mol
# GULP energy per Si atom -5572.889322 kJ/mol
# Density = 2.910251 g / cm^3
# Si number density = 29.168897 Si / 1000 Ang^3
#
#
#
# Elastic Constant Matrix: (Units=GPa)
#
#
# Indices 1 2 3 4 5 6 
#
# 1 106.1806 25.7865 60.2752 9.6424 -29.5497 6.9472
# 2 25.7865 103.8892 40.2109 -1.7166 1.3363 10.0623
# 3 60.2752 40.2109 163.0211 15.4717 -20.6456 -0.9178
# 4 9.6424 -1.7166 15.4717 57.4784 4.1518 1.7991
# 5 -29.5497 1.3363 -20.6456 4.1518 77.3205 6.9204
# 6 6.9472 10.0623 -0.9178 1.7991 6.9204 47.7469
#
#
#
# Elastic Compliance Matrix: (Units=1/GPa)
#
#
# Indices 1 2 3 4 5 6 
#
# 1 0.013580 -0.001724 -0.003898 -0.001532 0.004465 -0.002277
# 2 -0.001724 0.011245 -0.002464 0.001453 -0.001409 -0.002017
# 3 -0.003898 -0.002464 0.008461 -0.001793 0.000801 0.001200
# 4 -0.001532 0.001453 -0.001793 0.018343 -0.002028 -0.000515
# 5 0.004465 -0.001409 0.000801 -0.002028 0.015207 -0.002465
# 6 -0.002277 -0.002017 0.001200 -0.000515 -0.002465 0.022100
#
#
# Mechanical properties :
#
#
# Convention : Reuss Voigt Hill
#
# Bulk Modulus (GPa) = 58.42992 69.51512 63.97252
# Shear Modulus (GPa) = 45.12111 52.96372 49.04242
#
# Velocity S-wave (km/s) = 3.93732 4.26580 4.10485
# Velocity P-wave (km/s) = 6.38319 6.93876 6.66676
#
# Compressibility (1/GPa) = 0.01711452
#
# Stress axis : x y z
#
# Youngs Moduli (GPa) = 73.63817 88.93074 118.18401
#
# Poissons Ratio (x) = 0.15334 0.46065
# Poissons Ratio (y) = 0.12697 0.29118
# Poissons Ratio (z) = 0.28702 0.21910
#
# Static dielectric constant tensor:
#      x y z
#    x 2.397530 -0.105610 -0.026200 
#    y -0.105610 2.563940 0.172030 
#    z -0.026200 0.172030 2.710190 
# 
# From -- ./inp_files/31887.got.cif
#   From: 2010.05.17/outbox.cif.g08.bks.cpg/sg2_16_cif.got.tgz:31887.got - 2010.06.03 11:33:40.
