data_PCOD9108606
_publ_section_title
;
Structure prediction by ZEFSAII (Michael W. Deem and Ramdas Pophale) SiO2 
 PCOD9108606
Probable space group: P -1
;
_chemical_formula_sum "Si O2"
_cell_formula_units_Z 15
_cell_length_a 11.542588
_cell_length_b 9.049350
_cell_length_c 17.612921
_cell_angle_alpha 26.013310
_cell_angle_beta 50.776395
_cell_angle_gamma 59.999308
_cell_volume 612.314337
_symmetry_space_group_name_H-M "P -1"
_symmetry_group_IT_number 2
_symmetry_cell_setting 'triclinic'
loop_
_space_group_symop_operation_xyz
x,y,z
-x,-y,-z
loop_
_atom_site_type_symbol
_atom_site_label
_atom_site_fract_x
_atom_site_fract_y
_atom_site_fract_z
Si Si1 0.500000 0.500000 0.500000
Si Si2 0.752811 0.948477 0.292624
Si Si3 0.840967 0.874047 0.452408
Si Si4 0.511696 0.391787 0.249991
Si Si5 0.037618 0.354067 0.896460
Si Si6 0.577696 0.299605 0.999803
Si Si7 0.634894 0.615786 0.259935
Si Si8 0.928428 0.614082 0.680462
O O1 0.613212 0.340671 0.462634
O O2 0.648897 0.654708 0.423030
O O3 0.641200 0.192185 0.259892
O O4 0.834382 0.817179 0.391937
O O5 0.884042 0.165961 0.085997
O O6 0.661885 0.818885 0.575142
O O7 0.919929 0.630716 0.585351
O O8 0.919482 0.264387 0.260082
O O9 0.499401 0.681610 0.058864
O O10 0.552861 0.521362 0.258547
O O11 0.192364 0.216877 0.908813
O O12 0.017442 0.385886 0.799719
O O13 0.752920 0.488633 0.836187
O O14 0.500000 0.500000 0.000000
O O15 0.566047 0.895824 0.211119
O O16 0.000000 0.000000 0.500000
#
# Coordination Sequence:
#
# PCOD9108606 Si02
#       8
#     1   2   2   2   2   2   2   2
#     4  12  26  40  66  98 138 178 232 278 334 402
#     4  12  23  42  69 106 139 181 229 278 341 414
#     4  10  20  40  69  98 138 182 227 276 332 402
#     4  11  22  43  71  97 137 179 232 279 341 403
#     4  11  23  41  71 103 139 179 229 278 343 408
#     4  11  24  44  67  97 131 177 229 285 343 408
#     4  12  25  43  67 100 137 180 227 290 340 404
#     4   9  21  40  66  96 133 177 223 270 340 406
#
# _framework density 24.497219999999999
#
# number of rings (size 3 to 8) (size 9 to 14) (size 15 to 20)
#    0.000    1.067    2.667    4.400    0.000    4.267 
#    0.000    0.000    2.933    2.400    0.000    0.000 
#    0.000    0.000    0.000    0.000    0.000    0.000 
#
# Total GULP energy -83730.931585 kJ/mol
# GULP energy per Si atom -5582.062106 kJ/mol
# Density = 2.444146 g / cm^3
# Si number density = 24.497220 Si / 1000 Ang^3
#
#
#
# Elastic Constant Matrix: (Units=GPa)
#
#
# Indices 1 2 3 4 5 6 
#
# 1 182.3694 51.4740 59.1758 7.2351 1.4908 52.3245
# 2 51.4740 121.1284 38.9049 4.8969 -3.0852 23.7988
# 3 59.1758 38.9049 113.8793 9.7992 -23.2431 6.2355
# 4 7.2351 4.8969 9.7992 24.5952 4.2158 1.1692
# 5 1.4908 -3.0852 -23.2431 4.2158 55.3052 10.6443
# 6 52.3245 23.7988 6.2355 1.1692 10.6443 48.5254
#
#
#
# Elastic Compliance Matrix: (Units=1/GPa)
#
#
# Indices 1 2 3 4 5 6 
#
# 1 0.009935 -0.000925 -0.004324 -0.000516 -0.000242 -0.009638
# 2 -0.000925 0.010289 -0.002742 -0.000542 0.000206 -0.003729
# 3 -0.004324 -0.002742 0.013245 -0.004514 0.005246 0.003263
# 4 -0.000516 -0.000542 -0.004514 0.043591 -0.005538 0.001567
# 5 -0.000242 0.000206 0.005246 -0.005538 0.021716 -0.005144
# 6 -0.009638 -0.003729 0.003263 0.001567 -0.005144 0.033501
#
#
# Mechanical properties :
#
#
# Convention : Reuss Voigt Hill
#
# Bulk Modulus (GPa) = 57.18065 79.60959 68.39512
# Shear Modulus (GPa) = 32.44881 43.54001 37.99441
#
# Velocity S-wave (km/s) = 3.64344 4.22043 3.94251
# Velocity P-wave (km/s) = 6.41030 7.50449 6.97887
#
# Compressibility (1/GPa) = 0.01748843
#
# Stress axis : x y z
#
# Youngs Moduli (GPa) = 100.65049 97.19058 75.49813
#
# Poissons Ratio (x) = 0.08988 0.32646
# Poissons Ratio (y) = 0.09308 0.20700
# Poissons Ratio (z) = 0.43523 0.26647
#
# Static dielectric constant tensor:
#      x y z
#    x 1.661600 -0.195990 -0.679150 
#    y -0.195990 1.905550 -0.385740 
#    z -0.679150 -0.385740 0.197060 
# 
# From -- ./inp_files/566362.got.cif
#   From: 2010.05.17/outbox.cif.g08.bks.cpg/sg2_284_cif.got.tgz:566362.got - 2010.06.03 11:33:40.
