data_PCOD9108903
_publ_section_title
;
Structure prediction by ZEFSAII (Michael W. Deem and Ramdas Pophale) SiO2 
 PCOD9108903
Probable space group: P -1
;
_chemical_formula_sum "Si O2"
_cell_formula_units_Z 14
_cell_length_a 8.935057
_cell_length_b 6.616487
_cell_length_c 13.107079
_cell_angle_alpha 98.787067
_cell_angle_beta 86.153397
_cell_angle_gamma 52.726917
_cell_volume 596.693276
_symmetry_space_group_name_H-M "P -1"
_symmetry_group_IT_number 2
_symmetry_cell_setting 'triclinic'
loop_
_space_group_symop_operation_xyz
x,y,z
-x,-y,-z
loop_
_atom_site_type_symbol
_atom_site_label
_atom_site_fract_x
_atom_site_fract_y
_atom_site_fract_z
Si Si1 0.824021 0.994590 0.329171
Si Si2 0.418633 0.746577 0.950803
Si Si3 0.200859 0.652378 0.811623
Si Si4 0.244901 0.619705 0.236709
Si Si5 0.219132 0.086802 0.166089
Si Si6 0.644260 0.260719 0.550829
Si Si7 0.498163 0.067301 0.697501
O O1 0.644788 0.998613 0.316280
O O2 0.026500 0.727797 0.263362
O O3 0.796746 0.229672 0.286950
O O4 0.819455 0.046875 0.453463
O O5 0.240017 0.797392 0.902570
O O6 0.588152 0.638165 0.853144
O O7 0.500000 0.500000 0.000000
O O8 0.342138 0.984214 0.048744
O O9 0.375284 0.344711 0.784665
O O10 0.003191 0.699989 0.834681
O O11 0.223293 0.851593 0.192956
O O12 0.307396 0.634524 0.348249
O O13 0.311739 0.132779 0.259255
O O14 0.500000 0.500000 0.500000
O O15 0.557458 0.129548 0.595316
#
# Coordination Sequence:
#
# PCOD9108903 Si02
#       7
#     2   2   2   2   2   2   2
#     4  11  23  38  62  89 121 157 202 244 301 351
#     4  10  16  36  66  87 116 162 197 242 300 348
#     4  11  20  40  63  88 119 162 199 239 303 354
#     4   9  19  35  60  87 118 158 198 246 292 353
#     4   9  20  36  65  87 120 158 200 244 298 352
#     4  11  19  39  63  83 119 163 195 244 302 349
#     4  11  22  42  59  92 124 152 199 254 287 358
#
# _framework density 23.462643
#
# number of rings (size 3 to 8) (size 9 to 14) (size 15 to 20)
#    0.000    1.714    5.714    1.286    0.000    0.000 
#    5.143    2.143    0.000    0.000    0.000    0.000 
#    0.000    0.000    0.000    0.000    0.000    0.000 
#
# Total GULP energy -78233.135943 kJ/mol
# GULP energy per Si atom -5588.081139 kJ/mol
# Density = 2.340924 g / cm^3
# Si number density = 23.462643 Si / 1000 Ang^3
#
#
#
# Elastic Constant Matrix: (Units=GPa)
#
#
# Indices 1 2 3 4 5 6 
#
# 1 144.4180 29.0930 66.6215 12.7091 -18.8919 -13.7968
# 2 29.0930 34.8567 13.7399 -1.9945 -5.9945 2.9960
# 3 66.6215 13.7399 147.2633 4.7859 -8.2906 2.0094
# 4 12.7091 -1.9945 4.7859 25.6231 7.5058 3.5015
# 5 -18.8919 -5.9945 -8.2906 7.5058 34.3961 -0.0073
# 6 -13.7968 2.9960 2.0094 3.5015 -0.0073 37.9146
#
#
#
# Elastic Compliance Matrix: (Units=1/GPa)
#
#
# Indices 1 2 3 4 5 6 
#
# 1 0.013153 -0.009166 -0.004517 -0.009215 0.006550 0.006602
# 2 -0.009166 0.037190 0.000485 0.008396 -0.000270 -0.007075
# 3 -0.004517 0.000485 0.008754 0.001105 -0.000528 -0.002248
# 4 -0.009215 0.008396 0.001105 0.049357 -0.014104 -0.008636
# 5 0.006550 -0.000270 -0.000528 -0.014104 0.035575 0.003742
# 6 0.006602 -0.007075 -0.002248 -0.008636 0.003742 0.030254
#
#
# Mechanical properties :
#
#
# Convention : Reuss Voigt Hill
#
# Bulk Modulus (GPa) = 30.57964 60.60522 45.59243
# Shear Modulus (GPa) = 23.63187 34.05899 28.84543
#
# Velocity S-wave (km/s) = 3.17710 3.81416 3.51011
# Velocity P-wave (km/s) = 5.14978 6.72931 5.99182
#
# Compressibility (1/GPa) = 0.03270149
#
# Stress axis : x y z
#
# Youngs Moduli (GPa) = 76.02753 26.88891 114.23555
#
# Poissons Ratio (x) = 0.24646 0.51601
# Poissons Ratio (y) = 0.69686 -0.05543
# Poissons Ratio (z) = 0.34342 -0.01305
#
# Static dielectric constant tensor:
#      x y z
#    x 1.917130 0.013940 -0.005030 
#    y 0.013940 1.939540 0.033230 
#    z -0.005030 0.033230 1.900860 
# 
# From -- ./inp_files/134988.got.cif
#   From: 2010.05.17/outbox.cif.g08.bks.cpg/sg2_68_cif.got.tgz:134988.got - 2010.06.03 11:33:40.
