data_PCOD9108090
_publ_section_title
;
Structure prediction by ZEFSAII (Michael W. Deem and Ramdas Pophale) SiO2 
 PCOD9108090
Probable space group: P -1
;
_chemical_formula_sum "Si O2"
_cell_formula_units_Z 11
_cell_length_a 7.971650
_cell_length_b 12.486487
_cell_length_c 9.381101
_cell_angle_alpha 33.213483
_cell_angle_beta 99.477093
_cell_angle_gamma 78.150872
_cell_volume 389.727838
_symmetry_space_group_name_H-M "P -1"
_symmetry_group_IT_number 2
_symmetry_cell_setting 'triclinic'
loop_
_space_group_symop_operation_xyz
x,y,z
-x,-y,-z
loop_
_atom_site_type_symbol
_atom_site_label
_atom_site_fract_x
_atom_site_fract_y
_atom_site_fract_z
Si Si1 0.555931 0.752758 0.214922
Si Si2 0.752526 0.111983 0.228734
Si Si3 0.225634 0.627599 0.809703
Si Si4 0.000000 0.500000 0.000000
Si Si5 0.011941 0.682463 0.110260
Si Si6 0.229393 0.853591 0.279055
O O1 0.812047 0.523408 0.521854
O O2 0.425141 0.706303 0.358985
O O3 0.440915 0.819503 0.972214
O O4 0.500000 0.000000 0.000000
O O5 0.694109 0.250255 0.218235
O O6 0.880584 0.195342 0.075243
O O7 0.951622 0.804945 0.611238
O O8 0.267497 0.391831 0.149482
O O9 0.248300 0.672654 0.601969
O O10 0.016163 0.441665 0.886129
O O11 0.796246 0.922352 0.890583
O O12 0.000000 0.000000 0.000000
#
# Coordination Sequence:
#
# PCOD9108090 Si02
#       6
#     2   2   2   1   2   2
#     4  12  24  40  64  99 132 167 217 271 319 378
#     4   9  18  37  62  87 124 175 204 257 323 377
#     4   9  18  37  64  89 126 168 218 252 317 388
#     4  10  20  40  66  98 126 176 208 268 328 376
#     4  10  22  40  67  91 132 169 214 263 324 381
#     4  11  23  42  67  96 127 174 217 261 323 388
#
# _framework density 28.224824000000002
#
# number of rings (size 3 to 8) (size 9 to 14) (size 15 to 20)
#    0.000    1.818    3.636    2.727    0.000    0.727 
#    0.000    7.273    0.000    0.000    0.000    0.000 
#    0.000    0.000    0.000    0.000    0.000    0.000 
#
# Total GULP energy -61525.513880 kJ/mol
# GULP energy per Si atom -5593.228535 kJ/mol
# Density = 2.816058 g / cm^3
# Si number density = 28.224824 Si / 1000 Ang^3
#
#
#
# Elastic Constant Matrix: (Units=GPa)
#
#
# Indices 1 2 3 4 5 6 
#
# 1 109.3134 48.7299 42.3803 9.9956 -8.2105 -4.7646
# 2 48.7299 190.7425 46.4228 23.8690 13.4493 31.1651
# 3 42.3803 46.4228 138.8033 11.3709 11.6855 5.3354
# 4 9.9956 23.8690 11.3709 53.0269 1.1212 -4.0055
# 5 -8.2105 13.4493 11.6855 1.1212 51.3517 5.0836
# 6 -4.7646 31.1651 5.3354 -4.0055 5.0836 50.8370
#
#
#
# Elastic Compliance Matrix: (Units=1/GPa)
#
#
# Indices 1 2 3 4 5 6 
#
# 1 0.012051 -0.003037 -0.003034 -0.000094 0.003119 0.002991
# 2 -0.003037 0.007551 -0.001028 -0.002938 -0.001683 -0.004869
# 3 -0.003034 -0.001028 0.008739 -0.000826 -0.002145 -0.000422
# 4 -0.000094 -0.002938 -0.000826 0.020636 0.000146 0.003490
# 5 0.003119 -0.001683 -0.002145 0.000146 0.020951 -0.000534
# 6 0.002991 -0.004869 -0.000422 0.003490 -0.000534 0.023308
#
#
# Mechanical properties :
#
#
# Convention : Reuss Voigt Hill
#
# Bulk Modulus (GPa) = 70.70895 79.32502 75.01698
# Shear Modulus (GPa) = 44.58355 51.13153 47.85754
#
# Velocity S-wave (km/s) = 3.97871 4.26088 4.12221
# Velocity P-wave (km/s) = 6.79804 7.23689 7.02089
#
# Compressibility (1/GPa) = 0.01414248
#
# Stress axis : x y z
#
# Youngs Moduli (GPa) = 82.97907 132.43732 114.42912
#
# Poissons Ratio (x) = 0.40224 0.34713
# Poissons Ratio (y) = 0.25203 0.11769
# Poissons Ratio (z) = 0.25172 0.13621
#
# Static dielectric constant tensor:
#      x y z
#    x 2.404780 0.013060 -0.068820 
#    y 0.013060 2.298770 -0.185860 
#    z -0.068820 -0.185860 2.326590 
# 
# From -- ./inp_files/149011.got.cif
#   From: 2010.05.17/outbox.cif.g08.bks.cpg/sg2_75_cif.got.tgz:149011.got - 2010.06.03 11:33:40.
