data_PCOD9108392
_publ_section_title
;
Structure prediction by ZEFSAII (Michael W. Deem and Ramdas Pophale) SiO2 
 PCOD9108392
Probable space group: P -1
;
_chemical_formula_sum "Si O2"
_cell_formula_units_Z 16
_cell_length_a 9.781569
_cell_length_b 14.128185
_cell_length_c 9.093209
_cell_angle_alpha 75.773387
_cell_angle_beta 48.248228
_cell_angle_gamma 108.019838
_cell_volume 687.407136
_symmetry_space_group_name_H-M "P -1"
_symmetry_group_IT_number 2
_symmetry_cell_setting 'triclinic'
loop_
_space_group_symop_operation_xyz
x,y,z
-x,-y,-z
loop_
_atom_site_type_symbol
_atom_site_label
_atom_site_fract_x
_atom_site_fract_y
_atom_site_fract_z
Si Si1 0.550522 0.120138 0.829824
Si Si2 0.358946 0.979206 0.460931
Si Si3 0.532885 0.617270 0.350152
Si Si4 0.375139 0.473421 0.946010
Si Si5 0.766460 0.251520 0.912660
Si Si6 0.966925 0.980736 0.854520
Si Si7 0.214377 0.257726 0.601249
Si Si8 0.992623 0.488037 0.187235
O O1 0.659546 0.118616 0.599237
O O2 0.704237 0.237557 0.789842
O O3 0.500000 0.000000 0.000000
O O4 0.303627 0.090459 0.977714
O O5 0.500000 0.000000 0.500000
O O6 0.103328 0.936572 0.703909
O O7 0.534706 0.120328 0.204601
O O8 0.500000 0.500000 0.500000
O O9 0.618575 0.618870 0.126888
O O10 0.716801 0.736051 0.279824
O O11 0.281032 0.585876 0.542088
O O12 0.547026 0.614230 0.691395
O O13 0.500000 0.500000 0.000000
O O14 0.109860 0.425693 0.165433
O O15 0.845524 0.375240 0.895886
O O16 0.995919 0.258693 0.756220
O O17 0.123919 0.130244 0.634405
O O18 0.000000 0.000000 0.000000
O O19 0.000000 0.500000 0.000000
#
# Coordination Sequence:
#
# PCOD9108392 Si02
#       8
#     2   2   2   2   2   2   2   2
#     4  10  22  43  63  93 141 170 215 276 327 388
#     4  11  22  41  66  96 132 173 218 271 322 390
#     4  10  20  40  68  92 131 167 221 274 320 392
#     4  11  24  43  64  98 135 169 220 273 328 391
#     4  11  22  41  69  95 133 174 216 269 341 386
#     4  12  23  43  71  99 130 172 227 271 319 397
#     4  11  20  43  68  91 134 175 211 274 330 384
#     4  12  21  42  73  96 123 179 224 266 332 400
#
# _framework density 23.275872
#
# number of rings (size 3 to 8) (size 9 to 14) (size 15 to 20)
#    0.000    1.000    8.750    0.750    0.000    2.500 
#    4.500    2.500    0.000    0.000    0.000    0.000 
#    0.000    0.000    0.000    0.000    0.000    0.000 
#
# Total GULP energy -89542.377292 kJ/mol
# GULP energy per Si atom -5596.398581 kJ/mol
# Density = 2.322290 g / cm^3
# Si number density = 23.275872 Si / 1000 Ang^3
#
#
#
# Elastic Constant Matrix: (Units=GPa)
#
#
# Indices 1 2 3 4 5 6 
#
# 1 178.9186 65.3505 68.6203 41.7934 -35.6604 28.8359
# 2 65.3505 153.4481 65.8652 31.0616 -16.1992 41.9548
# 3 68.6203 65.8652 117.0224 29.8032 -34.6612 0.7107
# 4 41.7934 31.0616 29.8032 48.7389 -6.6711 -1.8809
# 5 -35.6604 -16.1992 -34.6612 -6.6711 50.6107 10.8905
# 6 28.8359 41.9548 0.7107 -1.8809 10.8905 43.6989
#
#
#
# Elastic Compliance Matrix: (Units=1/GPa)
#
#
# Indices 1 2 3 4 5 6 
#
# 1 0.011795 0.002725 -0.003637 -0.008990 0.008259 -0.012786
# 2 0.002725 0.015212 -0.006472 -0.008061 0.005152 -0.017929
# 3 -0.003637 -0.006472 0.016073 -0.001677 0.004618 0.007129
# 4 -0.008990 -0.008061 -0.001677 0.033781 -0.009374 0.017489
# 5 0.008259 0.005152 0.004618 -0.009374 0.033279 -0.019168
# 6 -0.012786 -0.017929 0.007129 0.017489 -0.019168 0.053948
#
#
# Mechanical properties :
#
#
# Convention : Reuss Voigt Hill
#
# Bulk Modulus (GPa) = 35.32058 94.34009 64.83034
# Shear Modulus (GPa) = 26.55429 45.24656 35.90043
#
# Velocity S-wave (km/s) = 3.38131 4.41378 3.93159
# Velocity P-wave (km/s) = 5.51834 8.16055 6.96587
#
# Compressibility (1/GPa) = 0.02831210
#
# Stress axis : x y z
#
# Youngs Moduli (GPa) = 84.77818 65.73865 62.21739
#
# Poissons Ratio (x) = -0.17916 0.22629
# Poissons Ratio (y) = -0.23105 0.40268
# Poissons Ratio (z) = 0.30835 0.42547
#
# Static dielectric constant tensor:
#      x y z
#    x 1.879020 -0.022400 0.073070 
#    y -0.022400 1.924780 -0.049970 
#    z 0.073070 -0.049970 1.911280 
# 
# From -- ./inp_files/206729.got.cif
#   From: 2010.05.17/outbox.cif.g08.bks.cpg/sg2_104_cif.got.tgz:206729.got - 2010.06.03 11:33:40.
