data_PCOD9108490
_publ_section_title
;
Structure prediction by ZEFSAII (Michael W. Deem and Ramdas Pophale) SiO2 
 PCOD9108490
Probable space group: P -1
;
_chemical_formula_sum "Si O2"
_cell_formula_units_Z 16
_cell_length_a 21.497287
_cell_length_b 12.824276
_cell_length_c 11.818919
_cell_angle_alpha 145.442278
_cell_angle_beta 25.068643
_cell_angle_gamma 153.635722
_cell_volume 611.834890
_symmetry_space_group_name_H-M "P -1"
_symmetry_group_IT_number 2
_symmetry_cell_setting 'triclinic'
loop_
_space_group_symop_operation_xyz
x,y,z
-x,-y,-z
loop_
_atom_site_type_symbol
_atom_site_label
_atom_site_fract_x
_atom_site_fract_y
_atom_site_fract_z
Si Si1 0.071858 0.839919 0.577620
Si Si2 0.676143 0.972243 0.307645
Si Si3 0.016903 0.695156 0.282483
Si Si4 0.290966 0.369246 0.683326
Si Si5 0.337510 0.741106 0.082243
Si Si6 0.591253 0.302319 0.708102
Si Si7 0.373589 0.454618 0.928060
Si Si8 0.049845 0.298593 0.844320
O O1 0.174430 0.754803 0.397982
O O2 0.095709 0.828735 0.391559
O O3 0.850689 0.676706 0.815024
O O4 0.168129 0.104109 0.691799
O O5 0.558362 0.849890 0.277664
O O6 0.622617 0.136396 0.578799
O O7 0.623522 0.762294 0.288006
O O8 0.891042 0.133686 0.053663
O O9 0.793307 0.498854 0.495375
O O10 0.031839 0.813806 0.244878
O O11 0.091371 0.548718 0.001986
O O12 0.500000 0.500000 0.500000
O O13 0.238011 0.343966 0.615573
O O14 0.244061 0.531761 0.957142
O O15 0.435349 0.669457 0.938593
O O16 0.500000 0.000000 0.000000
O O17 0.542218 0.429041 0.985158
#
# Coordination Sequence:
#
# PCOD9108490 Si02
#       8
#     2   2   2   2   2   2   2   2
#     4  11  23  45  68 100 131 176 229 279 335 399
#     4  10  20  41  64  99 136 171 224 276 329 404
#     4   9  20  39  69  97 133 175 215 275 340 397
#     4  12  25  44  68  97 137 177 227 279 333 406
#     4  12  27  47  65  94 135 177 230 286 335 397
#     4   9  21  40  63  99 140 170 215 276 340 397
#     4  11  24  42  69  95 131 183 224 274 334 407
#     4  10  20  40  68  98 133 176 220 274 334 394
#
# _framework density 26.150845
#
# number of rings (size 3 to 8) (size 9 to 14) (size 15 to 20)
#    0.000    1.500    3.750    0.750    0.000    4.000 
#    4.500    0.000    0.000    0.000    0.000    0.000 
#    0.000    0.000    0.000    0.000    0.000    0.000 
#
# Total GULP energy -89492.982231 kJ/mol
# GULP energy per Si atom -5593.311389 kJ/mol
# Density = 2.609132 g / cm^3
# Si number density = 26.150845 Si / 1000 Ang^3
#
#
#
# Elastic Constant Matrix: (Units=GPa)
#
#
# Indices 1 2 3 4 5 6 
#
# 1 120.0462 20.0159 6.6952 1.9011 -20.2360 -8.1308
# 2 20.0159 149.5760 30.6828 18.4759 -5.9102 -9.7652
# 3 6.6952 30.6828 44.4572 23.3511 -10.4272 -7.8189
# 4 1.9011 18.4759 23.3511 37.3378 2.9073 -10.1602
# 5 -20.2360 -5.9102 -10.4272 2.9073 39.9731 3.1880
# 6 -8.1308 -9.7652 -7.8189 -10.1602 3.1880 47.7240
#
#
#
# Elastic Compliance Matrix: (Units=1/GPa)
#
#
# Indices 1 2 3 4 5 6 
#
# 1 0.009351 -0.001121 0.001012 -0.000635 0.004793 0.001074
# 2 -0.001121 0.007957 -0.005173 -0.000438 -0.000752 0.000547
# 3 0.001012 -0.005173 0.041716 -0.024580 0.012426 -0.000114
# 4 -0.000635 -0.000438 -0.024580 0.044866 -0.010542 0.006031
# 5 0.004793 -0.000752 0.012426 -0.010542 0.031472 -0.001648
# 6 0.001074 0.000547 -0.000114 0.006031 -0.001648 0.022624
#
#
# Mechanical properties :
#
#
# Convention : Reuss Voigt Hill
#
# Bulk Modulus (GPa) = 20.63541 47.65193 34.14367
# Shear Modulus (GPa) = 27.07047 42.11935 34.59491
#
# Velocity S-wave (km/s) = 3.22089 4.01762 3.64111
# Velocity P-wave (km/s) = 4.66264 6.30739 5.54632
#
# Compressibility (1/GPa) = 0.04846040
#
# Stress axis : x y z
#
# Youngs Moduli (GPa) = 106.93672 125.67924 23.97143
#
# Poissons Ratio (x) = 0.14089 -0.02426
# Poissons Ratio (y) = 0.11988 0.12401
# Poissons Ratio (z) = -0.10823 0.65015
#
# Static dielectric constant tensor:
#      x y z
#    x 2.114080 -0.065790 0.076380 
#    y -0.065790 1.974090 -0.031770 
#    z 0.076380 -0.031770 2.143760 
# 
# From -- ./inp_files/471236.got.cif
#   From: 2010.05.17/outbox.cif.g08.bks.cpg/sg2_236_cif.got.tgz:471236.got - 2010.06.03 11:33:40.
