data_PCOD9108218
_publ_section_title
;
Structure prediction by ZEFSAII (Michael W. Deem and Ramdas Pophale) SiO2 
 PCOD9108218
Probable space group: P -1
;
_chemical_formula_sum "Si O2"
_cell_formula_units_Z 14
_cell_length_a 8.547114
_cell_length_b 16.149427
_cell_length_c 9.773933
_cell_angle_alpha 34.574168
_cell_angle_beta 60.119377
_cell_angle_gamma 75.627564
_cell_volume 626.804207
_symmetry_space_group_name_H-M "P -1"
_symmetry_group_IT_number 2
_symmetry_cell_setting 'triclinic'
loop_
_space_group_symop_operation_xyz
x,y,z
-x,-y,-z
loop_
_atom_site_type_symbol
_atom_site_label
_atom_site_fract_x
_atom_site_fract_y
_atom_site_fract_z
Si Si1 0.855477 0.333367 0.747939
Si Si2 0.805783 0.316989 0.094105
Si Si3 0.533835 0.792716 0.414096
Si Si4 0.520629 0.333965 0.694331
Si Si5 0.101800 0.152421 0.165640
Si Si6 0.848707 0.676211 0.577276
Si Si7 0.907473 0.022089 0.867248
O O1 0.701239 0.332172 0.703791
O O2 0.000000 0.500000 0.500000
O O3 0.006577 0.278409 0.675228
O O4 0.753119 0.270071 0.021742
O O5 0.649514 0.214729 0.406639
O O6 0.005315 0.282445 0.064193
O O7 0.817991 0.496265 0.866991
O O8 0.473182 0.703796 0.417789
O O9 0.657385 0.709167 0.565916
O O10 0.680119 0.963170 0.079671
O O11 0.500000 0.500000 0.500000
O O12 0.327511 0.214806 0.002012
O O13 0.071696 0.091821 0.105238
O O14 0.000000 0.000000 0.500000
O O15 0.970677 0.800876 0.465951
O O16 0.000000 0.000000 0.000000
#
# Coordination Sequence:
#
# PCOD9108218 Si02
#       7
#     2   2   2   2   2   2   2
#     4  10  21  39  65  94 124 165 213 262 317 378
#     4  11  22  41  66  96 127 165 218 267 312 381
#     4  10  22  39  64 100 132 164 210 267 321 376
#     4  11  22  41  66  93 129 172 212 261 319 379
#     4  11  26  45  63  93 135 171 212 268 326 380
#     4  10  20  40  67  93 126 172 217 260 311 383
#     4   9  20  41  64  87 127 173 207 253 318 381
#
# _framework density 22.335523999999999
#
# number of rings (size 3 to 8) (size 9 to 14) (size 15 to 20)
#    0.000    1.714    0.000    6.429    0.000    5.714 
#    0.000   12.857    0.000    0.000    0.000    0.000 
#    0.000    0.000    0.000    0.000    0.000    0.000 
#
# Total GULP energy -78088.518749 kJ/mol
# GULP energy per Si atom -5577.751339 kJ/mol
# Density = 2.228469 g / cm^3
# Si number density = 22.335524 Si / 1000 Ang^3
#
#
#
# Elastic Constant Matrix: (Units=GPa)
#
#
# Indices 1 2 3 4 5 6 
#
# 1 66.3846 32.8636 28.3462 4.8817 -21.2858 11.5402
# 2 32.8636 63.9236 16.0749 3.2833 -28.4431 -1.7223
# 3 28.3462 16.0749 89.0893 12.2557 -16.2183 4.6829
# 4 4.8817 3.2833 12.2557 45.9552 -7.7804 -3.8622
# 5 -21.2858 -28.4431 -16.2183 -7.7804 26.8171 -1.7238
# 6 11.5402 -1.7223 4.6829 -3.8622 -1.7238 34.3758
#
#
#
# Elastic Compliance Matrix: (Units=1/GPa)
#
#
# Indices 1 2 3 4 5 6 
#
# 1 0.025066 -0.008656 -0.004632 -0.000228 0.007342 -0.007875
# 2 -0.008656 0.033564 0.001498 0.003939 0.031189 0.006390
# 3 -0.004632 0.001498 0.013775 -0.002370 0.005540 -0.000235
# 4 -0.000228 0.003939 -0.002370 0.024114 0.009804 0.003798
# 5 0.007342 0.031189 0.005540 0.009804 0.082623 0.003588
# 6 -0.007875 0.006390 -0.000235 0.003798 0.003588 0.032693
#
#
# Mechanical properties :
#
#
# Convention : Reuss Voigt Hill
#
# Bulk Modulus (GPa) = 20.48066 41.55186 31.01626
# Shear Modulus (GPa) = 19.86564 30.90381 25.38472
#
# Velocity S-wave (km/s) = 2.98555 3.72374 3.37489
# Velocity P-wave (km/s) = 4.59066 6.09362 5.39473
#
# Compressibility (1/GPa) = 0.04882655
#
# Stress axis : x y z
#
# Youngs Moduli (GPa) = 39.89388 29.79351 72.59415
#
# Poissons Ratio (x) = 0.25788 0.33625
# Poissons Ratio (y) = 0.34531 -0.10873
# Poissons Ratio (z) = 0.18478 -0.04462
#
# Static dielectric constant tensor:
#      x y z
#    x 2.033020 -0.153040 0.185480 
#    y -0.153040 1.917320 -0.114450 
#    z 0.185480 -0.114450 2.010840 
# 
# From -- ./inp_files/204984.got.cif
#   From: 2010.05.17/outbox.cif.g08.bks.cpg/sg2_103_cif.got.tgz:204984.got - 2010.06.03 11:33:40.
