data_PCOD9108582
_publ_section_title
;
Structure prediction by ZEFSAII (Michael W. Deem and Ramdas Pophale) SiO2 
 PCOD9108582
Probable space group: P -1
;
_chemical_formula_sum "Si O2"
_cell_formula_units_Z 16
_cell_length_a 8.742459
_cell_length_b 18.654205
_cell_length_c 5.279467
_cell_angle_alpha 77.611074
_cell_angle_beta 126.628984
_cell_angle_gamma 85.842719
_cell_volume 652.419479
_symmetry_space_group_name_H-M "P -1"
_symmetry_group_IT_number 2
_symmetry_cell_setting 'triclinic'
loop_
_space_group_symop_operation_xyz
x,y,z
-x,-y,-z
loop_
_atom_site_type_symbol
_atom_site_label
_atom_site_fract_x
_atom_site_fract_y
_atom_site_fract_z
Si Si1 0.230948 0.757540 0.426414
Si Si2 0.664655 0.511470 0.458325
Si Si3 0.476947 0.389073 0.187762
Si Si4 0.898806 0.821464 0.652954
Si Si5 0.933923 0.592291 0.055969
Si Si6 0.971051 0.685467 0.526914
Si Si7 0.097337 0.911829 0.413373
Si Si8 0.715736 0.963144 0.635061
O O1 0.426906 0.697562 0.577145
O O2 0.235184 0.841728 0.445180
O O3 0.167465 0.712994 0.636243
O O4 0.046067 0.771032 0.041694
O O5 0.500000 0.500000 0.500000
O O6 0.637190 0.438222 0.316750
O O7 0.900260 0.485774 0.705315
O O8 0.599732 0.591044 0.187779
O O9 0.285862 0.419532 0.156319
O O10 0.833502 0.766953 0.425411
O O11 0.725582 0.883687 0.566705
O O12 0.032614 0.872005 0.621902
O O13 0.924731 0.644828 0.258095
O O14 0.986155 0.632783 0.826124
O O15 0.212087 0.976092 0.514937
O O16 0.891332 0.943307 0.033537
O O17 0.500000 0.000000 0.500000
#
# Coordination Sequence:
#
# PCOD9108582 Si02
#       8
#     2   2   2   2   2   2   2   2
#     4  10  20  44  68  95 134 182 224 279 340 404
#     4  11  25  45  70  96 139 178 227 282 347 407
#     4  11  25  43  67 102 130 180 228 282 341 409
#     4  10  20  40  69  94 139 183 220 277 342 394
#     4  12  26  44  71 100 139 177 231 285 343 403
#     4  11  22  44  69  97 137 181 224 283 337 401
#     4   9  21  39  64  92 135 174 225 273 336 400
#     4  10  21  39  65  97 134 177 224 278 335 398
#
# _framework density 24.524097999999999
#
# number of rings (size 3 to 8) (size 9 to 14) (size 15 to 20)
#    0.000    1.500    2.500    1.500    3.500    3.000 
#    0.000    0.000    0.000    0.000    0.000    0.000 
#    0.000    0.000    0.000    0.000    0.000    0.000 
#
# Total GULP energy -89286.417119 kJ/mol
# GULP energy per Si atom -5580.401070 kJ/mol
# Density = 2.446828 g / cm^3
# Si number density = 24.524098 Si / 1000 Ang^3
#
#
#
# Elastic Constant Matrix: (Units=GPa)
#
#
# Indices 1 2 3 4 5 6 
#
# 1 90.9498 24.3238 32.5632 -25.9407 5.3050 -19.2392
# 2 24.3238 116.6218 29.8127 -18.4607 21.8187 -11.1874
# 3 32.5632 29.8127 58.7912 -27.2039 0.5388 -5.4381
# 4 -25.9407 -18.4607 -27.2039 38.7231 -6.7065 2.0968
# 5 5.3050 21.8187 0.5388 -6.7065 52.1846 -13.8918
# 6 -19.2392 -11.1874 -5.4381 2.0968 -13.8918 30.7767
#
#
#
# Elastic Compliance Matrix: (Units=1/GPa)
#
#
# Indices 1 2 3 4 5 6 
#
# 1 0.017016 -0.000594 -0.004654 0.007688 0.002239 0.010086
# 2 -0.000594 0.010874 -0.004752 0.000688 -0.004127 0.000832
# 3 -0.004654 -0.004752 0.029548 0.016093 0.004645 0.001585
# 4 0.007688 0.000688 0.016093 0.043295 0.006418 0.007847
# 5 0.002239 -0.004127 0.004645 0.006418 0.024451 0.011320
# 6 0.010086 0.000832 0.001585 0.007847 0.011320 0.043954
#
#
# Mechanical properties :
#
#
# Convention : Reuss Voigt Hill
#
# Bulk Modulus (GPa) = 26.71072 48.86246 37.78659
# Shear Modulus (GPa) = 24.79950 36.31442 30.55696
#
# Velocity S-wave (km/s) = 3.18343 3.85225 3.53370
# Velocity P-wave (km/s) = 4.94243 6.30507 5.66487
#
# Compressibility (1/GPa) = 0.03743815
#
# Stress axis : x y z
#
# Youngs Moduli (GPa) = 58.76889 91.95971 33.84378
#
# Poissons Ratio (x) = 0.05460 0.15750
# Poissons Ratio (y) = 0.03490 0.16084
# Poissons Ratio (z) = 0.27349 0.43702
#
# Static dielectric constant tensor:
#      x y z
#    x 1.966280 -0.084720 -0.003450 
#    y -0.084720 2.119720 0.141970 
#    z -0.003450 0.141970 2.147540 
# 
# From -- ./inp_files/52779.got.cif
#   From: 2010.05.17/outbox.cif.g08.bks.cpg/sg2_27_cif.got.tgz:52779.got - 2010.06.03 11:33:40.
