data_PCOD9108640
_publ_section_title
;
Structure prediction by ZEFSAII (Michael W. Deem and Ramdas Pophale) SiO2 
 PCOD9108640
Probable space group: P -1
;
_chemical_formula_sum "Si O2"
_cell_formula_units_Z 16
_cell_length_a 9.468435
_cell_length_b 19.269850
_cell_length_c 12.378733
_cell_angle_alpha 25.963533
_cell_angle_beta 124.758089
_cell_angle_gamma 134.623042
_cell_volume 689.958165
_symmetry_space_group_name_H-M "P -1"
_symmetry_group_IT_number 2
_symmetry_cell_setting 'triclinic'
loop_
_space_group_symop_operation_xyz
x,y,z
-x,-y,-z
loop_
_atom_site_type_symbol
_atom_site_label
_atom_site_fract_x
_atom_site_fract_y
_atom_site_fract_z
Si Si1 0.884725 0.204860 0.508988
Si Si2 0.914163 0.806611 0.594853
Si Si3 0.412946 0.778654 0.775823
Si Si4 0.845807 0.127513 0.176223
Si Si5 0.121075 0.401739 0.724709
Si Si6 0.486072 0.161265 0.030380
Si Si7 0.845204 0.774748 0.235203
Si Si8 0.510730 0.519699 0.105464
O O1 0.790892 0.308954 0.260783
O O2 0.961962 0.129398 0.551723
O O3 0.070044 0.312023 0.521833
O O4 0.698806 0.039552 0.726873
O O5 0.715048 0.605510 0.772367
O O6 0.053447 0.811435 0.746529
O O7 0.824596 0.931176 0.419088
O O8 0.399325 0.729783 0.963430
O O9 0.500000 0.000000 0.500000
O O10 0.568628 0.730257 0.859770
O O11 0.641005 0.128845 0.078473
O O12 0.994496 0.261349 0.961944
O O13 0.144985 0.298376 0.776287
O O14 0.340786 0.526020 0.703020
O O15 0.000000 0.500000 0.500000
O O16 0.374723 0.256538 0.794824
O O17 0.000000 0.000000 0.000000
O O18 0.500000 0.500000 0.000000
#
# Coordination Sequence:
#
# PCOD9108640 Si02
#       8
#     2   2   2   2   2   2   2   2
#     4  10  22  39  68 103 136 180 239 287 357 415
#     4  11  25  42  73 112 143 185 244 307 357 434
#     4  10  22  39  72  99 139 189 238 286 357 424
#     4  11  24  43  75 107 143 189 246 294 370 429
#     4  12  28  50  71 105 151 194 236 300 368 431
#     4  10  20  40  70 102 134 187 237 295 345 431
#     4  10  22  43  70  94 138 192 235 282 350 429
#     4  12  27  45  71 108 150 186 242 304 365 421
#
# _framework density 23.189810999999999
#
# number of rings (size 3 to 8) (size 9 to 14) (size 15 to 20)
#    0.000    1.250    3.750    1.500    7.000    2.500 
#    2.250    5.000    0.000    0.000    0.000    0.000 
#    0.000    0.000    0.000    0.000    0.000    0.000 
#
# Total GULP energy -89415.294034 kJ/mol
# GULP energy per Si atom -5588.455877 kJ/mol
# Density = 2.313703 g / cm^3
# Si number density = 23.189811 Si / 1000 Ang^3
#
#
#
# Elastic Constant Matrix: (Units=GPa)
#
#
# Indices 1 2 3 4 5 6 
#
# 1 130.4857 30.3247 5.0095 0.9913 15.9096 14.7742
# 2 30.3247 92.9680 19.7768 28.9820 8.8526 12.6846
# 3 5.0095 19.7768 40.6721 3.9547 13.2440 16.0290
# 4 0.9913 28.9820 3.9547 36.3577 8.6895 12.3142
# 5 15.9096 8.8526 13.2440 8.6895 38.4941 12.0634
# 6 14.7742 12.6846 16.0290 12.3142 12.0634 42.2698
#
#
#
# Elastic Compliance Matrix: (Units=1/GPa)
#
#
# Indices 1 2 3 4 5 6 
#
# 1 0.009437 -0.004501 0.003226 0.005134 -0.004032 -0.003516
# 2 -0.004501 0.018158 -0.009068 -0.015181 0.003275 0.003051
# 3 0.003226 -0.009068 0.035579 0.009670 -0.009950 -0.011876
# 4 0.005134 -0.015181 0.009670 0.044283 -0.008377 -0.011416
# 5 -0.004032 0.003275 -0.009950 -0.008377 0.033084 -0.002802
# 6 -0.003516 0.003051 -0.011876 -0.011416 -0.002802 0.032600
#
#
# Mechanical properties :
#
#
# Convention : Reuss Voigt Hill
#
# Bulk Modulus (GPa) = 23.53655 41.59419 32.56537
# Shear Modulus (GPa) = 24.03987 37.35864 30.69925
#
# Velocity S-wave (km/s) = 3.22321 4.01807 3.64239
# Velocity P-wave (km/s) = 4.90139 6.28505 5.63585
#
# Compressibility (1/GPa) = 0.04248711
#
# Stress axis : x y z
#
# Youngs Moduli (GPa) = 105.97048 55.07178 28.10676
#
# Poissons Ratio (x) = 0.24789 -0.09066
# Poissons Ratio (y) = 0.47700 0.25486
# Poissons Ratio (z) = -0.34183 0.49937
#
# Static dielectric constant tensor:
#      x y z
#    x 1.854670 0.037300 0.033910 
#    y 0.037300 1.953060 -0.034300 
#    z 0.033910 -0.034300 1.915700 
# 
# From -- ./inp_files/402704.got.cif
#   From: 2010.05.17/outbox.cif.g08.bks.cpg/sg2_202_cif.got.tgz:402704.got - 2010.06.03 11:33:40.
