data_PCOD9108434
_publ_section_title
;
Structure prediction by ZEFSAII (Michael W. Deem and Ramdas Pophale) SiO2 
 PCOD9108434
Probable space group: P -1
;
_chemical_formula_sum "Si O2"
_cell_formula_units_Z 16
_cell_length_a 8.010644
_cell_length_b 22.346095
_cell_length_c 10.117241
_cell_angle_alpha 30.267856
_cell_angle_beta 40.779165
_cell_angle_gamma 51.838757
_cell_volume 592.621776
_symmetry_space_group_name_H-M "P -1"
_symmetry_group_IT_number 2
_symmetry_cell_setting 'triclinic'
loop_
_space_group_symop_operation_xyz
x,y,z
-x,-y,-z
loop_
_atom_site_type_symbol
_atom_site_label
_atom_site_fract_x
_atom_site_fract_y
_atom_site_fract_z
Si Si1 0.348445 0.590689 0.562459
Si Si2 0.317902 0.378750 0.374907
Si Si3 0.174796 0.703506 0.691433
Si Si4 0.143896 0.493463 0.587255
Si Si5 0.198697 0.957493 0.286689
Si Si6 0.873869 0.845526 0.235458
Si Si7 0.573216 0.164190 0.057128
Si Si8 0.625242 0.083070 0.460333
O O1 0.141003 0.626374 0.724459
O O2 0.225157 0.539228 0.599553
O O3 0.574068 0.516593 0.624164
O O4 0.505144 0.715323 0.183811
O O5 0.514979 0.296962 0.480542
O O6 0.216784 0.291998 0.481270
O O7 0.054533 0.418619 0.518863
O O8 0.500000 0.500000 0.000000
O O9 0.114539 0.838809 0.478580
O O10 0.031996 0.629611 0.037557
O O11 0.191021 0.915105 0.525295
O O12 0.500000 0.000000 0.000000
O O13 0.080164 0.073481 0.080261
O O14 0.652728 0.899270 0.344618
O O15 0.143327 0.852753 0.133492
O O16 0.625141 0.173918 0.164110
O O17 0.392080 0.048947 0.341653
#
# Coordination Sequence:
#
# PCOD9108434 Si02
#       8
#     2   2   2   2   2   2   2   2
#     4  11  23  43  65  94 132 170 220 264 313 388
#     4  10  21  42  66  97 129 166 217 259 325 379
#     4  11  22  42  69  96 128 170 212 271 324 380
#     4  10  24  44  62  96 130 173 219 263 319 376
#     4  10  20  40  68  96 125 166 212 262 329 378
#     4  11  21  42  67  95 128 169 210 264 321 380
#     4  11  24  40  64  95 129 171 214 257 324 382
#     4  10  23  42  63  94 131 166 209 270 315 387
#
# _framework density 26.998671999999999
#
# number of rings (size 3 to 8) (size 9 to 14) (size 15 to 20)
#    0.000    1.500    3.750    2.250    0.000    4.000 
#   11.250    0.000    0.000    0.000    0.000    0.000 
#    0.000    0.000    0.000    0.000    0.000    0.000 
#
# Total GULP energy -89441.278227 kJ/mol
# GULP energy per Si atom -5590.079889 kJ/mol
# Density = 2.693722 g / cm^3
# Si number density = 26.998672 Si / 1000 Ang^3
#
#
#
# Elastic Constant Matrix: (Units=GPa)
#
#
# Indices 1 2 3 4 5 6 
#
# 1 100.2381 24.8203 9.2742 4.6878 12.5080 -5.8636
# 2 24.8203 105.4352 28.2969 -0.6874 7.7179 -3.0283
# 3 9.2742 28.2969 101.8171 -12.5179 0.4129 16.5062
# 4 4.6878 -0.6874 -12.5179 36.0742 14.4512 1.5109
# 5 12.5080 7.7179 0.4129 14.4512 41.1324 5.2515
# 6 -5.8636 -3.0283 16.5062 1.5109 5.2515 48.2258
#
#
#
# Elastic Compliance Matrix: (Units=1/GPa)
#
#
# Indices 1 2 3 4 5 6 
#
# 1 0.011084 -0.002135 -0.000778 -0.000637 -0.002971 0.001823
# 2 -0.002135 0.010991 -0.003130 -0.000035 -0.001583 0.001675
# 3 -0.000778 -0.003130 0.012055 0.004540 -0.000315 -0.004525
# 4 -0.000637 -0.000035 0.004540 0.034103 -0.011644 -0.001434
# 5 -0.002971 -0.001583 -0.000315 -0.011644 0.030022 -0.003257
# 6 0.001823 0.001675 -0.004525 -0.001434 -0.003257 0.023011
#
#
# Mechanical properties :
#
#
# Convention : Reuss Voigt Hill
#
# Bulk Modulus (GPa) = 45.36172 48.03037 46.69605
# Shear Modulus (GPa) = 35.53674 41.42641 38.48157
#
# Velocity S-wave (km/s) = 3.63194 3.92137 3.77943
# Velocity P-wave (km/s) = 5.86736 6.19124 6.03147
#
# Compressibility (1/GPa) = 0.02204502
#
# Stress axis : x y z
#
# Youngs Moduli (GPa) = 90.21976 90.98580 82.95115
#
# Poissons Ratio (x) = 0.19423 0.06456
# Poissons Ratio (y) = 0.19259 0.25960
# Poissons Ratio (z) = 0.07021 0.28475
#
# Static dielectric constant tensor:
#      x y z
#    x 2.153600 0.056850 0.042650 
#    y 0.056850 2.202730 0.061760 
#    z 0.042650 0.061760 2.102510 
# 
# From -- ./inp_files/406471.got.cif
#   From: 2010.05.17/outbox.cif.g08.bks.cpg/sg2_204_cif.got.tgz:406471.got - 2010.06.03 11:33:40.
