data_PCOD9108250
_publ_section_title
;
Structure prediction by ZEFSAII (Michael W. Deem and Ramdas Pophale) SiO2 
 PCOD9108250
Probable space group: P -1
;
_chemical_formula_sum "Si O2"
_cell_formula_units_Z 14
_cell_length_a 5.438672
_cell_length_b 23.451250
_cell_length_c 7.977345
_cell_angle_alpha 134.148655
_cell_angle_beta 59.728463
_cell_angle_gamma 109.825069
_cell_volume 630.398536
_symmetry_space_group_name_H-M "P -1"
_symmetry_group_IT_number 2
_symmetry_cell_setting 'triclinic'
loop_
_space_group_symop_operation_xyz
x,y,z
-x,-y,-z
loop_
_atom_site_type_symbol
_atom_site_label
_atom_site_fract_x
_atom_site_fract_y
_atom_site_fract_z
Si Si1 0.123735 0.750184 0.033362
Si Si2 0.374318 0.156752 0.118793
Si Si3 0.913165 0.266493 0.593928
Si Si4 0.340026 0.988851 0.853497
Si Si5 0.423809 0.179628 0.546639
Si Si6 0.870162 0.423276 0.476077
Si Si7 0.813084 0.575252 0.279356
O O1 0.388005 0.789239 0.932106
O O2 0.104506 0.658488 0.802737
O O3 0.132125 0.755177 0.241378
O O4 0.838244 0.801349 0.202902
O O5 0.370840 0.158900 0.327898
O O6 0.070203 0.200842 0.286627
O O7 0.424026 0.064623 0.866783
O O8 0.589386 0.262733 0.638279
O O9 0.086901 0.346141 0.689470
O O10 0.415152 0.898284 0.593803
O O11 0.500000 0.000000 0.000000
O O12 0.000000 0.000000 0.000000
O O13 0.526791 0.436190 0.646028
O O14 0.000000 0.500000 0.500000
O O15 0.068224 0.410971 0.545953
O O16 0.000000 0.500000 0.000000
#
# Coordination Sequence:
#
# PCOD9108250 Si02
#       7
#     2   2   2   2   2   2   2
#     4  11  25  41  66 102 134 175 227 277 332 402
#     4  10  21  43  64  93 135 178 225 277 337 393
#     4  11  23  41  67  96 136 177 225 274 333 399
#     4  10  20  40  67  94 131 179 225 275 335 395
#     4  10  23  39  67  94 134 180 224 279 334 396
#     4  12  27  47  71 102 139 175 221 279 335 397
#     4  12  27  46  73 100 137 179 221 275 337 398
#
# _framework density 22.208172999999999
#
# number of rings (size 3 to 8) (size 9 to 14) (size 15 to 20)
#    0.000    1.143    2.857    2.571    6.000    1.714 
#    0.000    0.714    0.000    0.000    0.000    0.000 
#    0.000    0.000    0.000    0.000    0.000    0.000 
#
# Total GULP energy -78052.912100 kJ/mol
# GULP energy per Si atom -5575.208007 kJ/mol
# Density = 2.215763 g / cm^3
# Si number density = 22.208173 Si / 1000 Ang^3
#
#
#
# Elastic Constant Matrix: (Units=GPa)
#
#
# Indices 1 2 3 4 5 6 
#
# 1 61.4844 6.8275 11.5905 -0.4652 -4.8719 9.0093
# 2 6.8275 119.9051 46.3508 14.3426 6.4321 15.3221
# 3 11.5905 46.3508 100.0903 7.4283 -19.6169 4.5341
# 4 -0.4652 14.3426 7.4283 32.6235 1.9225 1.7478
# 5 -4.8719 6.4321 -19.6169 1.9225 26.6685 5.6395
# 6 9.0093 15.3221 4.5341 1.7478 5.6395 28.8435
#
#
#
# Elastic Compliance Matrix: (Units=1/GPa)
#
#
# Indices 1 2 3 4 5 6 
#
# 1 0.017660 -0.000105 -0.001039 0.000640 0.003723 -0.006064
# 2 -0.000105 0.012086 -0.006470 -0.003243 -0.006640 -0.003876
# 3 -0.001039 -0.006470 0.015916 -0.001519 0.013458 -0.001280
# 4 0.000640 -0.003243 -0.001519 0.032572 -0.002630 0.000302
# 5 0.003723 -0.006640 0.013458 -0.002630 0.051929 -0.009745
# 6 -0.006064 -0.003876 -0.001280 0.000302 -0.009745 0.040711
#
#
# Mechanical properties :
#
#
# Convention : Reuss Voigt Hill
#
# Bulk Modulus (GPa) = 32.85900 45.66860 39.26380
# Shear Modulus (GPa) = 25.47786 32.07451 28.77618
#
# Velocity S-wave (km/s) = 3.39075 3.80447 3.60355
# Velocity P-wave (km/s) = 5.49160 6.31721 5.91882
#
# Compressibility (1/GPa) = 0.03043307
#
# Stress axis : x y z
#
# Youngs Moduli (GPa) = 56.62428 82.73768 62.82995
#
# Poissons Ratio (x) = 0.00871 0.06531
# Poissons Ratio (y) = 0.00596 0.40651
# Poissons Ratio (z) = 0.05886 0.53532
#
# Static dielectric constant tensor:
#      x y z
#    x 2.055610 0.041030 0.008700 
#    y 0.041030 1.895660 0.076510 
#    z 0.008700 0.076510 1.835750 
# 
# From -- ./inp_files/6737.got.cif
#   From: 2010.05.17/outbox.cif.g08.bks.cpg/sg2_4_cif.got.tgz:6737.got - 2010.06.03 11:33:40.
