data_PCOD9108022
_publ_section_title
;
Structure prediction by ZEFSAII (Michael W. Deem and Ramdas Pophale) SiO2 
 PCOD9108022
Probable space group: P -1
;
_chemical_formula_sum "Si O2"
_cell_formula_units_Z 11
_cell_length_a 13.960170
_cell_length_b 9.744937
_cell_length_c 13.282269
_cell_angle_alpha 145.641686
_cell_angle_beta 147.834882
_cell_angle_gamma 29.142937
_cell_volume 441.822592
_symmetry_space_group_name_H-M "P -1"
_symmetry_group_IT_number 2
_symmetry_cell_setting 'triclinic'
loop_
_space_group_symop_operation_xyz
x,y,z
-x,-y,-z
loop_
_atom_site_type_symbol
_atom_site_label
_atom_site_fract_x
_atom_site_fract_y
_atom_site_fract_z
Si Si1 0.893611 0.770082 0.852813
Si Si2 0.666747 0.446140 0.996621
Si Si3 0.433845 0.387251 0.585267
Si Si4 0.821480 0.161751 0.529171
Si Si5 0.000000 0.500000 0.000000
Si Si6 0.222260 0.214949 0.572547
O O1 0.762752 0.653981 0.611523
O O2 0.889984 0.712331 0.931141
O O3 0.783004 0.113781 0.940008
O O4 0.147500 0.583177 0.929645
O O5 0.634265 0.669043 0.189861
O O6 0.462734 0.525710 0.794038
O O7 0.395773 0.589794 0.577072
O O8 0.650577 0.053292 0.556796
O O9 0.898758 0.317378 0.762978
O O10 0.805792 0.936736 0.447338
O O11 0.000000 0.000000 0.500000
O O12 0.000000 0.500000 0.500000
#
# Coordination Sequence:
#
# PCOD9108022 Si02
#       6
#     2   2   2   2   1   2
#     4  10  22  42  68  97 133 178 224 274 330 397
#     4  11  23  43  68  96 136 176 219 279 335 387
#     4  11  25  43  69 101 134 175 227 274 330 400
#     4  11  25  44  69 100 135 178 226 274 332 401
#     4  10  20  40  66  94 134 172 214 274 328 382
#     4  12  25  42  69 102 135 175 225 276 333 400
#
# _framework density 24.896871999999998
#
# number of rings (size 3 to 8) (size 9 to 14) (size 15 to 20)
#    0.000    1.091    0.000    7.636    0.000    7.273 
#    0.000    1.818    0.000    0.000    0.000    0.000 
#    0.000    0.000    0.000    0.000    0.000    0.000 
#
# Total GULP energy -61428.913729 kJ/mol
# GULP energy per Si atom -5584.446703 kJ/mol
# Density = 2.484021 g / cm^3
# Si number density = 24.896872 Si / 1000 Ang^3
#
#
#
# Elastic Constant Matrix: (Units=GPa)
#
#
# Indices 1 2 3 4 5 6 
#
# 1 61.2149 35.3083 44.8081 -2.9278 0.7974 26.1016
# 2 35.3083 118.1329 43.8175 -5.2844 -7.2931 28.0211
# 3 44.8081 43.8175 197.3227 -9.5203 -0.0819 30.0422
# 4 -2.9278 -5.2844 -9.5203 37.2949 7.2710 -0.1666
# 5 0.7974 -7.2931 -0.0819 7.2710 17.8751 4.7092
# 6 26.1016 28.0211 30.0422 -0.1666 4.7092 50.2396
#
#
#
# Elastic Compliance Matrix: (Units=1/GPa)
#
#
# Indices 1 2 3 4 5 6 
#
# 1 0.024903 -0.004194 -0.003403 0.000621 -0.000856 -0.008482
# 2 -0.004194 0.011430 -0.000952 -0.000143 0.006008 -0.004190
# 3 -0.003403 -0.000952 0.006335 0.001276 -0.000344 -0.001453
# 4 0.000621 -0.000143 0.001276 0.029539 -0.012157 0.000232
# 5 -0.000856 0.006008 -0.000344 -0.012157 0.065722 -0.008902
# 6 -0.008482 -0.004190 -0.001453 0.000232 -0.008902 0.028352
#
#
# Mechanical properties :
#
#
# Convention : Reuss Voigt Hill
#
# Bulk Modulus (GPa) = 39.10854 69.39315 54.25085
# Shear Modulus (GPa) = 26.05489 37.93102 31.99296
#
# Velocity S-wave (km/s) = 3.23849 3.90747 3.58861
# Velocity P-wave (km/s) = 5.45217 6.94914 6.24566
#
# Compressibility (1/GPa) = 0.02556986
#
# Stress axis : x y z
#
# Youngs Moduli (GPa) = 40.15528 87.48622 157.86539
#
# Poissons Ratio (x) = 0.36694 0.53717
# Poissons Ratio (y) = 0.16842 0.15032
# Poissons Ratio (z) = 0.13664 0.08330
#
# Static dielectric constant tensor:
#      x y z
#    x 2.050780 -0.082430 0.017920 
#    y -0.082430 1.997320 -0.003580 
#    z 0.017920 -0.003580 1.907290 
# 
# From -- ./inp_files/538107.got.cif
#   From: 2010.05.17/outbox.cif.g08.bks.cpg/sg2_270_cif.got.tgz:538107.got - 2010.06.03 11:33:40.
