data_PCOD9108005
_publ_section_title
;
Structure prediction by ZEFSAII (Michael W. Deem and Ramdas Pophale) SiO2 
 PCOD9108005
Probable space group: P -1
;
_chemical_formula_sum "Si O2"
_cell_formula_units_Z 14
_cell_length_a 8.458557
_cell_length_b 22.105710
_cell_length_c 18.155708
_cell_angle_alpha 15.856542
_cell_angle_beta 141.284600
_cell_angle_gamma 136.823863
_cell_volume 575.612393
_symmetry_space_group_name_H-M "P -1"
_symmetry_group_IT_number 2
_symmetry_cell_setting 'triclinic'
loop_
_space_group_symop_operation_xyz
x,y,z
-x,-y,-z
loop_
_atom_site_type_symbol
_atom_site_label
_atom_site_fract_x
_atom_site_fract_y
_atom_site_fract_z
Si Si1 0.640101 0.214908 0.746197
Si Si2 0.916348 0.763062 0.217873
Si Si3 0.676139 0.277940 0.156831
Si Si4 0.517442 0.978364 0.330645
Si Si5 0.303207 0.542033 0.812812
Si Si6 0.221954 0.304512 0.590957
Si Si7 0.800377 0.721579 0.605153
O O1 0.847842 0.328018 0.642604
O O2 0.500587 0.333685 0.627139
O O3 0.403342 0.196798 0.626195
O O4 0.769113 0.964305 0.103824
O O5 0.855452 0.651976 0.403048
O O6 0.663273 0.824876 0.005348
O O7 0.000000 0.000000 0.000000
O O8 0.643314 0.061643 0.351661
O O9 0.903656 0.256775 0.324034
O O10 0.411039 0.365458 0.996814
O O11 0.753400 0.470739 0.904164
O O12 0.346304 0.784085 0.513844
O O13 0.726001 0.870996 0.475037
O O14 0.003012 0.552770 0.703906
O O15 0.500000 0.500000 0.000000
#
# Coordination Sequence:
#
# PCOD9108005 Si02
#       7
#     2   2   2   2   2   2   2
#     4  10  18  33  65  90 116 171 207 251 322 373
#     4  10  16  35  62  88 122 162 208 255 307 375
#     4  10  23  36  61  95 118 170 211 256 321 377
#     4  11  20  38  63  89 124 165 212 260 315 375
#     4  11  22  39  60  86 128 165 207 265 315 377
#     4  10  19  34  62  93 119 165 212 251 317 376
#     4  10  19  39  60  88 129 155 211 261 314 379
#
# _framework density 24.321923000000002
#
# number of rings (size 3 to 8) (size 9 to 14) (size 15 to 20)
#    0.000    1.714    5.714    2.143    0.000    0.571 
#    0.000    2.857    0.000    3.429    0.000    0.000 
#    0.000    0.000    0.000    0.000    0.000    0.000 
#
# Total GULP energy -78274.859759 kJ/mol
# GULP energy per Si atom -5591.061411 kJ/mol
# Density = 2.426656 g / cm^3
# Si number density = 24.321923 Si / 1000 Ang^3
#
#
#
# Elastic Constant Matrix: (Units=GPa)
#
#
# Indices 1 2 3 4 5 6 
#
# 1 151.0333 29.4211 29.9697 -0.7048 40.6008 -7.0512
# 2 29.4211 45.1341 8.8676 1.7796 -2.0905 4.4756
# 3 29.9697 8.8676 79.9805 21.8479 21.6247 6.5717
# 4 -0.7048 1.7796 21.8479 41.6072 -1.2143 2.9741
# 5 40.6008 -2.0905 21.6247 -1.2143 34.7270 11.7305
# 6 -7.0512 4.4756 6.5717 2.9741 11.7305 32.9489
#
#
#
# Elastic Compliance Matrix: (Units=1/GPa)
#
#
# Indices 1 2 3 4 5 6 
#
# 1 0.016865 -0.013973 0.001749 -0.001876 -0.026728 0.014844
# 2 -0.013973 0.035211 -0.005692 0.003261 0.027800 -0.016830
# 3 0.001749 -0.005692 0.019465 -0.010709 -0.016238 0.004013
# 4 -0.001876 0.003261 -0.010709 0.030247 0.012051 -0.005729
# 5 -0.026728 0.027800 -0.016238 0.012051 0.084949 -0.037589
# 6 0.014844 -0.016830 0.004013 -0.005729 -0.037589 0.048912
#
#
# Mechanical properties :
#
#
# Convention : Reuss Voigt Hill
#
# Bulk Modulus (GPa) = 28.00492 45.85164 36.92828
# Shear Modulus (GPa) = 17.64387 35.71592 26.67989
#
# Velocity S-wave (km/s) = 2.69630 3.83621 3.31561
# Velocity P-wave (km/s) = 4.60789 6.20604 5.46569
#
# Compressibility (1/GPa) = 0.03570801
#
# Stress axis : x y z
#
# Youngs Moduli (GPa) = 59.29371 28.40008 51.37515
#
# Poissons Ratio (x) = 0.39684 -0.08986
# Poissons Ratio (y) = 0.82853 0.29244
# Poissons Ratio (z) = -0.10371 0.16166
#
# Static dielectric constant tensor:
#      x y z
#    x 2.021240 -0.008350 0.002100 
#    y -0.008350 1.928150 0.003790 
#    z 0.002100 0.003790 1.941790 
# 
# From -- ./inp_files/390237.got.cif
#   From: 2010.05.17/outbox.cif.g08.bks.cpg/sg2_196_cif.got.tgz:390237.got - 2010.06.03 11:33:40.
