data_PCOD9108136
_publ_section_title
;
Structure prediction by ZEFSAII (Michael W. Deem and Ramdas Pophale) SiO2 
 PCOD9108136
Probable space group: P -1
;
_chemical_formula_sum "Si O2"
_cell_formula_units_Z 16
_cell_length_a 13.493620
_cell_length_b 13.463262
_cell_length_c 10.715107
_cell_angle_alpha 95.339657
_cell_angle_beta 106.502369
_cell_angle_gamma 149.713169
_cell_volume 672.486181
_symmetry_space_group_name_H-M "P -1"
_symmetry_group_IT_number 2
_symmetry_cell_setting 'triclinic'
loop_
_space_group_symop_operation_xyz
x,y,z
-x,-y,-z
loop_
_atom_site_type_symbol
_atom_site_label
_atom_site_fract_x
_atom_site_fract_y
_atom_site_fract_z
Si Si1 0.663322 0.684775 0.959030
Si Si2 0.767276 0.301735 0.066877
Si Si3 0.945210 0.641442 0.852436
Si Si4 0.045829 0.443217 0.590759
Si Si5 0.608139 0.828653 0.799102
Si Si6 0.261413 0.200608 0.362564
Si Si7 0.398519 0.267070 0.671854
Si Si8 0.723662 0.012339 0.246296
O O1 0.575571 0.712997 0.877764
O O2 0.575214 0.523229 0.805819
O O3 0.500000 0.500000 0.000000
O O4 0.993749 0.985569 0.153909
O O5 0.962751 0.389844 0.090751
O O6 0.962583 0.532837 0.265916
O O7 0.592684 0.229177 0.921889
O O8 0.500000 0.000000 0.000000
O O9 0.620451 0.384647 0.710860
O O10 0.083196 0.791117 0.783181
O O11 0.101067 0.851729 0.033538
O O12 0.000000 0.500000 0.500000
O O13 0.361834 0.686577 0.711009
O O14 0.841658 0.177215 0.427867
O O15 0.600267 0.767978 0.656843
O O16 0.500000 0.500000 0.500000
O O17 0.180968 0.097586 0.463150
O O18 0.268131 0.095982 0.726214
#
# Coordination Sequence:
#
# PCOD9108136 Si02
#       8
#     2   2   2   2   2   2   2   2
#     4  12  28  47  72 104 144 187 241 300 359 435
#     4  10  20  40  67 102 138 185 234 286 355 423
#     4  11  21  45  73  97 142 188 232 292 357 421
#     4  12  22  41  73 109 139 182 240 290 355 435
#     4  12  23  44  76  97 138 195 230 287 365 425
#     4  12  26  48  72 103 143 190 246 296 359 431
#     4  12  27  46  70 107 142 182 243 298 356 428
#     4  11  24  43  71 103 142 187 238 292 357 421
#
# _framework density 23.792311000000002
#
# number of rings (size 3 to 8) (size 9 to 14) (size 15 to 20)
#    0.000    0.500    7.500    2.625    1.750    2.000 
#    0.000    0.625    0.000    0.000    0.000    0.000 
#    0.000    0.000    0.000    0.000    0.000    0.000 
#
# Total GULP energy -89565.049776 kJ/mol
# GULP energy per Si atom -5597.815611 kJ/mol
# Density = 2.373816 g / cm^3
# Si number density = 23.792311 Si / 1000 Ang^3
#
#
#
# Elastic Constant Matrix: (Units=GPa)
#
#
# Indices 1 2 3 4 5 6 
#
# 1 67.0304 -8.0513 0.3403 3.5254 -9.4124 -5.4395
# 2 -8.0513 57.0220 6.9780 -11.1826 1.1432 -8.1257
# 3 0.3403 6.9780 117.8282 -8.6167 -17.2305 -21.3990
# 4 3.5254 -11.1826 -8.6167 33.1161 -9.7306 -1.3153
# 5 -9.4124 1.1432 -17.2305 -9.7306 55.8302 -1.9303
# 6 -5.4395 -8.1257 -21.3990 -1.3153 -1.9303 33.2725
#
#
#
# Elastic Compliance Matrix: (Units=1/GPa)
#
#
# Indices 1 2 3 4 5 6 
#
# 1 0.016008 0.002786 0.001069 0.000630 0.003227 0.004197
# 2 0.002786 0.020163 0.000747 0.007487 0.001809 0.006261
# 3 0.001069 0.000747 0.010865 0.004625 0.004594 0.007794
# 4 0.000630 0.007487 0.004625 0.036474 0.007973 0.006810
# 5 0.003227 0.001809 0.004594 0.007973 0.021415 0.005481
# 6 0.004197 0.006261 0.007794 0.006810 0.005481 0.037870
#
#
# Mechanical properties :
#
#
# Convention : Reuss Voigt Hill
#
# Bulk Modulus (GPa) = 17.78058 26.71275 22.24666
# Shear Modulus (GPa) = 32.82150 40.61801 36.71976
#
# Velocity S-wave (km/s) = 3.71819 4.13630 3.93281
# Velocity P-wave (km/s) = 5.09144 5.83642 5.47661
#
# Compressibility (1/GPa) = 0.05624114
#
# Stress axis : x y z
#
# Youngs Moduli (GPa) = 62.46719 49.59520 92.03761
#
# Poissons Ratio (x) = -0.13819 -0.09838
# Poissons Ratio (y) = -0.17406 -0.06874
# Poissons Ratio (z) = -0.06677 -0.03704
#
# Static dielectric constant tensor:
#      x y z
#    x 1.871600 0.017990 -0.031300 
#    y 0.017990 1.959330 -0.016350 
#    z -0.031300 -0.016350 1.885120 
# 
# From -- ./inp_files/428414.got.cif
#   From: 2010.05.17/outbox.cif.g08.bks.cpg/sg2_215_cif.got.tgz:428414.got - 2010.06.03 11:33:40.
