data_PCOD9108892
_publ_section_title
;
Structure prediction by ZEFSAII (Michael W. Deem and Ramdas Pophale) SiO2 
 PCOD9108892
Probable space group: P -1
;
_chemical_formula_sum "Si O2"
_cell_formula_units_Z 13
_cell_length_a 14.917168
_cell_length_b 15.309339
_cell_length_c 5.488277
_cell_angle_alpha 65.679439
_cell_angle_beta 52.868208
_cell_angle_gamma 29.885673
_cell_volume 477.867359
_symmetry_space_group_name_H-M "P -1"
_symmetry_group_IT_number 2
_symmetry_cell_setting 'triclinic'
loop_
_space_group_symop_operation_xyz
x,y,z
-x,-y,-z
loop_
_atom_site_type_symbol
_atom_site_label
_atom_site_fract_x
_atom_site_fract_y
_atom_site_fract_z
Si Si1 0.556995 0.197910 0.999465
Si Si2 0.000000 0.000000 0.500000
Si Si3 0.935908 0.602170 0.237042
Si Si4 0.579989 0.212066 0.436014
Si Si5 0.680964 0.897150 0.014073
Si Si6 0.956032 0.776526 0.289384
Si Si7 0.272689 0.692272 0.043550
O O1 0.452387 0.289497 0.803537
O O2 0.765378 0.114725 0.768014
O O3 0.437528 0.311082 0.313268
O O4 0.628798 0.037281 0.049799
O O5 0.102296 0.836143 0.368819
O O6 0.697760 0.803091 0.298872
O O7 0.985933 0.677275 0.141266
O O8 0.000000 0.500000 0.500000
O O9 0.000000 0.500000 0.000000
O O10 0.762976 0.997148 0.348316
O O11 0.699186 0.228339 0.239769
O O12 0.890530 0.764058 0.652556
O O13 0.500000 0.000000 0.000000
O O14 0.169259 0.685357 0.058423
O O15 0.500000 0.500000 0.000000
#
# Coordination Sequence:
#
# PCOD9108892 Si02
#       7
#     2   1   2   2   2   2   2
#     4  10  21  39  72 102 138 200 247 314 390 469
#     4  10  20  40  76 102 158 192 256 314 412 468
#     4  12  26  50  74 108 156 210 265 349 413 469
#     4  10  21  42  74 104 145 198 252 313 399 478
#     4  11  24  46  76 109 144 205 277 325 394 490
#     4  11  23  48  76 103 159 211 261 330 420 477
#     4  11  24  45  76 119 158 206 265 330 411 505
#
# _framework density 27.204201999999999
#
# number of rings (size 3 to 8) (size 9 to 14) (size 15 to 20)
#    0.000    1.231    6.154    0.462    2.154    0.615 
#   11.077    3.077    0.000    0.000    0.000    0.000 
#    0.000    0.000    0.000    0.000    0.000    0.000 
#
# Total GULP energy -72406.494433 kJ/mol
# GULP energy per Si atom -5569.730341 kJ/mol
# Density = 2.714228 g / cm^3
# Si number density = 27.204202 Si / 1000 Ang^3
#
#
#
# Elastic Constant Matrix: (Units=GPa)
#
#
# Indices 1 2 3 4 5 6 
#
# 1 213.8958 46.1292 67.1951 -19.3087 21.8802 32.6074
# 2 46.1292 122.4504 47.1675 -25.1273 6.3605 3.4009
# 3 67.1951 47.1675 111.0361 -19.5097 30.9446 -2.9632
# 4 -19.3087 -25.1273 -19.5097 42.9160 -2.5610 4.6099
# 5 21.8802 6.3605 30.9446 -2.5610 49.0007 -13.5835
# 6 32.6074 3.4009 -2.9632 4.6099 -13.5835 44.5734
#
#
#
# Elastic Compliance Matrix: (Units=1/GPa)
#
#
# Indices 1 2 3 4 5 6 
#
# 1 0.007298 -0.000831 -0.003086 0.001925 -0.002923 -0.006571
# 2 -0.000831 0.010741 -0.003697 0.004370 0.001407 -0.000480
# 3 -0.003086 -0.003697 0.014934 0.002695 -0.007133 0.001080
# 4 0.001925 0.004370 0.002695 0.028349 -0.003160 -0.005458
# 5 -0.002923 0.001407 -0.007133 -0.003160 0.028827 0.010669
# 6 -0.006571 -0.000480 0.001080 -0.005458 0.010669 0.031166
#
#
# Mechanical properties :
#
#
# Convention : Reuss Voigt Hill
#
# Bulk Modulus (GPa) = 56.35274 85.37399 70.86337
# Shear Modulus (GPa) = 35.09809 46.42405 40.76107
#
# Velocity S-wave (km/s) = 3.59579 4.13547 3.87504
# Velocity P-wave (km/s) = 6.16436 7.36570 6.79164
#
# Compressibility (1/GPa) = 0.01774537
#
# Stress axis : x y z
#
# Youngs Moduli (GPa) = 137.01579 93.10487 66.96088
#
# Poissons Ratio (x) = 0.07740 0.20664
# Poissons Ratio (y) = 0.11390 0.24752
# Poissons Ratio (z) = 0.42284 0.34417
#
# Static dielectric constant tensor:
#      x y z
#    x 2.273260 -0.195790 0.102220 
#    y -0.195790 2.337640 -0.162980 
#    z 0.102220 -0.162980 2.310040 
# 
# From -- ./inp_files/97541.got.cif
#   From: 2010.05.17/outbox.cif.g08.bks.cpg/sg2_49_cif.got.tgz:97541.got - 2010.06.03 11:33:40.
