data_PCOD9108573
_publ_section_title
;
Structure prediction by ZEFSAII (Michael W. Deem and Ramdas Pophale) SiO2 
 PCOD9108573
Probable space group: P -1
;
_chemical_formula_sum "Si O2"
_cell_formula_units_Z 16
_cell_length_a 13.129535
_cell_length_b 8.757782
_cell_length_c 11.491323
_cell_angle_alpha 70.193039
_cell_angle_beta 148.276701
_cell_angle_gamma 113.778712
_cell_volume 635.778489
_symmetry_space_group_name_H-M "P -1"
_symmetry_group_IT_number 2
_symmetry_cell_setting 'triclinic'
loop_
_space_group_symop_operation_xyz
x,y,z
-x,-y,-z
loop_
_atom_site_type_symbol
_atom_site_label
_atom_site_fract_x
_atom_site_fract_y
_atom_site_fract_z
Si Si1 0.021905 0.918816 0.266416
Si Si2 0.747094 0.356785 0.449289
Si Si3 0.780723 0.951612 0.357679
Si Si4 0.210764 0.840298 0.029938
Si Si5 0.520883 0.192479 0.500295
Si Si6 0.887304 0.426760 0.185518
Si Si7 0.559847 0.259060 0.065131
Si Si8 0.911154 0.751553 0.970147
O O1 0.092965 0.750971 0.411678
O O2 0.169091 0.056791 0.452945
O O3 0.809430 0.970005 0.061463
O O4 0.021960 0.890836 0.134979
O O5 0.660318 0.297724 0.508139
O O6 0.570583 0.317346 0.194753
O O7 0.892902 0.538165 0.555085
O O8 0.662996 0.100243 0.201781
O O9 0.640025 0.800766 0.189077
O O10 0.000000 0.000000 0.500000
O O11 0.173162 0.743248 0.899963
O O12 0.034900 0.769155 0.968481
O O13 0.395018 0.800395 0.288748
O O14 0.309627 0.234500 0.274577
O O15 0.500000 0.000000 0.500000
O O16 0.713466 0.411733 0.113160
O O17 0.894987 0.575174 0.063108
#
# Coordination Sequence:
#
# PCOD9108573 Si02
#       8
#     2   2   2   2   2   2   2   2
#     4  10  20  40  69  93 133 170 224 273 333 392
#     4  10  23  44  70  96 141 177 226 280 336 402
#     4  10  22  40  67 102 132 170 226 286 328 390
#     4  12  23  43  68  95 137 178 225 282 339 391
#     4  12  24  40  71 101 128 181 232 276 335 398
#     4  11  24  45  67  97 141 184 218 280 345 399
#     4  10  23  44  69  96 136 180 225 272 341 404
#     4  11  24  42  64  96 138 176 223 278 336 407
#
# _framework density 25.165998999999999
#
# number of rings (size 3 to 8) (size 9 to 14) (size 15 to 20)
#    0.000    1.250    3.750    2.625    1.750    4.500 
#    4.500    0.625    0.000    0.000    0.000    0.000 
#    0.000    0.000    0.000    0.000    0.000    0.000 
#
# Total GULP energy -89354.345713 kJ/mol
# GULP energy per Si atom -5584.646607 kJ/mol
# Density = 2.510872 g / cm^3
# Si number density = 25.165999 Si / 1000 Ang^3
#
#
#
# Elastic Constant Matrix: (Units=GPa)
#
#
# Indices 1 2 3 4 5 6 
#
# 1 49.4237 10.9379 53.7143 5.3627 -4.7921 10.6671
# 2 10.9379 21.3351 24.2745 -11.3587 -3.1505 2.4727
# 3 53.7143 24.2745 193.0065 14.2689 -6.6011 -3.5914
# 4 5.3627 -11.3587 14.2689 45.9505 -8.2529 8.5674
# 5 -4.7921 -3.1505 -6.6011 -8.2529 51.8900 4.3438
# 6 10.6671 2.4727 -3.5914 8.5674 4.3438 34.2590
#
#
#
# Elastic Compliance Matrix: (Units=1/GPa)
#
#
# Indices 1 2 3 4 5 6 
#
# 1 0.033751 -0.005563 -0.008816 0.000012 0.002611 -0.011366
# 2 -0.005563 0.078662 -0.010310 0.027199 0.008355 -0.012887
# 3 -0.008816 -0.010310 0.009424 -0.005901 -0.001696 0.006168
# 4 0.000012 0.027199 -0.005901 0.033859 0.007290 -0.011977
# 5 0.002611 0.008355 -0.001696 0.007290 0.021478 -0.006140
# 6 -0.011366 -0.012887 0.006168 -0.011977 -0.006140 0.038079
#
#
# Mechanical properties :
#
#
# Convention : Reuss Voigt Hill
#
# Bulk Modulus (GPa) = 13.80105 49.06872 31.43489
# Shear Modulus (GPa) = 17.31396 38.07582 27.69489
#
# Velocity S-wave (km/s) = 2.62580 3.89393 3.32096
# Velocity P-wave (km/s) = 3.83263 6.30534 5.21758
#
# Compressibility (1/GPa) = 0.07245823
#
# Stress axis : x y z
#
# Youngs Moduli (GPa) = 29.62871 12.71268 106.10665
#
# Poissons Ratio (x) = 0.07072 0.93548
# Poissons Ratio (y) = 0.16483 1.09395
# Poissons Ratio (z) = 0.26122 0.13107
#
# Static dielectric constant tensor:
#      x y z
#    x 1.969740 -0.017160 0.005540 
#    y -0.017160 2.102280 -0.124270 
#    z 0.005540 -0.124270 2.198440 
# 
# From -- ./inp_files/447422.got.cif
#   From: 2010.05.17/outbox.cif.g08.bks.cpg/sg2_224_cif.got.tgz:447422.got - 2010.06.03 11:33:40.
