data_PCOD9108081
_publ_section_title
;
Structure prediction by ZEFSAII (Michael W. Deem and Ramdas Pophale) SiO2 
 PCOD9108081
Probable space group: P -1
;
_chemical_formula_sum "Si O2"
_cell_formula_units_Z 14
_cell_length_a 21.619119
_cell_length_b 15.259211
_cell_length_c 5.521183
_cell_angle_alpha 89.014481
_cell_angle_beta 83.641120
_cell_angle_gamma 18.756742
_cell_volume 559.731827
_symmetry_space_group_name_H-M "P -1"
_symmetry_group_IT_number 2
_symmetry_cell_setting 'triclinic'
loop_
_space_group_symop_operation_xyz
x,y,z
-x,-y,-z
loop_
_atom_site_type_symbol
_atom_site_label
_atom_site_fract_x
_atom_site_fract_y
_atom_site_fract_z
Si Si1 0.833760 0.800317 0.509402
Si Si2 0.240778 0.673961 0.961111
Si Si3 0.498423 0.832461 0.111352
Si Si4 0.788139 0.739964 0.160952
Si Si5 0.799875 0.528013 0.290224
Si Si6 0.794088 0.219028 0.529114
Si Si7 0.991782 0.778749 0.298322
O O1 0.701261 0.933930 0.349881
O O2 0.000000 0.500000 0.500000
O O3 0.907337 0.794851 0.392279
O O4 0.676861 0.006124 0.783973
O O5 0.314217 0.480025 0.022635
O O6 0.322407 0.581346 0.657210
O O7 0.295498 0.662273 0.165785
O O8 0.000000 0.000000 0.000000
O O9 0.586866 0.776966 0.282263
O O10 0.375912 0.060708 0.979555
O O11 0.821628 0.603601 0.286040
O O12 0.000000 0.500000 0.000000
O O13 0.846721 0.429197 0.540911
O O14 0.944056 0.308915 0.008445
O O15 0.000000 0.000000 0.500000
O O16 0.844083 0.056115 0.411952
#
# Coordination Sequence:
#
# PCOD9108081 Si02
#       7
#     2   2   2   2   2   2   2
#     4  12  25  47  69 100 152 192 232 284 357 437
#     4  10  22  43  67  98 139 173 229 301 350 400
#     4  12  27  43  73 107 138 192 237 298 354 417
#     4  12  24  46  68 100 151 192 231 287 354 435
#     4  12  25  42  72 109 141 182 242 292 351 429
#     4  10  20  40  66  97 132 174 232 291 341 405
#     4  12  24  45  75 103 141 196 231 289 368 417
#
# _framework density 25.011976000000001
#
# number of rings (size 3 to 8) (size 9 to 14) (size 15 to 20)
#    0.000    0.571    4.286    4.714    4.000    0.571 
#    0.000    1.429    0.000    0.000    0.000    0.000 
#    0.000    0.000    0.000    0.000    0.000    0.000 
#
# Total GULP energy -78045.794503 kJ/mol
# GULP energy per Si atom -5574.699607 kJ/mol
# Density = 2.495505 g / cm^3
# Si number density = 25.011976 Si / 1000 Ang^3
#
#
#
# Elastic Constant Matrix: (Units=GPa)
#
#
# Indices 1 2 3 4 5 6 
#
# 1 128.6086 27.6033 24.5814 9.0984 9.6145 10.7082
# 2 27.6033 64.7416 16.1607 -5.7162 -7.7058 11.5979
# 3 24.5814 16.1607 139.7696 -19.7926 13.7125 4.8195
# 4 9.0984 -5.7162 -19.7926 36.5824 -0.7012 1.2142
# 5 9.6145 -7.7058 13.7125 -0.7012 42.9512 -0.8541
# 6 10.7082 11.5979 4.8195 1.2142 -0.8541 31.1156
#
#
#
# Elastic Compliance Matrix: (Units=1/GPa)
#
#
# Indices 1 2 3 4 5 6 
#
# 1 0.009496 -0.004057 -0.001442 -0.003775 -0.002484 -0.001453
# 2 -0.004057 0.019393 -0.001287 0.003621 0.004745 -0.005644
# 3 -0.001442 -0.001287 0.008497 0.004726 -0.002556 -0.000595
# 4 -0.003775 0.003621 0.004726 0.031472 0.000460 -0.001998
# 5 -0.002484 0.004745 -0.002556 0.000460 0.025516 0.000164
# 6 -0.001453 -0.005644 -0.000595 -0.001998 0.000164 0.034917
#
#
# Mechanical properties :
#
#
# Convention : Reuss Voigt Hill
#
# Bulk Modulus (GPa) = 41.99190 52.20118 47.09654
# Shear Modulus (GPa) = 33.15641 39.78146 36.46894
#
# Velocity S-wave (km/s) = 3.64486 3.99243 3.82260
# Velocity P-wave (km/s) = 5.87695 6.49372 6.19302
#
# Compressibility (1/GPa) = 0.02381411
#
# Stress axis : x y z
#
# Youngs Moduli (GPa) = 105.31152 51.56594 117.68284
#
# Poissons Ratio (x) = 0.20922 0.16966
# Poissons Ratio (y) = 0.42728 0.15143
# Poissons Ratio (z) = 0.15183 0.06635
#
# Static dielectric constant tensor:
#      x y z
#    x 1.971080 -0.048860 -0.105350 
#    y -0.048860 2.063120 0.114060 
#    z -0.105350 0.114060 2.520350 
# 
# From -- ./inp_files/92470.got.cif
#   From: 2010.05.17/outbox.cif.g08.bks.cpg/sg2_47_cif.got.tgz:92470.got - 2010.06.03 11:33:40.
