data_PCOD9108700
_publ_section_title
;
Structure prediction by ZEFSAII (Michael W. Deem and Ramdas Pophale) SiO2 
 PCOD9108700
Probable space group: P -1
;
_chemical_formula_sum "Si O2"
_cell_formula_units_Z 13
_cell_length_a 16.796873
_cell_length_b 20.758232
_cell_length_c 4.754005
_cell_angle_alpha 76.887066
_cell_angle_beta 99.663684
_cell_angle_gamma 161.864007
_cell_volume 496.242646
_symmetry_space_group_name_H-M "P -1"
_symmetry_group_IT_number 2
_symmetry_cell_setting 'triclinic'
loop_
_space_group_symop_operation_xyz
x,y,z
-x,-y,-z
loop_
_atom_site_type_symbol
_atom_site_label
_atom_site_fract_x
_atom_site_fract_y
_atom_site_fract_z
Si Si1 0.166806 0.402841 0.405488
Si Si2 0.999339 0.608709 0.284719
Si Si3 0.743497 0.290692 0.247837
Si Si4 0.949557 0.099794 0.421473
Si Si5 0.239320 0.270517 0.927085
Si Si6 0.500000 0.000000 0.000000
Si Si7 0.472454 0.318904 0.174071
O O1 0.066252 0.385281 0.545817
O O2 0.970631 0.194084 0.392729
O O3 0.360495 0.520121 0.632320
O O4 0.334597 0.552987 0.085023
O O5 0.750866 0.369796 0.307387
O O6 0.212991 0.725579 0.447545
O O7 0.187996 0.775449 0.976622
O O8 0.527729 0.089138 0.130517
O O9 0.000000 0.500000 0.000000
O O10 0.008030 0.123216 0.116648
O O11 0.175790 0.240995 0.601372
O O12 0.685679 0.863244 0.603755
O O13 0.277483 0.221811 0.033842
O O14 0.500000 0.500000 0.000000
#
# Coordination Sequence:
#
# PCOD9108700 Si02
#       7
#     2   2   2   2   2   1   2
#     4  12  26  44  66  98 146 173 223 285 349 393
#     4  10  23  41  66  95 134 172 219 280 335 409
#     4   9  20  41  66  95 123 167 223 269 329 401
#     4  12  24  44  66 101 131 185 231 276 337 403
#     4  12  21  43  73  92 138 180 232 281 329 395
#     4  10  20  40  70  96 124 166 230 266 326 410
#     4  12  26  43  68 101 135 185 225 283 339 399
#
# _framework density 26.196860000000001
#
# number of rings (size 3 to 8) (size 9 to 14) (size 15 to 20)
#    0.000    0.923    3.077    3.692    4.308    1.231 
#    5.538    0.000    0.000    0.000    0.000    0.000 
#    0.000    0.000    0.000    0.000    0.000    0.000 
#
# Total GULP energy -72564.174794 kJ/mol
# GULP energy per Si atom -5581.859600 kJ/mol
# Density = 2.613724 g / cm^3
# Si number density = 26.196860 Si / 1000 Ang^3
#
#
#
# Elastic Constant Matrix: (Units=GPa)
#
#
# Indices 1 2 3 4 5 6 
#
# 1 118.1219 33.5366 17.5431 -11.7874 -24.6875 -50.3009
# 2 33.5366 115.8391 0.0452 -0.7110 -11.4162 -36.5810
# 3 17.5431 0.0452 94.4358 6.6345 -23.0969 -9.0392
# 4 -11.7874 -0.7110 6.6345 46.2057 7.7217 5.4425
# 5 -24.6875 -11.4162 -23.0969 7.7217 40.2078 13.6658
# 6 -50.3009 -36.5810 -9.0392 5.4425 13.6658 44.4351
#
#
#
# Elastic Compliance Matrix: (Units=1/GPa)
#
#
# Indices 1 2 3 4 5 6 
#
# 1 0.017330 0.001483 -0.000533 0.001594 0.003875 0.019343
# 2 0.001483 0.011963 0.001230 -0.001193 0.001329 0.011515
# 3 -0.000533 0.001230 0.012919 -0.003390 0.007729 0.001076
# 4 0.001594 -0.001193 -0.003390 0.023557 -0.005467 -0.001070
# 5 0.003875 0.001329 0.007729 -0.005467 0.034052 -0.002750
# 6 0.019343 0.011515 0.001076 -0.001070 -0.002750 0.055076
#
#
# Mechanical properties :
#
#
# Convention : Reuss Voigt Hill
#
# Bulk Modulus (GPa) = 21.47229 47.84964 34.66096
# Shear Modulus (GPa) = 30.10944 44.65449 37.38197
#
# Velocity S-wave (km/s) = 3.39389 4.13313 3.78162
# Velocity P-wave (km/s) = 4.85513 6.40953 5.68570
#
# Compressibility (1/GPa) = 0.04657166
#
# Stress axis : x y z
#
# Youngs Moduli (GPa) = 57.70358 83.59329 77.40532
#
# Poissons Ratio (x) = -0.12398 0.04124
# Poissons Ratio (y) = -0.08558 -0.09519
# Poissons Ratio (z) = 0.03075 -0.10280
#
# Static dielectric constant tensor:
#      x y z
#    x 2.191280 0.071490 -0.069620 
#    y 0.071490 1.998440 0.110560 
#    z -0.069620 0.110560 1.696260 
# 
# From -- ./inp_files/111997.got.cif
#   From: 2010.05.17/outbox.cif.g08.bks.cpg/sg2_56_cif.got.tgz:111997.got - 2010.06.03 11:33:40.
