data_PCOD9108085
_publ_section_title
;
Structure prediction by ZEFSAII (Michael W. Deem and Ramdas Pophale) SiO2 
 PCOD9108085
Probable space group: P -1
;
_chemical_formula_sum "Si O2"
_cell_formula_units_Z 16
_cell_length_a 11.375222
_cell_length_b 15.088660
_cell_length_c 7.872450
_cell_angle_alpha 108.679222
_cell_angle_beta 72.233281
_cell_angle_gamma 46.124678
_cell_volume 586.601687
_symmetry_space_group_name_H-M "P -1"
_symmetry_group_IT_number 2
_symmetry_cell_setting 'triclinic'
loop_
_space_group_symop_operation_xyz
x,y,z
-x,-y,-z
loop_
_atom_site_type_symbol
_atom_site_label
_atom_site_fract_x
_atom_site_fract_y
_atom_site_fract_z
Si Si1 0.156570 0.017254 0.795314
Si Si2 0.889701 0.359450 0.009772
Si Si3 0.507677 0.182745 0.818078
Si Si4 0.938714 0.996560 0.712086
Si Si5 0.352187 0.314197 0.482478
Si Si6 0.305970 0.128158 0.402388
Si Si7 0.413340 0.558981 0.374839
Si Si8 0.157402 0.535501 0.380704
O O1 0.348047 0.895585 0.471808
O O2 0.937646 0.089942 0.886012
O O3 0.348477 0.855855 0.756016
O O4 0.029923 0.201831 0.993146
O O5 0.791872 0.521338 0.224874
O O6 0.650146 0.454921 0.114890
O O7 0.099866 0.231249 0.695164
O O8 0.472417 0.095608 0.811571
O O9 0.257992 0.411658 0.095143
O O10 0.701398 0.089048 0.822691
O O11 0.166169 0.784936 0.567754
O O12 0.000000 0.000000 0.500000
O O13 0.365854 0.196071 0.447754
O O14 0.206898 0.430410 0.444757
O O15 0.136086 0.238644 0.374240
O O16 0.500000 0.500000 0.500000
O O17 0.338051 0.505106 0.315226
#
# Coordination Sequence:
#
# PCOD9108085 Si02
#       8
#     2   2   2   2   2   2   2   2
#     4  10  22  42  66  97 132 171 224 278 332 397
#     4  11  24  43  71  98 130 176 225 279 338 398
#     4  10  23  42  65  99 130 172 224 277 336 398
#     4  10  20  40  66  97 137 170 221 283 334 408
#     4  12  25  44  65  97 137 180 226 273 334 398
#     4  11  26  44  67  96 132 181 232 274 321 401
#     4  12  23  43  71 102 141 172 219 285 355 409
#     4  12  25  42  69  98 137 176 216 281 341 406
#
# _framework density 27.275751
#
# number of rings (size 3 to 8) (size 9 to 14) (size 15 to 20)
#    0.000    1.000    3.750    2.250    1.750    7.000 
#    0.000    2.500    0.000    0.000    0.000    0.000 
#    0.000    0.000    0.000    0.000    0.000    0.000 
#
# Total GULP energy -89670.094907 kJ/mol
# GULP energy per Si atom -5604.380932 kJ/mol
# Density = 2.721367 g / cm^3
# Si number density = 27.275751 Si / 1000 Ang^3
#
#
#
# Elastic Constant Matrix: (Units=GPa)
#
#
# Indices 1 2 3 4 5 6 
#
# 1 119.7043 33.9642 10.9699 4.0655 16.3862 12.0965
# 2 33.9642 138.6967 19.4480 9.9548 18.5298 5.4596
# 3 10.9699 19.4480 56.0968 2.6030 13.2770 10.7940
# 4 4.0655 9.9548 2.6030 42.4490 13.0998 7.0221
# 5 16.3862 18.5298 13.2770 13.0998 36.4851 11.3406
# 6 12.0965 5.4596 10.7940 7.0221 11.3406 53.6889
#
#
#
# Elastic Compliance Matrix: (Units=1/GPa)
#
#
# Indices 1 2 3 4 5 6 
#
# 1 0.009433 -0.001867 -0.000255 0.000707 -0.003034 -0.001336
# 2 -0.001867 0.008329 -0.002006 -0.000983 -0.002506 0.000635
# 3 -0.000255 -0.002006 0.020456 0.001554 -0.006003 -0.002787
# 4 0.000707 -0.000983 0.001554 0.026850 -0.009437 -0.001890
# 5 -0.003034 -0.002506 -0.006003 -0.009437 0.036995 -0.004435
# 6 -0.001336 0.000635 -0.002787 -0.001890 -0.004435 0.020606
#
#
# Mechanical properties :
#
#
# Convention : Reuss Voigt Hill
#
# Bulk Modulus (GPa) = 33.37480 49.25131 41.31305
# Shear Modulus (GPa) = 35.48272 43.19897 39.34085
#
# Velocity S-wave (km/s) = 3.61070 3.98400 3.80193
# Velocity P-wave (km/s) = 5.44477 6.26570 5.86960
#
# Compressibility (1/GPa) = 0.02996273
#
# Stress axis : x y z
#
# Youngs Moduli (GPa) = 106.00638 120.06535 48.88446
#
# Poissons Ratio (x) = 0.22417 0.01247
# Poissons Ratio (y) = 0.19792 0.09805
# Poissons Ratio (z) = 0.02703 0.24083
#
# Static dielectric constant tensor:
#      x y z
#    x 2.095190 -0.000470 -0.006770 
#    y -0.000470 2.161710 -0.076820 
#    z -0.006770 -0.076820 2.197190 
# 
# From -- ./inp_files/273655.got.cif
#   From: 2010.05.17/outbox.cif.g08.bks.cpg/sg2_137_cif.got.tgz:273655.got - 2010.06.03 11:33:40.
