data_PCOD9108912
_publ_section_title
;
Structure prediction by ZEFSAII (Michael W. Deem and Ramdas Pophale) SiO2 
 PCOD9108912
Probable space group: P -1
;
_chemical_formula_sum "Si O2"
_cell_formula_units_Z 16
_cell_length_a 15.799557
_cell_length_b 19.612180
_cell_length_c 9.476615
_cell_angle_alpha 153.263916
_cell_angle_beta 141.082205
_cell_angle_gamma 31.122069
_cell_volume 681.654240
_symmetry_space_group_name_H-M "P -1"
_symmetry_group_IT_number 2
_symmetry_cell_setting 'triclinic'
loop_
_space_group_symop_operation_xyz
x,y,z
-x,-y,-z
loop_
_atom_site_type_symbol
_atom_site_label
_atom_site_fract_x
_atom_site_fract_y
_atom_site_fract_z
Si Si1 0.526343 0.619900 0.471656
Si Si2 0.842869 0.424639 0.668679
Si Si3 0.867493 0.368187 0.146550
Si Si4 0.973125 0.889704 0.881493
Si Si5 0.069564 0.505758 0.798592
Si Si6 0.666907 0.244400 0.247005
Si Si7 0.515193 0.311094 0.762917
Si Si8 0.556303 0.817075 0.318633
O O1 0.687851 0.597214 0.703678
O O2 0.387210 0.703958 0.566153
O O3 0.453008 0.734476 0.444235
O O4 0.593179 0.409375 0.120335
O O5 0.976727 0.285502 0.471736
O O6 0.753108 0.338154 0.469955
O O7 0.931462 0.451957 0.961337
O O8 0.918288 0.195331 0.992000
O O9 0.936486 0.341360 0.027746
O O10 0.674370 0.513859 0.155275
O O11 0.937740 0.472528 0.508700
O O12 0.000000 0.000000 0.000000
O O13 0.793772 0.030381 0.973349
O O14 0.248852 0.314890 0.654573
O O15 0.500875 0.296288 0.050302
O O16 0.530321 0.154396 0.590054
O O17 0.500000 0.000000 0.500000
#
# Coordination Sequence:
#
# PCOD9108912 Si02
#       8
#     2   2   2   2   2   2   2   2
#     4  11  20  38  68  93 122 154 217 259 297 363
#     4  11  20  40  63  96 117 164 211 257 299 371
#     4  10  20  41  58  91 127 162 202 254 302 372
#     4  10  23  38  61  90 132 161 198 255 318 362
#     4  10  22  37  66  89 119 165 216 244 304 374
#     4  11  21  38  61  93 125 159 206 257 306 370
#     4  10  22  38  64  94 120 165 207 258 304 362
#     4  11  21  37  61  92 127 164 200 251 318 367
#
# _framework density 23.472311000000001
#
# number of rings (size 3 to 8) (size 9 to 14) (size 15 to 20)
#    0.000    1.500    3.750    2.625    0.000    0.500 
#    0.000    7.500    0.000    0.000    0.000    0.000 
#    0.000    0.000    0.000    0.000    0.000    0.000 
#
# Total GULP energy -89293.337525 kJ/mol
# GULP energy per Si atom -5580.833595 kJ/mol
# Density = 2.341889 g / cm^3
# Si number density = 23.472311 Si / 1000 Ang^3
#
#
#
# Elastic Constant Matrix: (Units=GPa)
#
#
# Indices 1 2 3 4 5 6 
#
# 1 107.0134 30.8487 34.4950 14.4909 -38.8326 39.2338
# 2 30.8487 81.3773 20.8175 -6.8823 -9.8764 20.9498
# 3 34.4950 20.8175 63.5960 -17.0832 -24.0109 3.0885
# 4 14.4909 -6.8823 -17.0832 35.3384 1.2094 -1.9927
# 5 -38.8326 -9.8764 -24.0109 1.2094 51.8137 -4.5007
# 6 39.2338 20.9498 3.0885 -1.9927 -4.5007 62.3857
#
#
#
# Elastic Compliance Matrix: (Units=1/GPa)
#
#
# Indices 1 2 3 4 5 6 
#
# 1 0.027708 -0.003146 -0.013717 -0.019917 0.012938 -0.015393
# 2 -0.003146 0.015038 -0.002738 0.002767 -0.001079 -0.002925
# 3 -0.013717 -0.002738 0.030400 0.020169 0.003591 0.008944
# 4 -0.019917 0.002767 0.020169 0.047592 -0.005144 0.011747
# 5 0.012938 -0.001079 0.003591 -0.005144 0.030059 -0.005948
# 6 -0.015393 -0.002925 0.008944 0.011747 -0.005948 0.026195
#
#
# Mechanical properties :
#
#
# Convention : Reuss Voigt Hill
#
# Bulk Modulus (GPa) = 29.46048 47.14544 38.30296
# Shear Modulus (GPa) = 21.97711 40.96258 31.46985
#
# Velocity S-wave (km/s) = 3.06322 4.18203 3.66556
# Velocity P-wave (km/s) = 5.00894 6.59153 5.85396
#
# Compressibility (1/GPa) = 0.03394378
#
# Stress axis : x y z
#
# Youngs Moduli (GPa) = 36.09011 66.49992 32.89458
#
# Poissons Ratio (x) = 0.20922 0.45122
# Poissons Ratio (y) = 0.11355 0.09006
# Poissons Ratio (z) = 0.49505 0.18207
#
# Static dielectric constant tensor:
#      x y z
#    x 1.997110 0.058750 0.032840 
#    y 0.058750 1.924580 -0.003040 
#    z 0.032840 -0.003040 1.903430 
# 
# From -- ./inp_files/338021.got.cif
#   From: 2010.05.17/outbox.cif.g08.bks.cpg/sg2_170_cif.got.tgz:338021.got - 2010.06.03 11:33:40.
