data_PCOD9108450
_publ_section_title
;
Structure prediction by ZEFSAII (Michael W. Deem and Ramdas Pophale) SiO2 
 PCOD9108450
Probable space group: P -1
;
_chemical_formula_sum "Si O2"
_cell_formula_units_Z 14
_cell_length_a 12.352989
_cell_length_b 7.370514
_cell_length_c 7.071597
_cell_angle_alpha 120.882591
_cell_angle_beta 91.320563
_cell_angle_gamma 92.394570
_cell_volume 551.342695
_symmetry_space_group_name_H-M "P -1"
_symmetry_group_IT_number 2
_symmetry_cell_setting 'triclinic'
loop_
_space_group_symop_operation_xyz
x,y,z
-x,-y,-z
loop_
_atom_site_type_symbol
_atom_site_label
_atom_site_fract_x
_atom_site_fract_y
_atom_site_fract_z
Si Si1 0.786450 0.581855 0.531005
Si Si2 0.886418 0.158626 0.388627
Si Si3 0.317650 0.852173 0.158795
Si Si4 0.646855 0.971145 0.354248
Si Si5 0.422969 0.697613 0.735441
Si Si6 0.095314 0.980454 0.272141
Si Si7 0.360994 0.409532 0.121538
O O1 0.868491 0.395557 0.452084
O O2 0.680074 0.473299 0.366676
O O3 0.849354 0.785411 0.554159
O O4 0.739488 0.644400 0.768955
O O5 0.977260 0.030769 0.220507
O O6 0.767982 0.040214 0.323167
O O7 0.919492 0.155745 0.610130
O O8 0.336092 0.630235 0.142746
O O9 0.348933 0.020352 0.414821
O O10 0.191667 0.871820 0.108648
O O11 0.391663 0.864067 0.985732
O O12 0.577100 0.160579 0.376730
O O13 0.617962 0.752351 0.133198
O O14 0.531986 0.595308 0.746503
#
# Coordination Sequence:
#
# PCOD9108450 Si02
#       7
#     2   2   2   2   2   2   2
#     4  11  22  41  71  98 133 176 223 269 334 399
#     4   9  20  42  64  97 137 164 222 282 319 401
#     4  11  24  43  63  99 133 169 229 271 320 407
#     4  10  23  43  66  93 135 172 221 277 326 392
#     4  11  24  43  65  97 135 177 223 271 332 394
#     4  10  20  40  68  96 132 175 215 276 338 384
#     4  12  23  44  66  94 139 176 215 281 327 385
#
# _framework density 25.392555999999999
#
# number of rings (size 3 to 8) (size 9 to 14) (size 15 to 20)
#    0.000    1.429    4.286    2.571    4.000    0.571 
#    0.000    8.571    0.000    0.000    0.000    0.000 
#    0.000    0.000    0.000    0.000    0.000    0.000 
#
# Total GULP energy -78389.348923 kJ/mol
# GULP energy per Si atom -5599.239209 kJ/mol
# Density = 2.533476 g / cm^3
# Si number density = 25.392556 Si / 1000 Ang^3
#
#
#
# Elastic Constant Matrix: (Units=GPa)
#
#
# Indices 1 2 3 4 5 6 
#
# 1 160.0571 40.0872 5.5219 14.5341 -27.7862 -29.0864
# 2 40.0872 94.8005 8.6993 12.1525 -7.7700 -25.2250
# 3 5.5219 8.6993 93.9154 -0.2787 -9.2828 -1.1636
# 4 14.5341 12.1525 -0.2787 35.9432 6.0033 -13.4261
# 5 -27.7862 -7.7700 -9.2828 6.0033 33.3889 10.5656
# 6 -29.0864 -25.2250 -1.1636 -13.4261 10.5656 45.6560
#
#
#
# Elastic Compliance Matrix: (Units=1/GPa)
#
#
# Indices 1 2 3 4 5 6 
#
# 1 0.008569 -0.002236 0.000381 -0.003183 0.006739 0.001738
# 2 -0.002236 0.013205 -0.001087 -0.001385 -0.000605 0.005577
# 3 0.000381 -0.001087 0.011069 -0.000730 0.003631 -0.001130
# 4 -0.003183 -0.001385 -0.000730 0.035738 -0.012986 0.010704
# 5 0.006739 -0.000605 0.003631 -0.012986 0.041745 -0.009428
# 6 0.001738 0.005577 -0.001130 0.010704 -0.009428 0.031392
#
#
# Mechanical properties :
#
#
# Convention : Reuss Voigt Hill
#
# Bulk Modulus (GPa) = 37.08949 50.82109 43.95529
# Shear Modulus (GPa) = 31.93078 42.62859 37.27968
#
# Velocity S-wave (km/s) = 3.54995 4.10174 3.83578
# Velocity P-wave (km/s) = 5.60723 6.51843 6.07993
#
# Compressibility (1/GPa) = 0.02696182
#
# Stress axis : x y z
#
# Youngs Moduli (GPa) = 116.69380 75.72659 90.34402
#
# Poissons Ratio (x) = 0.16931 -0.03446
# Poissons Ratio (y) = 0.26090 0.09817
# Poissons Ratio (z) = -0.04452 0.08228
#
# Static dielectric constant tensor:
#      x y z
#    x 2.036740 -0.032970 -0.015550 
#    y -0.032970 1.950440 -0.014740 
#    z -0.015550 -0.014740 2.050110 
# 
# From -- ./inp_files/245965.got.cif
#   From: 2010.05.17/outbox.cif.g08.bks.cpg/sg2_123_cif.got.tgz:245965.got - 2010.06.03 11:33:40.
