data_PCOD9108810
_publ_section_title
;
Structure prediction by ZEFSAII (Michael W. Deem and Ramdas Pophale) SiO2 
 PCOD9108810
Probable space group: P -1
;
_chemical_formula_sum "Si O2"
_cell_formula_units_Z 9
_cell_length_a 10.505100
_cell_length_b 5.152473
_cell_length_c 9.295164
_cell_angle_alpha 74.109916
_cell_angle_beta 135.054472
_cell_angle_gamma 92.079272
_cell_volume 332.529614
_symmetry_space_group_name_H-M "P -1"
_symmetry_group_IT_number 2
_symmetry_cell_setting 'triclinic'
loop_
_space_group_symop_operation_xyz
x,y,z
-x,-y,-z
loop_
_atom_site_type_symbol
_atom_site_label
_atom_site_fract_x
_atom_site_fract_y
_atom_site_fract_z
Si Si1 0.681653 0.530569 0.728541
Si Si2 0.201280 0.151323 0.487414
Si Si3 0.000000 0.000000 0.000000
Si Si4 0.036321 0.283308 0.702873
Si Si5 0.562305 0.738196 0.922425
O O1 0.500000 0.500000 0.500000
O O2 0.613480 0.633769 0.816297
O O3 0.766904 0.751710 0.667605
O O4 0.823130 0.233633 0.896906
O O5 0.078687 0.399360 0.445216
O O6 0.746429 0.785630 0.136172
O O7 0.085330 0.917759 0.423716
O O8 0.400800 0.012318 0.731555
O O9 0.975979 0.766156 0.128518
O O10 0.500000 0.500000 0.000000
#
# Coordination Sequence:
#
# PCOD9108810 Si02
#       5
#     2   2   1   2   2
#     4  11  23  46  77 108 146 192 251 310 367 439
#     4  11  25  47  75 107 145 196 252 310 366 436
#     4  10  20  40  72 104 132 184 248 302 348 418
#     4  11  24  45  74 106 148 194 249 306 370 442
#     4  12  27  46  73 111 153 195 242 305 381 451
#
# _framework density 27.065259999999999
#
# number of rings (size 3 to 8) (size 9 to 14) (size 15 to 20)
#    0.000    0.889    0.000    7.333    0.000    7.111 
#    0.000   15.556    0.000    1.333    0.000    0.000 
#    0.000    0.000    0.000    0.000    0.000    0.000 
#
# Total GULP energy -50322.702593 kJ/mol
# GULP energy per Si atom -5591.411399 kJ/mol
# Density = 2.700366 g / cm^3
# Si number density = 27.065260 Si / 1000 Ang^3
#
#
#
# Elastic Constant Matrix: (Units=GPa)
#
#
# Indices 1 2 3 4 5 6 
#
# 1 132.5738 79.3148 52.1234 -0.9509 13.4725 -4.9968
# 2 79.3148 149.8939 77.8610 -31.6905 28.7255 -12.1137
# 3 52.1234 77.8610 220.4958 -26.3382 29.4474 -2.8138
# 4 -0.9509 -31.6905 -26.3382 56.0005 -7.8214 7.6588
# 5 13.4725 28.7255 29.4474 -7.8214 56.1791 -4.6984
# 6 -4.9968 -12.1137 -2.8138 7.6588 -4.6984 76.1850
#
#
#
# Elastic Compliance Matrix: (Units=1/GPa)
#
#
# Indices 1 2 3 4 5 6 
#
# 1 0.011862 -0.006707 -0.000986 -0.003995 0.000554 0.000111
# 2 -0.006707 0.013134 -0.001912 0.005861 -0.003223 0.000790
# 3 -0.000986 -0.001912 0.005837 0.001468 -0.001675 -0.000404
# 4 -0.003995 0.005861 0.001468 0.022018 0.000133 -0.001481
# 5 0.000554 -0.003223 -0.001675 0.000133 0.020270 0.000699
# 6 0.000111 0.000790 -0.000404 -0.001481 0.000699 0.013436
#
#
# Mechanical properties :
#
#
# Convention : Reuss Voigt Hill
#
# Bulk Modulus (GPa) = 86.02122 102.39578 94.20850
# Shear Modulus (GPa) = 45.60377 57.25054 51.42716
#
# Velocity S-wave (km/s) = 4.10927 4.60420 4.36376
# Velocity P-wave (km/s) = 7.37338 8.13511 7.76359
#
# Compressibility (1/GPa) = 0.01162504
#
# Stress axis : x y z
#
# Youngs Moduli (GPa) = 84.30244 76.13931 171.31342
#
# Poissons Ratio (x) = 0.51063 0.16887
# Poissons Ratio (y) = 0.56538 0.32751
# Poissons Ratio (z) = 0.08310 0.14556
#
# Static dielectric constant tensor:
#      x y z
#    x 2.067640 0.113330 -0.006750 
#    y 0.113330 1.879850 0.066620 
#    z -0.006750 0.066620 2.113240 
# 
# From -- ./inp_files/439946.got.cif
#   From: 2010.05.17/outbox.cif.g08.bks.cpg/sg2_220_cif.got.tgz:439946.got - 2010.06.03 11:33:40.
