data_PCOD9108326
_publ_section_title
;
Structure prediction by ZEFSAII (Michael W. Deem and Ramdas Pophale) SiO2 
 PCOD9108326
Probable space group: P -1
;
_chemical_formula_sum "Si O2"
_cell_formula_units_Z 16
_cell_length_a 16.844140
_cell_length_b 13.648366
_cell_length_c 13.019015
_cell_angle_alpha 130.231400
_cell_angle_beta 152.882155
_cell_angle_gamma 33.241518
_cell_volume 687.230956
_symmetry_space_group_name_H-M "P -1"
_symmetry_group_IT_number 2
_symmetry_cell_setting 'triclinic'
loop_
_space_group_symop_operation_xyz
x,y,z
-x,-y,-z
loop_
_atom_site_type_symbol
_atom_site_label
_atom_site_fract_x
_atom_site_fract_y
_atom_site_fract_z
Si Si1 0.771589 0.982416 0.521941
Si Si2 0.446136 0.231609 0.663272
Si Si3 0.084718 0.097347 0.140697
Si Si4 0.883438 0.447956 0.080908
Si Si5 0.638181 0.554607 0.658769
Si Si6 0.721648 0.446959 0.446261
Si Si7 0.352442 0.698506 0.906663
Si Si8 0.715264 0.803438 0.176300
O O1 0.561099 0.212839 0.416475
O O2 0.781678 0.942894 0.625810
O O3 0.720682 0.874359 0.337051
O O4 0.057209 0.871022 0.731772
O O5 0.169979 0.321315 0.374481
O O6 0.460054 0.346478 0.679381
O O7 0.704639 0.009188 0.780517
O O8 0.482998 0.268613 0.844733
O O9 0.843078 0.324281 0.987728
O O10 0.000000 0.000000 0.000000
O O11 0.691284 0.663893 0.049518
O O12 0.855304 0.466266 0.937254
O O13 0.500000 0.500000 0.500000
O O14 0.729554 0.469783 0.591563
O O15 0.667767 0.337572 0.258602
O O16 0.009101 0.322046 0.647668
O O17 0.500000 0.500000 0.000000
O O18 0.500000 0.000000 0.000000
#
# Coordination Sequence:
#
# PCOD9108326 Si02
#       8
#     2   2   2   2   2   2   2   2
#     4  11  22  41  72  95 131 188 228 281 346 412
#     4  10  20  40  68 100 136 176 228 293 343 406
#     4  12  23  41  69 102 135 180 230 282 353 409
#     4  11  26  41  67 103 141 175 232 289 346 412
#     4  12  25  43  68 102 141 181 238 287 343 424
#     4   9  21  39  68 100 128 191 227 280 352 406
#     4   9  19  38  66  96 131 173 233 276 338 415
#     4  10  21  44  67  96 142 182 222 287 349 408
#
# _framework density 23.281839999999999
#
# number of rings (size 3 to 8) (size 9 to 14) (size 15 to 20)
#    0.000    1.500    3.750    1.875    0.000    3.500 
#    0.000    3.750    2.750    0.000    0.000    0.000 
#    0.000    0.000    0.000    0.000    0.000    0.000 
#
# Total GULP energy -89348.294657 kJ/mol
# GULP energy per Si atom -5584.268416 kJ/mol
# Density = 2.322885 g / cm^3
# Si number density = 23.281840 Si / 1000 Ang^3
#
#
#
# Elastic Constant Matrix: (Units=GPa)
#
#
# Indices 1 2 3 4 5 6 
#
# 1 60.4489 49.8758 18.6032 12.8294 -13.6301 6.1351
# 2 49.8758 168.3714 48.6128 5.0557 -20.5933 4.1541
# 3 18.6032 48.6128 106.3817 20.5470 -16.7548 0.5562
# 4 12.8294 5.0557 20.5470 52.1294 -10.4849 -6.6831
# 5 -13.6301 -20.5933 -16.7548 -10.4849 25.3004 -3.1561
# 6 6.1351 4.1541 0.5562 -6.6831 -3.1561 32.7425
#
#
#
# Elastic Compliance Matrix: (Units=1/GPa)
#
#
# Indices 1 2 3 4 5 6 
#
# 1 0.024483 -0.006462 0.000560 -0.005020 0.005689 -0.004253
# 2 -0.006462 0.008995 -0.003014 0.002644 0.003059 0.000955
# 3 0.000560 -0.003014 0.012081 -0.003792 0.004241 -0.000293
# 4 -0.005020 0.002644 -0.003792 0.024009 0.007673 0.006310
# 5 0.005689 0.003059 0.004241 0.007673 0.051694 0.005023
# 6 -0.004253 0.000955 -0.000293 0.006310 0.005023 0.032994
#
#
# Mechanical properties :
#
#
# Convention : Reuss Voigt Hill
#
# Bulk Modulus (GPa) = 36.06835 63.26506 49.66671
# Shear Modulus (GPa) = 27.57365 36.57514 32.07439
#
# Velocity S-wave (km/s) = 3.44516 3.96785 3.71571
# Velocity P-wave (km/s) = 5.59921 6.94437 6.30775
#
# Compressibility (1/GPa) = 0.02772514
#
# Stress axis : x y z
#
# Youngs Moduli (GPa) = 40.84521 111.17270 82.77129
#
# Poissons Ratio (x) = 0.71845 -0.04632
# Poissons Ratio (y) = 0.26396 0.24949
# Poissons Ratio (z) = -0.02286 0.33510
#
# Static dielectric constant tensor:
#      x y z
#    x 1.845050 0.063070 0.012710 
#    y 0.063070 1.914050 -0.015220 
#    z 0.012710 -0.015220 1.212740 
# 
# From -- ./inp_files/466125.got.cif
#   From: 2010.05.17/outbox.cif.g08.bks.cpg/sg2_234_cif.got.tgz:466125.got - 2010.06.03 11:33:40.
