data_PCOD9108324
_publ_section_title
;
Structure prediction by ZEFSAII (Michael W. Deem and Ramdas Pophale) SiO2 
 PCOD9108324
Probable space group: P -1
;
_chemical_formula_sum "Si O2"
_cell_formula_units_Z 16
_cell_length_a 15.468536
_cell_length_b 11.639869
_cell_length_c 8.658005
_cell_angle_alpha 72.027668
_cell_angle_beta 60.796654
_cell_angle_gamma 123.616799
_cell_volume 685.777637
_symmetry_space_group_name_H-M "P -1"
_symmetry_group_IT_number 2
_symmetry_cell_setting 'triclinic'
loop_
_space_group_symop_operation_xyz
x,y,z
-x,-y,-z
loop_
_atom_site_type_symbol
_atom_site_label
_atom_site_fract_x
_atom_site_fract_y
_atom_site_fract_z
Si Si1 0.182604 0.794311 0.989643
Si Si2 0.761763 0.421257 0.473928
Si Si3 0.841938 0.738812 0.737717
Si Si4 0.456556 0.479805 0.722040
Si Si5 0.859212 0.501276 0.880138
Si Si6 0.243654 0.850495 0.550152
Si Si7 0.460162 0.723383 0.547519
Si Si8 0.470142 0.665760 0.054170
O O1 0.254149 0.848633 0.726871
O O2 0.364337 0.042237 0.798888
O O3 0.154376 0.632529 0.152283
O O4 0.984300 0.654514 0.215127
O O5 0.715613 0.235987 0.534219
O O6 0.696056 0.440665 0.383918
O O7 0.652266 0.359259 0.742122
O O8 0.923786 0.690806 0.666296
O O9 0.668326 0.554801 0.846342
O O10 0.743618 0.664233 0.018020
O O11 0.000000 0.000000 0.500000
O O12 0.500000 0.500000 0.500000
O O13 0.564616 0.719255 0.546907
O O14 0.467404 0.373504 0.862117
O O15 0.023030 0.644963 0.798932
O O16 0.656291 0.321876 0.203440
O O17 0.366403 0.087684 0.274400
#
# Coordination Sequence:
#
# PCOD9108324 Si02
#       8
#     2   2   2   2   2   2   2   2
#     4  11  22  39  71 104 135 178 235 273 342 406
#     4  11  23  43  65 104 138 177 225 278 339 413
#     4  11  26  45  67  97 137 182 227 282 347 403
#     4  11  24  45  69  96 126 182 233 278 331 411
#     4  10  20  40  68 100 133 173 227 280 328 413
#     4  11  21  41  70 102 138 178 221 288 340 408
#     4  11  21  39  69  98 133 174 229 281 330 395
#     4  12  26  46  66  98 145 179 224 285 353 398
#
# _framework density 23.331177
#
# number of rings (size 3 to 8) (size 9 to 14) (size 15 to 20)
#    0.000    1.000    3.750    4.125    1.750    2.000 
#    2.250    2.500    0.000    0.000    0.000    0.000 
#    0.000    0.000    0.000    0.000    0.000    0.000 
#
# Total GULP energy -89072.425660 kJ/mol
# GULP energy per Si atom -5567.026604 kJ/mol
# Density = 2.327807 g / cm^3
# Si number density = 23.331177 Si / 1000 Ang^3
#
#
#
# Elastic Constant Matrix: (Units=GPa)
#
#
# Indices 1 2 3 4 5 6 
#
# 1 139.4105 36.8212 35.2850 -14.4776 7.7822 -22.7477
# 2 36.8212 63.9005 43.7999 -5.6648 -0.2192 -14.0520
# 3 35.2850 43.7999 95.9847 -9.4750 -2.9935 -9.6075
# 4 -14.4776 -5.6648 -9.4750 38.2562 -6.5217 2.4555
# 5 7.7822 -0.2192 -2.9935 -6.5217 35.0958 -3.0185
# 6 -22.7477 -14.0520 -9.6075 2.4555 -3.0185 27.9289
#
#
#
# Elastic Compliance Matrix: (Units=1/GPa)
#
#
# Indices 1 2 3 4 5 6 
#
# 1 0.009540 -0.003219 -0.001325 0.002228 -0.001374 0.005350
# 2 -0.003219 0.025821 -0.009894 -0.000195 0.000601 0.007048
# 3 -0.001325 -0.009894 0.015639 0.002279 0.001932 -0.000669
# 4 0.002228 -0.000195 0.002279 0.028337 0.005012 0.000550
# 5 -0.001374 0.000601 0.001932 0.005012 0.030127 0.002663
# 6 0.005350 0.007048 -0.000669 0.000550 0.002663 0.043718
#
#
# Mechanical properties :
#
#
# Convention : Reuss Voigt Hill
#
# Bulk Modulus (GPa) = 45.20506 59.01199 52.10852
# Shear Modulus (GPa) = 26.39449 32.48214 29.43832
#
# Velocity S-wave (km/s) = 3.36712 3.73530 3.55598
# Velocity P-wave (km/s) = 5.87658 6.62958 6.26440
#
# Compressibility (1/GPa) = 0.02212142
#
# Stress axis : x y z
#
# Youngs Moduli (GPa) = 104.82363 38.72826 63.94398
#
# Poissons Ratio (x) = 0.12468 0.08475
# Poissons Ratio (y) = 0.33747 0.63268
# Poissons Ratio (z) = 0.13892 0.38319
#
# Static dielectric constant tensor:
#      x y z
#    x 4.163160 -2.026830 2.145000 
#    y -2.026830 3.790210 -1.873230 
#    z 2.145000 -1.873230 3.859630 
# 
# From -- ./inp_files/306942.got.cif
#   From: 2010.05.17/outbox.cif.g08.bks.cpg/sg2_154_cif.got.tgz:306942.got - 2010.06.03 11:33:40.
