data_PCOD9108605
_publ_section_title
;
Structure prediction by ZEFSAII (Michael W. Deem and Ramdas Pophale) SiO2 
 PCOD9108605
Probable space group: P -1
;
_chemical_formula_sum "Si O2"
_cell_formula_units_Z 16
_cell_length_a 7.994623
_cell_length_b 8.812342
_cell_length_c 16.738102
_cell_angle_alpha 99.446298
_cell_angle_beta 44.186308
_cell_angle_gamma 124.572205
_cell_volume 613.234689
_symmetry_space_group_name_H-M "P -1"
_symmetry_group_IT_number 2
_symmetry_cell_setting 'triclinic'
loop_
_space_group_symop_operation_xyz
x,y,z
-x,-y,-z
loop_
_atom_site_type_symbol
_atom_site_label
_atom_site_fract_x
_atom_site_fract_y
_atom_site_fract_z
Si Si1 0.078560 0.424691 0.789004
Si Si2 0.800011 0.753923 0.133386
Si Si3 0.209589 0.414387 0.034944
Si Si4 0.511643 0.015930 0.900682
Si Si5 0.893868 0.310155 0.465182
Si Si6 0.488959 0.313544 0.469148
Si Si7 0.708001 0.010369 0.266767
Si Si8 0.886554 0.895375 0.704162
O O1 0.358193 0.628722 0.665709
O O2 0.201850 0.333300 0.788836
O O3 0.890387 0.451317 0.917918
O O4 0.811174 0.253006 0.803690
O O5 0.628143 0.837910 0.218993
O O6 0.687871 0.602639 0.087093
O O7 0.165414 0.939098 0.998117
O O8 0.500000 0.500000 0.000000
O O9 0.907342 0.207026 0.160874
O O10 0.590401 0.885071 0.821369
O O11 0.500000 0.000000 0.000000
O O12 0.717011 0.313649 0.450507
O O13 0.624417 0.098589 0.586084
O O14 0.133899 0.279630 0.347449
O O15 0.000000 0.500000 0.500000
O O16 0.500000 0.500000 0.500000
O O17 0.139271 0.102196 0.584968
O O18 0.946571 0.062400 0.262279
#
# Coordination Sequence:
#
# PCOD9108605 Si02
#       8
#     2   2   2   2   2   2   2   2
#     4  11  21  43  67 100 139 177 235 294 346 424
#     4  11  24  44  67 101 142 184 232 292 349 430
#     4  12  27  41  67 106 142 184 233 286 364 425
#     4  10  20  40  69  98 137 184 236 280 357 417
#     4  11  26  45  70 106 140 189 242 291 355 429
#     4  11  21  43  71 101 135 186 237 292 356 417
#     4  11  22  46  69  99 141 181 234 298 355 420
#     4  11  21  44  73  99 142 190 228 294 360 416
#
# _framework density 26.091152999999998
#
# number of rings (size 3 to 8) (size 9 to 14) (size 15 to 20)
#    0.000    1.000    3.750    5.250    1.750    3.000 
#    4.500    0.625    0.000    0.000    0.000    0.000 
#    0.000    0.000    0.000    0.000    0.000    0.000 
#
# Total GULP energy -89597.263163 kJ/mol
# GULP energy per Si atom -5599.828948 kJ/mol
# Density = 2.603177 g / cm^3
# Si number density = 26.091153 Si / 1000 Ang^3
#
#
#
# Elastic Constant Matrix: (Units=GPa)
#
#
# Indices 1 2 3 4 5 6 
#
# 1 34.2004 3.3645 18.0120 -6.4682 9.2320 9.7166
# 2 3.3645 119.2672 55.4880 21.1026 2.2714 -13.0914
# 3 18.0120 55.4880 175.6497 -2.1442 7.0580 -11.7739
# 4 -6.4682 21.1026 -2.1442 69.5297 -10.0246 4.4259
# 5 9.2320 2.2714 7.0580 -10.0246 32.5804 2.1600
# 6 9.7166 -13.0914 -11.7739 4.4259 2.1600 31.2304
#
#
#
# Elastic Compliance Matrix: (Units=1/GPa)
#
#
# Indices 1 2 3 4 5 6 
#
# 1 0.038271 -0.001161 -0.004131 0.003538 -0.007858 -0.013909
# 2 -0.001161 0.011085 -0.003076 -0.004045 -0.001321 0.004512
# 3 -0.004131 -0.003076 0.007283 0.000576 -0.000192 0.002673
# 4 0.003538 -0.004045 0.000576 0.016977 0.004731 -0.005312
# 5 -0.007858 -0.001321 -0.000192 0.004731 0.034592 -0.001244
# 6 -0.013909 0.004512 0.002673 -0.005312 -0.001244 0.040086
#
#
# Mechanical properties :
#
#
# Convention : Reuss Voigt Hill
#
# Bulk Modulus (GPa) = 25.06149 53.64960 39.35555
# Shear Modulus (GPa) = 28.03785 43.48496 35.76141
#
# Velocity S-wave (km/s) = 3.28168 4.08690 3.70622
# Velocity P-wave (km/s) = 4.89750 6.54808 5.78199
#
# Compressibility (1/GPa) = 0.03990185
#
# Stress axis : x y z
#
# Youngs Moduli (GPa) = 26.12929 90.21422 137.31375
#
# Poissons Ratio (x) = 0.10470 0.56728
# Poissons Ratio (y) = 0.03033 0.42244
# Poissons Ratio (z) = 0.10795 0.27754
#
# Static dielectric constant tensor:
#      x y z
#    x 2.007100 0.052360 -0.011430 
#    y 0.052360 2.112640 0.005340 
#    z -0.011430 0.005340 2.017740 
# 
# From -- ./inp_files/382636.got.cif
#   From: 2010.05.17/outbox.cif.g08.bks.cpg/sg2_192_cif.got.tgz:382636.got - 2010.06.03 11:33:40.
