data_PCOD9108183
_publ_section_title
;
Structure prediction by ZEFSAII (Michael W. Deem and Ramdas Pophale) SiO2 
 PCOD9108183
Probable space group: P -1
;
_chemical_formula_sum "Si O2"
_cell_formula_units_Z 12
_cell_length_a 9.623477
_cell_length_b 22.213104
_cell_length_c 8.921721
_cell_angle_alpha 143.272329
_cell_angle_beta 148.809657
_cell_angle_gamma 35.633927
_cell_volume 538.600080
_symmetry_space_group_name_H-M "P -1"
_symmetry_group_IT_number 2
_symmetry_cell_setting 'triclinic'
loop_
_space_group_symop_operation_xyz
x,y,z
-x,-y,-z
loop_
_atom_site_type_symbol
_atom_site_label
_atom_site_fract_x
_atom_site_fract_y
_atom_site_fract_z
Si Si1 0.697801 0.561977 0.759318
Si Si2 0.767310 0.011330 0.680190
Si Si3 0.931278 0.195146 0.667335
Si Si4 0.534443 0.740023 0.192401
Si Si5 0.757683 0.660513 0.728634
Si Si6 0.040340 0.705815 0.816535
O O1 0.500000 0.500000 0.500000
O O2 0.737647 0.567740 0.630839
O O3 0.568653 0.685578 0.952499
O O4 0.000000 0.500000 0.000000
O O5 0.659476 0.130694 0.742671
O O6 0.500000 0.000000 0.500000
O O7 0.918334 0.916911 0.507578
O O8 0.000000 0.000000 0.000000
O O9 0.576847 0.253049 0.443963
O O10 0.066784 0.279214 0.898058
O O11 0.022181 0.191368 0.919629
O O12 0.834741 0.726018 0.523043
O O13 0.368889 0.678863 0.013484
O O14 0.949596 0.629294 0.691722
#
# Coordination Sequence:
#
# PCOD9108183 Si02
#       6
#     2   2   2   2   2   2
#     4  12  26  44  68  93 123 170 216 268 326 371
#     4  12  25  39  63 101 131 172 210 255 312 376
#     4  10  20  40  67  90 134 170 204 238 332 371
#     4  12  24  43  66  97 130 159 225 266 301 384
#     4  10  21  44  67  91 130 169 205 256 322 379
#     4  10  22  42  67  94 132 171 199 263 323 366
#
# _framework density 22.279983000000001
#
# number of rings (size 3 to 8) (size 9 to 14) (size 15 to 20)
#    1.000    0.000    1.667    6.000    0.000    1.333 
#    0.000    5.000    0.000    0.000    0.000    0.000 
#    0.000    0.000    0.000    0.000    0.000    0.000 
#
# Total GULP energy -66977.165744 kJ/mol
# GULP energy per Si atom -5581.430479 kJ/mol
# Density = 2.222927 g / cm^3
# Si number density = 22.279983 Si / 1000 Ang^3
#
#
#
# Elastic Constant Matrix: (Units=GPa)
#
#
# Indices 1 2 3 4 5 6 
#
# 1 109.7131 9.5394 28.1688 10.7544 7.8378 -8.9807
# 2 9.5394 39.4910 14.7325 2.0491 6.2037 -0.1349
# 3 28.1688 14.7325 112.9181 -15.3356 6.4148 -18.6261
# 4 10.7544 2.0491 -15.3356 33.5619 -13.0123 1.3688
# 5 7.8378 6.2037 6.4148 -13.0123 53.3519 1.6549
# 6 -8.9807 -0.1349 -18.6261 1.3688 1.6549 32.6601
#
#
#
# Elastic Compliance Matrix: (Units=1/GPa)
#
#
# Indices 1 2 3 4 5 6 
#
# 1 0.010847 -0.000786 -0.002978 -0.005876 -0.002629 0.001660
# 2 -0.000786 0.027911 -0.004229 -0.004737 -0.003711 -0.002126
# 3 -0.002978 -0.004229 0.011953 0.006824 0.000981 0.005645
# 4 -0.005876 -0.004737 0.006824 0.038998 0.010101 0.000111
# 5 -0.002629 -0.003711 0.000981 0.010101 0.021960 -0.001714
# 6 0.001660 -0.002126 0.005645 0.000111 -0.001714 0.034367
#
#
# Mechanical properties :
#
#
# Convention : Reuss Voigt Hill
#
# Bulk Modulus (GPa) = 28.79701 40.77820 34.78760
# Shear Modulus (GPa) = 28.80235 37.89357 33.34796
#
# Velocity S-wave (km/s) = 3.59938 4.12854 3.87301
# Velocity P-wave (km/s) = 5.49792 6.40849 5.97059
#
# Compressibility (1/GPa) = 0.03472583
#
# Stress axis : x y z
#
# Youngs Moduli (GPa) = 92.18888 35.82814 83.66219
#
# Poissons Ratio (x) = 0.02815 0.24917
# Poissons Ratio (y) = 0.07244 0.35378
# Poissons Ratio (z) = 0.27456 0.15151
#
# Static dielectric constant tensor:
#      x y z
#    x 1.872710 -0.000170 -0.009850 
#    y -0.000170 1.803660 0.054660 
#    z -0.009850 0.054660 1.840740 
# 
# From -- ./inp_files/49506.got.cif
#   From: 2010.05.17/outbox.cif.g08.bks.cpg/sg2_25_cif.got.tgz:49506.got - 2010.06.03 11:33:40.
