data_PCOD9108280
_publ_section_title
;
Structure prediction by ZEFSAII (Michael W. Deem and Ramdas Pophale) SiO2 
 PCOD9108280
Probable space group: P -1
;
_chemical_formula_sum "Si O2"
_cell_formula_units_Z 16
_cell_length_a 8.324227
_cell_length_b 14.880425
_cell_length_c 11.850330
_cell_angle_alpha 116.980520
_cell_angle_beta 83.778591
_cell_angle_gamma 138.566673
_cell_volume 795.985651
_symmetry_space_group_name_H-M "P -1"
_symmetry_group_IT_number 2
_symmetry_cell_setting 'triclinic'
loop_
_space_group_symop_operation_xyz
x,y,z
-x,-y,-z
loop_
_atom_site_type_symbol
_atom_site_label
_atom_site_fract_x
_atom_site_fract_y
_atom_site_fract_z
Si Si1 0.116116 0.052516 0.894989
Si Si2 0.341474 0.786968 0.117073
Si Si3 0.850535 0.402572 0.571741
Si Si4 0.880665 0.770583 0.616948
Si Si5 0.423775 0.939931 0.600566
Si Si6 0.951209 0.507788 0.156556
Si Si7 0.525851 0.585783 0.941603
Si Si8 0.389635 0.502331 0.337317
O O1 0.377351 0.110742 0.895155
O O2 0.227346 0.216880 0.949022
O O3 0.909833 0.896721 0.738607
O O4 0.000000 0.000000 0.000000
O O5 0.230605 0.671149 0.169387
O O6 0.375615 0.915199 0.238889
O O7 0.135639 0.648994 0.958471
O O8 0.643733 0.210256 0.462837
O O9 0.720578 0.441530 0.645378
O O10 0.000000 0.500000 0.500000
O O11 0.042042 0.466932 0.697097
O O12 0.654470 0.648411 0.472404
O O13 0.807923 0.658959 0.660529
O O14 0.154227 0.868675 0.600191
O O15 0.500000 0.000000 0.500000
O O16 0.732296 0.472307 0.095693
O O17 0.564159 0.537636 0.800765
O O18 0.500000 0.500000 0.000000
#
# Coordination Sequence:
#
# PCOD9108280 Si02
#       8
#     2   2   2   2   2   2   2   2
#     4  10  20  40  67  97 127 167 208 266 323 375
#     4   9  21  37  70  89 122 170 214 254 320 375
#     4  12  25  41  65  95 131 170 218 259 312 386
#     4  10  22  43  65  92 129 172 209 267 319 375
#     4  11  21  41  66  93 128 171 210 264 323 372
#     4  10  22  44  67  93 130 170 212 263 319 376
#     4  11  25  42  70  95 128 169 215 261 322 384
#     4  11  24  39  65  96 128 167 220 258 317 381
#
# _framework density 20.100866
#
# number of rings (size 3 to 8) (size 9 to 14) (size 15 to 20)
#    0.000    1.500    3.750    0.750    7.000    0.000 
#    2.250    1.875    0.000    0.000    0.000    0.000 
#    0.000    0.000    0.000    0.000    0.000    0.000 
#
# Total GULP energy -89296.059515 kJ/mol
# GULP energy per Si atom -5581.003720 kJ/mol
# Density = 2.005512 g / cm^3
# Si number density = 20.100866 Si / 1000 Ang^3
#
#
#
# Elastic Constant Matrix: (Units=GPa)
#
#
# Indices 1 2 3 4 5 6 
#
# 1 59.2311 30.0870 30.0569 -1.6435 -17.0495 -7.0495
# 2 30.0870 132.4779 68.0378 2.3546 -11.2041 -5.3992
# 3 30.0569 68.0378 157.0920 15.3500 -32.0326 -13.3476
# 4 -1.6435 2.3546 15.3500 42.5402 -6.9144 -13.6273
# 5 -17.0495 -11.2041 -32.0326 -6.9144 33.5558 -0.2195
# 6 -7.0495 -5.3992 -13.3476 -13.6273 -0.2195 33.6934
#
#
#
# Elastic Compliance Matrix: (Units=1/GPa)
#
#
# Indices 1 2 3 4 5 6 
#
# 1 0.023182 -0.003942 -0.000427 0.005053 0.011136 0.006166
# 2 -0.003942 0.010440 -0.004404 0.000147 -0.002697 -0.000855
# 3 -0.000427 -0.004404 0.010340 -0.001310 0.007932 0.002823
# 4 0.005053 0.000147 -0.001310 0.029390 0.007503 0.012497
# 5 0.011136 -0.002697 0.007932 0.007503 0.043731 0.008360
# 6 0.006166 -0.000855 0.002823 0.012497 0.008360 0.037060
#
#
# Mechanical properties :
#
#
# Convention : Reuss Voigt Hill
#
# Bulk Modulus (GPa) = 37.85763 67.24052 52.54908
# Shear Modulus (GPa) = 27.70154 36.66583 32.18369
#
# Velocity S-wave (km/s) = 3.71634 4.27557 4.00573
# Velocity P-wave (km/s) = 6.10652 7.60909 6.89883
#
# Compressibility (1/GPa) = 0.02641475
#
# Stress axis : x y z
#
# Youngs Moduli (GPa) = 43.13745 95.78387 96.70971
#
# Poissons Ratio (x) = 0.37759 0.04132
# Poissons Ratio (y) = 0.17005 0.42594
# Poissons Ratio (z) = 0.01843 0.42187
#
# Static dielectric constant tensor:
#      x y z
#    x 1.723040 0.006610 0.002170 
#    y 0.006610 1.700910 0.033380 
#    z 0.002170 0.033380 1.746790 
# 
# From -- ./inp_files/357763.got.cif
#   From: 2010.05.17/outbox.cif.g08.bks.cpg/sg2_179_cif.got.tgz:357763.got - 2010.06.03 11:33:40.
