data_PCOD9108178
_publ_section_title
;
Structure prediction by ZEFSAII (Michael W. Deem and Ramdas Pophale) SiO2 
 PCOD9108178
Probable space group: P -1
;
_chemical_formula_sum "Si O2"
_cell_formula_units_Z 16
_cell_length_a 19.053845
_cell_length_b 7.198227
_cell_length_c 7.373655
_cell_angle_alpha 41.422387
_cell_angle_beta 111.651418
_cell_angle_gamma 113.373592
_cell_volume 609.921869
_symmetry_space_group_name_H-M "P -1"
_symmetry_group_IT_number 2
_symmetry_cell_setting 'triclinic'
loop_
_space_group_symop_operation_xyz
x,y,z
-x,-y,-z
loop_
_atom_site_type_symbol
_atom_site_label
_atom_site_fract_x
_atom_site_fract_y
_atom_site_fract_z
Si Si1 0.208894 0.623443 0.107097
Si Si2 0.187601 0.240579 0.726548
Si Si3 0.422889 0.068964 0.978696
Si Si4 0.052052 0.611817 0.755344
Si Si5 0.011044 0.963347 0.798044
Si Si6 0.622916 0.925213 0.444138
Si Si7 0.463856 0.706713 0.572386
Si Si8 0.302417 0.466347 0.980039
O O1 0.196204 0.411386 0.420885
O O2 0.132747 0.587051 0.935398
O O3 0.271868 0.555855 0.078230
O O4 0.218512 0.946109 0.951247
O O5 0.236494 0.418354 0.801860
O O6 0.096800 0.147829 0.753019
O O7 0.363113 0.095865 0.742094
O O8 0.437907 0.384016 0.852861
O O9 0.500000 0.000000 0.000000
O O10 0.405938 0.819628 0.294827
O O11 0.009555 0.762784 0.761819
O O12 0.052604 0.843302 0.429171
O O13 0.009095 0.295324 0.890141
O O14 0.543798 0.695818 0.553732
O O15 0.631247 0.269279 0.218287
O O16 0.672762 0.825933 0.723011
O O17 0.500000 0.000000 0.500000
#
# Coordination Sequence:
#
# PCOD9108178 Si02
#       8
#     2   2   2   2   2   2   2   2
#     4  11  23  42  63  89 125 171 215 264 320 382
#     4  11  23  42  64  89 129 167 216 268 318 378
#     4  10  20  40  67  90 126 166 198 248 320 375
#     4   9  16  30  57  87 116 153 209 261 323 385
#     4   9  16  30  57  88 115 157 201 266 331 368
#     4  11  23  44  65  89 128 167 209 250 310 384
#     4  11  22  41  67 103 129 155 203 270 323 367
#     4  12  26  45  62  93 132 176 216 259 309 374
#
# _framework density 26.232868
#
# number of rings (size 3 to 8) (size 9 to 14) (size 15 to 20)
#    0.000    1.500    0.000    9.375    0.000    0.000 
#   13.500    1.250    0.000    0.000    0.000    3.500 
#    0.000    0.000    0.000    0.000    0.000    0.000 
#
# Total GULP energy -89378.666769 kJ/mol
# GULP energy per Si atom -5586.166673 kJ/mol
# Density = 2.617316 g / cm^3
# Si number density = 26.232868 Si / 1000 Ang^3
#
#
#
# Elastic Constant Matrix: (Units=GPa)
#
#
# Indices 1 2 3 4 5 6 
#
# 1 43.8411 5.3263 15.4231 -12.7872 -2.7683 -8.3051
# 2 5.3263 131.1900 51.9009 -2.0142 -6.0952 8.5924
# 3 15.4231 51.9009 188.6565 -18.9776 17.9480 2.0792
# 4 -12.7872 -2.0142 -18.9776 53.2254 5.5243 2.0100
# 5 -2.7683 -6.0952 17.9480 5.5243 16.8556 -1.8167
# 6 -8.3051 8.5924 2.0792 2.0100 -1.8167 29.1093
#
#
#
# Elastic Compliance Matrix: (Units=1/GPa)
#
#
# Indices 1 2 3 4 5 6 
#
# 1 0.026932 -0.000356 -0.002295 0.004708 0.006058 0.008006
# 2 -0.000356 0.009430 -0.003397 -0.001616 0.007275 -0.002077
# 3 -0.002295 -0.003397 0.007829 0.003312 -0.011150 -0.001136
# 4 0.004708 -0.001616 0.003312 0.022169 -0.010670 -0.000613
# 5 0.006058 0.007275 -0.011150 -0.010670 0.078973 0.006043
# 6 0.008006 -0.002077 -0.001136 -0.000613 0.006043 0.037751
#
#
# Mechanical properties :
#
#
# Convention : Reuss Voigt Hill
#
# Bulk Modulus (GPa) = 31.15678 56.55426 43.85552
# Shear Modulus (GPa) = 24.28602 39.24054 31.76328
#
# Velocity S-wave (km/s) = 3.04597 3.87182 3.48346
# Velocity P-wave (km/s) = 4.92680 6.44929 5.73876
#
# Compressibility (1/GPa) = 0.03209575
#
# Stress axis : x y z
#
# Youngs Moduli (GPa) = 37.12987 106.04374 127.72770
#
# Poissons Ratio (x) = 0.03777 0.29311
# Poissons Ratio (y) = 0.01323 0.43389
# Poissons Ratio (z) = 0.08521 0.36023
#
# Static dielectric constant tensor:
#      x y z
#    x 2.299970 -0.035000 -0.050680 
#    y -0.035000 2.110450 0.024190 
#    z -0.050680 0.024190 2.086890 
# 
# From -- ./inp_files/356329.got.cif
#   From: 2010.05.17/outbox.cif.g08.bks.cpg/sg2_179_cif.got.tgz:356329.got - 2010.06.03 11:33:40.
