data_PCOD9108446
_publ_section_title
;
Structure prediction by ZEFSAII (Michael W. Deem and Ramdas Pophale) SiO2 
 PCOD9108446
Probable space group: P -1
;
_chemical_formula_sum "Si O2"
_cell_formula_units_Z 16
_cell_length_a 9.221725
_cell_length_b 15.220636
_cell_length_c 11.809545
_cell_angle_alpha 109.763018
_cell_angle_beta 127.744931
_cell_angle_gamma 112.395283
_cell_volume 756.099086
_symmetry_space_group_name_H-M "P -1"
_symmetry_group_IT_number 2
_symmetry_cell_setting 'triclinic'
loop_
_space_group_symop_operation_xyz
x,y,z
-x,-y,-z
loop_
_atom_site_type_symbol
_atom_site_label
_atom_site_fract_x
_atom_site_fract_y
_atom_site_fract_z
Si Si1 0.885730 0.651881 0.518235
Si Si2 0.647504 0.822047 0.377063
Si Si3 0.419367 0.833521 0.684730
Si Si4 0.553649 0.090728 0.834090
Si Si5 0.222278 0.635202 0.305802
Si Si6 0.813755 0.026753 0.170466
Si Si7 0.566681 0.458590 0.910384
Si Si8 0.820261 0.579520 0.695043
O O1 0.559994 0.539916 0.260666
O O2 0.888409 0.585293 0.597816
O O3 0.108369 0.706811 0.550655
O O4 0.005307 0.802733 0.679674
O O5 0.597126 0.888843 0.301638
O O6 0.390520 0.711678 0.301147
O O7 0.623697 0.714620 0.250757
O O8 0.956435 0.949880 0.648673
O O9 0.419890 0.756665 0.555324
O O10 0.445241 0.944707 0.686096
O O11 0.677057 0.936820 0.948575
O O12 0.448126 0.060471 0.901164
O O13 0.908612 0.245342 0.060483
O O14 0.171964 0.507987 0.261275
O O15 0.910743 0.565893 0.120855
O O16 0.500000 0.500000 0.000000
O O17 0.500000 0.500000 0.500000
#
# Coordination Sequence:
#
# PCOD9108446 Si02
#       8
#     2   2   2   2   2   2   2   2
#     4  10  20  40  68  96 130 175 229 271 332 393
#     4  11  25  43  68  97 137 184 224 272 341 401
#     4  11  22  43  68  98 133 175 226 283 325 396
#     4  11  22  42  71  94 133 177 233 271 331 407
#     4  12  27  44  67 102 143 176 222 279 344 399
#     4  10  20  42  68  96 126 179 224 279 328 390
#     4  11  22  42  68  98 135 179 220 279 333 401
#     4  12  24  42  67 101 131 183 222 273 346 400
#
# _framework density 21.161248000000001
#
# number of rings (size 3 to 8) (size 9 to 14) (size 15 to 20)
#    0.000    1.000    5.000    3.000    1.750    1.500 
#    2.250    0.000    0.000    0.000    0.000    0.000 
#    0.000    0.000    0.000    0.000    0.000    0.000 
#
# Total GULP energy -89471.583040 kJ/mol
# GULP energy per Si atom -5591.973940 kJ/mol
# Density = 2.111308 g / cm^3
# Si number density = 21.161248 Si / 1000 Ang^3
#
#
#
# Elastic Constant Matrix: (Units=GPa)
#
#
# Indices 1 2 3 4 5 6 
#
# 1 71.5971 16.2136 29.8588 7.6213 -3.3590 1.8721
# 2 16.2136 79.6581 6.4804 -6.6374 -3.1297 11.7696
# 3 29.8588 6.4804 106.0880 -18.1164 6.6399 0.9143
# 4 7.6213 -6.6374 -18.1164 30.5057 -3.5957 2.0341
# 5 -3.3590 -3.1297 6.6399 -3.5957 39.7131 -7.7996
# 6 1.8721 11.7696 0.9143 2.0341 -7.7996 12.2266
#
#
#
# Elastic Compliance Matrix: (Units=1/GPa)
#
#
# Indices 1 2 3 4 5 6 
#
# 1 0.019021 -0.004867 -0.006978 -0.010024 0.002587 0.005612
# 2 -0.004867 0.016518 0.001823 0.006813 -0.002314 -0.017901
# 3 -0.006978 0.001823 0.013202 0.009996 -0.002749 -0.005090
# 4 -0.010024 0.006813 0.009996 0.043520 -0.000683 -0.013447
# 5 0.002587 -0.002314 -0.002749 -0.000683 0.029766 0.021139
# 6 0.005612 -0.017901 -0.005090 -0.013447 0.021139 0.114263
#
#
# Mechanical properties :
#
#
# Convention : Reuss Voigt Hill
#
# Bulk Modulus (GPa) = 34.84696 40.27209 37.55952
# Shear Modulus (GPa) = 18.80414 30.14179 24.47296
#
# Velocity S-wave (km/s) = 2.98419 3.77820 3.40442
# Velocity P-wave (km/s) = 5.32700 6.17296 5.76552
#
# Compressibility (1/GPa) = 0.02869691
#
# Stress axis : x y z
#
# Youngs Moduli (GPa) = 52.57331 60.54171 75.74796
#
# Poissons Ratio (x) = 0.29464 0.52860
# Poissons Ratio (y) = 0.25586 -0.13812
# Poissons Ratio (z) = 0.36688 -0.11039
#
# Static dielectric constant tensor:
#      x y z
#    x 1.755890 0.016770 0.022210 
#    y 0.016770 1.743300 -0.005400 
#    z 0.022210 -0.005400 1.800330 
# 
# From -- ./inp_files/392049.got.cif
#   From: 2010.05.17/outbox.cif.g08.bks.cpg/sg2_197_cif.got.tgz:392049.got - 2010.06.03 11:33:40.
