data_PCOD9108699
_publ_section_title
;
Structure prediction by ZEFSAII (Michael W. Deem and Ramdas Pophale) SiO2 
 PCOD9108699
Probable space group: P -1
;
_chemical_formula_sum "Si O2"
_cell_formula_units_Z 16
_cell_length_a 6.250064
_cell_length_b 27.569894
_cell_length_c 8.582697
_cell_angle_alpha 134.839891
_cell_angle_beta 111.026480
_cell_angle_gamma 45.742863
_cell_volume 724.740706
_symmetry_space_group_name_H-M "P -1"
_symmetry_group_IT_number 2
_symmetry_cell_setting 'triclinic'
loop_
_space_group_symop_operation_xyz
x,y,z
-x,-y,-z
loop_
_atom_site_type_symbol
_atom_site_label
_atom_site_fract_x
_atom_site_fract_y
_atom_site_fract_z
Si Si1 0.184757 0.896062 0.373155
Si Si2 0.695027 0.892893 0.107438
Si Si3 0.962679 0.185098 0.282897
Si Si4 0.837002 0.365786 0.681427
Si Si5 0.848307 0.433741 0.496335
Si Si6 0.986616 0.939774 0.740183
Si Si7 0.628588 0.758725 0.918344
Si Si8 0.897305 0.489131 0.114797
O O1 0.952697 0.879257 0.244683
O O2 0.234956 0.896140 0.569134
O O3 0.485057 0.818150 0.173684
O O4 0.000000 0.000000 0.500000
O O5 0.350579 0.987821 0.262653
O O6 0.705097 0.810298 0.953608
O O7 0.776327 0.889895 0.941577
O O8 0.974961 0.262906 0.491735
O O9 0.641861 0.229776 0.212700
O O10 0.979074 0.136913 0.331819
O O11 0.874752 0.390036 0.572490
O O12 0.471271 0.432649 0.776668
O O13 0.974397 0.393549 0.901391
O O14 0.500000 0.500000 0.500000
O O15 0.075020 0.349174 0.245682
O O16 0.944073 0.493448 0.679662
O O17 0.000000 0.000000 0.000000
O O18 0.000000 0.500000 0.000000
#
# Coordination Sequence:
#
# PCOD9108699 Si02
#       8
#     2   2   2   2   2   2   2   2
#     4  11  24  43  70  96 139 185 224 279 346 405
#     4  11  22  43  69  95 141 181 219 275 344 404
#     4  11  22  39  70 101 133 180 233 279 330 414
#     4  10  20  40  70  95 132 178 217 284 358 397
#     4  11  23  42  73  97 132 178 238 288 340 417
#     4  12  23  42  69 105 134 181 232 273 332 413
#     4  11  22  43  70  99 136 183 229 280 351 407
#     4   9  20  40  68  95 129 168 222 277 356 407
#
# _framework density 22.076862999999999
#
# number of rings (size 3 to 8) (size 9 to 14) (size 15 to 20)
#    0.000    1.250    5.000    1.500    0.000    0.500 
#    0.000    5.000    5.500    0.000    0.000    0.000 
#    0.000    0.000    0.000    0.000    0.000    0.000 
#
# Total GULP energy -89493.536586 kJ/mol
# GULP energy per Si atom -5593.346037 kJ/mol
# Density = 2.202661 g / cm^3
# Si number density = 22.076863 Si / 1000 Ang^3
#
#
#
# Elastic Constant Matrix: (Units=GPa)
#
#
# Indices 1 2 3 4 5 6 
#
# 1 91.7103 19.4261 55.2672 -0.3628 10.0015 2.2977
# 2 19.4261 49.7679 48.9041 5.9143 12.2379 2.3043
# 3 55.2672 48.9041 161.3704 10.4671 -1.2752 11.6402
# 4 -0.3628 5.9143 10.4671 24.2275 8.7511 -7.2172
# 5 10.0015 12.2379 -1.2752 8.7511 44.4967 6.9447
# 6 2.2977 2.3043 11.6402 -7.2172 6.9447 37.2046
#
#
#
# Elastic Compliance Matrix: (Units=1/GPa)
#
#
# Indices 1 2 3 4 5 6 
#
# 1 0.014810 0.000387 -0.005780 0.005312 -0.005091 0.002850
# 2 0.000387 0.032216 -0.010288 0.001174 -0.009987 0.003292
# 3 -0.005780 -0.010288 0.012180 -0.006851 0.006666 -0.005390
# 4 0.005312 0.001174 -0.006851 0.053741 -0.014607 0.014894
# 5 -0.005091 -0.009987 0.006666 -0.014607 0.030952 -0.009764
# 6 0.002850 0.003292 -0.005390 0.014894 -0.009764 0.032897
#
#
# Mechanical properties :
#
#
# Convention : Reuss Voigt Hill
#
# Bulk Modulus (GPa) = 35.91446 61.11594 48.51520
# Shear Modulus (GPa) = 22.99500 33.13585 28.06542
#
# Velocity S-wave (km/s) = 3.23087 3.87839 3.56934
# Velocity P-wave (km/s) = 5.49738 6.91370 6.24582
#
# Compressibility (1/GPa) = 0.02784393
#
# Stress axis : x y z
#
# Youngs Moduli (GPa) = 67.52302 31.04077 82.10000
#
# Poissons Ratio (x) = -0.01203 0.47454
# Poissons Ratio (y) = -0.02616 0.84467
# Poissons Ratio (z) = 0.39028 0.31936
#
# Static dielectric constant tensor:
#      x y z
#    x 1.799080 0.001410 -0.015810 
#    y 0.001410 1.778990 -0.031380 
#    z -0.015810 -0.031380 1.824230 
# 
# From -- ./inp_files/38248.got.cif
#   From: 2010.05.17/outbox.cif.g08.bks.cpg/sg2_20_cif.got.tgz:38248.got - 2010.06.03 11:33:40.
