data_PCOD9108566
_publ_section_title
;
Structure prediction by ZEFSAII (Michael W. Deem and Ramdas Pophale) SiO2 
 PCOD9108566
Probable space group: P -1
;
_chemical_formula_sum "Si O2"
_cell_formula_units_Z 12
_cell_length_a 12.540763
_cell_length_b 5.384378
_cell_length_c 9.836921
_cell_angle_alpha 103.724511
_cell_angle_beta 131.572104
_cell_angle_gamma 66.511288
_cell_volume 455.390119
_symmetry_space_group_name_H-M "P -1"
_symmetry_group_IT_number 2
_symmetry_cell_setting 'triclinic'
loop_
_space_group_symop_operation_xyz
x,y,z
-x,-y,-z
loop_
_atom_site_type_symbol
_atom_site_label
_atom_site_fract_x
_atom_site_fract_y
_atom_site_fract_z
Si Si1 0.856660 0.341490 0.906023
Si Si2 0.605659 0.778031 0.164170
Si Si3 0.598834 0.695455 0.575509
Si Si4 0.693983 0.218376 0.997949
Si Si5 0.115385 0.150546 0.654499
Si Si6 0.096864 0.503385 0.295387
O O1 0.720559 0.627933 0.795860
O O2 0.904267 0.250359 0.779250
O O3 0.774027 0.202375 0.919760
O O4 0.005441 0.353763 0.108184
O O5 0.675611 0.496700 0.103187
O O6 0.749232 0.865247 0.334258
O O7 0.479939 0.763060 0.162061
O O8 0.500000 0.000000 0.000000
O O9 0.500000 0.500000 0.500000
O O10 0.724563 0.615115 0.551269
O O11 0.500000 0.000000 0.500000
O O12 0.793519 0.982397 0.149227
O O13 0.000383 0.435286 0.643752
O O14 0.000000 0.000000 0.500000
#
# Coordination Sequence:
#
# PCOD9108566 Si02
#       6
#     2   2   2   2   2   2
#     4   9  20  43  71  98 129 178 235 286 356 425
#     4   9  20  41  61  90 131 173 234 272 340 418
#     4  10  23  45  67 108 146 179 231 296 376 424
#     4  10  20  40  69  93 125 181 235 281 341 415
#     4  11  23  41  64  98 139 180 231 291 349 419
#     4   9  21  44  67  98 136 180 235 281 360 428
#
# _framework density 26.351030999999999
#
# number of rings (size 3 to 8) (size 9 to 14) (size 15 to 20)
#    1.000    1.333    1.667    0.000    0.000    4.000 
#    9.000    0.000    0.000    0.000    0.000    0.000 
#    0.000    0.000    0.000    0.000    0.000    0.000 
#
# Total GULP energy -66920.632303 kJ/mol
# GULP energy per Si atom -5576.719359 kJ/mol
# Density = 2.629105 g / cm^3
# Si number density = 26.351031 Si / 1000 Ang^3
#
#
#
# Elastic Constant Matrix: (Units=GPa)
#
#
# Indices 1 2 3 4 5 6 
#
# 1 232.8233 21.9436 61.6048 0.1925 59.2471 22.5523
# 2 21.9436 82.3306 31.3414 -31.9103 24.9381 3.7424
# 3 61.6048 31.3414 145.3203 -9.2134 56.1722 10.2835
# 4 0.1925 -31.9103 -9.2134 39.3570 4.2822 2.3259
# 5 59.2471 24.9381 56.1722 4.2822 69.8762 -1.7393
# 6 22.5523 3.7424 10.2835 2.3259 -1.7393 37.7212
#
#
#
# Elastic Compliance Matrix: (Units=1/GPa)
#
#
# Indices 1 2 3 4 5 6 
#
# 1 0.006043 0.000860 -0.000301 0.001415 -0.005374 -0.003951
# 2 0.000860 0.023009 0.000373 0.020165 -0.010592 -0.004630
# 3 -0.000301 0.000373 0.010901 0.004039 -0.008976 -0.003492
# 4 0.001415 0.020165 0.004039 0.044718 -0.014568 -0.007377
# 5 -0.005374 -0.010592 -0.008976 -0.014568 0.030981 0.009038
# 6 -0.003951 -0.004630 -0.003492 -0.007377 0.009038 0.031156
#
#
# Mechanical properties :
#
#
# Convention : Reuss Voigt Hill
#
# Bulk Modulus (GPa) = 23.91279 76.69486 50.30383
# Shear Modulus (GPa) = 31.46997 52.42984 41.94991
#
# Velocity S-wave (km/s) = 3.45956 4.46541 3.99427
# Velocity P-wave (km/s) = 5.00524 7.46691 6.35638
#
# Compressibility (1/GPa) = 0.04181862
#
# Stress axis : x y z
#
# Youngs Moduli (GPa) = 165.49100 43.46040 91.73450
#
# Poissons Ratio (x) = -0.03737 0.02757
# Poissons Ratio (y) = -0.14229 -0.03426
# Poissons Ratio (z) = 0.04973 -0.01623
#
# Static dielectric constant tensor:
#      x y z
#    x 2.087600 0.011080 0.209390 
#    y 0.011080 2.192400 0.032510 
#    z 0.209390 0.032510 1.098590 
# 
# From -- ./inp_files/132267.got.cif
#   From: 2010.05.17/outbox.cif.g08.bks.cpg/sg2_67_cif.got.tgz:132267.got - 2010.06.03 11:33:40.
