data_PCOD9108713
_publ_section_title
;
Structure prediction by ZEFSAII (Michael W. Deem and Ramdas Pophale) SiO2 
 PCOD9108713
Probable space group: P -1
;
_chemical_formula_sum "Si O2"
_cell_formula_units_Z 15
_cell_length_a 12.103927
_cell_length_b 8.611809
_cell_length_c 11.739279
_cell_angle_alpha 48.988425
_cell_angle_beta 119.249437
_cell_angle_gamma 90.255691
_cell_volume 706.644356
_symmetry_space_group_name_H-M "P -1"
_symmetry_group_IT_number 2
_symmetry_cell_setting 'triclinic'
loop_
_space_group_symop_operation_xyz
x,y,z
-x,-y,-z
loop_
_atom_site_type_symbol
_atom_site_label
_atom_site_fract_x
_atom_site_fract_y
_atom_site_fract_z
Si Si1 0.030050 0.317129 0.347535
Si Si2 0.519631 0.917291 0.920015
Si Si3 0.251554 0.256074 0.056372
Si Si4 0.412884 0.281743 0.323913
Si Si5 0.291622 0.374305 0.454234
Si Si6 0.687974 0.244725 0.578340
Si Si7 0.500000 0.500000 0.000000
Si Si8 0.815939 0.191398 0.432330
O O1 0.148400 0.378948 0.426990
O O2 0.933145 0.261951 0.412345
O O3 0.118290 0.083991 0.429708
O O4 0.910594 0.542564 0.112771
O O5 0.682994 0.804130 0.008123
O O6 0.426898 0.141345 0.684013
O O7 0.472678 0.722200 0.963693
O O8 0.500000 0.000000 0.000000
O O9 0.351232 0.345073 0.134474
O O10 0.271700 0.015761 0.235633
O O11 0.294476 0.359448 0.325476
O O12 0.527649 0.356982 0.389069
O O13 0.500000 0.000000 0.500000
O O14 0.305516 0.596503 0.394792
O O15 0.789954 0.232471 0.533111
O O16 0.662107 0.333727 0.223460
#
# Coordination Sequence:
#
# PCOD9108713 Si02
#       8
#     2   2   2   2   2   2   1   2
#     4  11  25  44  67 101 141 182 232 281 362 431
#     4  12  25  44  70 107 139 183 242 297 344 417
#     4  11  24  45  70 103 136 186 233 289 352 420
#     4  10  20  40  70  97 130 175 238 289 334 410
#     4  12  24  43  67 102 142 179 227 295 354 421
#     4  11  24  42  70 102 137 179 237 292 352 407
#     4  12  22  46  74  98 132 190 242 286 346 408
#     4  11  24  44  70  99 133 184 235 291 344 427
#
# _framework density 21.227084000000001
#
# number of rings (size 3 to 8) (size 9 to 14) (size 15 to 20)
#    0.000    0.800    5.333    3.600    0.000    3.200 
#    0.000    0.000    0.000    0.000    0.000    0.000 
#    0.000    0.000    0.000    0.000    0.000    0.000 
#
# Total GULP energy -83604.268724 kJ/mol
# GULP energy per Si atom -5573.617915 kJ/mol
# Density = 2.117877 g / cm^3
# Si number density = 21.227084 Si / 1000 Ang^3
#
#
#
# Elastic Constant Matrix: (Units=GPa)
#
#
# Indices 1 2 3 4 5 6 
#
# 1 73.1379 40.8865 10.6196 6.1369 8.4371 -10.1383
# 2 40.8865 140.0538 35.0033 -0.5264 -8.5060 -6.1170
# 3 10.6196 35.0033 80.3378 -21.7403 10.6057 -14.4267
# 4 6.1369 -0.5264 -21.7403 26.1436 -6.7131 -7.1060
# 5 8.4371 -8.5060 10.6057 -6.7131 32.1010 6.0994
# 6 -10.1383 -6.1170 -14.4267 -7.1060 6.0994 39.8000
#
#
#
# Elastic Compliance Matrix: (Units=1/GPa)
#
#
# Indices 1 2 3 4 5 6 
#
# 1 0.019050 -0.006118 0.000829 -0.004895 -0.008817 0.004690
# 2 -0.006118 0.010681 -0.006097 -0.002715 0.006572 -0.003619
# 3 0.000829 -0.006097 0.024120 0.021268 -0.007827 0.013014
# 4 -0.004895 -0.002715 0.021268 0.062442 0.003432 0.016667
# 5 -0.008817 0.006572 -0.007827 0.003432 0.040347 -0.009643
# 6 0.004690 -0.003619 0.013014 0.016667 -0.009643 0.034935
#
#
# Mechanical properties :
#
#
# Convention : Reuss Voigt Hill
#
# Bulk Modulus (GPa) = 32.17613 51.83869 42.00741
# Shear Modulus (GPa) = 22.25127 33.41025 27.83076
#
# Velocity S-wave (km/s) = 3.24118 3.97160 3.62484
# Velocity P-wave (km/s) = 5.40351 6.74578 6.11161
#
# Compressibility (1/GPa) = 0.03107893
#
# Stress axis : x y z
#
# Youngs Moduli (GPa) = 52.49250 93.62580 41.45941
#
# Poissons Ratio (x) = 0.57276 -0.03436
# Poissons Ratio (y) = 0.32113 0.25279
# Poissons Ratio (z) = -0.04350 0.57086
#
# Static dielectric constant tensor:
#      x y z
#    x 1.367830 -0.063350 0.052560 
#    y -0.063350 1.722550 0.015810 
#    z 0.052560 0.015810 1.771370 
# 
# From -- ./inp_files/238166.got.cif
#   From: 2010.05.17/outbox.cif.g08.bks.cpg/sg2_120_cif.got.tgz:238166.got - 2010.06.03 11:33:40.
