data_PCOD9108493
_publ_section_title
;
Structure prediction by ZEFSAII (Michael W. Deem and Ramdas Pophale) SiO2 
 PCOD9108493
Probable space group: P -1
;
_chemical_formula_sum "Si O2"
_cell_formula_units_Z 14
_cell_length_a 11.019561
_cell_length_b 8.977867
_cell_length_c 7.819209
_cell_angle_alpha 90.178632
_cell_angle_beta 42.047959
_cell_angle_gamma 101.208784
_cell_volume 496.336928
_symmetry_space_group_name_H-M "P -1"
_symmetry_group_IT_number 2
_symmetry_cell_setting 'triclinic'
loop_
_space_group_symop_operation_xyz
x,y,z
-x,-y,-z
loop_
_atom_site_type_symbol
_atom_site_label
_atom_site_fract_x
_atom_site_fract_y
_atom_site_fract_z
Si Si1 0.186985 0.644754 0.338055
Si Si2 0.729536 0.397365 0.182842
Si Si3 0.832183 0.885793 0.444097
Si Si4 0.609262 0.536634 0.656602
Si Si5 0.033762 0.705077 0.836161
Si Si6 0.777914 0.925709 0.135617
Si Si7 0.687497 0.028574 0.911737
O O1 0.356161 0.576323 0.229023
O O2 0.237453 0.782705 0.145605
O O3 0.000000 0.500000 0.500000
O O4 0.135459 0.742989 0.550003
O O5 0.653512 0.454925 0.438072
O O6 0.579331 0.414982 0.197667
O O7 0.809512 0.261884 0.178254
O O8 0.924723 0.523701 0.930632
O O9 0.764346 0.700766 0.527060
O O10 0.805656 0.950938 0.657586
O O11 0.724725 0.932129 0.389600
O O12 0.042444 0.953649 0.148009
O O13 0.861843 0.778145 0.042255
O O14 0.630268 0.929856 0.145819
O O15 0.500000 0.000000 0.000000
#
# Coordination Sequence:
#
# PCOD9108493 Si02
#       7
#     2   2   2   2   2   2   2
#     4  11  25  44  68 100 142 194 235 287 357 428
#     4   9  20  38  63 101 137 172 236 293 353 411
#     4  11  24  47  74 103 135 194 238 292 359 425
#     4  10  21  40  69  98 140 179 237 294 349 415
#     4  10  20  40  68  98 134 184 234 289 348 430
#     4  11  24  45  74 100 144 187 239 285 361 425
#     4  12  29  48  70 107 151 185 236 300 360 425
#
# _framework density 28.206647
#
# number of rings (size 3 to 8) (size 9 to 14) (size 15 to 20)
#    0.000    1.429    2.857    1.286    4.000    2.857 
#    5.143    1.429    0.000    0.000    0.000    0.000 
#    0.000    0.000    0.000    0.000    0.000    0.000 
#
# Total GULP energy -78201.372636 kJ/mol
# GULP energy per Si atom -5585.812331 kJ/mol
# Density = 2.814245 g / cm^3
# Si number density = 28.206647 Si / 1000 Ang^3
#
#
#
# Elastic Constant Matrix: (Units=GPa)
#
#
# Indices 1 2 3 4 5 6 
#
# 1 169.5603 22.1247 33.1120 10.4062 21.9700 -32.2119
# 2 22.1247 107.4988 7.6571 -0.6096 17.2477 -17.3215
# 3 33.1120 7.6571 60.0489 19.7490 30.2132 -6.4907
# 4 10.4062 -0.6096 19.7490 49.8584 4.9354 1.2428
# 5 21.9700 17.2477 30.2132 4.9354 58.0497 -6.5981
# 6 -32.2119 -17.3215 -6.4907 1.2428 -6.5981 41.8109
#
#
#
# Elastic Compliance Matrix: (Units=1/GPa)
#
#
# Indices 1 2 3 4 5 6 
#
# 1 0.007650 -0.000443 -0.003245 -0.000400 -0.000456 0.005147
# 2 -0.000443 0.010390 0.000725 0.000129 -0.002897 0.003614
# 3 -0.003245 0.000725 0.027704 -0.009051 -0.012594 0.000383
# 4 -0.000400 0.000129 -0.009051 0.023518 0.002603 -0.001948
# 5 -0.000456 -0.002897 -0.012594 0.002603 0.024628 0.000303
# 6 0.005147 0.003614 0.000383 -0.001948 0.000303 0.029545
#
#
# Mechanical properties :
#
#
# Convention : Reuss Voigt Hill
#
# Bulk Modulus (GPa) = 25.11333 51.43285 38.27309
# Shear Modulus (GPa) = 35.05493 48.22474 41.63984
#
# Velocity S-wave (km/s) = 3.52915 4.13933 3.84636
# Velocity P-wave (km/s) = 5.05264 6.41243 5.77271
#
# Compressibility (1/GPa) = 0.03981949
#
# Stress axis : x y z
#
# Youngs Moduli (GPa) = 130.71129 96.24700 36.09551
#
# Poissons Ratio (x) = 0.04266 0.11712
# Poissons Ratio (y) = 0.05794 -0.02619
# Poissons Ratio (z) = 0.42413 -0.06983
#
# Static dielectric constant tensor:
#      x y z
#    x 2.776700 -0.083680 -0.137010 
#    y -0.083680 2.391120 0.176250 
#    z -0.137010 0.176250 2.356560 
# 
# From -- ./inp_files/243867.got.cif
#   From: 2010.05.17/outbox.cif.g08.bks.cpg/sg2_122_cif.got.tgz:243867.got - 2010.06.03 11:33:40.
