data_PCOD9108055
_publ_section_title
;
Structure prediction by ZEFSAII (Michael W. Deem and Ramdas Pophale) SiO2 
 PCOD9108055
Probable space group: P -1
;
_chemical_formula_sum "Si O2"
_cell_formula_units_Z 15
_cell_length_a 5.230778
_cell_length_b 14.966583
_cell_length_c 20.819075
_cell_angle_alpha 19.694554
_cell_angle_beta 87.560558
_cell_angle_gamma 88.205663
_cell_volume 548.588719
_symmetry_space_group_name_H-M "P -1"
_symmetry_group_IT_number 2
_symmetry_cell_setting 'triclinic'
loop_
_space_group_symop_operation_xyz
x,y,z
-x,-y,-z
loop_
_atom_site_type_symbol
_atom_site_label
_atom_site_fract_x
_atom_site_fract_y
_atom_site_fract_z
Si Si1 0.693167 0.304758 0.846403
Si Si2 0.802331 0.821356 0.430003
Si Si3 0.000000 0.000000 0.500000
Si Si4 0.849715 0.749540 0.902015
Si Si5 0.427907 0.799469 0.337174
Si Si6 0.667480 0.727929 0.248553
Si Si7 0.584650 0.188466 0.276193
Si Si8 0.210841 0.471744 0.176261
O O1 0.855242 0.539927 0.651565
O O2 0.459076 0.288148 0.809616
O O3 0.633263 0.410589 0.846507
O O4 0.813657 0.014715 0.051362
O O5 0.694541 0.777745 0.388503
O O6 0.569524 0.982519 0.357505
O O7 0.031568 0.034346 0.293369
O O8 0.032949 0.688836 0.685017
O O9 0.213234 0.948290 0.588305
O O10 0.678225 0.915879 0.838440
O O11 0.703108 0.484387 0.058642
O O12 0.101167 0.670287 0.992218
O O13 0.464094 0.774018 0.278064
O O14 0.250067 0.561750 0.531179
O O15 0.330726 0.238775 0.287750
#
# Coordination Sequence:
#
# PCOD9108055 Si02
#       8
#     2   2   1   2   2   2   2   2
#     4  10  20  40  66  96 125 166 218 267 329 382
#     4  11  23  40  63  96 133 171 215 268 321 388
#     4  10  22  38  62  98 128 166 212 258 316 388
#     4  11  24  40  63  95 131 177 221 264 314 395
#     4  10  22  44  66  92 128 172 216 274 330 382
#     4   9  20  42  70  93 124 168 221 274 335 381
#     4  11  23  41  65  95 136 175 213 262 323 386
#     4  11  23  43  66  95 136 173 214 263 324 387
#
# _framework density 27.342887999999999
#
# number of rings (size 3 to 8) (size 9 to 14) (size 15 to 20)
#    0.000    1.600    1.333    3.200    0.000    4.267 
#    2.400   14.667    0.000    0.000    0.000    0.000 
#    0.000    0.000    0.000    0.000    0.000    0.000 
#
# Total GULP energy -83587.289208 kJ/mol
# GULP energy per Si atom -5572.485947 kJ/mol
# Density = 2.728065 g / cm^3
# Si number density = 27.342888 Si / 1000 Ang^3
#
#
#
# Elastic Constant Matrix: (Units=GPa)
#
#
# Indices 1 2 3 4 5 6 
#
# 1 45.2165 35.9258 5.1721 15.2674 14.9856 -0.8598
# 2 35.9258 145.6819 8.1292 1.9884 -1.4841 25.0321
# 3 5.1721 8.1292 187.2614 -1.9933 -40.7481 2.8019
# 4 15.2674 1.9884 -1.9933 27.2655 7.7379 -7.8889
# 5 14.9856 -1.4841 -40.7481 7.7379 25.7636 8.3131
# 6 -0.8598 25.0321 2.8019 -7.8889 8.3131 14.1422
#
#
#
# Elastic Compliance Matrix: (Units=1/GPa)
#
#
# Indices 1 2 3 4 5 6 
#
# 1 0.005797 0.012321 0.011502 -0.040661 0.052717 -0.077404
# 2 0.012321 -0.003235 -0.009314 0.015691 -0.039868 0.040508
# 3 0.011502 -0.009314 0.000389 0.010557 -0.021229 0.035476
# 4 -0.040661 0.015691 0.010557 0.036461 0.042170 -0.036786
# 5 0.052717 -0.039868 -0.021229 0.042170 -0.090257 0.154556
# 6 -0.077404 0.040508 0.035476 -0.036786 0.154556 -0.124096
#
#
# Mechanical properties :
#
#
# Convention : Reuss Voigt Hill
#
# Bulk Modulus (GPa) = 31.28189 52.95711 42.11950
# Shear Modulus (GPa) = -25.86611 35.36312 4.74850
#
# Velocity S-wave (km/s) = -3.07903 3.60018 1.31925
# Velocity P-wave (km/s) = 1.08405 6.05735 4.21405
#
# Compressibility (1/GPa) = 0.03196738
#
# Stress axis : x y z
#
# Youngs Moduli (GPa) = 172.50810 -309.10869 2571.32980
#
# Poissons Ratio (x) = 3.80848 -29.57462
# Poissons Ratio (y) = -2.12545 23.94978
# Poissons Ratio (z) = -1.98413 -2.87909
#
# Static dielectric constant tensor:
#      x y z
#    x 1.894010 0.133740 0.238200 
#    y 0.133740 2.037180 -0.199790 
#    z 0.238200 -0.199790 1.870710 
# 
# From -- ./inp_files/350737.got.cif
#   From: 2010.05.17/outbox.cif.g08.bks.cpg/sg2_176_cif.got.tgz:350737.got - 2010.06.03 11:33:40.
