data_PCOD9108746
_publ_section_title
;
Structure prediction by ZEFSAII (Michael W. Deem and Ramdas Pophale) SiO2 
 PCOD9108746
Probable space group: P -1
;
_chemical_formula_sum "Si O2"
_cell_formula_units_Z 13
_cell_length_a 7.744835
_cell_length_b 7.573104
_cell_length_c 8.347069
_cell_angle_alpha 77.979846
_cell_angle_beta 110.613752
_cell_angle_gamma 92.895921
_cell_volume 448.044915
_symmetry_space_group_name_H-M "P -1"
_symmetry_group_IT_number 2
_symmetry_cell_setting 'triclinic'
loop_
_space_group_symop_operation_xyz
x,y,z
-x,-y,-z
loop_
_atom_site_type_symbol
_atom_site_label
_atom_site_fract_x
_atom_site_fract_y
_atom_site_fract_z
Si Si1 0.300621 0.100121 0.945879
Si Si2 0.179418 0.968039 0.459631
Si Si3 0.778943 0.225379 0.807855
Si Si4 0.701387 0.539646 0.905790
Si Si5 0.000000 0.500000 0.500000
Si Si6 0.682367 0.342748 0.258442
Si Si7 0.343712 0.275082 0.584910
O O1 0.264953 0.193005 0.744252
O O2 0.273069 0.270482 0.028986
O O3 0.500000 0.000000 0.000000
O O4 0.194860 0.933640 0.022304
O O5 0.131242 0.848863 0.312599
O O6 0.321888 0.857983 0.640042
O O7 0.276575 0.156889 0.433621
O O8 0.000000 0.000000 0.500000
O O9 0.836192 0.418334 0.860919
O O10 0.562883 0.246747 0.680127
O O11 0.503331 0.564854 0.748682
O O12 0.659909 0.388830 0.056739
O O13 0.893490 0.393201 0.347677
O O14 0.787475 0.546874 0.495584
#
# Coordination Sequence:
#
# PCOD9108746 Si02
#       7
#     2   2   2   2   1   2   2
#     4  10  20  40  71 100 136 180 228 278 332 413
#     4  12  26  43  67  97 139 183 227 294 346 398
#     4  11  24  44  69 102 135 181 240 279 335 413
#     4  11  21  42  71 103 131 181 235 277 332 419
#     4  12  20  38  70  98 144 174 216 284 346 408
#     4  11  21  41  67  98 135 181 220 273 347 410
#     4  11  21  42  68  98 138 180 223 275 349 409
#
# _framework density 29.014949999999999
#
# number of rings (size 3 to 8) (size 9 to 14) (size 15 to 20)
#    0.000    0.923    4.615    6.000    0.000    0.615 
#    2.769    3.077    0.000    3.692    0.000    0.000 
#    0.000    0.000    0.000    0.000    0.000    0.000 
#
# Total GULP energy -72409.000677 kJ/mol
# GULP energy per Si atom -5569.923129 kJ/mol
# Density = 2.894891 g / cm^3
# Si number density = 29.014950 Si / 1000 Ang^3
#
#
#
# Elastic Constant Matrix: (Units=GPa)
#
#
# Indices 1 2 3 4 5 6 
#
# 1 112.0050 37.3442 22.8968 6.8989 2.8778 -22.7664
# 2 37.3442 183.7006 44.1188 33.3317 -23.8295 -13.9243
# 3 22.8968 44.1188 90.8580 8.1734 -18.7436 4.2270
# 4 6.8989 33.3317 8.1734 45.9949 10.7983 -0.1592
# 5 2.8778 -23.8295 -18.7436 10.7983 52.6826 9.8132
# 6 -22.7664 -13.9243 4.2270 -0.1592 9.8132 37.1206
#
#
#
# Elastic Compliance Matrix: (Units=1/GPa)
#
#
# Indices 1 2 3 4 5 6 
#
# 1 0.011973 -0.001744 -0.003595 0.001195 -0.004512 0.008296
# 2 -0.001744 0.008022 -0.002129 -0.006113 0.004016 0.001094
# 3 -0.003595 -0.002129 0.014655 -0.001957 0.006017 -0.006271
# 4 0.001195 -0.006113 -0.001957 0.028607 -0.009638 0.001333
# 5 -0.004512 0.004016 0.006017 -0.009638 0.026853 -0.009086
# 6 0.008296 0.001094 -0.006271 0.001333 -0.009086 0.035560
#
#
# Mechanical properties :
#
#
# Convention : Reuss Voigt Hill
#
# Bulk Modulus (GPa) = 50.72111 66.14257 58.43184
# Shear Modulus (GPa) = 33.97275 45.97322 39.97298
#
# Velocity S-wave (km/s) = 3.42551 3.98485 3.71572
# Velocity P-wave (km/s) = 5.75886 6.63458 6.21217
#
# Compressibility (1/GPa) = 0.01971566
#
# Stress axis : x y z
#
# Youngs Moduli (GPa) = 83.52014 124.65120 68.23773
#
# Poissons Ratio (x) = 0.21737 0.24530
# Poissons Ratio (y) = 0.14565 0.14525
# Poissons Ratio (z) = 0.30024 0.26534
#
# Static dielectric constant tensor:
#      x y z
#    x 2.252330 0.061900 -0.004620 
#    y 0.061900 2.268210 0.046470 
#    z -0.004620 0.046470 2.363370 
# 
# From -- ./inp_files/155673.got.cif
#   From: 2010.05.17/outbox.cif.g08.bks.cpg/sg2_78_cif.got.tgz:155673.got - 2010.06.03 11:33:40.
