data_PCOD9108331
_publ_section_title
;
Structure prediction by ZEFSAII (Michael W. Deem and Ramdas Pophale) SiO2 
 PCOD9108331
Probable space group: P -1
;
_chemical_formula_sum "Si O2"
_cell_formula_units_Z 12
_cell_length_a 9.002072
_cell_length_b 11.779323
_cell_length_c 8.296508
_cell_angle_alpha 56.679439
_cell_angle_beta 50.714748
_cell_angle_gamma 86.470059
_cell_volume 510.227454
_symmetry_space_group_name_H-M "P -1"
_symmetry_group_IT_number 2
_symmetry_cell_setting 'triclinic'
loop_
_space_group_symop_operation_xyz
x,y,z
-x,-y,-z
loop_
_atom_site_type_symbol
_atom_site_label
_atom_site_fract_x
_atom_site_fract_y
_atom_site_fract_z
Si Si1 0.341248 0.793017 0.666619
Si Si2 0.194206 0.757417 0.148527
Si Si3 0.980872 0.853969 0.723623
Si Si4 0.273935 0.475043 0.983065
Si Si5 0.206359 0.058444 0.928006
Si Si6 0.730501 0.512624 0.633783
O O1 0.225498 0.612299 0.852364
O O2 0.578616 0.855361 0.387113
O O3 0.208037 0.873350 0.618679
O O4 0.339415 0.810602 0.847385
O O5 0.252747 0.641744 0.299350
O O6 0.952151 0.655935 0.328928
O O7 0.208937 0.904505 0.113615
O O8 0.879237 0.696152 0.822469
O O9 0.827777 0.843556 0.986292
O O10 0.000000 0.000000 0.500000
O O11 0.511734 0.510853 0.729863
O O12 0.277272 0.485469 0.167041
O O13 0.000000 0.000000 0.000000
#
# Coordination Sequence:
#
# PCOD9108331 Si02
#       6
#     2   2   2   2   2   2
#     4  11  25  44  70  98 134 183 224 278 334 402
#     4  10  20  40  68 101 131 176 230 273 333 403
#     4  12  28  45  67 101 140 179 223 282 337 397
#     4  10  22  44  68 100 137 174 230 274 337 401
#     4  12  25  44  71 100 134 178 226 276 339 403
#     4   9  20  40  72  98 133 180 221 282 333 397
#
# _framework density 23.518923000000001
#
# number of rings (size 3 to 8) (size 9 to 14) (size 15 to 20)
#    0.000    1.333    1.667    3.000    2.333    2.667 
#    9.000    0.000    0.000    0.000    0.000    0.000 
#    0.000    0.000    0.000    0.000    0.000    0.000 
#
# Total GULP energy -67174.995065 kJ/mol
# GULP energy per Si atom -5597.916255 kJ/mol
# Density = 2.346539 g / cm^3
# Si number density = 23.518923 Si / 1000 Ang^3
#
#
#
# Elastic Constant Matrix: (Units=GPa)
#
#
# Indices 1 2 3 4 5 6 
#
# 1 42.1451 26.9389 25.9096 -1.5241 -0.9491 -22.4633
# 2 26.9389 114.9040 16.8745 -25.9700 4.5020 -20.1882
# 3 25.9096 16.8745 110.8434 7.2293 -13.3932 -17.4265
# 4 -1.5241 -25.9700 7.2293 48.7030 -14.4264 -4.2734
# 5 -0.9491 4.5020 -13.3932 -14.4264 27.5163 -2.5578
# 6 -22.4633 -20.1882 -17.4265 -4.2734 -2.5578 27.3139
#
#
#
# Elastic Compliance Matrix: (Units=1/GPa)
#
#
# Indices 1 2 3 4 5 6 
#
# 1 0.047941 -0.003392 -0.004776 0.005244 0.005909 0.035247
# 2 -0.003392 0.012673 -0.000057 0.008210 0.002839 0.008091
# 3 -0.004776 -0.000057 0.011464 0.000211 0.005900 0.003929
# 4 0.005244 0.008210 0.000211 0.031605 0.017096 0.017061
# 5 0.005909 0.002839 0.005900 0.017096 0.049594 0.018041
# 6 0.035247 0.008091 0.003929 0.017061 0.018041 0.078445
#
#
# Mechanical properties :
#
#
# Convention : Reuss Voigt Hill
#
# Bulk Modulus (GPa) = 17.97672 45.25984 31.61828
# Shear Modulus (GPa) = 18.74668 33.91794 26.33231
#
# Velocity S-wave (km/s) = 2.82634 3.80169 3.34971
# Velocity P-wave (km/s) = 4.27914 6.20937 5.33232
#
# Compressibility (1/GPa) = 0.05562751
#
# Stress axis : x y z
#
# Youngs Moduli (GPa) = 20.85877 78.91097 87.23101
#
# Poissons Ratio (x) = 0.26766 0.41665
# Poissons Ratio (y) = 0.07075 0.00496
# Poissons Ratio (z) = 0.09963 0.00448
#
# Static dielectric constant tensor:
#      x y z
#    x 1.877060 -0.013940 0.012300 
#    y -0.013940 1.894690 -0.010290 
#    z 0.012300 -0.010290 1.899910 
# 
# From -- ./inp_files/183922.got.cif
#   From: 2010.05.17/outbox.cif.g08.bks.cpg/sg2_92_cif.got.tgz:183922.got - 2010.06.03 11:33:40.
