data_PCOD9108888
_publ_section_title
;
Structure prediction by ZEFSAII (Michael W. Deem and Ramdas Pophale) SiO2 
 PCOD9108888
Probable space group: P -1
;
_chemical_formula_sum "Si O2"
_cell_formula_units_Z 12
_cell_length_a 11.126434
_cell_length_b 8.286473
_cell_length_c 9.732686
_cell_angle_alpha 135.347493
_cell_angle_beta 83.396728
_cell_angle_gamma 120.440770
_cell_volume 497.124947
_symmetry_space_group_name_H-M "P -1"
_symmetry_group_IT_number 2
_symmetry_cell_setting 'triclinic'
loop_
_space_group_symop_operation_xyz
x,y,z
-x,-y,-z
loop_
_atom_site_type_symbol
_atom_site_label
_atom_site_fract_x
_atom_site_fract_y
_atom_site_fract_z
Si Si1 0.875066 0.657999 0.002269
Si Si2 0.945258 0.695069 0.602519
Si Si3 0.399589 0.712618 0.626768
Si Si4 0.966387 0.271574 0.692114
Si Si5 0.482929 0.779917 0.251924
Si Si6 0.371511 0.325278 0.609802
O O1 0.922991 0.649614 0.147266
O O2 0.940879 0.515471 0.826040
O O3 0.695163 0.461690 0.890770
O O4 0.952092 0.987458 0.154761
O O5 0.768277 0.523666 0.557110
O O6 0.000000 0.500000 0.500000
O O7 0.965938 0.746905 0.467285
O O8 0.389368 0.602894 0.716395
O O9 0.526066 0.709105 0.528723
O O10 0.439956 0.021316 0.772844
O O11 0.799078 0.971327 0.557101
O O12 0.567337 0.661306 0.238005
O O13 0.500000 0.000000 0.500000
#
# Coordination Sequence:
#
# PCOD9108888 Si02
#       6
#     2   2   2   2   2   2
#     4  11  24  45  76  98 141 197 236 282 372 428
#     4  12  27  45  71 110 147 179 241 308 348 427
#     4  10  21  41  69 101 140 181 237 294 351 412
#     4  11  23  46  75 101 139 193 239 292 360 425
#     4  10  20  42  70  99 139 189 232 287 353 427
#     4  10  20  40  75  96 140 192 224 298 355 412
#
# _framework density 24.138801000000001
#
# number of rings (size 3 to 8) (size 9 to 14) (size 15 to 20)
#    0.000    1.333    5.000    1.500    2.333    0.667 
#    3.000    4.167    0.000    0.000    0.000    0.000 
#    0.000    0.000    0.000    0.000    0.000    0.000 
#
# Total GULP energy -67170.216174 kJ/mol
# GULP energy per Si atom -5597.518015 kJ/mol
# Density = 2.408386 g / cm^3
# Si number density = 24.138801 Si / 1000 Ang^3
#
#
#
# Elastic Constant Matrix: (Units=GPa)
#
#
# Indices 1 2 3 4 5 6 
#
# 1 117.8493 47.7567 75.8136 18.9230 21.3512 -21.1996
# 2 47.7567 122.7392 52.6452 22.4152 6.2771 -25.1715
# 3 75.8136 52.6452 140.8335 33.4090 19.1744 -4.5530
# 4 18.9230 22.4152 33.4090 43.3502 -1.8466 -9.1618
# 5 21.3512 6.2771 19.1744 -1.8466 60.3283 5.4690
# 6 -21.1996 -25.1715 -4.5530 -9.1618 5.4690 63.5454
#
#
#
# Elastic Compliance Matrix: (Units=1/GPa)
#
#
# Indices 1 2 3 4 5 6 
#
# 1 0.014924 -0.001962 -0.006843 0.000494 -0.003256 0.004063
# 2 -0.001962 0.011027 -0.002406 -0.002314 -0.000050 0.003211
# 3 -0.006843 -0.002406 0.013409 -0.006829 -0.001515 -0.003129
# 4 0.000494 -0.002314 -0.006829 0.030035 0.002898 0.002840
# 5 -0.003256 -0.000050 -0.001515 0.002898 0.018520 -0.002391
# 6 0.004063 0.003211 -0.003129 0.002840 -0.002391 0.018755
#
#
# Mechanical properties :
#
#
# Convention : Reuss Voigt Hill
#
# Bulk Modulus (GPa) = 59.04167 81.53922 70.29044
# Shear Modulus (GPa) = 37.10897 47.12524 42.11710
#
# Velocity S-wave (km/s) = 3.92512 4.42323 4.18160
# Velocity P-wave (km/s) = 6.71226 7.74205 7.24547
#
# Compressibility (1/GPa) = 0.01693719
#
# Stress axis : x y z
#
# Youngs Moduli (GPa) = 67.00530 90.68976 74.57898
#
# Poissons Ratio (x) = 0.17796 0.51034
# Poissons Ratio (y) = 0.13148 0.17943
# Poissons Ratio (z) = 0.45851 0.21819
#
# Static dielectric constant tensor:
#      x y z
#    x 1.919810 -0.078530 -0.049570 
#    y -0.078530 1.989130 -0.022220 
#    z -0.049570 -0.022220 1.919260 
# 
# From -- ./inp_files/157441.got.cif
#   From: 2010.05.17/outbox.cif.g08.bks.cpg/sg2_79_cif.got.tgz:157441.got - 2010.06.03 11:33:40.
