data_PCOD9108650
_publ_section_title
;
Structure prediction by ZEFSAII (Michael W. Deem and Ramdas Pophale) SiO2 
 PCOD9108650
Probable space group: P -1
;
_chemical_formula_sum "Si O2"
_cell_formula_units_Z 14
_cell_length_a 14.217202
_cell_length_b 13.768762
_cell_length_c 8.036313
_cell_angle_alpha 72.036273
_cell_angle_beta 126.585250
_cell_angle_gamma 147.426182
_cell_volume 607.875463
_symmetry_space_group_name_H-M "P -1"
_symmetry_group_IT_number 2
_symmetry_cell_setting 'triclinic'
loop_
_space_group_symop_operation_xyz
x,y,z
-x,-y,-z
loop_
_atom_site_type_symbol
_atom_site_label
_atom_site_fract_x
_atom_site_fract_y
_atom_site_fract_z
Si Si1 0.085295 0.504836 0.250553
Si Si2 0.342561 0.824041 0.788028
Si Si3 0.005105 0.884461 0.021601
Si Si4 0.500293 0.460991 0.833289
Si Si5 0.423379 0.081588 0.531788
Si Si6 0.382373 0.142434 0.806784
Si Si7 0.084083 0.263825 0.349746
O O1 0.345363 0.739189 0.429143
O O2 0.087127 0.386901 0.268806
O O3 0.909096 0.383130 0.284549
O O4 0.000000 0.500000 0.000000
O O5 0.351040 0.912910 0.601682
O O6 0.480233 0.820574 0.929097
O O7 0.500000 0.000000 0.000000
O O8 0.762026 0.656397 0.945400
O O9 0.008225 0.865676 0.839063
O O10 0.000000 0.000000 0.000000
O O11 0.216074 0.984504 0.276019
O O12 0.400183 0.273333 0.801081
O O13 0.336428 0.413825 0.582770
O O14 0.500000 0.500000 0.000000
O O15 0.484558 0.189776 0.709413
O O16 0.113197 0.908288 0.631628
#
# Coordination Sequence:
#
# PCOD9108650 Si02
#       7
#     2   2   2   2   2   2   2
#     4  12  21  40  75 101 136 182 224 276 344 399
#     4  10  20  40  70 103 136 176 227 276 336 407
#     4  12  26  45  64  99 140 176 234 282 333 408
#     4  12  26  44  69  97 131 181 229 281 345 401
#     4  11  22  43  70 103 139 179 225 279 337 405
#     4  11  21  43  71  98 136 176 224 279 342 399
#     4  12  24  43  69 100 135 179 226 280 343 404
#
# _framework density 23.031033000000001
#
# number of rings (size 3 to 8) (size 9 to 14) (size 15 to 20)
#    0.000    0.571    5.714    5.143    0.000    0.000 
#    0.000    5.000    0.000    0.000    0.000    0.000 
#    0.000    0.000    0.000    0.000    0.000    0.000 
#
# Total GULP energy -78393.675503 kJ/mol
# GULP energy per Si atom -5599.548250 kJ/mol
# Density = 2.297861 g / cm^3
# Si number density = 23.031033 Si / 1000 Ang^3
#
#
#
# Elastic Constant Matrix: (Units=GPa)
#
#
# Indices 1 2 3 4 5 6 
#
# 1 75.7718 4.5583 18.3324 8.2100 -6.3663 -19.5065
# 2 4.5583 116.0891 25.4554 35.7664 12.5304 1.9131
# 3 18.3324 25.4554 144.5625 11.0467 25.4125 -11.2438
# 4 8.2100 35.7664 11.0467 21.5415 16.1356 26.3069
# 5 -6.3663 12.5304 25.4125 16.1356 40.7949 0.1999
# 6 -19.5065 1.9131 -11.2438 26.3069 0.1999 45.8536
#
#
#
# Elastic Compliance Matrix: (Units=1/GPa)
#
#
# Indices 1 2 3 4 5 6 
#
# 1 0.008846 -0.006202 -0.001659 0.022220 -0.004425 -0.009113
# 2 -0.006202 0.004687 -0.000886 0.018004 -0.008911 -0.013341
# 3 -0.001659 -0.000886 0.008380 -0.001355 -0.004682 0.002184
# 4 0.022220 0.018004 -0.001355 -0.072504 0.027215 0.049847
# 5 -0.004425 -0.008911 -0.004682 0.027215 0.018802 -0.018354
# 6 -0.009113 -0.013341 0.002184 0.049847 -0.018354 -0.009494
#
#
# Mechanical properties :
#
#
# Convention : Reuss Voigt Hill
#
# Bulk Modulus (GPa) = 226.17817 48.12395 137.15106
# Shear Modulus (GPa) = -224.03014 40.84316 -91.59349
#
# Velocity S-wave (km/s) = -9.87342 4.21574 -6.31316
# Velocity P-wave (km/s) = 5.61784 6.68111 2.55707
#
# Compressibility (1/GPa) = 0.00442129
#
# Stress axis : x y z
#
# Youngs Moduli (GPa) = 113.04004 213.37190 119.33007
#
# Poissons Ratio (x) = 1.32325 0.19792
# Poissons Ratio (y) = 0.70103 0.10569
# Poissons Ratio (z) = 0.18749 0.18898
#
# Static dielectric constant tensor:
#      x y z
#    x 2.755150 0.321050 -0.156470 
#    y 0.321050 1.984970 -0.040720 
#    z -0.156470 -0.040720 1.890190 
# 
# From -- ./inp_files/314712.got.cif
#   From: 2010.05.17/outbox.cif.g08.bks.cpg/sg2_158_cif.got.tgz:314712.got - 2010.06.03 11:33:40.
