data_PCOD9108870
_publ_section_title
;
Structure prediction by ZEFSAII (Michael W. Deem and Ramdas Pophale) SiO2 
 PCOD9108870
Probable space group: P -1
;
_chemical_formula_sum "Si O2"
_cell_formula_units_Z 14
_cell_length_a 9.663460
_cell_length_b 10.017694
_cell_length_c 7.564462
_cell_angle_alpha 117.064307
_cell_angle_beta 60.111939
_cell_angle_gamma 88.959312
_cell_volume 536.172731
_symmetry_space_group_name_H-M "P -1"
_symmetry_group_IT_number 2
_symmetry_cell_setting 'triclinic'
loop_
_space_group_symop_operation_xyz
x,y,z
-x,-y,-z
loop_
_atom_site_type_symbol
_atom_site_label
_atom_site_fract_x
_atom_site_fract_y
_atom_site_fract_z
Si Si1 0.805420 0.701945 0.568125
Si Si2 0.535133 0.237357 0.341249
Si Si3 0.042195 0.847500 0.660798
Si Si4 0.123569 0.150671 0.850986
Si Si5 0.000000 0.500000 0.000000
Si Si6 0.727702 0.493769 0.768419
Si Si7 0.376968 0.562620 0.847241
Si Si8 0.500000 0.000000 0.500000
O O1 0.611715 0.791306 0.701621
O O2 0.911762 0.819884 0.586624
O O3 0.815033 0.608620 0.691257
O O4 0.881000 0.570132 0.294902
O O5 0.452481 0.404677 0.591909
O O6 0.665907 0.281144 0.151908
O O7 0.584632 0.100013 0.368660
O O8 0.197917 0.683760 0.459510
O O9 0.945680 0.861244 0.916051
O O10 0.099646 0.998035 0.677612
O O11 0.021890 0.317685 0.936607
O O12 0.319248 0.140917 0.700796
O O13 0.533887 0.568865 0.875076
O O14 0.752354 0.473389 0.952927
#
# Coordination Sequence:
#
# PCOD9108870 Si02
#       8
#     2   2   2   2   1   2   2   1
#     4  11  24  40  75 110 147 199 253 302 374 455
#     4  10  22  43  68 105 147 199 245 309 369 447
#     4  11  25  47  71 110 149 201 247 310 378 451
#     4  11  27  49  79 106 152 199 248 313 378 445
#     4  12  24  48  74 112 142 202 250 302 370 458
#     4  10  20  40  74 108 145 197 249 315 368 450
#     4   9  21  40  70 107 147 192 256 304 370 441
#     4  12  24  46  76 108 146 196 244 312 384 442
#
# _framework density 26.110987999999999
#
# number of rings (size 3 to 8) (size 9 to 14) (size 15 to 20)
#    0.000    1.429    2.857    1.286    4.000    0.571 
#    2.571    2.143    0.000    0.000    0.000    0.000 
#    0.000    0.000    0.000    0.000    0.000    0.000 
#
# Total GULP energy -77943.881652 kJ/mol
# GULP energy per Si atom -5567.420118 kJ/mol
# Density = 2.605156 g / cm^3
# Si number density = 26.110988 Si / 1000 Ang^3
#
#
#
# Elastic Constant Matrix: (Units=GPa)
#
#
# Indices 1 2 3 4 5 6 
#
# 1 50.9086 34.6685 3.9185 -2.0487 -6.7710 -8.6629
# 2 34.6685 192.7283 40.0457 -6.9302 8.2072 -9.2375
# 3 3.9185 40.0457 83.8171 -16.9240 1.9567 0.3320
# 4 -2.0487 -6.9302 -16.9240 50.0678 3.2133 5.6080
# 5 -6.7710 8.2072 1.9567 3.2133 28.9370 -5.4815
# 6 -8.6629 -9.2375 0.3320 5.6080 -5.4815 8.8498
#
#
#
# Elastic Compliance Matrix: (Units=1/GPa)
#
#
# Indices 1 2 3 4 5 6 
#
# 1 0.031631 -0.004479 -0.000948 -0.005224 0.016914 0.040110
# 2 -0.004479 0.006791 -0.003040 -0.000278 -0.002459 0.001472
# 3 -0.000948 -0.003040 0.014716 0.005842 -0.002930 -0.010169
# 4 -0.005224 -0.000278 0.005842 0.025411 -0.009603 -0.027673
# 5 0.016914 -0.002459 -0.002930 -0.009603 0.050190 0.051272
# 6 0.040110 0.001472 -0.010169 -0.027673 0.051272 0.203472
#
#
# Mechanical properties :
#
#
# Convention : Reuss Voigt Hill
#
# Bulk Modulus (GPa) = 27.62003 53.85768 40.73886
# Shear Modulus (GPa) = 13.84232 34.15901 24.00067
#
# Velocity S-wave (km/s) = 2.30496 3.62086 3.03509
# Velocity P-wave (km/s) = 4.20532 6.17674 5.28378
#
# Compressibility (1/GPa) = 0.03620561
#
# Stress axis : x y z
#
# Youngs Moduli (GPa) = 31.61492 147.25072 67.95521
#
# Poissons Ratio (x) = 0.65947 0.06439
# Poissons Ratio (y) = 0.14159 0.20657
# Poissons Ratio (z) = 0.02996 0.44761
#
# Static dielectric constant tensor:
#      x y z
#    x 2.270310 -0.033320 0.116090 
#    y -0.033320 1.977340 -0.091190 
#    z 0.116090 -0.091190 2.043640 
# 
# From -- ./inp_files/245285.got.cif
#   From: 2010.05.17/outbox.cif.g08.bks.cpg/sg2_123_cif.got.tgz:245285.got - 2010.06.03 11:33:40.
