data_PCOD9108653
_publ_section_title
;
Structure prediction by ZEFSAII (Michael W. Deem and Ramdas Pophale) SiO2 
 PCOD9108653
Probable space group: P -1
;
_chemical_formula_sum "Si O2"
_cell_formula_units_Z 16
_cell_length_a 10.017795
_cell_length_b 17.431812
_cell_length_c 16.274619
_cell_angle_alpha 153.126500
_cell_angle_beta 36.496445
_cell_angle_gamma 125.628155
_cell_volume 661.494148
_symmetry_space_group_name_H-M "P -1"
_symmetry_group_IT_number 2
_symmetry_cell_setting 'triclinic'
loop_
_space_group_symop_operation_xyz
x,y,z
-x,-y,-z
loop_
_atom_site_type_symbol
_atom_site_label
_atom_site_fract_x
_atom_site_fract_y
_atom_site_fract_z
Si Si1 0.576799 0.751813 0.302470
Si Si2 0.811137 0.671885 0.695435
Si Si3 0.032523 0.911735 0.515610
Si Si4 0.988521 0.124994 0.334177
Si Si5 0.634333 0.365949 0.180580
Si Si6 0.579197 0.868463 0.161958
Si Si7 0.827827 0.414821 0.972337
Si Si8 0.009637 0.725976 0.943523
O O1 0.316294 0.791216 0.427170
O O2 0.769713 0.784205 0.180830
O O3 0.489938 0.912394 0.571006
O O4 0.701836 0.534368 0.066872
O O5 0.000000 0.500000 0.500000
O O6 0.943591 0.767932 0.667347
O O7 0.642042 0.621680 0.667733
O O8 0.615913 0.827272 0.007744
O O9 0.943567 0.844923 0.578244
O O10 0.336083 0.849657 0.296374
O O11 0.998141 0.809982 0.355321
O O12 0.857637 0.144117 0.835740
O O13 0.085631 0.894944 0.049805
O O14 0.621909 0.468307 0.197882
O O15 0.749985 0.418738 0.253196
O O16 0.851617 0.725617 0.939367
O O17 0.000000 0.500000 0.000000
#
# Coordination Sequence:
#
# PCOD9108653 Si02
#       8
#     2   2   2   2   2   2   2   2
#     4  11  20  38  67 102 134 164 219 286 328 386
#     4  12  28  45  64  95 140 183 224 269 326 411
#     4  11  22  40  73 102 125 179 226 278 331 390
#     4  10  22  42  66  95 133 178 224 263 333 400
#     4  11  23  43  69  96 142 171 222 275 337 389
#     4  11  21  43  74  96 130 178 221 277 334 393
#     4  12  23  34  62 108 137 159 216 287 340 374
#     4  10  20  40  70 104 129 166 223 289 331 380
#
# _framework density 24.187664999999999
#
# number of rings (size 3 to 8) (size 9 to 14) (size 15 to 20)
#    0.000    1.000    6.250    1.875    1.750    5.500 
#    0.000    0.625    2.750    0.000    0.000    0.000 
#    0.000    0.000    0.000    0.000    0.000    0.000 
#
# Total GULP energy -89219.128794 kJ/mol
# GULP energy per Si atom -5576.195550 kJ/mol
# Density = 2.413261 g / cm^3
# Si number density = 24.187665 Si / 1000 Ang^3
#
#
#
# Elastic Constant Matrix: (Units=GPa)
#
#
# Indices 1 2 3 4 5 6 
#
# 1 106.9909 13.1091 3.7127 -15.4553 6.3685 1.0389
# 2 13.1091 141.4735 8.2936 -27.3231 1.1431 -13.7700
# 3 3.7127 8.2936 50.6762 -17.0078 -1.5577 -1.1741
# 4 -15.4553 -27.3231 -17.0078 25.9003 4.4953 -1.1116
# 5 6.3685 1.1431 -1.5577 4.4953 21.8280 -8.2282
# 6 1.0389 -13.7700 -1.1741 -1.1116 -8.2282 40.8169
#
#
#
# Elastic Compliance Matrix: (Units=1/GPa)
#
#
# Indices 1 2 3 4 5 6 
#
# 1 0.010881 0.000657 0.002082 0.009440 -0.005310 -0.000809
# 2 0.000657 0.009662 0.002692 0.012825 -0.001908 0.003285
# 3 0.002082 0.002692 0.026486 0.022026 -0.002769 0.001659
# 4 0.009440 0.012825 0.022026 0.075164 -0.015998 0.003542
# 5 -0.005310 -0.001908 -0.002769 -0.015998 0.054299 0.009922
# 6 -0.000809 0.003285 0.001659 0.003542 0.009922 0.027773
#
#
# Mechanical properties :
#
#
# Convention : Reuss Voigt Hill
#
# Bulk Modulus (GPa) = 17.27399 38.81902 28.04651
# Shear Modulus (GPa) = 23.50731 35.97740 29.74236
#
# Velocity S-wave (km/s) = 3.12087 3.86090 3.51044
# Velocity P-wave (km/s) = 4.48816 5.99661 5.29636
#
# Compressibility (1/GPa) = 0.05789050
#
# Stress axis : x y z
#
# Youngs Moduli (GPa) = 91.90004 103.50105 37.75622
#
# Poissons Ratio (x) = -0.06801 -0.07859
# Poissons Ratio (y) = -0.06038 -0.10165
# Poissons Ratio (z) = -0.19129 -0.27865
#
# Static dielectric constant tensor:
#      x y z
#    x 1.970320 0.022540 -0.008360 
#    y 0.022540 1.892840 0.048000 
#    z -0.008360 0.048000 1.993330 
# 
# From -- ./inp_files/260018.got.cif
#   From: 2010.05.17/outbox.cif.g08.bks.cpg/sg2_131_cif.got.tgz:260018.got - 2010.06.03 11:33:40.
