data_PCOD9108225
_publ_section_title
;
Structure prediction by ZEFSAII (Michael W. Deem and Ramdas Pophale) SiO2 
 PCOD9108225
Probable space group: P -1
;
_chemical_formula_sum "Si O2"
_cell_formula_units_Z 16
_cell_length_a 14.681441
_cell_length_b 8.611529
_cell_length_c 7.938966
_cell_angle_alpha 52.170963
_cell_angle_beta 69.148378
_cell_angle_gamma 85.535389
_cell_volume 727.321591
_symmetry_space_group_name_H-M "P -1"
_symmetry_group_IT_number 2
_symmetry_cell_setting 'triclinic'
loop_
_space_group_symop_operation_xyz
x,y,z
-x,-y,-z
loop_
_atom_site_type_symbol
_atom_site_label
_atom_site_fract_x
_atom_site_fract_y
_atom_site_fract_z
Si Si1 0.066234 0.081614 0.561922
Si Si2 0.068414 0.718287 0.283583
Si Si3 0.630714 0.921605 0.323773
Si Si4 0.604144 0.641752 0.817417
Si Si5 0.748225 0.044133 0.818279
Si Si6 0.802893 0.212407 0.189732
Si Si7 0.562125 0.034742 0.762811
Si Si8 0.213430 0.372555 0.086021
O O1 0.125038 0.296957 0.322946
O O2 0.001553 0.119243 0.740022
O O3 0.145363 0.940547 0.637820
O O4 0.000000 0.000000 0.500000
O O5 0.000000 0.500000 0.500000
O O6 0.156712 0.786859 0.315548
O O7 0.126480 0.745107 0.050601
O O8 0.635418 0.719052 0.557993
O O9 0.514377 0.901913 0.364175
O O10 0.692069 0.098030 0.285083
O O11 0.689542 0.970090 0.078865
O O12 0.689637 0.557001 0.910624
O O13 0.586460 0.833009 0.805671
O O14 0.500000 0.500000 0.000000
O O15 0.775800 0.833162 0.877691
O O16 0.672357 0.135308 0.686419
O O17 0.803258 0.428543 0.128528
O O18 0.500000 0.000000 0.000000
#
# Coordination Sequence:
#
# PCOD9108225 Si02
#       8
#     2   2   2   2   2   2   2   2
#     4  12  24  44  66  94 135 167 218 273 321 381
#     4  11  22  42  68  97 127 177 217 267 321 377
#     4  10  20  40  67  93 129 174 211 263 326 379
#     4  11  22  39  64  93 131 165 218 267 311 387
#     4   9  21  40  65  94 137 166 216 270 315 390
#     4  11  24  42  68  96 130 172 220 263 324 385
#     4   9  19  38  63  92 127 168 206 260 325 378
#     4  11  22  43  64  96 133 170 217 267 323 382
#
# _framework density 21.998522000000001
#
# number of rings (size 3 to 8) (size 9 to 14) (size 15 to 20)
#    0.000    1.500    3.750    1.500    0.000    0.500 
#    0.000    8.125    0.000    0.000    0.000    0.000 
#    0.000    0.000    0.000    0.000    0.000    0.000 
#
# Total GULP energy -89183.707823 kJ/mol
# GULP energy per Si atom -5573.981739 kJ/mol
# Density = 2.194845 g / cm^3
# Si number density = 21.998522 Si / 1000 Ang^3
#
#
#
# Elastic Constant Matrix: (Units=GPa)
#
#
# Indices 1 2 3 4 5 6 
#
# 1 132.5700 41.7964 41.0205 -21.0717 -13.4407 13.1105
# 2 41.7964 65.0335 28.5809 -2.0849 3.3590 -1.3446
# 3 41.0205 28.5809 103.4172 -13.0681 -12.7916 11.5100
# 4 -21.0717 -2.0849 -13.0681 27.7862 -3.7528 -3.0043
# 5 -13.4407 3.3590 -12.7916 -3.7528 42.2855 -4.1808
# 6 13.1105 -1.3446 11.5100 -3.0043 -4.1808 30.1313
#
#
#
# Elastic Compliance Matrix: (Units=1/GPa)
#
#
# Indices 1 2 3 4 5 6 
#
# 1 0.012469 -0.007773 -0.000655 0.008778 0.004768 -0.003985
# 2 -0.007773 0.022959 -0.005451 -0.007022 -0.006078 0.004946
# 3 -0.000655 -0.005451 0.013074 0.005408 0.004282 -0.003819
# 4 0.008778 -0.007022 0.005408 0.045839 0.009015 -0.000377
# 5 0.004768 -0.006078 0.004282 0.009015 0.027819 0.000777
# 6 -0.003985 0.004946 -0.003819 -0.000377 0.000777 0.036672
#
#
# Mechanical properties :
#
#
# Convention : Reuss Voigt Hill
#
# Bulk Modulus (GPa) = 48.20903 58.20179 53.20541
# Shear Modulus (GPa) = 25.83880 32.68214 29.26047
#
# Velocity S-wave (km/s) = 3.43092 3.85860 3.65102
# Velocity P-wave (km/s) = 6.13654 6.80928 6.48164
#
# Compressibility (1/GPa) = 0.02074300
#
# Stress axis : x y z
#
# Youngs Moduli (GPa) = 80.19645 43.55532 76.48664
#
# Poissons Ratio (x) = 0.33856 0.05012
# Poissons Ratio (y) = 0.62338 0.41696
# Poissons Ratio (z) = 0.05255 0.23744
#
# Static dielectric constant tensor:
#      x y z
#    x 1.906160 0.017380 -0.004310 
#    y 0.017380 1.830660 0.034060 
#    z -0.004310 0.034060 1.805440 
# 
# From -- ./inp_files/297249.got.cif
#   From: 2010.05.17/outbox.cif.g08.bks.cpg/sg2_149_cif.got.tgz:297249.got - 2010.06.03 11:33:40.
