data_PCOD9108177
_publ_section_title
;
Structure prediction by ZEFSAII (Michael W. Deem and Ramdas Pophale) SiO2 
 PCOD9108177
Probable space group: P -1
;
_chemical_formula_sum "Si O2"
_cell_formula_units_Z 14
_cell_length_a 7.250706
_cell_length_b 16.189779
_cell_length_c 14.100716
_cell_angle_alpha 27.828642
_cell_angle_beta 131.150810
_cell_angle_gamma 133.788464
_cell_volume 552.585042
_symmetry_space_group_name_H-M "P -1"
_symmetry_group_IT_number 2
_symmetry_cell_setting 'triclinic'
loop_
_space_group_symop_operation_xyz
x,y,z
-x,-y,-z
loop_
_atom_site_type_symbol
_atom_site_label
_atom_site_fract_x
_atom_site_fract_y
_atom_site_fract_z
Si Si1 0.040755 0.614420 0.517375
Si Si2 0.095811 0.785454 0.087775
Si Si3 0.491629 0.320473 0.774934
Si Si4 0.916457 0.773326 0.822512
Si Si5 0.709146 0.055576 0.390376
Si Si6 0.983862 0.405024 0.252414
Si Si7 0.746420 0.982866 0.840945
O O1 0.047900 0.407501 0.708389
O O2 0.747328 0.617508 0.404149
O O3 0.111395 0.634586 0.631970
O O4 0.217977 0.803309 0.338205
O O5 0.374469 0.765712 0.176468
O O6 0.984609 0.785983 0.943217
O O7 0.019416 0.950023 0.944846
O O8 0.712653 0.486631 0.734837
O O9 0.395259 0.162853 0.981010
O O10 0.151217 0.903872 0.706261
O O11 0.695430 0.857455 0.631146
O O12 0.876768 0.556494 0.009559
O O13 0.427618 0.065284 0.263571
O O14 0.891034 0.216129 0.354779
#
# Coordination Sequence:
#
# PCOD9108177 Si02
#       7
#     2   2   2   2   2   2   2
#     4  10  23  43  64  94 129 164 211 264 309 366
#     4  10  22  43  64  94 125 167 213 252 318 371
#     4  10  22  46  66  88 131 167 212 261 303 376
#     4   9  20  38  61  90 125 163 204 250 311 373
#     4  11  21  38  65  95 125 163 208 255 315 377
#     4  10  20  40  67  90 122 169 208 253 313 371
#     4  12  24  40  66  98 128 162 209 262 315 373
#
# _framework density 25.335464999999999
#
# number of rings (size 3 to 8) (size 9 to 14) (size 15 to 20)
#    0.000    2.000    2.857    3.429    0.000    4.571 
#    2.571   10.714    0.000    0.857    0.000    0.000 
#    0.000    0.000    0.000    0.000    0.000    0.000 
#
# Total GULP energy -78263.306402 kJ/mol
# GULP energy per Si atom -5590.236172 kJ/mol
# Density = 2.527780 g / cm^3
# Si number density = 25.335465 Si / 1000 Ang^3
#
#
#
# Elastic Constant Matrix: (Units=GPa)
#
#
# Indices 1 2 3 4 5 6 
#
# 1 53.5450 14.6844 26.0569 -8.6319 0.0518 3.2574
# 2 14.6844 123.4224 43.8172 -4.8289 8.3762 4.3770
# 3 26.0569 43.8172 196.9230 7.9284 -7.2851 1.6223
# 4 -8.6319 -4.8289 7.9284 29.6495 0.4977 4.7421
# 5 0.0518 8.3762 -7.2851 0.4977 25.6735 -3.5589
# 6 3.2574 4.3770 1.6223 4.7421 -3.5589 26.8899
#
#
#
# Elastic Compliance Matrix: (Units=1/GPa)
#
#
# Indices 1 2 3 4 5 6 
#
# 1 0.021874 -0.001024 -0.002988 0.007631 -0.001234 -0.003812
# 2 -0.001024 0.009442 -0.002187 0.002246 -0.004049 -0.002213
# 3 -0.002988 -0.002187 0.006176 -0.003124 0.002707 0.001254
# 4 0.007631 0.002246 -0.003124 0.038548 -0.003542 -0.008368
# 5 -0.001234 -0.004049 0.002707 -0.003542 0.042059 0.006836
# 6 -0.003812 -0.002213 0.001254 -0.008368 0.006836 0.040316
#
#
# Mechanical properties :
#
#
# Convention : Reuss Voigt Hill
#
# Bulk Modulus (GPa) = 39.85256 60.33416 50.09336
# Shear Modulus (GPa) = 27.90532 35.73135 31.81834
#
# Velocity S-wave (km/s) = 3.32239 3.75951 3.54769
# Velocity P-wave (km/s) = 5.52103 6.53537 6.04950
#
# Compressibility (1/GPa) = 0.02509249
#
# Stress axis : x y z
#
# Youngs Moduli (GPa) = 45.71630 105.91115 161.92321
#
# Poissons Ratio (x) = 0.10848 0.48382
# Poissons Ratio (y) = 0.04682 0.35419
# Poissons Ratio (z) = 0.13660 0.23167
#
# Static dielectric constant tensor:
#      x y z
#    x 2.047280 0.026330 0.018800 
#    y 0.026330 1.979330 -0.002750 
#    z 0.018800 -0.002750 1.983770 
# 
# From -- ./inp_files/562892.got.cif
#   From: 2010.05.17/outbox.cif.g08.bks.cpg/sg2_282_cif.got.tgz:562892.got - 2010.06.03 11:33:40.
