data_PCOD9108319
_publ_section_title
;
Structure prediction by ZEFSAII (Michael W. Deem and Ramdas Pophale) SiO2 
 PCOD9108319
Probable space group: P -1
;
_chemical_formula_sum "Si O2"
_cell_formula_units_Z 16
_cell_length_a 18.707768
_cell_length_b 15.143469
_cell_length_c 8.867317
_cell_angle_alpha 150.342019
_cell_angle_beta 37.402844
_cell_angle_gamma 140.059504
_cell_volume 730.249472
_symmetry_space_group_name_H-M "P -1"
_symmetry_group_IT_number 2
_symmetry_cell_setting 'triclinic'
loop_
_space_group_symop_operation_xyz
x,y,z
-x,-y,-z
loop_
_atom_site_type_symbol
_atom_site_label
_atom_site_fract_x
_atom_site_fract_y
_atom_site_fract_z
Si Si1 0.780028 0.507557 0.846084
Si Si2 0.858162 0.613726 0.208754
Si Si3 0.475809 0.711362 0.675258
Si Si4 0.730122 0.880976 0.993002
Si Si5 0.486890 0.701352 0.990543
Si Si6 0.782833 0.252465 0.958695
Si Si7 0.123438 0.756657 0.883578
Si Si8 0.268244 0.128225 0.665892
O O1 0.880713 0.418057 0.475529
O O2 0.790630 0.549274 0.068059
O O3 0.652503 0.354384 0.805471
O O4 0.779272 0.697614 0.048403
O O5 0.781534 0.715509 0.593886
O O6 0.872155 0.430353 0.996892
O O7 0.987562 0.748330 0.151742
O O8 0.490134 0.767908 0.910885
O O9 0.479326 0.496841 0.352357
O O10 0.591735 0.822524 0.552150
O O11 0.351271 0.734636 0.848481
O O12 0.588814 0.840693 0.122070
O O13 0.739753 0.892681 0.173197
O O14 0.811141 0.062436 0.048290
O O15 0.800024 0.060714 0.581048
O O16 0.800736 0.257873 0.114766
#
# Coordination Sequence:
#
# PCOD9108319 Si02
#       8
#     2   2   2   2   2   2   2   2
#     4  11  24  45  70 100 136 174 224 278 338 394
#     4  12  24  49  71  94 136 179 227 280 330 390
#     4  10  20  40  67  99 135 177 213 272 342 397
#     4  12  25  44  68 102 137 175 228 272 335 396
#     4  10  20  40  71  99 134 173 215 277 343 396
#     4  12  23  44  68  99 135 177 226 271 336 393
#     4  12  28  44  69 100 133 183 228 273 328 399
#     4  11  26  40  68 104 138 175 218 276 336 406
#
# _framework density 21.910321
#
# number of rings (size 3 to 8) (size 9 to 14) (size 15 to 20)
#    0.000    0.750    2.500    6.000    1.750    1.500 
#    0.000    1.875    0.000    0.000    0.000    0.000 
#    0.000    0.000    0.000    0.000    0.000    0.000 
#
# Total GULP energy -89595.637979 kJ/mol
# GULP energy per Si atom -5599.727374 kJ/mol
# Density = 2.186045 g / cm^3
# Si number density = 21.910321 Si / 1000 Ang^3
#
#
#
# Elastic Constant Matrix: (Units=GPa)
#
#
# Indices 1 2 3 4 5 6 
#
# 1 75.3961 60.1886 16.1792 -1.8317 24.0903 -14.9690
# 2 60.1886 128.1215 25.1370 22.7687 5.6028 -33.5242
# 3 16.1792 25.1370 53.9262 3.2366 15.7019 1.9876
# 4 -1.8317 22.7687 3.2366 20.5786 1.2939 6.4992
# 5 24.0903 5.6028 15.7019 1.2939 26.2520 -9.0477
# 6 -14.9690 -33.5242 1.9876 6.4992 -9.0477 29.6040
#
#
#
# Elastic Compliance Matrix: (Units=1/GPa)
#
#
# Indices 1 2 3 4 5 6 
#
# 1 -0.013998 0.036828 -0.024600 -0.060897 0.044498 0.063247
# 2 0.036828 -0.040455 0.025169 0.068405 -0.065629 -0.063955
# 3 -0.024600 0.025169 0.008042 -0.043336 0.025884 0.032948
# 4 -0.060897 0.068405 -0.043336 -0.062056 0.102882 0.094648
# 5 0.044498 -0.065629 0.025884 0.102882 -0.039713 -0.088281
# 6 0.063247 -0.063955 0.032948 0.094648 -0.088281 -0.056636
#
#
# Mechanical properties :
#
#
# Convention : Reuss Voigt Hill
#
# Bulk Modulus (GPa) = 35.23183 51.16150 43.19667
# Shear Modulus (GPa) = -18.50830 25.68286 3.58728
#
# Velocity S-wave (km/s) = -2.90958 3.42743 1.28094
# Velocity P-wave (km/s) = 2.19714 6.25013 4.68463
#
# Compressibility (1/GPa) = 0.02838342
#
# Stress axis : x y z
#
# Youngs Moduli (GPa) = -71.44027 -24.71900 124.34691
#
# Poissons Ratio (x) = 0.91034 3.05894
# Poissons Ratio (y) = 2.63098 -3.12972
# Poissons Ratio (z) = -1.75743 0.62216
#
# Static dielectric constant tensor:
#      x y z
#    x 1.758870 0.028910 -0.018230 
#    y 0.028910 1.791350 0.014320 
#    z -0.018230 0.014320 1.796070 
# 
# From -- ./inp_files/271331.got.cif
#   From: 2010.05.17/outbox.cif.g08.bks.cpg/sg2_136_cif.got.tgz:271331.got - 2010.06.03 11:33:40.
