data_PCOD9108944
_publ_section_title
;
Structure prediction by ZEFSAII (Michael W. Deem and Ramdas Pophale) SiO2 
 PCOD9108944
Probable space group: P -1
;
_chemical_formula_sum "Si O2"
_cell_formula_units_Z 14
_cell_length_a 7.327060
_cell_length_b 21.612348
_cell_length_c 10.204608
_cell_angle_alpha 137.163973
_cell_angle_beta 60.701982
_cell_angle_gamma 139.172040
_cell_volume 710.465777
_symmetry_space_group_name_H-M "P -1"
_symmetry_group_IT_number 2
_symmetry_cell_setting 'triclinic'
loop_
_space_group_symop_operation_xyz
x,y,z
-x,-y,-z
loop_
_atom_site_type_symbol
_atom_site_label
_atom_site_fract_x
_atom_site_fract_y
_atom_site_fract_z
Si Si1 0.584608 0.452186 0.711879
Si Si2 0.832722 0.058949 0.326106
Si Si3 0.103528 0.445629 0.963582
Si Si4 0.966232 0.281721 0.125493
Si Si5 0.551881 0.793553 0.678507
Si Si6 0.779092 0.186766 0.772407
Si Si7 0.723664 0.126859 0.198973
O O1 0.322804 0.444175 0.808453
O O2 0.487259 0.325439 0.501515
O O3 0.811787 0.571721 0.728446
O O4 0.733891 0.480994 0.845469
O O5 0.869970 0.139484 0.559231
O O6 0.790378 0.101354 0.272390
O O7 0.119740 0.087083 0.248109
O O8 0.547441 0.922875 0.249159
O O9 0.845442 0.305763 0.879163
O O10 0.000000 0.500000 0.000000
O O11 0.648791 0.230254 0.170891
O O12 0.980363 0.221689 0.154911
O O13 0.966365 0.231551 0.908309
O O14 0.415199 0.813586 0.640770
O O15 0.500000 0.000000 0.000000
#
# Coordination Sequence:
#
# PCOD9108944 Si02
#       7
#     2   2   2   2   2   2   2
#     4  10  20  41  60  89 125 162 204 257 301 361
#     4  11  21  41  64  86 127 161 206 257 301 366
#     4  10  22  39  62  89 126 161 204 256 309 357
#     4   9  21  40  62  89 125 162 203 249 308 362
#     4  10  22  38  65  89 124 167 198 253 309 361
#     4  10  21  39  63  90 121 162 205 255 302 361
#     4  10  22  40  62  91 125 161 206 249 303 372
#
# _framework density 19.705383000000001
#
# number of rings (size 3 to 8) (size 9 to 14) (size 15 to 20)
#    0.857    1.143    2.857    0.429    2.000    2.286 
#    7.714    3.571    0.000    0.000    0.000    0.000 
#    0.000    0.000    0.000    0.000    0.000    0.000 
#
# Total GULP energy -78015.829482 kJ/mol
# GULP energy per Si atom -5572.559249 kJ/mol
# Density = 1.966053 g / cm^3
# Si number density = 19.705383 Si / 1000 Ang^3
#
#
#
# Elastic Constant Matrix: (Units=GPa)
#
#
# Indices 1 2 3 4 5 6 
#
# 1 89.2336 44.0472 8.7031 -2.6074 -5.5069 -17.2609
# 2 44.0472 127.8141 16.7712 9.0030 -1.0641 -14.3786
# 3 8.7031 16.7712 51.3696 -1.7234 -6.1642 -3.0639
# 4 -2.6074 9.0030 -1.7234 26.8571 -3.7124 1.4716
# 5 -5.5069 -1.0641 -6.1642 -3.7124 12.4222 4.4902
# 6 -17.2609 -14.3786 -3.0639 1.4716 4.4902 22.0406
#
#
#
# Elastic Compliance Matrix: (Units=1/GPa)
#
#
# Indices 1 2 3 4 5 6 
#
# 1 0.015381 -0.004604 0.000023 0.003233 0.004545 0.007903
# 2 -0.004604 0.010675 -0.003335 -0.005312 -0.005984 0.004468
# 3 0.000023 -0.003335 0.022109 0.004406 0.012724 -0.001971
# 4 0.003233 -0.005312 0.004406 0.042529 0.018369 -0.006902
# 5 0.004545 -0.005984 0.012724 0.018369 0.101187 -0.020416
# 6 0.007903 0.004468 -0.001971 -0.006902 -0.020416 0.058821
#
#
# Mechanical properties :
#
#
# Convention : Reuss Voigt Hill
#
# Bulk Modulus (GPa) = 30.92951 45.27336 38.10143
# Shear Modulus (GPa) = 18.03020 25.52368 21.77694
#
# Velocity S-wave (km/s) = 3.02816 3.60288 3.32795
# Velocity P-wave (km/s) = 5.28738 6.35080 5.84333
#
# Compressibility (1/GPa) = 0.03233158
#
# Stress axis : x y z
#
# Youngs Moduli (GPa) = 65.01618 93.67497 45.23067
#
# Poissons Ratio (x) = 0.43131 -0.00102
# Poissons Ratio (y) = 0.29936 0.15084
# Poissons Ratio (z) = -0.00147 0.31240
#
# Static dielectric constant tensor:
#      x y z
#    x 1.693660 -0.007460 0.020280 
#    y -0.007460 1.719470 -0.003770 
#    z 0.020280 -0.003770 1.710750 
# 
# From -- ./inp_files/370106.got.cif
#   From: 2010.05.17/outbox.cif.g08.bks.cpg/sg2_186_cif.got.tgz:370106.got - 2010.06.03 11:33:40.
