data_PCOD9108828
_publ_section_title
;
Structure prediction by ZEFSAII (Michael W. Deem and Ramdas Pophale) SiO2 
 PCOD9108828
Probable space group: P -1
;
_chemical_formula_sum "Si O2"
_cell_formula_units_Z 16
_cell_length_a 13.622437
_cell_length_b 10.490168
_cell_length_c 9.013109
_cell_angle_alpha 140.459263
_cell_angle_beta 59.958244
_cell_angle_gamma 133.719082
_cell_volume 591.154940
_symmetry_space_group_name_H-M "P -1"
_symmetry_group_IT_number 2
_symmetry_cell_setting 'triclinic'
loop_
_space_group_symop_operation_xyz
x,y,z
-x,-y,-z
loop_
_atom_site_type_symbol
_atom_site_label
_atom_site_fract_x
_atom_site_fract_y
_atom_site_fract_z
Si Si1 0.859902 0.254395 0.403092
Si Si2 0.722759 0.345020 0.333716
Si Si3 0.332247 0.301768 0.591790
Si Si4 0.395662 0.954710 0.402712
Si Si5 0.375205 0.441487 0.159241
Si Si6 0.129469 0.185464 0.896708
Si Si7 0.891269 0.898449 0.624456
Si Si8 0.458145 0.167110 0.051510
O O1 0.788810 0.240597 0.291861
O O2 0.891610 0.061853 0.254634
O O3 0.000000 0.500000 0.500000
O O4 0.755595 0.224016 0.580926
O O5 0.631472 0.116028 0.087673
O O6 0.834991 0.615928 0.438946
O O7 0.634292 0.390906 0.558790
O O8 0.382649 0.165483 0.531135
O O9 0.246170 0.135243 0.367953
O O10 0.443212 0.577485 0.708768
O O11 0.223031 0.296167 0.779246
O O12 0.500000 0.000000 0.500000
O O13 0.437540 0.841394 0.145524
O O14 0.236890 0.351505 0.092465
O O15 0.500000 0.500000 0.000000
O O16 0.374018 0.241388 0.079359
O O17 0.975441 0.081747 0.861242
O O18 0.000000 0.000000 0.500000
#
# Coordination Sequence:
#
# PCOD9108828 Si02
#       8
#     2   2   2   2   2   2   2   2
#     4  11  21  38  64 105 140 179 226 302 365 425
#     4  12  25  41  72 111 142 190 237 302 370 427
#     4  10  23  42  70 101 139 197 235 287 355 436
#     4  11  22  40  73 104 142 185 236 303 378 423
#     4  12  24  40  71 115 148 173 236 308 377 427
#     4  10  20  40  72  96 142 187 225 297 363 418
#     4  10  24  49  72  94 146 203 247 285 351 440
#     4  12  23  39  70 108 144 177 240 302 360 425
#
# _framework density 27.065660999999999
#
# number of rings (size 3 to 8) (size 9 to 14) (size 15 to 20)
#    0.000    1.000    5.000    2.250    1.750    1.000 
#    0.000    3.750    2.750    3.750    0.000    0.000 
#    0.000    0.000    0.000    0.000    0.000    0.000 
#
# Total GULP energy -89215.429839 kJ/mol
# GULP energy per Si atom -5575.964365 kJ/mol
# Density = 2.700406 g / cm^3
# Si number density = 27.065661 Si / 1000 Ang^3
#
#
#
# Elastic Constant Matrix: (Units=GPa)
#
#
# Indices 1 2 3 4 5 6 
#
# 1 139.8060 45.4313 50.7517 19.1967 9.3494 5.3522
# 2 45.4313 143.4192 53.7990 20.1143 -2.2820 -11.5103
# 3 50.7517 53.7990 136.1063 10.8191 0.8843 22.4715
# 4 19.1967 20.1143 10.8191 46.9734 -3.1486 10.0047
# 5 9.3494 -2.2820 0.8843 -3.1486 43.7414 20.2499
# 6 5.3522 -11.5103 22.4715 10.0047 20.2499 50.4057
#
#
#
# Elastic Compliance Matrix: (Units=1/GPa)
#
#
# Indices 1 2 3 4 5 6 
#
# 1 0.009211 -0.001245 -0.002992 -0.003164 -0.003102 0.001946
# 2 -0.001245 0.009936 -0.004095 -0.004215 -0.002187 0.005942
# 3 -0.002992 -0.004095 0.011128 0.002290 0.003880 -0.007592
# 4 -0.003164 -0.004215 0.002290 0.026354 0.006746 -0.009589
# 5 -0.003102 -0.002187 0.003880 0.006746 0.031102 -0.015734
# 6 0.001946 0.005942 -0.007592 -0.009589 -0.015734 0.032598
#
#
# Mechanical properties :
#
#
# Convention : Reuss Voigt Hill
#
# Bulk Modulus (GPa) = 73.47086 79.92170 76.69628
# Shear Modulus (GPa) = 35.32844 46.18075 40.75460
#
# Velocity S-wave (km/s) = 3.61679 4.13516 3.88463
# Velocity P-wave (km/s) = 6.68176 7.23825 6.96557
#
# Compressibility (1/GPa) = 0.01361084
#
# Stress axis : x y z
#
# Youngs Moduli (GPa) = 108.56698 100.64135 89.86513
#
# Poissons Ratio (x) = 0.12527 0.26889
# Poissons Ratio (y) = 0.13514 0.36801
# Poissons Ratio (z) = 0.32485 0.41214
#
# Static dielectric constant tensor:
#      x y z
#    x 2.087300 -0.103880 0.065700 
#    y -0.103880 2.125000 0.013240 
#    z 0.065700 0.013240 2.385260 
# 
# From -- ./inp_files/449162.got.cif
#   From: 2010.05.17/outbox.cif.g08.bks.cpg/sg2_225_cif.got.tgz:449162.got - 2010.06.03 11:33:40.
