data_PCOD9108993
_publ_section_title
;
Structure prediction by ZEFSAII (Michael W. Deem and Ramdas Pophale) SiO2 
 PCOD9108993
Probable space group: P -1
;
_chemical_formula_sum "Si O2"
_cell_formula_units_Z 14
_cell_length_a 12.528064
_cell_length_b 21.335182
_cell_length_c 9.335740
_cell_angle_alpha 145.486741
_cell_angle_beta 143.308691
_cell_angle_gamma 29.648002
_cell_volume 665.854518
_symmetry_space_group_name_H-M "P -1"
_symmetry_group_IT_number 2
_symmetry_cell_setting 'triclinic'
loop_
_space_group_symop_operation_xyz
x,y,z
-x,-y,-z
loop_
_atom_site_type_symbol
_atom_site_label
_atom_site_fract_x
_atom_site_fract_y
_atom_site_fract_z
Si Si1 0.926166 0.206763 0.507670
Si Si2 0.889167 0.557850 0.145502
Si Si3 0.581002 0.363282 0.180837
Si Si4 0.932543 0.100902 0.899007
Si Si5 0.715189 0.506738 0.380390
Si Si6 0.749007 0.855634 0.498479
Si Si7 0.209073 0.718579 0.177412
O O1 0.700688 0.311625 0.366877
O O2 0.894872 0.250890 0.720690
O O3 0.129777 0.189388 0.610946
O O4 0.987007 0.053507 0.281861
O O5 0.771192 0.723523 0.331637
O O6 0.089257 0.486564 0.343224
O O7 0.687149 0.548893 0.935557
O O8 0.000000 0.500000 0.000000
O O9 0.659721 0.443183 0.332290
O O10 0.691869 0.220857 0.940062
O O11 0.913474 0.145297 0.798000
O O12 0.101601 0.119867 0.197011
O O13 0.474321 0.650202 0.350143
O O14 0.791795 0.397225 0.127513
O O15 0.500000 0.000000 0.500000
#
# Coordination Sequence:
#
# PCOD9108993 Si02
#       7
#     2   2   2   2   2   2   2
#     4  11  20  36  68  93 117 164 212 253 310 369
#     4  12  23  37  66  97 122 158 215 263 302 364
#     4  10  21  39  66  89 120 160 207 258 309 355
#     4  10  20  41  61  89 123 166 201 250 318 371
#     4  10  22  43  61  88 128 169 198 254 315 366
#     4  11  22  40  63  91 128 158 209 267 309 360
#     4  10  21  38  63  85 130 166 199 250 313 375
#
# _framework density 21.025611999999999
#
# number of rings (size 3 to 8) (size 9 to 14) (size 15 to 20)
#    0.000    1.429    4.286    4.714    2.000    1.143 
#    0.000    7.143   12.571    0.000    0.000    0.000 
#    0.000    0.000    0.000    0.000    0.000    0.000 
#
# Total GULP energy -78336.298977 kJ/mol
# GULP energy per Si atom -5595.449927 kJ/mol
# Density = 2.097776 g / cm^3
# Si number density = 21.025612 Si / 1000 Ang^3
#
#
#
# Elastic Constant Matrix: (Units=GPa)
#
#
# Indices 1 2 3 4 5 6 
#
# 1 105.1011 24.6301 46.7769 -18.5982 -18.4112 -4.3892
# 2 24.6301 77.5085 31.2951 -17.7285 3.2858 -4.2381
# 3 46.7769 31.2951 68.8249 -12.2717 -13.3598 -9.9797
# 4 -18.5982 -17.7285 -12.2717 38.4085 5.3247 9.0298
# 5 -18.4112 3.2858 -13.3598 5.3247 37.5783 -4.0771
# 6 -4.3892 -4.2381 -9.9797 9.0298 -4.0771 40.1304
#
#
#
# Elastic Compliance Matrix: (Units=1/GPa)
#
#
# Indices 1 2 3 4 5 6 
#
# 1 0.014700 -0.000551 -0.008512 0.003907 0.003553 -0.001085
# 2 -0.000551 0.018036 -0.008096 0.006839 -0.005945 -0.002312
# 3 -0.008512 -0.008096 0.025767 -0.001882 0.006585 0.005714
# 4 0.003907 0.006839 -0.001882 0.032838 -0.004786 -0.007194
# 5 0.003553 -0.005945 0.006585 -0.004786 0.032518 0.005779
# 6 -0.001085 -0.002312 0.005714 -0.007194 0.005779 0.028183
#
#
# Mechanical properties :
#
#
# Convention : Reuss Voigt Hill
#
# Bulk Modulus (GPa) = 41.34703 50.75985 46.05344
# Shear Modulus (GPa) = 25.71724 33.13896 29.42810
#
# Velocity S-wave (km/s) = 3.50113 3.97435 3.74522
# Velocity P-wave (km/s) = 6.00431 6.72718 6.37599
#
# Compressibility (1/GPa) = 0.02418554
#
# Stress axis : x y z
#
# Youngs Moduli (GPa) = 68.02497 55.44522 38.80896
#
# Poissons Ratio (x) = 0.03055 0.33033
# Poissons Ratio (y) = 0.03749 0.31421
# Poissons Ratio (z) = 0.57900 0.44890
#
# Static dielectric constant tensor:
#      x y z
#    x 1.773880 -0.004620 -0.002910 
#    y -0.004620 1.770280 0.015920 
#    z -0.002910 0.015920 1.756390 
# 
# From -- ./inp_files/205165.got.cif
#   From: 2010.05.17/outbox.cif.g08.bks.cpg/sg2_103_cif.got.tgz:205165.got - 2010.06.03 11:33:40.
