data_PCOD9108835
_publ_section_title
;
Structure prediction by ZEFSAII (Michael W. Deem and Ramdas Pophale) SiO2 
 PCOD9108835
Probable space group: P -1
;
_chemical_formula_sum "Si O2"
_cell_formula_units_Z 14
_cell_length_a 20.655730
_cell_length_b 14.169237
_cell_length_c 13.216025
_cell_angle_alpha 148.150917
_cell_angle_beta 156.268187
_cell_angle_gamma 21.395097
_cell_volume 567.769833
_symmetry_space_group_name_H-M "P -1"
_symmetry_group_IT_number 2
_symmetry_cell_setting 'triclinic'
loop_
_space_group_symop_operation_xyz
x,y,z
-x,-y,-z
loop_
_atom_site_type_symbol
_atom_site_label
_atom_site_fract_x
_atom_site_fract_y
_atom_site_fract_z
Si Si1 0.275049 0.772658 0.884374
Si Si2 0.474888 0.865941 0.927804
Si Si3 0.775114 0.854412 0.962117
Si Si4 0.755543 0.458775 0.551644
Si Si5 0.879110 0.922755 0.536183
Si Si6 0.993988 0.448254 0.326818
Si Si7 0.234580 0.928942 0.269449
O O1 0.180727 0.728218 0.615979
O O2 0.076899 0.913107 0.812269
O O3 0.337116 0.916726 0.065846
O O4 0.500000 0.500000 0.000000
O O5 0.355178 0.027371 0.007823
O O6 0.293784 0.888310 0.629833
O O7 0.732546 0.584706 0.058008
O O8 0.500000 0.000000 0.000000
O O9 0.041577 0.709336 0.226668
O O10 0.766804 0.662319 0.731996
O O11 0.482889 0.637252 0.341639
O O12 0.002371 0.625911 0.436010
O O13 0.745627 0.019664 0.539179
O O14 0.000000 0.500000 0.500000
O O15 0.185986 0.138303 0.317161
O O16 0.000000 0.000000 0.000000
#
# Coordination Sequence:
#
# PCOD9108835 Si02
#       7
#     2   2   2   2   2   2   2
#     4  12  27  44  71 102 144 188 237 290 354 425
#     4  10  20  40  72  99 128 181 239 281 343 429
#     4  11  25  46  75 100 145 191 230 295 364 418
#     4  11  25  47  71 103 142 185 239 290 363 422
#     4  10  22  43  63  99 133 181 242 275 347 428
#     4   9  20  37  67  90 129 179 223 280 347 401
#     4  11  24  43  67 101 141 182 236 296 353 414
#
# _framework density 24.657879000000001
#
# number of rings (size 3 to 8) (size 9 to 14) (size 15 to 20)
#    0.000    1.429    1.429    3.857    8.000    0.571 
#    2.571    1.429    0.000    0.000    0.000    0.000 
#    0.000    0.000    0.000    0.000    0.000    0.000 
#
# Total GULP energy -78213.605038 kJ/mol
# GULP energy per Si atom -5586.686074 kJ/mol
# Density = 2.460176 g / cm^3
# Si number density = 24.657879 Si / 1000 Ang^3
#
#
#
# Elastic Constant Matrix: (Units=GPa)
#
#
# Indices 1 2 3 4 5 6 
#
# 1 78.7672 31.6357 4.0519 1.1372 14.2746 0.1114
# 2 31.6357 79.3662 3.7385 -11.9508 -1.0927 12.6286
# 3 4.0519 3.7385 83.1600 -16.9244 7.8515 1.3690
# 4 1.1372 -11.9508 -16.9244 51.8423 -8.2868 7.7623
# 5 14.2746 -1.0927 7.8515 -8.2868 27.8433 -0.6780
# 6 0.1114 12.6286 1.3690 7.7623 -0.6780 36.0358
#
#
#
# Elastic Compliance Matrix: (Units=1/GPa)
#
#
# Indices 1 2 3 4 5 6 
#
# 1 0.018301 -0.008784 -0.000531 -0.004934 -0.010951 0.003899
# 2 -0.008784 0.018453 0.000471 0.006881 0.006953 -0.007809
# 3 -0.000531 0.000471 0.013138 0.004306 -0.002172 -0.001631
# 4 -0.004934 0.006881 0.004306 0.024964 0.008826 -0.007771
# 5 -0.010951 0.006953 -0.002172 0.008826 0.044960 -0.003375
# 6 0.003899 -0.007809 -0.001631 -0.007771 -0.003375 0.032147
#
#
# Mechanical properties :
#
#
# Convention : Reuss Voigt Hill
#
# Bulk Modulus (GPa) = 31.05200 35.57174 33.31187
# Shear Modulus (GPa) = 27.71824 36.60210 32.16017
#
# Velocity S-wave (km/s) = 3.35642 3.85697 3.61537
# Velocity P-wave (km/s) = 5.25749 5.85597 5.56478
#
# Compressibility (1/GPa) = 0.03220405
#
# Stress axis : x y z
#
# Youngs Moduli (GPa) = 54.64097 54.19061 76.11487
#
# Poissons Ratio (x) = 0.47601 0.04043
# Poissons Ratio (y) = 0.47997 -0.03585
# Poissons Ratio (z) = 0.02903 -0.02552
#
# Static dielectric constant tensor:
#      x y z
#    x 2.121350 -0.108370 0.060580 
#    y -0.108370 2.015000 -0.021700 
#    z 0.060580 -0.021700 2.081490 
# 
# From -- ./inp_files/401976.got.cif
#   From: 2010.05.17/outbox.cif.g08.bks.cpg/sg2_201_cif.got.tgz:401976.got - 2010.06.03 11:33:40.
