data_PCOD9108346
_publ_section_title
;
Structure prediction by ZEFSAII (Michael W. Deem and Ramdas Pophale) SiO2 
 PCOD9108346
Probable space group: P -1
;
_chemical_formula_sum "Si O2"
_cell_formula_units_Z 16
_cell_length_a 13.475453
_cell_length_b 10.699502
_cell_length_c 8.882324
_cell_angle_alpha 83.162899
_cell_angle_beta 94.881326
_cell_angle_gamma 145.681780
_cell_volume 716.686332
_symmetry_space_group_name_H-M "P -1"
_symmetry_group_IT_number 2
_symmetry_cell_setting 'triclinic'
loop_
_space_group_symop_operation_xyz
x,y,z
-x,-y,-z
loop_
_atom_site_type_symbol
_atom_site_label
_atom_site_fract_x
_atom_site_fract_y
_atom_site_fract_z
Si Si1 0.184795 0.696581 0.816152
Si Si2 0.236392 0.767795 0.154332
Si Si3 0.727418 0.460399 0.658861
Si Si4 0.377348 0.169874 0.262602
Si Si5 0.103459 0.890537 0.774066
Si Si6 0.402854 0.275916 0.580665
Si Si7 0.758359 0.500474 0.298387
Si Si8 0.074026 0.949483 0.087227
O O1 0.180120 0.835238 0.739077
O O2 0.263234 0.667726 0.730012
O O3 0.976452 0.448317 0.835529
O O4 0.273538 0.788164 0.979014
O O5 0.293291 0.703549 0.262862
O O6 0.315291 0.973711 0.210636
O O7 0.549547 0.351568 0.680310
O O8 0.762896 0.506580 0.478329
O O9 0.902065 0.694669 0.727942
O O10 0.346686 0.142945 0.441561
O O11 0.586215 0.396361 0.236228
O O12 0.256822 0.149454 0.171822
O O13 0.232626 0.125193 0.681171
O O14 0.107999 0.898217 0.953047
O O15 0.500000 0.500000 0.500000
O O16 0.930403 0.737666 0.208976
O O17 0.000000 0.000000 0.000000
#
# Coordination Sequence:
#
# PCOD9108346 Si02
#       8
#     2   2   2   2   2   2   2   2
#     4  10  20  40  68 102 142 168 221 277 338 407
#     4  10  20  41  66 100 141 171 224 273 340 403
#     4  10  25  42  70 102 135 180 223 274 341 403
#     4  11  25  45  69 102 136 177 223 282 336 397
#     4  11  25  44  72 100 131 183 223 278 342 394
#     4  11  28  47  67  97 141 176 234 278 326 403
#     4  11  24  42  68 101 139 177 220 279 338 397
#     4  12  27  46  69  97 135 181 232 274 334 401
#
# _framework density 22.324968999999999
#
# number of rings (size 3 to 8) (size 9 to 14) (size 15 to 20)
#    0.000    1.250    2.500    2.250    8.750    5.500 
#    0.000    0.000    0.000    0.000    0.000    0.000 
#    0.000    0.000    0.000    0.000    0.000    0.000 
#
# Total GULP energy -89506.077794 kJ/mol
# GULP energy per Si atom -5594.129862 kJ/mol
# Density = 2.227416 g / cm^3
# Si number density = 22.324969 Si / 1000 Ang^3
#
#
#
# Elastic Constant Matrix: (Units=GPa)
#
#
# Indices 1 2 3 4 5 6 
#
# 1 48.4444 -16.2010 -21.1974 27.7327 21.9278 11.5638
# 2 -16.2010 35.5336 -2.2735 31.6029 -1.0109 3.8487
# 3 -21.1974 -2.2735 31.7725 43.8064 4.7185 8.3433
# 4 27.7327 31.6029 43.8064 15.2266 7.4952 11.8773
# 5 21.9278 -1.0109 4.7185 7.4952 44.0176 3.7111
# 6 11.5638 3.8487 8.3433 11.8773 3.7111 33.2953
#
#
#
# Elastic Compliance Matrix: (Units=1/GPa)
#
#
# Indices 1 2 3 4 5 6 
#
# 1 0.013753 -0.005283 -0.006347 0.013051 -0.007980 -0.006342
# 2 -0.005283 0.018326 -0.013012 0.007500 0.003175 -0.000052
# 3 -0.006347 -0.013012 0.009952 0.012485 -0.000057 -0.003233
# 4 0.013051 0.007500 0.012485 -0.000130 -0.006996 -0.007702
# 5 -0.007980 0.003175 -0.000057 -0.006996 0.027811 0.001815
# 6 -0.006342 -0.000052 -0.003233 -0.007702 0.001815 0.035598
#
#
# Mechanical properties :
#
#
# Convention : Reuss Voigt Hill
#
# Bulk Modulus (GPa) = -137.85996 4.04519 -66.90738
# Shear Modulus (GPa) = 32.85665 28.86941 30.86303
#
# Velocity S-wave (km/s) = 3.84049 3.59993 3.72216
# Velocity P-wave (km/s) = 6.49767 4.36981 3.40032
#
# Compressibility (1/GPa) = -0.00725374
#
# Stress axis : x y z
#
# Youngs Moduli (GPa) = 72.71301 54.56642 100.48239
#
# Poissons Ratio (x) = 0.28829 0.63773
# Poissons Ratio (y) = 0.38416 1.30752
# Poissons Ratio (z) = 0.46149 0.71004
#
# Static dielectric constant tensor:
#      x y z
#    x 1.881590 -0.024160 0.013110 
#    y -0.024160 1.830290 -0.012820 
#    z 0.013110 -0.012820 1.777870 
# 
# From -- ./inp_files/283010.got.cif
#   From: 2010.05.17/outbox.cif.g08.bks.cpg/sg2_142_cif.got.tgz:283010.got - 2010.06.03 11:33:40.
