data_PCOD9108645
_publ_section_title
;
Structure prediction by ZEFSAII (Michael W. Deem and Ramdas Pophale) SiO2 
 PCOD9108645
Probable space group: P -1
;
_chemical_formula_sum "Si O2"
_cell_formula_units_Z 14
_cell_length_a 22.116306
_cell_length_b 12.085019
_cell_length_c 14.991879
_cell_angle_alpha 146.775694
_cell_angle_beta 18.896552
_cell_angle_gamma 155.295251
_cell_volume 534.490247
_symmetry_space_group_name_H-M "P -1"
_symmetry_group_IT_number 2
_symmetry_cell_setting 'triclinic'
loop_
_space_group_symop_operation_xyz
x,y,z
-x,-y,-z
loop_
_atom_site_type_symbol
_atom_site_label
_atom_site_fract_x
_atom_site_fract_y
_atom_site_fract_z
Si Si1 0.153849 0.557536 0.735984
Si Si2 0.676343 0.904663 0.175953
Si Si3 0.118843 0.703196 0.218442
Si Si4 0.658896 0.540550 0.199125
Si Si5 0.830407 0.957865 0.380424
Si Si6 0.613304 0.248784 0.900465
Si Si7 0.587670 0.341178 0.796057
O O1 0.439041 0.680953 0.418695
O O2 0.981680 0.297568 0.737854
O O3 0.194125 0.790547 0.778528
O O4 0.000000 0.500000 0.000000
O O5 0.575558 0.886947 0.205018
O O6 0.894301 0.899108 0.874561
O O7 0.876966 0.522789 0.494549
O O8 0.245040 0.574239 0.949864
O O9 0.338634 0.994053 0.147286
O O10 0.775210 0.829758 0.270605
O O11 0.363341 0.317367 0.477101
O O12 0.718815 0.491588 0.984755
O O13 0.768697 0.151102 0.606966
O O14 0.555732 0.276099 0.899426
O O15 0.500000 0.500000 0.000000
#
# Coordination Sequence:
#
# PCOD9108645 Si02
#       7
#     2   2   2   2   2   2   2
#     4  10  20  40  70 102 144 189 239 293 362 438
#     4  10  22  43  69 102 146 187 234 309 362 415
#     4  10  21  44  69 102 144 186 241 297 361 430
#     4  10  22  43  75 107 146 192 242 298 361 431
#     4  10  21  45  76 108 148 187 244 303 359 430
#     4  11  25  47  77 103 143 201 238 295 369 431
#     4  11  27  46  68 103 146 188 243 305 361 432
#
# _framework density 26.193180999999999
#
# number of rings (size 3 to 8) (size 9 to 14) (size 15 to 20)
#    0.000    1.714    1.429    2.571    4.000    1.143 
#    5.143    5.000    0.000    0.000    0.000    0.000 
#    0.000    0.000    0.000    0.000    0.000    0.000 
#
# Total GULP energy -78264.961023 kJ/mol
# GULP energy per Si atom -5590.354359 kJ/mol
# Density = 2.613356 g / cm^3
# Si number density = 26.193181 Si / 1000 Ang^3
#
#
#
# Elastic Constant Matrix: (Units=GPa)
#
#
# Indices 1 2 3 4 5 6 
#
# 1 152.9326 53.6403 69.3760 -0.9365 14.4500 29.9839
# 2 53.6403 75.0890 49.6885 5.4192 8.0054 27.1264
# 3 69.3760 49.6885 175.7200 -20.3122 -9.4539 9.2847
# 4 -0.9365 5.4192 -20.3122 47.0883 5.6926 0.6080
# 5 14.4500 8.0054 -9.4539 5.6926 43.3397 5.6198
# 6 29.9839 27.1264 9.2847 0.6080 5.6198 44.8884
#
#
#
# Elastic Compliance Matrix: (Units=1/GPa)
#
#
# Indices 1 2 3 4 5 6 
#
# 1 0.010138 -0.003666 -0.002960 -0.000263 -0.002849 -0.003584
# 2 -0.003666 0.023941 -0.005444 -0.004751 -0.002398 -0.010528
# 3 -0.002960 -0.005444 0.008864 0.003988 0.003013 0.003003
# 4 -0.000263 -0.004751 0.003988 0.023658 -0.001544 0.002094
# 5 -0.002849 -0.002398 0.003013 -0.001544 0.025382 -0.000427
# 6 -0.003584 -0.010528 0.003003 0.002094 -0.000427 0.030438
#
#
# Mechanical properties :
#
#
# Convention : Reuss Voigt Hill
#
# Bulk Modulus (GPa) = 53.18720 83.23902 68.21311
# Shear Modulus (GPa) = 32.71654 42.46573 37.59114
#
# Velocity S-wave (km/s) = 3.53802 4.03084 3.79245
# Velocity P-wave (km/s) = 6.08605 7.31515 6.72872
#
# Compressibility (1/GPa) = 0.01880152
#
# Stress axis : x y z
#
# Youngs Moduli (GPa) = 98.64194 41.76954 112.82128
#
# Poissons Ratio (x) = 0.15311 0.33398
# Poissons Ratio (y) = 0.36158 0.61425
# Poissons Ratio (z) = 0.29200 0.22741
#
# Static dielectric constant tensor:
#      x y z
#    x 2.236250 0.211060 0.067810 
#    y 0.211060 2.305150 0.036810 
#    z 0.067810 0.036810 2.129940 
# 
# From -- ./inp_files/541127.got.cif
#   From: 2010.05.17/outbox.cif.g08.bks.cpg/sg2_271_cif.got.tgz:541127.got - 2010.06.03 11:33:40.
