data_PCOD9108135
_publ_section_title
;
Structure prediction by ZEFSAII (Michael W. Deem and Ramdas Pophale) SiO2 
 PCOD9108135
Probable space group: P -1
;
_chemical_formula_sum "Si O2"
_cell_formula_units_Z 16
_cell_length_a 6.978605
_cell_length_b 24.682212
_cell_length_c 15.177816
_cell_angle_alpha 16.818131
_cell_angle_beta 108.421861
_cell_angle_gamma 113.474769
_cell_volume 672.486488
_symmetry_space_group_name_H-M "P -1"
_symmetry_group_IT_number 2
_symmetry_cell_setting 'triclinic'
loop_
_space_group_symop_operation_xyz
x,y,z
-x,-y,-z
loop_
_atom_site_type_symbol
_atom_site_label
_atom_site_fract_x
_atom_site_fract_y
_atom_site_fract_z
Si Si1 0.732510 0.834531 0.280139
Si Si2 0.339990 0.837061 0.822924
Si Si3 0.750837 0.378219 0.671669
Si Si4 0.100816 0.335537 0.050779
Si Si5 0.095626 0.438376 0.196875
Si Si6 0.541294 0.044239 0.802691
Si Si7 0.570254 0.570492 0.208878
Si Si8 0.507448 0.755710 0.689166
O O1 0.911433 0.786686 0.439094
O O2 0.629945 0.627707 0.534425
O O3 0.569622 0.868053 0.274993
O O4 0.736216 0.997471 0.952864
O O5 0.123888 0.832246 0.749367
O O6 0.460671 0.046975 0.557644
O O7 0.269685 0.680672 0.137587
O O8 0.496735 0.760364 0.907263
O O9 0.643037 0.528321 0.381931
O O10 0.000000 0.500000 0.500000
O O11 0.632452 0.167801 0.928756
O O12 0.259526 0.270461 0.239450
O O13 0.242876 0.407211 0.870980
O O14 0.014398 0.491199 0.846374
O O15 0.345946 0.569423 0.007504
O O16 0.000000 0.500000 0.000000
O O17 0.581709 0.199584 0.486510
#
# Coordination Sequence:
#
# PCOD9108135 Si02
#       8
#     2   2   2   2   2   2   2   2
#     4  10  20  45  68  95 129 175 229 272 332 397
#     4  11  23  42  67 102 137 177 227 272 341 404
#     4  10  20  40  67 102 137 177 220 272 342 403
#     4  12  23  41  69  97 131 181 226 274 336 400
#     4  12  27  44  69 100 135 182 230 273 341 407
#     4   9  22  40  73  95 133 177 219 283 339 386
#     4  11  22  40  69  95 135 180 218 284 327 397
#     4  11  25  45  65 102 138 176 221 287 333 396
#
# _framework density 23.792300999999998
#
# number of rings (size 3 to 8) (size 9 to 14) (size 15 to 20)
#    0.000    1.250    3.750    1.500    1.750    4.000 
#    2.250    0.625    2.750    0.000    0.000    0.000 
#    0.000    0.000    0.000    0.000    0.000    0.000 
#
# Total GULP energy -89342.909040 kJ/mol
# GULP energy per Si atom -5583.931815 kJ/mol
# Density = 2.373815 g / cm^3
# Si number density = 23.792301 Si / 1000 Ang^3
#
#
#
# Elastic Constant Matrix: (Units=GPa)
#
#
# Indices 1 2 3 4 5 6 
#
# 1 91.2609 29.7083 57.8031 18.5841 12.2884 -14.2564
# 2 29.7083 67.4724 31.5930 32.0194 12.6649 -2.6697
# 3 57.8031 31.5930 114.5819 45.9656 17.5887 -12.6900
# 4 18.5841 32.0194 45.9656 59.4593 2.3623 6.2184
# 5 12.2884 12.6649 17.5887 2.3623 50.0896 5.9128
# 6 -14.2564 -2.6697 -12.6900 6.2184 5.9128 36.9939
#
#
#
# Elastic Compliance Matrix: (Units=1/GPa)
#
#
# Indices 1 2 3 4 5 6 
#
# 1 0.017985 -0.005387 -0.008630 0.003654 -0.000553 0.003056
# 2 -0.005387 0.023292 0.002823 -0.013210 -0.005367 0.003652
# 3 -0.008630 0.002823 0.019851 -0.014682 -0.005709 0.007068
# 4 0.003654 -0.013210 -0.014682 0.035067 0.007320 -0.011646
# 5 -0.000553 -0.005367 -0.005709 0.007320 0.024017 -0.007628
# 6 0.003056 0.003652 0.007068 -0.011646 -0.007628 0.034074
#
#
# Mechanical properties :
#
#
# Convention : Reuss Voigt Hill
#
# Bulk Modulus (GPa) = 25.81267 56.83602 41.32434
# Shear Modulus (GPa) = 26.37297 39.58928 32.98112
#
# Velocity S-wave (km/s) = 3.33298 4.08358 3.72722
# Velocity P-wave (km/s) = 5.06797 6.79518 5.99412
#
# Compressibility (1/GPa) = 0.03874067
#
# Stress axis : x y z
#
# Youngs Moduli (GPa) = 55.60116 42.93348 50.37428
#
# Poissons Ratio (x) = 0.23129 0.43473
# Poissons Ratio (y) = 0.29954 -0.14222
# Poissons Ratio (z) = 0.47984 -0.12121
#
# Static dielectric constant tensor:
#      x y z
#    x 1.935080 0.080900 0.017400 
#    y 0.080900 1.964260 0.063870 
#    z 0.017400 0.063870 1.919100 
# 
# From -- ./inp_files/72366.got.cif
#   From: 2010.05.17/outbox.cif.g08.bks.cpg/sg2_37_cif.got.tgz:72366.got - 2010.06.03 11:33:40.
