data_PCOD9108672
_publ_section_title
;
Structure prediction by ZEFSAII (Michael W. Deem and Ramdas Pophale) SiO2 
 PCOD9108672
Probable space group: P -1
;
_chemical_formula_sum "Si O2"
_cell_formula_units_Z 16
_cell_length_a 15.025246
_cell_length_b 9.271163
_cell_length_c 9.560942
_cell_angle_alpha 136.852797
_cell_angle_beta 73.979840
_cell_angle_gamma 89.966452
_cell_volume 833.113005
_symmetry_space_group_name_H-M "P -1"
_symmetry_group_IT_number 2
_symmetry_cell_setting 'triclinic'
loop_
_space_group_symop_operation_xyz
x,y,z
-x,-y,-z
loop_
_atom_site_type_symbol
_atom_site_label
_atom_site_fract_x
_atom_site_fract_y
_atom_site_fract_z
Si Si1 0.543153 0.414499 0.269154
Si Si2 0.117810 0.918353 0.747992
Si Si3 0.410505 0.222597 0.684087
Si Si4 0.272078 0.975612 0.174578
Si Si5 0.273418 0.946932 0.483190
Si Si6 0.626308 0.549334 0.841104
Si Si7 0.788983 0.569521 0.592541
Si Si8 0.084183 0.149732 0.213230
O O1 0.500000 0.500000 0.500000
O O2 0.573724 0.612339 0.323089
O O3 0.458509 0.373003 0.180581
O O4 0.635525 0.193308 0.061183
O O5 0.175285 0.974016 0.631924
O O6 0.184693 0.690063 0.630644
O O7 0.018195 0.874492 0.714280
O O8 0.093966 0.099564 0.008360
O O9 0.500000 0.000000 0.500000
O O10 0.316951 0.144655 0.637652
O O11 0.402868 0.344224 0.921329
O O12 0.266766 0.921493 0.301366
O O13 0.269527 0.234407 0.346926
O O14 0.173927 0.979222 0.137447
O O15 0.346670 0.715306 0.343058
O O16 0.721733 0.604537 0.783929
O O17 0.889558 0.625185 0.610643
#
# Coordination Sequence:
#
# PCOD9108672 Si02
#       8
#     2   2   2   2   2   2   2   2
#     4  12  27  40  63  92 126 165 205 261 307 359
#     4  10  20  40  70  88 122 163 207 247 310 371
#     4  12  24  40  65  83 124 167 206 251 304 368
#     4  10  24  41  58  93 131 155 208 258 307 360
#     4  11  23  41  63  92 120 169 202 252 308 361
#     4  11  23  43  60  89 123 163 213 244 296 378
#     4   9  22  37  66  86 123 159 201 252 303 363
#     4   9  21  39  64  95 124 156 207 254 304 368
#
# _framework density 19.205076999999999
#
# number of rings (size 3 to 8) (size 9 to 14) (size 15 to 20)
#    0.750    0.750    2.500    2.250    7.000    1.000 
#    0.000    0.000    0.000    2.250    0.000    0.000 
#    0.000    0.000    0.000    0.000    0.000    0.000 
#
# Total GULP energy -89209.142449 kJ/mol
# GULP energy per Si atom -5575.571403 kJ/mol
# Density = 1.916136 g / cm^3
# Si number density = 19.205077 Si / 1000 Ang^3
#
#
#
# Elastic Constant Matrix: (Units=GPa)
#
#
# Indices 1 2 3 4 5 6 
#
# 1 96.2466 25.4591 27.9472 -20.9255 -3.4158 6.4241
# 2 25.4591 56.0576 10.7670 -16.1294 -5.8259 3.0025
# 3 27.9472 10.7670 68.1885 -29.8861 -2.4471 6.9899
# 4 -20.9255 -16.1294 -29.8861 30.0468 1.0184 -4.6366
# 5 -3.4158 -5.8259 -2.4471 1.0184 27.5158 1.7853
# 6 6.4241 3.0025 6.9899 -4.6366 1.7853 33.2339
#
#
#
# Elastic Compliance Matrix: (Units=1/GPa)
#
#
# Indices 1 2 3 4 5 6 
#
# 1 0.013301 -0.004266 -0.002972 0.003842 0.000409 -0.001047
# 2 -0.004266 0.023330 0.004184 0.013489 0.004316 -0.000513
# 3 -0.002972 0.004184 0.027319 0.026987 0.002071 -0.001896
# 4 0.003842 0.013489 0.026987 0.070248 0.003003 0.002002
# 5 0.000409 0.004316 0.002071 0.003003 0.037543 -0.002502
# 6 -0.001047 -0.000513 -0.001896 0.002002 -0.002502 0.031151
#
#
# Mechanical properties :
#
#
# Convention : Reuss Voigt Hill
#
# Bulk Modulus (GPa) = 17.28838 38.75993 28.02416
# Shear Modulus (GPa) = 21.90292 28.58058 25.24175
#
# Velocity S-wave (km/s) = 3.38076 3.86188 3.62930
# Velocity P-wave (km/s) = 4.92553 6.33336 5.67328
#
# Compressibility (1/GPa) = 0.05784231
#
# Stress axis : x y z
#
# Youngs Moduli (GPa) = 75.18197 42.86353 36.60419
#
# Poissons Ratio (x) = 0.18286 0.10879
# Poissons Ratio (y) = 0.32073 -0.15316
# Poissons Ratio (z) = 0.22345 -0.17935
#
# Static dielectric constant tensor:
#      x y z
#    x 1.686810 0.008100 -0.012220 
#    y 0.008100 1.672300 0.029480 
#    z -0.012220 0.029480 1.651150 
# 
# From -- ./inp_files/296695.got.cif
#   From: 2010.05.17/outbox.cif.g08.bks.cpg/sg2_149_cif.got.tgz:296695.got - 2010.06.03 11:33:40.
