data_PCOD9108026
_publ_section_title
;
Structure prediction by ZEFSAII (Michael W. Deem and Ramdas Pophale) SiO2 
 PCOD9108026
Probable space group: P -1
;
_chemical_formula_sum "Si O2"
_cell_formula_units_Z 10
_cell_length_a 14.294516
_cell_length_b 9.961302
_cell_length_c 6.773028
_cell_angle_alpha 124.661152
_cell_angle_beta 32.563472
_cell_angle_gamma 132.661253
_cell_volume 381.714700
_symmetry_space_group_name_H-M "P -1"
_symmetry_group_IT_number 2
_symmetry_cell_setting 'triclinic'
loop_
_space_group_symop_operation_xyz
x,y,z
-x,-y,-z
loop_
_atom_site_type_symbol
_atom_site_label
_atom_site_fract_x
_atom_site_fract_y
_atom_site_fract_z
Si Si1 0.844602 0.583745 0.859994
Si Si2 0.484242 0.058329 0.352146
Si Si3 0.516609 0.303792 0.973140
Si Si4 0.837417 0.864890 0.824134
Si Si5 0.792867 0.443131 0.224043
O O1 0.623519 0.456882 0.073556
O O2 0.916783 0.754889 0.729512
O O3 0.000000 0.500000 0.500000
O O4 0.823810 0.601573 0.145347
O O5 0.673269 0.252795 0.155473
O O6 0.500000 0.000000 0.500000
O O7 0.486333 0.883728 0.094377
O O8 0.281455 0.072103 0.751085
O O9 0.664372 0.392742 0.604388
O O10 0.320950 0.252962 0.158239
O O11 0.000000 0.000000 0.500000
O O12 0.000000 0.500000 0.000000
#
# Coordination Sequence:
#
# PCOD9108026 Si02
#       5
#     2   2   2   2   2
#     4  12  25  39  70 105 128 180 226 268 344 394
#     4   8  20  40  67  91 130 179 215 266 344 379
#     4  10  23  44  70  94 138 176 220 277 336 394
#     4  10  23  44  67 100 138 172 226 277 332 400
#     4  10  20  40  66  94 138 171 222 272 330 393
#
# _framework density 26.197576000000002
#
# number of rings (size 3 to 8) (size 9 to 14) (size 15 to 20)
#    0.000    2.400    2.000    0.600    8.400    4.000 
#    0.000    1.000    0.000    0.000    0.000    0.000 
#    0.000    0.000    0.000    0.000    0.000    0.000 
#
# Total GULP energy -55763.231734 kJ/mol
# GULP energy per Si atom -5576.323173 kJ/mol
# Density = 2.613795 g / cm^3
# Si number density = 26.197576 Si / 1000 Ang^3
#
#
#
# Elastic Constant Matrix: (Units=GPa)
#
#
# Indices 1 2 3 4 5 6 
#
# 1 157.1928 36.6726 35.8119 -18.4620 -6.6718 -38.9078
# 2 36.6726 126.5670 57.2967 -12.7076 -0.8888 -43.7901
# 3 35.8119 57.2967 144.7925 -33.4765 -22.4307 -10.7646
# 4 -18.4620 -12.7076 -33.4765 57.0092 0.6186 0.0474
# 5 -6.6718 -0.8888 -22.4307 0.6186 31.4818 5.1326
# 6 -38.9078 -43.7901 -10.7646 0.0474 5.1326 65.6783
#
#
#
# Elastic Compliance Matrix: (Units=1/GPa)
#
#
# Indices 1 2 3 4 5 6 
#
# 1 0.007976 -0.000029 -0.001180 0.001879 0.000078 0.004505
# 2 -0.000029 0.013135 -0.005364 -0.000186 -0.004797 0.008236
# 3 -0.001180 -0.005364 0.011554 0.005120 0.008223 -0.003028
# 4 0.001879 -0.000186 0.005120 0.021077 0.003374 0.001549
# 5 0.000078 -0.004797 0.008223 0.003374 0.038220 -0.004793
# 6 0.004505 0.008236 -0.003028 0.001549 -0.004793 0.023263
#
#
# Mechanical properties :
#
#
# Convention : Reuss Voigt Hill
#
# Bulk Modulus (GPa) = 51.23473 76.45720 63.84596
# Shear Modulus (GPa) = 37.07092 50.75194 43.91143
#
# Velocity S-wave (km/s) = 3.76580 4.40622 4.09854
# Velocity P-wave (km/s) = 6.20547 7.42527 6.84260
#
# Compressibility (1/GPa) = 0.01951801
#
# Stress axis : x y z
#
# Youngs Moduli (GPa) = 125.37242 76.13270 86.55350
#
# Poissons Ratio (x) = 0.00222 0.10212
# Poissons Ratio (y) = 0.00366 0.46430
# Poissons Ratio (z) = 0.14792 0.40840
#
# Static dielectric constant tensor:
#      x y z
#    x 2.302830 0.383440 0.089880 
#    y 0.383440 2.624510 0.217280 
#    z 0.089880 0.217280 2.304220 
# 
# From -- ./inp_files/296320.got.cif
#   From: 2010.05.17/outbox.cif.g08.bks.cpg/sg2_149_cif.got.tgz:296320.got - 2010.06.03 11:33:40.
