data_PCOD9108131
_publ_section_title
;
Structure prediction by ZEFSAII (Michael W. Deem and Ramdas Pophale) SiO2 
 PCOD9108131
Probable space group: P -1
;
_chemical_formula_sum "Si O2"
_cell_formula_units_Z 12
_cell_length_a 12.653400
_cell_length_b 16.202795
_cell_length_c 6.914189
_cell_angle_alpha 108.196664
_cell_angle_beta 84.000322
_cell_angle_gamma 155.626718
_cell_volume 493.754546
_symmetry_space_group_name_H-M "P -1"
_symmetry_group_IT_number 2
_symmetry_cell_setting 'triclinic'
loop_
_space_group_symop_operation_xyz
x,y,z
-x,-y,-z
loop_
_atom_site_type_symbol
_atom_site_label
_atom_site_fract_x
_atom_site_fract_y
_atom_site_fract_z
Si Si1 0.714727 0.073527 0.314091
Si Si2 0.765285 0.624213 0.679080
Si Si3 0.772293 0.059869 0.714799
Si Si4 0.212316 0.552688 0.517474
Si Si5 0.817042 0.772027 0.380116
Si Si6 0.886775 0.332749 0.019706
O O1 0.655334 0.978707 0.454596
O O2 0.903464 0.154901 0.195515
O O3 0.930484 0.314744 0.521423
O O4 0.454196 0.915330 0.132906
O O5 0.645335 0.436107 0.512160
O O6 0.802623 0.718744 0.561083
O O7 0.527267 0.476633 0.766740
O O8 0.934479 0.270696 0.894722
O O9 0.007050 0.161957 0.735957
O O10 0.476502 0.814861 0.705781
O O11 0.047603 0.457266 0.285187
O O12 0.000000 0.000000 0.500000
O O13 0.000000 0.500000 0.000000
#
# Coordination Sequence:
#
# PCOD9108131 Si02
#       6
#     2   2   2   2   2   2
#     4   9  20  40  59  86 119 157 198 242 291 356
#     4   8  19  32  61  89 112 155 197 237 297 348
#     4  11  22  39  62  91 118 157 201 244 297 350
#     4  10  21  40  59  90 120 157 196 244 297 349
#     4  10  16  35  64  87 114 153 196 242 293 353
#     4  12  24  39  61  89 123 160 199 244 297 351
#
# _framework density 24.303574000000001
#
# number of rings (size 3 to 8) (size 9 to 14) (size 15 to 20)
#    1.000    1.000    3.333    1.000    0.000    0.667 
#    3.000    0.833    0.000    2.000    0.000    0.000 
#    0.000    0.000    0.000    0.000    0.000    0.000 
#
# Total GULP energy -66804.889978 kJ/mol
# GULP energy per Si atom -5567.074165 kJ/mol
# Density = 2.424826 g / cm^3
# Si number density = 24.303574 Si / 1000 Ang^3
#
#
#
# Elastic Constant Matrix: (Units=GPa)
#
#
# Indices 1 2 3 4 5 6 
#
# 1 149.7462 30.4665 32.1574 11.8081 -12.6554 -1.2135
# 2 30.4665 82.2757 25.9645 34.1515 8.6060 -4.5085
# 3 32.1574 25.9645 80.3367 14.7262 3.7693 -0.2786
# 4 11.8081 34.1515 14.7262 28.3960 -6.8867 7.3529
# 5 -12.6554 8.6060 3.7693 -6.8867 22.6981 -10.9764
# 6 -1.2135 -4.5085 -0.2786 7.3529 -10.9764 44.7272
#
#
#
# Elastic Compliance Matrix: (Units=1/GPa)
#
#
# Indices 1 2 3 4 5 6 
#
# 1 0.009241 -0.007590 -0.003616 0.009868 0.012005 0.000787
# 2 -0.007590 0.043757 0.001780 -0.060703 -0.037070 0.005098
# 3 -0.003616 0.001780 0.015714 -0.010847 -0.008672 -0.000166
# 4 0.009868 -0.060703 -0.010847 0.128135 0.063707 -0.011349
# 5 0.012005 -0.037070 -0.008672 0.063707 0.089450 0.008013
# 6 0.000787 0.005098 -0.000166 -0.011349 0.008013 0.026724
#
#
# Mechanical properties :
#
#
# Convention : Reuss Voigt Hill
#
# Bulk Modulus (GPa) = 20.05521 54.39283 37.22402
# Shear Modulus (GPa) = 14.34754 34.08227 24.21491
#
# Velocity S-wave (km/s) = 2.43234 3.74887 3.15993
# Velocity P-wave (km/s) = 4.01973 6.41622 5.35379
#
# Compressibility (1/GPa) = 0.04986236
#
# Stress axis : x y z
#
# Youngs Moduli (GPa) = 108.20855 22.85352 63.63698
#
# Poissons Ratio (x) = 0.17345 0.23009
# Poissons Ratio (y) = 0.82127 -0.11329
# Poissons Ratio (z) = 0.39124 -0.04069
#
# Static dielectric constant tensor:
#      x y z
#    x 1.981150 0.025440 0.011920 
#    y 0.025440 1.999150 -0.003270 
#    z 0.011920 -0.003270 1.966710 
# 
# From -- ./inp_files/270687.got.cif
#   From: 2010.05.17/outbox.cif.g08.bks.cpg/sg2_136_cif.got.tgz:270687.got - 2010.06.03 11:33:40.
