data_PCOD9108064
_publ_section_title
;
Structure prediction by ZEFSAII (Michael W. Deem and Ramdas Pophale) SiO2 
 PCOD9108064
Probable space group: P -1
;
_chemical_formula_sum "Si O2"
_cell_formula_units_Z 14
_cell_length_a 9.751100
_cell_length_b 8.825178
_cell_length_c 16.208141
_cell_angle_alpha 36.203384
_cell_angle_beta 100.381340
_cell_angle_gamma 118.227110
_cell_volume 669.279011
_symmetry_space_group_name_H-M "P -1"
_symmetry_group_IT_number 2
_symmetry_cell_setting 'triclinic'
loop_
_space_group_symop_operation_xyz
x,y,z
-x,-y,-z
loop_
_atom_site_type_symbol
_atom_site_label
_atom_site_fract_x
_atom_site_fract_y
_atom_site_fract_z
Si Si1 0.404992 0.138421 0.967905
Si Si2 0.583261 0.871279 0.841893
Si Si3 0.889764 0.860268 0.130930
Si Si4 0.016462 0.811185 0.837651
Si Si5 0.368126 0.128717 0.645420
Si Si6 0.687947 0.123169 0.434925
Si Si7 0.271357 0.176117 0.278999
O O1 0.255366 0.076232 0.921328
O O2 0.544862 0.506721 0.827611
O O3 0.343486 0.013694 0.109087
O O4 0.500000 0.000000 0.000000
O O5 0.707701 0.988959 0.725439
O O6 0.448845 0.957049 0.771423
O O7 0.500000 0.500000 0.000000
O O8 0.798989 0.493466 0.281692
O O9 0.988899 0.022271 0.153713
O O10 0.000000 0.000000 0.000000
O O11 0.864416 0.748515 0.791084
O O12 0.196264 0.026481 0.717884
O O13 0.000000 0.500000 0.000000
O O14 0.500000 0.500000 0.500000
O O15 0.328426 0.015885 0.596063
O O16 0.500000 0.000000 0.500000
O O17 0.767725 0.015943 0.557909
#
# Coordination Sequence:
#
# PCOD9108064 Si02
#       7
#     2   2   2   2   2   2   2
#     4  11  22  39  68 101 132 177 234 283 339 408
#     4  10  20  40  66  96 131 180 231 271 337 416
#     4  12  25  45  71 101 137 186 232 284 340 418
#     4  12  26  47  69 104 144 178 231 292 350 408
#     4  12  26  44  70 105 144 179 225 299 359 404
#     4  12  23  46  72  98 141 183 236 279 346 423
#     4  11  24  43  71  97 137 186 228 281 343 416
#
# _framework density 20.918032
#
# number of rings (size 3 to 8) (size 9 to 14) (size 15 to 20)
#    0.000    0.571    2.857    6.857    2.000    1.143 
#    2.571    0.000    0.000    0.000    0.000    0.000 
#    0.000    0.000    0.000    0.000    0.000    0.000 
#
# Total GULP energy -78340.013399 kJ/mol
# GULP energy per Si atom -5595.715243 kJ/mol
# Density = 2.087042 g / cm^3
# Si number density = 20.918032 Si / 1000 Ang^3
#
#
#
# Elastic Constant Matrix: (Units=GPa)
#
#
# Indices 1 2 3 4 5 6 
#
# 1 63.9898 -11.5379 12.9500 1.5289 14.2817 12.8263
# 2 -11.5379 84.8731 35.2237 9.6417 9.5262 -13.1634
# 3 12.9500 35.2237 113.4042 4.6432 4.2322 -0.0138
# 4 1.5289 9.6417 4.6432 36.8596 8.3756 2.9098
# 5 14.2817 9.5262 4.2322 8.3756 43.2382 10.9980
# 6 12.8263 -13.1634 -0.0138 2.9098 10.9980 44.7252
#
#
#
# Elastic Compliance Matrix: (Units=1/GPa)
#
#
# Indices 1 2 3 4 5 6 
#
# 1 0.018960 0.004185 -0.003240 0.000151 -0.006213 -0.002689
# 2 0.004185 0.016204 -0.005196 -0.002986 -0.005144 0.005026
# 3 -0.003240 -0.005196 0.010753 -0.000110 0.001423 -0.000940
# 4 0.000151 -0.002986 -0.000110 0.029094 -0.004588 -0.001687
# 5 -0.006213 -0.005144 0.001423 -0.004588 0.028714 -0.006494
# 6 -0.002689 0.005026 -0.000940 -0.001687 -0.006494 0.026316
#
#
# Mechanical properties :
#
#
# Convention : Reuss Voigt Hill
#
# Bulk Modulus (GPa) = 26.72691 37.28209 32.00450
# Shear Modulus (GPa) = 33.10958 40.00670 36.55814
#
# Velocity S-wave (km/s) = 3.98279 4.37801 4.18507
# Velocity P-wave (km/s) = 5.82708 6.58920 6.21983
#
# Compressibility (1/GPa) = 0.03741548
#
# Stress axis : x y z
#
# Youngs Moduli (GPa) = 52.74364 61.71408 92.99592
#
# Poissons Ratio (x) = -0.25828 0.30127
# Poissons Ratio (y) = -0.22074 0.48321
# Poissons Ratio (z) = 0.17087 0.32067
#
# Static dielectric constant tensor:
#      x y z
#    x 1.754020 -0.015160 0.006440 
#    y -0.015160 1.746890 0.003670 
#    z 0.006440 0.003670 1.753840 
# 
# From -- ./inp_files/209165.got.cif
#   From: 2010.05.17/outbox.cif.g08.bks.cpg/sg2_105_cif.got.tgz:209165.got - 2010.06.03 11:33:40.
