data_PCOD9108518
_publ_section_title
;
Structure prediction by ZEFSAII (Michael W. Deem and Ramdas Pophale) SiO2 
 PCOD9108518
Probable space group: P -1
;
_chemical_formula_sum "Si O2"
_cell_formula_units_Z 14
_cell_length_a 17.380759
_cell_length_b 7.777098
_cell_length_c 7.326798
_cell_angle_alpha 82.691486
_cell_angle_beta 94.966614
_cell_angle_gamma 142.388774
_cell_volume 599.351869
_symmetry_space_group_name_H-M "P -1"
_symmetry_group_IT_number 2
_symmetry_cell_setting 'triclinic'
loop_
_space_group_symop_operation_xyz
x,y,z
-x,-y,-z
loop_
_atom_site_type_symbol
_atom_site_label
_atom_site_fract_x
_atom_site_fract_y
_atom_site_fract_z
Si Si1 0.509701 0.105232 0.679342
Si Si2 0.021395 0.131897 0.683008
Si Si3 0.639413 0.683648 0.561959
Si Si4 0.703716 0.224678 0.852876
Si Si5 0.649541 0.764123 0.970283
Si Si6 0.171984 0.222792 0.013543
Si Si7 0.752779 0.215917 0.433126
O O1 0.618766 0.442900 0.618738
O O2 0.562329 0.054376 0.833814
O O3 0.500000 0.000000 0.500000
O O4 0.369109 0.931544 0.687080
O O5 0.119522 0.463910 0.641140
O O6 0.082424 0.101401 0.839902
O O7 0.000000 0.000000 0.500000
O O8 0.900626 0.982357 0.795602
O O9 0.500000 0.500000 0.500000
O O10 0.660892 0.783348 0.754669
O O11 0.740004 0.983208 0.437850
O O12 0.780416 0.509809 0.932522
O O13 0.739536 0.254079 0.641392
O O14 0.709004 0.054960 0.987716
O O15 0.719718 0.713616 0.048089
O O16 0.500000 0.500000 0.000000
#
# Coordination Sequence:
#
# PCOD9108518 Si02
#       7
#     2   2   2   2   2   2   2
#     4   9  17  32  64 101 139 177 219 290 351 422
#     4  11  24  47  77 101 137 193 250 288 350 416
#     4   9  18  37  62 100 142 172 229 279 352 429
#     4  10  20  40  69 100 145 176 233 290 356 434
#     4  11  25  42  65 106 147 179 227 294 361 427
#     4  11  25  47  75 101 143 189 237 301 346 419
#     4   9  19  36  67 100 136 184 233 287 349 413
#
# _framework density 23.358564000000001
#
# number of rings (size 3 to 8) (size 9 to 14) (size 15 to 20)
#    0.000    2.000    2.857    0.857    2.000    2.857 
#    2.571    5.714    6.286    0.000    0.000    0.000 
#    0.000    0.000    0.000    0.000    0.000    0.000 
#
# Total GULP energy -77981.467036 kJ/mol
# GULP energy per Si atom -5570.104788 kJ/mol
# Density = 2.330540 g / cm^3
# Si number density = 23.358564 Si / 1000 Ang^3
#
#
#
# Elastic Constant Matrix: (Units=GPa)
#
#
# Indices 1 2 3 4 5 6 
#
# 1 91.9929 44.0727 19.8889 -3.5463 -11.3603 -5.9111
# 2 44.0727 171.4203 17.9938 -14.5356 -19.0993 -23.2156
# 3 19.8889 17.9938 87.2078 13.4759 -12.4729 5.8204
# 4 -3.5463 -14.5356 13.4759 35.8307 5.4696 1.5891
# 5 -11.3603 -19.0993 -12.4729 5.4696 23.2432 6.2781
# 6 -5.9111 -23.2156 5.8204 1.5891 6.2781 39.8559
#
#
#
# Elastic Compliance Matrix: (Units=1/GPa)
#
#
# Indices 1 2 3 4 5 6 
#
# 1 0.013017 -0.002746 -0.002092 0.000524 0.002813 0.000173
# 2 -0.002746 0.007708 -0.001260 0.002758 0.002657 0.003738
# 3 -0.002092 -0.001260 0.014921 -0.007494 0.008880 -0.004323
# 4 0.000524 0.002758 -0.007494 0.033314 -0.010163 0.003051
# 5 0.002813 0.002657 0.008880 -0.010163 0.055824 -0.007720
# 6 0.000173 0.003738 -0.004323 0.003051 -0.007720 0.029019
#
#
# Mechanical properties :
#
#
# Convention : Reuss Voigt Hill
#
# Bulk Modulus (GPa) = 42.64457 57.17019 49.90738
# Shear Modulus (GPa) = 28.76632 37.69698 33.23165
#
# Velocity S-wave (km/s) = 3.51310 4.02162 3.77593
# Velocity P-wave (km/s) = 5.89508 6.78916 6.35786
#
# Compressibility (1/GPa) = 0.02344964
#
# Stress axis : x y z
#
# Youngs Moduli (GPa) = 76.82293 129.73664 67.02170
#
# Poissons Ratio (x) = 0.35623 0.14023
# Poissons Ratio (y) = 0.21094 0.08443
# Poissons Ratio (z) = 0.16074 0.16343
#
# Static dielectric constant tensor:
#      x y z
#    x 2.081950 -0.015500 0.004500 
#    y -0.015500 1.888470 -0.044260 
#    z 0.004500 -0.044260 1.891060 
# 
# From -- ./inp_files/66496.got.cif
#   From: 2010.05.17/outbox.cif.g08.bks.cpg/sg2_34_cif.got.tgz:66496.got - 2010.06.03 11:33:40.
