data_PCOD9108659
_publ_section_title
;
Structure prediction by ZEFSAII (Michael W. Deem and Ramdas Pophale) SiO2 
 PCOD9108659
Probable space group: P -1
;
_chemical_formula_sum "Si O2"
_cell_formula_units_Z 14
_cell_length_a 8.327613
_cell_length_b 10.408989
_cell_length_c 14.786920
_cell_angle_alpha 34.724756
_cell_angle_beta 64.027179
_cell_angle_gamma 83.838469
_cell_volume 570.973898
_symmetry_space_group_name_H-M "P -1"
_symmetry_group_IT_number 2
_symmetry_cell_setting 'triclinic'
loop_
_space_group_symop_operation_xyz
x,y,z
-x,-y,-z
loop_
_atom_site_type_symbol
_atom_site_label
_atom_site_fract_x
_atom_site_fract_y
_atom_site_fract_z
Si Si1 0.301317 0.669232 0.690505
Si Si2 0.758231 0.072067 0.805978
Si Si3 0.597088 0.715252 0.429059
Si Si4 0.012917 0.874487 0.975090
Si Si5 0.913348 0.004531 0.422720
Si Si6 0.163048 0.455108 0.400954
Si Si7 0.361198 0.379264 0.013474
O O1 0.456168 0.731403 0.532435
O O2 0.753932 0.109671 0.399623
O O3 0.094931 0.431486 0.834483
O O4 0.364823 0.574000 0.821546
O O5 0.724942 0.236619 0.797380
O O6 0.916738 0.305824 0.565284
O O7 0.879171 0.948873 0.898471
O O8 0.596111 0.836839 0.921273
O O9 0.500000 0.500000 0.500000
O O10 0.741698 0.627026 0.493933
O O11 0.750930 0.991199 0.188960
O O12 0.000000 0.000000 0.000000
O O13 0.811450 0.704527 0.592810
O O14 0.000000 0.000000 0.500000
O O15 0.117854 0.202536 0.201954
O O16 0.500000 0.500000 0.000000
#
# Coordination Sequence:
#
# PCOD9108659 Si02
#       7
#     2   2   2   2   2   2   2
#     4  11  25  47  72 103 150 195 240 300 372 438
#     4   8  18  39  69  93 137 181 226 299 356 413
#     4  11  23  41  71 105 140 183 246 298 367 440
#     4  10  20  40  70 105 138 183 236 297 365 435
#     4  11  26  46  72 103 146 200 239 296 376 437
#     4   9  20  40  64  99 137 179 240 290 349 432
#     4  10  23  47  72 109 145 188 247 301 363 436
#
# _framework density 24.51951
#
# number of rings (size 3 to 8) (size 9 to 14) (size 15 to 20)
#    0.000    2.000    1.429    1.286    4.000    2.857 
#    7.714    2.857    0.000    0.000    0.000    0.000 
#    0.000    0.000    0.000    0.000    0.000    0.000 
#
# Total GULP energy -78160.947879 kJ/mol
# GULP energy per Si atom -5582.924848 kJ/mol
# Density = 2.446370 g / cm^3
# Si number density = 24.519510 Si / 1000 Ang^3
#
#
#
# Elastic Constant Matrix: (Units=GPa)
#
#
# Indices 1 2 3 4 5 6 
#
# 1 70.7964 70.5114 28.3480 -2.8918 2.8554 -10.2919
# 2 70.5114 241.2041 71.5235 -29.3856 5.8727 5.5563
# 3 28.3480 71.5235 127.4938 -4.0837 -18.5159 -14.4503
# 4 -2.8918 -29.3856 -4.0837 58.5056 -3.5676 2.0957
# 5 2.8554 5.8727 -18.5159 -3.5676 26.1167 -0.9950
# 6 -10.2919 5.5563 -14.4503 2.0957 -0.9950 55.6704
#
#
#
# Elastic Compliance Matrix: (Units=1/GPa)
#
#
# Indices 1 2 3 4 5 6 
#
# 1 0.021447 -0.006300 -0.001089 -0.002451 -0.001868 0.004370
# 2 -0.006300 0.007575 -0.003558 0.003157 -0.003221 -0.003021
# 3 -0.001089 -0.003558 0.011806 -0.000569 0.009341 0.003407
# 4 -0.002451 0.003157 -0.000569 0.018674 0.001645 -0.001590
# 5 -0.001868 -0.003221 0.009341 0.001645 0.046186 0.003164
# 6 0.004370 -0.003021 0.003407 -0.001590 0.003164 0.020073
#
#
# Mechanical properties :
#
#
# Convention : Reuss Voigt Hill
#
# Bulk Modulus (GPa) = 52.81481 86.69559 69.75520
# Shear Modulus (GPa) = 32.47470 45.99930 39.23700
#
# Velocity S-wave (km/s) = 3.64324 4.33601 4.00463
# Velocity P-wave (km/s) = 6.26772 7.77834 7.06353
#
# Compressibility (1/GPa) = 0.01893408
#
# Stress axis : x y z
#
# Youngs Moduli (GPa) = 46.62759 132.00834 84.70293
#
# Poissons Ratio (x) = 0.83172 0.09220
# Poissons Ratio (y) = 0.29378 0.30136
# Poissons Ratio (z) = 0.05076 0.46966
#
# Static dielectric constant tensor:
#      x y z
#    x 1.938530 -0.055520 -0.085850 
#    y -0.055520 2.038080 -0.017310 
#    z -0.085850 -0.017310 2.208760 
# 
# From -- ./inp_files/421869.got.cif
#   From: 2010.05.17/outbox.cif.g08.bks.cpg/sg2_211_cif.got.tgz:421869.got - 2010.06.03 11:33:40.
