data_PCOD9108315
_publ_section_title
;
Structure prediction by ZEFSAII (Michael W. Deem and Ramdas Pophale) SiO2 
 PCOD9108315
Probable space group: P -1
;
_chemical_formula_sum "Si O2"
_cell_formula_units_Z 11
_cell_length_a 8.998337
_cell_length_b 8.997624
_cell_length_c 12.380754
_cell_angle_alpha 85.056779
_cell_angle_beta 113.954059
_cell_angle_gamma 146.973136
_cell_volume 429.345664
_symmetry_space_group_name_H-M "P -1"
_symmetry_group_IT_number 2
_symmetry_cell_setting 'triclinic'
loop_
_space_group_symop_operation_xyz
x,y,z
-x,-y,-z
loop_
_atom_site_type_symbol
_atom_site_label
_atom_site_fract_x
_atom_site_fract_y
_atom_site_fract_z
Si Si1 0.142566 0.508789 0.796605
Si Si2 0.295845 0.481790 0.404669
Si Si3 0.450936 0.560111 0.218579
Si Si4 0.977776 0.215180 0.551496
Si Si5 0.641909 0.181205 0.851036
Si Si6 0.500000 0.500000 0.000000
O O1 0.060821 0.401837 0.655627
O O2 0.325089 0.514321 0.904912
O O3 0.790533 0.250528 0.774854
O O4 0.395753 0.856593 0.849517
O O5 0.500000 0.500000 0.500000
O O6 0.192609 0.360396 0.257378
O O7 0.066434 0.336309 0.449170
O O8 0.589361 0.844793 0.463941
O O9 0.779613 0.731540 0.347169
O O10 0.532072 0.797284 0.203195
O O11 0.339238 0.398152 0.083430
O O12 0.000000 0.500000 0.000000
#
# Coordination Sequence:
#
# PCOD9108315 Si02
#       6
#     2   2   2   2   2   1
#     4  11  25  45  66  97 135 172 220 273 324 392
#     4  10  20  40  67  99 129 168 221 273 319 383
#     4  10  22  40  68  97 129 173 216 267 331 385
#     4  10  22  43  68  97 129 170 225 271 315 386
#     4  12  25  44  64  98 141 172 214 266 339 394
#     4  10  22  44  66  98 124 174 222 270 320 380
#
# _framework density 25.620381999999999
#
# number of rings (size 3 to 8) (size 9 to 14) (size 15 to 20)
#    0.000    1.455    1.818    3.818    0.000    5.091 
#    6.545    5.455    0.000    0.000    0.000    0.000 
#    0.000    0.000    0.000    0.000    0.000    0.000 
#
# Total GULP energy -61323.104599 kJ/mol
# GULP energy per Si atom -5574.827691 kJ/mol
# Density = 2.556207 g / cm^3
# Si number density = 25.620382 Si / 1000 Ang^3
#
#
#
# Elastic Constant Matrix: (Units=GPa)
#
#
# Indices 1 2 3 4 5 6 
#
# 1 133.8705 41.3576 30.8022 -16.9553 -0.0275 -8.7202
# 2 41.3576 150.5922 42.1971 -28.1775 -12.7042 26.7130
# 3 30.8022 42.1971 143.6288 -42.5573 -39.2447 11.4256
# 4 -16.9553 -28.1775 -42.5573 32.6183 5.3976 -7.6691
# 5 -0.0275 -12.7042 -39.2447 5.3976 54.4151 -24.8662
# 6 -8.7202 26.7130 11.4256 -7.6691 -24.8662 36.8089
#
#
#
# Elastic Compliance Matrix: (Units=1/GPa)
#
#
# Indices 1 2 3 4 5 6 
#
# 1 0.009187 -0.002791 -0.000236 0.003207 0.001625 0.006041
# 2 -0.002791 0.009732 -0.001243 0.003816 -0.002885 -0.008492
# 3 -0.000236 -0.001243 0.016306 0.019974 0.013690 0.009194
# 4 0.003207 0.003816 0.019974 0.062714 0.016341 0.015897
# 5 0.001625 -0.002885 0.013690 0.016341 0.038628 0.027729
# 6 0.006041 -0.008492 0.009194 0.015897 0.027729 0.053952
#
#
# Mechanical properties :
#
#
# Convention : Reuss Voigt Hill
#
# Bulk Modulus (GPa) = 37.47562 72.97836 55.22699
# Shear Modulus (GPa) = 24.04372 45.68411 34.86392
#
# Velocity S-wave (km/s) = 3.06675 4.22728 3.69289
# Velocity P-wave (km/s) = 5.21527 7.23691 6.30761
#
# Compressibility (1/GPa) = 0.02668402
#
# Stress axis : x y z
#
# Youngs Moduli (GPa) = 108.85335 102.75154 61.32845
#
# Poissons Ratio (x) = 0.28680 0.01449
# Poissons Ratio (y) = 0.30383 0.07622
# Poissons Ratio (z) = 0.02572 0.12769
#
# Static dielectric constant tensor:
#      x y z
#    x 2.076030 0.021920 0.059670 
#    y 0.021920 1.981710 0.051090 
#    z 0.059670 0.051090 2.088040 
# 
# From -- ./inp_files/54115.got.cif
#   From: 2010.05.17/outbox.cif.g08.bks.cpg/sg2_28_cif.got.tgz:54115.got - 2010.06.03 11:33:40.
