data_PCOD9108768
_publ_section_title
;
Structure prediction by ZEFSAII (Michael W. Deem and Ramdas Pophale) SiO2 
 PCOD9108768
Probable space group: P -1
;
_chemical_formula_sum "Si O2"
_cell_formula_units_Z 16
_cell_length_a 13.990631
_cell_length_b 7.914660
_cell_length_c 11.321718
_cell_angle_alpha 109.098120
_cell_angle_beta 107.819220
_cell_angle_gamma 34.093220
_cell_volume 662.596261
_symmetry_space_group_name_H-M "P -1"
_symmetry_group_IT_number 2
_symmetry_cell_setting 'triclinic'
loop_
_space_group_symop_operation_xyz
x,y,z
-x,-y,-z
loop_
_atom_site_type_symbol
_atom_site_label
_atom_site_fract_x
_atom_site_fract_y
_atom_site_fract_z
Si Si1 0.133404 0.573957 0.501131
Si Si2 0.926908 0.242354 0.738908
Si Si3 0.703306 0.782114 0.179703
Si Si4 0.046625 0.327536 0.324534
Si Si5 0.473506 0.668785 0.891092
Si Si6 0.692905 0.449500 0.257652
Si Si7 0.153596 0.867562 0.101724
Si Si8 0.809124 0.709836 0.955353
O O1 0.078313 0.751805 0.401822
O O2 0.157021 0.333087 0.414759
O O3 0.282800 0.476093 0.593797
O O4 0.998235 0.737700 0.595684
O O5 0.831928 0.245488 0.790723
O O6 0.832325 0.562396 0.813578
O O7 0.125544 0.918977 0.775070
O O8 0.664316 0.656517 0.204637
O O9 0.857024 0.657210 0.281304
O O10 0.558749 0.136722 0.179711
O O11 0.663434 0.406271 0.951122
O O12 0.114655 0.124421 0.189836
O O13 0.439870 0.519553 0.794898
O O14 0.333755 0.933997 0.996050
O O15 0.234853 0.350574 0.960718
O O16 0.000000 0.000000 0.000000
O O17 0.000000 0.500000 0.000000
#
# Coordination Sequence:
#
# PCOD9108768 Si02
#       8
#     2   2   2   2   2   2   2   2
#     4  10  22  40  75 110 141 198 255 302 362 438
#     4  12  22  40  74 106 147 195 248 297 374 442
#     4   9  20  41  73 106 144 195 242 307 372 439
#     4  10  20  44  75 106 147 192 252 305 366 442
#     4  10  25  48  73 112 153 194 242 312 385 441
#     4  11  21  43  78 107 149 196 249 310 364 448
#     4  12  27  48  76 108 147 196 251 309 381 453
#     4  10  20  40  71 109 149 195 243 302 375 444
#
# _framework density 24.147435999999999
#
# number of rings (size 3 to 8) (size 9 to 14) (size 15 to 20)
#    0.750    0.750    3.750    2.625    0.000    0.500 
#    2.250    1.875    0.000    0.000    0.000    0.000 
#    0.000    0.000    0.000    0.000    0.000    0.000 
#
# Total GULP energy -89267.242897 kJ/mol
# GULP energy per Si atom -5579.202681 kJ/mol
# Density = 2.409248 g / cm^3
# Si number density = 24.147436 Si / 1000 Ang^3
#
#
#
# Elastic Constant Matrix: (Units=GPa)
#
#
# Indices 1 2 3 4 5 6 
#
# 1 84.9552 70.7033 55.0203 -10.2391 14.6645 15.1955
# 2 70.7033 123.6000 65.7584 -5.3983 13.3177 7.0111
# 3 55.0203 65.7584 162.0242 18.6640 12.1575 10.0999
# 4 -10.2391 -5.3983 18.6640 42.1939 18.0974 -6.8977
# 5 14.6645 13.3177 12.1575 18.0974 55.4079 -8.8132
# 6 15.1955 7.0111 10.0999 -6.8977 -8.8132 46.2437
#
#
#
# Elastic Compliance Matrix: (Units=1/GPa)
#
#
# Indices 1 2 3 4 5 6 
#
# 1 0.028946 -0.012224 -0.005015 0.010007 -0.007938 -0.006583
# 2 -0.012224 0.016449 -0.002746 0.000715 0.000006 0.002231
# 3 -0.005015 -0.002746 0.009668 -0.006806 0.001980 -0.000685
# 4 0.010007 0.000715 -0.006806 0.034753 -0.012537 0.000884
# 5 -0.007938 0.000006 0.001980 -0.012537 0.024602 0.004994
# 6 -0.006583 0.002231 -0.000685 0.000884 0.004994 0.024683
#
#
# Mechanical properties :
#
#
# Convention : Reuss Voigt Hill
#
# Bulk Modulus (GPa) = 66.26477 83.72703 74.99590
# Shear Modulus (GPa) = 27.15886 40.70893 33.93390
#
# Velocity S-wave (km/s) = 3.35731 4.11036 3.75277
# Velocity P-wave (km/s) = 6.52150 7.56805 7.06418
#
# Compressibility (1/GPa) = 0.01509098
#
# Stress axis : x y z
#
# Youngs Moduli (GPa) = 34.54685 60.79561 103.43681
#
# Poissons Ratio (x) = 0.74318 0.51874
# Poissons Ratio (y) = 0.42231 0.28409
# Poissons Ratio (z) = 0.17325 0.16697
#
# Static dielectric constant tensor:
#      x y z
#    x 2.031280 0.078100 0.045860 
#    y 0.078100 1.996960 0.042700 
#    z 0.045860 0.042700 1.948140 
# 
# From -- ./inp_files/460771.got.cif
#   From: 2010.05.17/outbox.cif.g08.bks.cpg/sg2_231_cif.got.tgz:460771.got - 2010.06.03 11:33:40.
