data_PCOD9108147
_publ_section_title
;
Structure prediction by ZEFSAII (Michael W. Deem and Ramdas Pophale) SiO2 
 PCOD9108147
Probable space group: P -1
;
_chemical_formula_sum "Si O2"
_cell_formula_units_Z 13
_cell_length_a 5.022636
_cell_length_b 11.777927
_cell_length_c 18.904725
_cell_angle_alpha 28.502472
_cell_angle_beta 83.952953
_cell_angle_gamma 88.661501
_cell_volume 525.019227
_symmetry_space_group_name_H-M "P -1"
_symmetry_group_IT_number 2
_symmetry_cell_setting 'triclinic'
loop_
_space_group_symop_operation_xyz
x,y,z
-x,-y,-z
loop_
_atom_site_type_symbol
_atom_site_label
_atom_site_fract_x
_atom_site_fract_y
_atom_site_fract_z
Si Si1 0.205361 0.508744 0.278417
Si Si2 0.148522 0.164203 0.345248
Si Si3 0.607929 0.985258 0.239811
Si Si4 0.192862 0.143047 0.070431
Si Si5 0.000000 0.000000 0.000000
Si Si6 0.631324 0.260848 0.485705
Si Si7 0.215614 0.638921 0.865498
O O1 0.213449 0.410723 0.251517
O O2 0.458945 0.424918 0.356275
O O3 0.941621 0.379793 0.400418
O O4 0.186831 0.786690 0.127193
O O5 0.952285 0.196133 0.268087
O O6 0.379202 0.007411 0.401477
O O7 0.000000 0.000000 0.500000
O O8 0.428055 0.995913 0.169764
O O9 0.579340 0.216392 0.163861
O O10 0.921830 0.022837 0.187267
O O11 0.487668 0.772400 0.413344
O O12 0.290865 0.421875 0.935390
O O13 0.113090 0.134099 0.996590
O O14 0.000000 0.500000 0.000000
#
# Coordination Sequence:
#
# PCOD9108147 Si02
#       7
#     2   2   2   2   1   2   2
#     4  11  25  44  71 102 143 193 238 288 351 429
#     4  10  20  40  67 107 142 181 229 297 366 420
#     4  11  23  44  72 106 143 178 236 304 367 422
#     4  11  25  44  71 102 143 193 238 288 351 429
#     4  12  28  54  70 102 148 198 252 278 340 438
#     4  11  23  44  72 106 143 178 236 304 367 422
#     4  10  20  40  67 107 142 181 229 297 366 420
#
# _framework density 24.760998000000001
#
# number of rings (size 3 to 8) (size 9 to 14) (size 15 to 20)
#    0.000    1.231    1.538    5.538    0.000    6.154 
#    0.000    4.615    0.000    0.000    0.000    0.000 
#    0.000    0.000    0.000    0.000    0.000    0.000 
#
# Total GULP energy -72440.726851 kJ/mol
# GULP energy per Si atom -5572.363604 kJ/mol
# Density = 2.470464 g / cm^3
# Si number density = 24.760998 Si / 1000 Ang^3
#
#
#
# Elastic Constant Matrix: (Units=GPa)
#
#
# Indices 1 2 3 4 5 6 
#
# 1 4.6117 -16.7469 88.9275 77.4671 -19.3856 -64.0816
# 2 -16.7469 40.1681 19.2904 -11.4984 7.7615 34.1349
# 3 88.9275 19.2904 60.5687 -33.2564 46.6910 31.8966
# 4 77.4671 -11.4984 -33.2564 -19.1005 7.0680 78.7624
# 5 -19.3856 7.7615 46.6910 7.0680 52.7710 -0.2039
# 6 -64.0816 34.1349 31.8966 78.7624 -0.2039 -21.1140
#
#
#
# Elastic Compliance Matrix: (Units=1/GPa)
#
#
# Indices 1 2 3 4 5 6 
#
# 1 -0.003496 -0.012471 0.012934 -0.000587 -0.010785 0.007905
# 2 -0.012471 -0.004373 0.018492 -0.010831 -0.018777 0.018494
# 3 0.012934 0.018492 -0.006334 0.001618 0.007369 -0.012966
# 4 -0.000587 -0.010831 0.001618 0.007380 -0.000987 0.014254
# 5 -0.010785 -0.018777 0.007369 -0.000987 0.011399 0.009716
# 6 0.007905 0.018494 -0.012966 0.014254 0.009716 -0.007965
#
#
# Mechanical properties :
#
#
# Convention : Reuss Voigt Hill
#
# Bulk Modulus (GPa) = 42.18296 32.03227 37.10762
# Shear Modulus (GPa) = -149.70840 3.43647 -73.13597
#
# Velocity S-wave (km/s) = -7.78413 1.17935 -5.44067
# Velocity P-wave (km/s) = 7.98230 3.84957 4.94459
#
# Compressibility (1/GPa) = 0.02370625
#
# Stress axis : x y z
#
# Youngs Moduli (GPa) = -286.00299 -228.66739 -157.87011
#
# Poissons Ratio (x) = -2.85176 2.04195
# Poissons Ratio (y) = -3.56680 2.91932
# Poissons Ratio (z) = 3.69927 4.22850
#
# Static dielectric constant tensor:
#      x y z
#    x 1.864640 -0.035440 -0.000710 
#    y -0.035440 1.974720 -0.033500 
#    z -0.000710 -0.033500 1.897950 
# 
# From -- ./inp_files/548784.got.cif
#   From: 2010.05.17/outbox.cif.g08.bks.cpg/sg2_275_cif.got.tgz:548784.got - 2010.06.03 11:33:40.
