data_PCOD9108946
_publ_section_title
;
Structure prediction by ZEFSAII (Michael W. Deem and Ramdas Pophale) SiO2 
 PCOD9108946
Probable space group: P -1
;
_chemical_formula_sum "Si O2"
_cell_formula_units_Z 15
_cell_length_a 15.989898
_cell_length_b 7.691111
_cell_length_c 10.651859
_cell_angle_alpha 87.871450
_cell_angle_beta 134.595794
_cell_angle_gamma 58.615678
_cell_volume 596.439892
_symmetry_space_group_name_H-M "P -1"
_symmetry_group_IT_number 2
_symmetry_cell_setting 'triclinic'
loop_
_space_group_symop_operation_xyz
x,y,z
-x,-y,-z
loop_
_atom_site_type_symbol
_atom_site_label
_atom_site_fract_x
_atom_site_fract_y
_atom_site_fract_z
Si Si1 0.957606 0.290004 0.808357
Si Si2 0.857578 0.892439 0.419058
Si Si3 0.224578 0.843266 0.430185
Si Si4 0.683333 0.575560 0.733948
Si Si5 0.500000 0.500000 0.500000
Si Si6 0.477431 0.713362 0.085609
Si Si7 0.798119 0.555799 0.361633
Si Si8 0.653003 0.979946 0.808759
O O1 0.939377 0.104085 0.773553
O O2 0.848138 0.440206 0.819747
O O3 0.847044 0.481728 0.563318
O O4 0.147974 0.173969 0.009470
O O5 0.810547 0.745487 0.346308
O O6 0.048154 0.710933 0.555139
O O7 0.856486 0.922015 0.566613
O O8 0.691180 0.181203 0.167117
O O9 0.326659 0.760162 0.410615
O O10 0.381456 0.571473 0.686167
O O11 0.659916 0.412444 0.769586
O O12 0.637612 0.794530 0.762219
O O13 0.508800 0.733043 0.446882
O O14 0.602913 0.690645 0.130124
O O15 0.391344 0.931582 0.097901
#
# Coordination Sequence:
#
# PCOD9108946 Si02
#       8
#     2   2   2   2   1   2   2   2
#     4  10  20  41  60  89 127 157 213 251 300 379
#     4  11  23  40  63  91 126 167 200 261 313 357
#     4  10  23  41  64  90 127 170 199 260 314 360
#     4  10  22  38  63  88 124 163 208 253 308 365
#     4  10  20  42  60  92 126 152 206 260 304 368
#     4  11  21  41  62  91 124 163 215 249 302 377
#     4  10  22  39  60  92 125 154 213 255 300 374
#     4  11  20  37  65  87 117 172 201 251 306 360
#
# _framework density 25.149224
#
# number of rings (size 3 to 8) (size 9 to 14) (size 15 to 20)
#    0.000    1.600    5.333    1.200    1.867    2.133 
#    2.400    4.000    0.000    0.000    0.000    0.000 
#    0.000    0.000    0.000    0.000    0.000    0.000 
#
# Total GULP energy -83687.567053 kJ/mol
# GULP energy per Si atom -5579.171137 kJ/mol
# Density = 2.509198 g / cm^3
# Si number density = 25.149224 Si / 1000 Ang^3
#
#
#
# Elastic Constant Matrix: (Units=GPa)
#
#
# Indices 1 2 3 4 5 6 
#
# 1 76.9757 23.0590 20.7242 2.6499 29.3282 -4.4138
# 2 23.0590 136.7253 17.9818 29.3119 12.5529 -12.3407
# 3 20.7242 17.9818 82.9012 0.5407 30.6239 -0.9210
# 4 2.6499 29.3119 0.5407 26.0738 -7.6907 -5.0151
# 5 29.3282 12.5529 30.6239 -7.6907 50.9925 -6.3367
# 6 -4.4138 -12.3407 -0.9210 -5.0151 -6.3367 19.2629
#
#
#
# Elastic Compliance Matrix: (Units=1/GPa)
#
#
# Indices 1 2 3 4 5 6 
#
# 1 0.017396 -0.001311 -0.000296 -0.003505 -0.010173 -0.001127
# 2 -0.001311 0.010789 -0.000796 -0.012412 -0.003003 0.002354
# 3 -0.000296 -0.000796 0.016082 -0.003214 -0.010277 -0.004026
# 4 -0.003505 -0.012412 -0.003214 0.060371 0.017676 0.012624
# 5 -0.010173 -0.003003 -0.010277 0.017676 0.036514 0.011867
# 6 -0.001127 0.002354 -0.004026 0.012624 0.011867 0.060161
#
#
# Mechanical properties :
#
#
# Convention : Reuss Voigt Hill
#
# Bulk Modulus (GPa) = 25.34176 46.68138 36.01157
# Shear Modulus (GPa) = 22.80281 34.92166 28.86223
#
# Velocity S-wave (km/s) = 3.01441 3.73041 3.39136
# Velocity P-wave (km/s) = 4.71317 6.09562 5.44842
#
# Compressibility (1/GPa) = 0.03946056
#
# Stress axis : x y z
#
# Youngs Moduli (GPa) = 57.48553 92.68779 62.18234
#
# Poissons Ratio (x) = 0.12153 0.01840
# Poissons Ratio (y) = 0.07537 0.04949
# Poissons Ratio (z) = 0.01701 0.07377
#
# Static dielectric constant tensor:
#      x y z
#    x 2.143820 0.164920 -0.035890 
#    y 0.164920 2.061040 -0.067130 
#    z -0.035890 -0.067130 2.031230 
# 
# From -- ./inp_files/462247.got.cif
#   From: 2010.05.17/outbox.cif.g08.bks.cpg/sg2_232_cif.got.tgz:462247.got - 2010.06.03 11:33:40.
