data_PCOD9108758
_publ_section_title
;
Structure prediction by ZEFSAII (Michael W. Deem and Ramdas Pophale) SiO2 
 PCOD9108758
Probable space group: P -1
;
_chemical_formula_sum "Si O2"
_cell_formula_units_Z 16
_cell_length_a 9.204659
_cell_length_b 5.771598
_cell_length_c 17.642031
_cell_angle_alpha 57.970193
_cell_angle_beta 54.056338
_cell_angle_gamma 60.753761
_cell_volume 621.458059
_symmetry_space_group_name_H-M "P -1"
_symmetry_group_IT_number 2
_symmetry_cell_setting 'triclinic'
loop_
_space_group_symop_operation_xyz
x,y,z
-x,-y,-z
loop_
_atom_site_type_symbol
_atom_site_label
_atom_site_fract_x
_atom_site_fract_y
_atom_site_fract_z
Si Si1 0.941872 0.744641 0.861999
Si Si2 0.470322 0.181877 0.057160
Si Si3 0.666922 0.269576 0.680330
Si Si4 0.739878 0.689812 0.690422
Si Si5 0.901840 0.725577 0.311735
Si Si6 0.112612 0.133651 0.545885
Si Si7 0.849867 0.830921 0.053036
Si Si8 0.378560 0.531440 0.606440
O O1 0.750373 0.772452 0.870940
O O2 0.095349 0.447703 0.863809
O O3 0.886557 0.766497 0.963774
O O4 0.031959 0.994016 0.768858
O O5 0.635590 0.000733 0.090713
O O6 0.500000 0.500000 0.000000
O O7 0.500000 0.000000 0.000000
O O8 0.654025 0.427394 0.738600
O O9 0.518515 0.501763 0.637662
O O10 0.632289 0.968542 0.718834
O O11 0.888008 0.200778 0.602228
O O12 0.920177 0.534028 0.710046
O O13 0.806567 0.793555 0.571076
O O14 0.727522 0.714280 0.317842
O O15 0.849677 0.697772 0.420709
O O16 0.220370 0.818169 0.591287
O O17 0.000000 0.000000 0.000000
O O18 0.500000 0.500000 0.500000
#
# Coordination Sequence:
#
# PCOD9108758 Si02
#       8
#     2   2   2   2   2   2   2   2
#     4  10  23  43  65 101 138 174 220 278 334 404
#     4  10  20  40  71 104 132 175 220 260 327 413
#     4  11  23  39  64  90 122 166 226 279 335 392
#     4  11  22  43  65  89 128 175 223 277 334 401
#     4  11  25  43  64  96 138 175 224 289 339 389
#     4  11  23  42  63  90 127 176 230 274 343 394
#     4  10  20  41  73  97 134 177 218 265 337 414
#     4  12  23  39  66  92 127 180 234 284 334 400
#
# _framework density 25.745906000000002
#
# number of rings (size 3 to 8) (size 9 to 14) (size 15 to 20)
#    0.000    1.250    3.750    3.375    1.750    2.000 
#    2.250    2.500    0.000    0.000    0.000    0.000 
#    0.000    0.000    0.000    0.000    0.000    0.000 
#
# Total GULP energy -89459.030176 kJ/mol
# GULP energy per Si atom -5591.189386 kJ/mol
# Density = 2.568731 g / cm^3
# Si number density = 25.745906 Si / 1000 Ang^3
#
#
#
# Elastic Constant Matrix: (Units=GPa)
#
#
# Indices 1 2 3 4 5 6 
#
# 1 207.0728 72.2568 44.7227 -10.5895 -10.9605 -34.2622
# 2 72.2568 160.3959 59.9679 -25.2263 -8.0520 -5.3318
# 3 44.7227 59.9679 94.7467 -2.0595 -5.8626 -12.0641
# 4 -10.5895 -25.2263 -2.0595 52.5342 4.5913 17.3021
# 5 -10.9605 -8.0520 -5.8626 4.5913 31.2037 -7.8504
# 6 -34.2622 -5.3318 -12.0641 17.3021 -7.8504 53.2727
#
#
#
# Elastic Compliance Matrix: (Units=1/GPa)
#
#
# Indices 1 2 3 4 5 6 
#
# 1 0.006862 -0.002828 -0.000652 -0.001944 0.003121 0.005074
# 2 -0.002828 0.010311 -0.005666 0.005611 -0.001248 -0.004076
# 3 -0.000652 -0.005666 0.015052 -0.003841 0.002726 0.004071
# 4 -0.001944 0.005611 -0.003841 0.025269 -0.006368 -0.010704
# 5 0.003121 -0.001248 0.002726 -0.006368 0.036784 0.009988
# 6 0.005074 -0.004076 0.004071 -0.010704 0.009988 0.027497
#
#
# Mechanical properties :
#
#
# Convention : Reuss Voigt Hill
#
# Bulk Modulus (GPa) = 71.76964 90.67891 81.22427
# Shear Modulus (GPa) = 34.55173 46.41996 40.48584
#
# Velocity S-wave (km/s) = 3.66734 4.25079 3.96980
# Velocity P-wave (km/s) = 6.77268 7.70645 7.25461
#
# Compressibility (1/GPa) = 0.01393347
#
# Stress axis : x y z
#
# Youngs Moduli (GPa) = 145.72638 96.98421 66.43691
#
# Poissons Ratio (x) = 0.27426 0.04334
# Poissons Ratio (y) = 0.41210 0.37640
# Poissons Ratio (z) = 0.09507 0.54947
#
# Static dielectric constant tensor:
#      x y z
#    x 1.982370 0.065200 -0.006140 
#    y 0.065200 2.120730 -0.017030 
#    z -0.006140 -0.017030 2.102160 
# 
# From -- ./inp_files/585462.got.cif
#   From: 2010.05.17/outbox.cif.g08.bks.cpg/sg2_293_cif.got.tgz:585462.got - 2010.06.03 11:33:40.
