data_PCOD9108028
_publ_section_title
;
Structure prediction by ZEFSAII (Michael W. Deem and Ramdas Pophale) SiO2 
 PCOD9108028
Probable space group: P -1
;
_chemical_formula_sum "Si O2"
_cell_formula_units_Z 16
_cell_length_a 7.957111
_cell_length_b 8.103600
_cell_length_c 11.029860
_cell_angle_alpha 103.736177
_cell_angle_beta 99.924732
_cell_angle_gamma 116.271238
_cell_volume 587.248263
_symmetry_space_group_name_H-M "P -1"
_symmetry_group_IT_number 2
_symmetry_cell_setting 'triclinic'
loop_
_space_group_symop_operation_xyz
x,y,z
-x,-y,-z
loop_
_atom_site_type_symbol
_atom_site_label
_atom_site_fract_x
_atom_site_fract_y
_atom_site_fract_z
Si Si1 0.274835 0.137777 0.956859
Si Si2 0.900140 0.252748 0.250442
Si Si3 0.373164 0.572347 0.809545
Si Si4 0.885151 0.141372 0.881699
Si Si5 0.207779 0.798752 0.516988
Si Si6 0.402897 0.218783 0.366334
Si Si7 0.211481 0.600111 0.238152
Si Si8 0.662744 0.758315 0.377712
O O1 0.109645 0.199742 0.941377
O O2 0.227170 0.983524 0.815992
O O3 0.485535 0.328148 0.040774
O O4 0.233054 0.986700 0.037838
O O5 0.767382 0.337918 0.198050
O O6 0.935492 0.304102 0.405173
O O7 0.095865 0.366761 0.212918
O O8 0.512804 0.651111 0.720897
O O9 0.258128 0.341013 0.724335
O O10 0.851443 0.319011 0.870518
O O11 0.789406 0.980200 0.734815
O O12 0.423233 0.827277 0.583416
O O13 0.159291 0.686392 0.365430
O O14 0.224657 0.008956 0.549860
O O15 0.356859 0.306372 0.494433
O O16 0.444872 0.690665 0.286237
#
# Coordination Sequence:
#
# PCOD9108028 Si02
#       8
#     2   2   2   2   2   2   2   2
#     4  10  24  43  64  87 129 171 214 258 310 369
#     4  11  25  43  62  91 133 171 204 259 325 369
#     4  10  23  41  62  92 127 170 215 251 315 380
#     4  10  20  40  66  95 122 158 219 265 302 364
#     4  10  20  41  64  96 132 166 200 256 326 382
#     4   9  17  37  64  94 124 162 206 262 309 369
#     4  11  22  40  67 101 125 160 212 267 312 371
#     4  11  20  38  70  98 122 163 215 259 310 375
#
# _framework density 27.245716000000002
#
# number of rings (size 3 to 8) (size 9 to 14) (size 15 to 20)
#    0.000    1.750    2.500    1.875    5.250    1.500 
#    2.250    2.500    0.000    0.000    0.000    0.000 
#    0.000    0.000    0.000    0.000    0.000    0.000 
#
# Total GULP energy -89655.036283 kJ/mol
# GULP energy per Si atom -5603.439768 kJ/mol
# Density = 2.718370 g / cm^3
# Si number density = 27.245716 Si / 1000 Ang^3
#
#
#
# Elastic Constant Matrix: (Units=GPa)
#
#
# Indices 1 2 3 4 5 6 
#
# 1 86.1976 4.8632 13.7781 -1.8558 12.6091 -14.6670
# 2 4.8632 82.1272 18.2830 -7.7342 3.6753 2.8690
# 3 13.7781 18.2830 108.3288 9.5005 -14.1064 -3.9440
# 4 -1.8558 -7.7342 9.5005 52.8629 -4.9248 -8.7688
# 5 12.6091 3.6753 -14.1064 -4.9248 39.0240 2.0257
# 6 -14.6670 2.8690 -3.9440 -8.7688 2.0257 29.3009
#
#
#
# Elastic Compliance Matrix: (Units=1/GPa)
#
#
# Indices 1 2 3 4 5 6 
#
# 1 0.014147 -0.000173 -0.002365 0.001645 -0.005599 0.007660
# 2 -0.000173 0.013083 -0.002639 0.002049 -0.001820 -0.000984
# 3 -0.002365 -0.002639 0.010748 -0.002034 0.004662 -0.000410
# 4 0.001645 0.002049 -0.002034 0.020798 0.000827 0.006516
# 5 -0.005599 -0.001820 0.004662 0.000827 0.029593 -0.003796
# 6 0.007660 -0.000984 -0.000410 0.006516 -0.003796 0.040216
#
#
# Mechanical properties :
#
#
# Convention : Reuss Voigt Hill
#
# Bulk Modulus (GPa) = 36.19999 38.94470 37.57235
# Shear Modulus (GPa) = 33.75065 40.21951 36.98508
#
# Velocity S-wave (km/s) = 3.52341 3.84627 3.68837
# Velocity P-wave (km/s) = 5.46515 5.83524 5.65322
#
# Compressibility (1/GPa) = 0.02762431
#
# Stress axis : x y z
#
# Youngs Moduli (GPa) = 70.68716 76.43673 93.04213
#
# Poissons Ratio (x) = 0.01325 0.22001
# Poissons Ratio (y) = 0.01226 0.24550
# Poissons Ratio (z) = 0.16715 0.20168
#
# Static dielectric constant tensor:
#      x y z
#    x 2.062300 0.020040 -0.024330 
#    y 0.020040 2.204720 -0.000360 
#    z -0.024330 -0.000360 2.130660 
# 
# From -- ./inp_files/205843.got.cif
#   From: 2010.05.17/outbox.cif.g08.bks.cpg/sg2_103_cif.got.tgz:205843.got - 2010.06.03 11:33:40.
