data_PCOD9108544
_publ_section_title
;
Structure prediction by ZEFSAII (Michael W. Deem and Ramdas Pophale) SiO2 
 PCOD9108544
Probable space group: P -1
;
_chemical_formula_sum "Si O2"
_cell_formula_units_Z 15
_cell_length_a 18.497413
_cell_length_b 14.046545
_cell_length_c 7.472780
_cell_angle_alpha 73.347215
_cell_angle_beta 71.662835
_cell_angle_gamma 18.513767
_cell_volume 584.773876
_symmetry_space_group_name_H-M "P -1"
_symmetry_group_IT_number 2
_symmetry_cell_setting 'triclinic'
loop_
_space_group_symop_operation_xyz
x,y,z
-x,-y,-z
loop_
_atom_site_type_symbol
_atom_site_label
_atom_site_fract_x
_atom_site_fract_y
_atom_site_fract_z
Si Si1 0.681942 0.095871 0.348516
Si Si2 0.344121 0.371754 0.659846
Si Si3 0.455002 0.682689 0.034699
Si Si4 0.500000 0.000000 0.500000
Si Si5 0.128696 0.333021 0.712009
Si Si6 0.196679 0.838093 0.674767
Si Si7 0.658202 0.962673 0.936935
Si Si8 0.871408 0.071632 0.715850
O O1 0.533322 0.223029 0.545089
O O2 0.808261 0.039924 0.340991
O O3 0.850337 0.806011 0.290156
O O4 0.510399 0.333210 0.190307
O O5 0.098855 0.726349 0.676950
O O6 0.363745 0.264256 0.551651
O O7 0.430700 0.219199 0.863317
O O8 0.651353 0.406141 0.166086
O O9 0.346538 0.914829 0.080406
O O10 0.272667 0.818135 0.099334
O O11 0.752783 0.744035 0.485568
O O12 0.885679 0.658153 0.810707
O O13 0.318236 0.117554 0.842999
O O14 0.964599 0.059703 0.726854
O O15 0.269571 0.743190 0.459422
#
# Coordination Sequence:
#
# PCOD9108544 Si02
#       8
#     2   2   2   1   2   2   2   2
#     4  10  24  41  64  92 134 166 209 260 332 362
#     4  11  23  42  62  94 127 170 207 268 311 387
#     4  11  22  44  66  94 127 172 209 268 312 378
#     4  10  22  38  60  94 130 148 214 262 316 368
#     4   9  21  41  64  95 120 171 205 265 314 382
#     4  11  24  42  66  93 130 172 210 268 308 383
#     4  10  20  40  69  85 126 170 214 247 325 375
#     4  11  25  40  66  96 123 170 226 249 316 377
#
# _framework density 25.650941
#
# number of rings (size 3 to 8) (size 9 to 14) (size 15 to 20)
#    0.000    1.600    1.333    2.400    3.733    4.267 
#    2.400    1.333    0.000    0.000    0.000    0.000 
#    0.000    0.000    0.000    0.000    0.000    0.000 
#
# Total GULP energy -83775.407658 kJ/mol
# GULP energy per Si atom -5585.027177 kJ/mol
# Density = 2.559256 g / cm^3
# Si number density = 25.650941 Si / 1000 Ang^3
#
#
#
# Elastic Constant Matrix: (Units=GPa)
#
#
# Indices 1 2 3 4 5 6 
#
# 1 190.2453 36.1588 1.1088 -4.4573 27.7883 14.3377
# 2 36.1588 89.8193 25.8425 -12.1142 20.2564 13.7889
# 3 1.1088 25.8425 95.8823 -26.9034 23.7802 -7.9086
# 4 -4.4573 -12.1142 -26.9034 39.3565 2.7790 4.0272
# 5 27.7883 20.2564 23.7802 2.7790 26.9092 1.4939
# 6 14.3377 13.7889 -7.9086 4.0272 1.4939 26.4396
#
#
#
# Elastic Compliance Matrix: (Units=1/GPa)
#
#
# Indices 1 2 3 4 5 6 
#
# 1 0.007154 -0.000648 0.003590 0.004052 -0.010352 -0.002500
# 2 -0.000648 0.016247 -0.000543 0.006231 -0.011248 -0.008598
# 3 0.003590 -0.000543 0.021310 0.016132 -0.023997 0.003609
# 4 0.004052 0.006231 0.016132 0.041276 -0.027094 -0.005377
# 5 -0.010352 -0.011248 -0.023997 -0.027094 0.080108 0.003902
# 6 -0.002500 -0.008598 0.003609 -0.005377 0.003902 0.045340
#
#
# Mechanical properties :
#
#
# Convention : Reuss Voigt Hill
#
# Bulk Modulus (GPa) = 20.19809 55.79635 37.99722
# Shear Modulus (GPa) = 22.40742 39.39682 30.90212
#
# Velocity S-wave (km/s) = 2.95880 3.92328 3.47467
# Velocity P-wave (km/s) = 4.42312 6.50556 5.56265
#
# Compressibility (1/GPa) = 0.04950962
#
# Stress axis : x y z
#
# Youngs Moduli (GPa) = 139.78083 61.54824 46.92636
#
# Poissons Ratio (x) = 0.03989 -0.16847
# Poissons Ratio (y) = 0.09058 0.02548
# Poissons Ratio (z) = -0.50183 0.03342
#
# Static dielectric constant tensor:
#      x y z
#    x 1.991270 0.005260 -0.019760 
#    y 0.005260 2.059830 0.001250 
#    z -0.019760 0.001250 2.285530 
# 
# From -- ./inp_files/334851.got.cif
#   From: 2010.05.17/outbox.cif.g08.bks.cpg/sg2_168_cif.got.tgz:334851.got - 2010.06.03 11:33:40.
