data_PCOD9108765
_publ_section_title
;
Structure prediction by ZEFSAII (Michael W. Deem and Ramdas Pophale) SiO2 
 PCOD9108765
Probable space group: P -1
;
_chemical_formula_sum "Si O2"
_cell_formula_units_Z 10
_cell_length_a 5.903573
_cell_length_b 9.353185
_cell_length_c 14.131567
_cell_angle_alpha 46.494248
_cell_angle_beta 125.370263
_cell_angle_gamma 92.156629
_cell_volume 365.635739
_symmetry_space_group_name_H-M "P -1"
_symmetry_group_IT_number 2
_symmetry_cell_setting 'triclinic'
loop_
_space_group_symop_operation_xyz
x,y,z
-x,-y,-z
loop_
_atom_site_type_symbol
_atom_site_label
_atom_site_fract_x
_atom_site_fract_y
_atom_site_fract_z
Si Si1 0.121680 0.225438 0.844236
Si Si2 0.968133 0.280356 0.089654
Si Si3 0.833141 0.006092 0.559230
Si Si4 0.337288 0.480986 0.698508
Si Si5 0.369418 0.891285 0.232589
O O1 0.047499 0.483991 0.686863
O O2 0.844125 0.205107 0.738990
O O3 0.500000 0.000000 0.000000
O O4 0.152576 0.135564 0.998964
O O5 0.891781 0.215875 0.202198
O O6 0.347013 0.037637 0.252213
O O7 0.000000 0.500000 0.000000
O O8 0.654567 0.354105 0.909197
O O9 0.743664 0.261273 0.462900
O O10 0.500000 0.000000 0.500000
O O11 0.000000 0.000000 0.500000
O O12 0.387676 0.324191 0.688121
#
# Coordination Sequence:
#
# PCOD9108765 Si02
#       5
#     2   2   2   2   2
#     4   9  16  34  68 100 136 179 229 297 353 420
#     4  12  24  45  77 107 142 203 241 299 381 437
#     4  12  31  51  69 113 154 192 248 310 367 440
#     4  11  23  45  76 100 148 190 242 310 361 438
#     4  10  20  40  71 106 142 180 255 289 370 436
#
# _framework density 27.349627999999999
#
# number of rings (size 3 to 8) (size 9 to 14) (size 15 to 20)
#    0.000    1.200    8.000    0.000    5.600    3.200 
#    0.000    1.000    0.000    0.000    0.000    0.000 
#    0.000    0.000    0.000    0.000    0.000    0.000 
#
# Total GULP energy -55712.440473 kJ/mol
# GULP energy per Si atom -5571.244047 kJ/mol
# Density = 2.728738 g / cm^3
# Si number density = 27.349628 Si / 1000 Ang^3
#
#
#
# Elastic Constant Matrix: (Units=GPa)
#
#
# Indices 1 2 3 4 5 6 
#
# 1 152.4759 86.4184 65.5239 -7.4332 -39.9932 13.3141
# 2 86.4184 160.1684 56.2232 -28.2257 -29.5169 2.4365
# 3 65.5239 56.2232 127.6242 -4.1897 -42.7497 -8.2263
# 4 -7.4332 -28.2257 -4.1897 56.4555 8.3927 -24.3552
# 5 -39.9932 -29.5169 -42.7497 8.3927 58.6835 -5.6140
# 6 13.3141 2.4365 -8.2263 -24.3552 -5.6140 51.1957
#
#
#
# Elastic Compliance Matrix: (Units=1/GPa)
#
#
# Indices 1 2 3 4 5 6 
#
# 1 0.012100 -0.005436 -0.003157 -0.003975 0.003310 -0.004923
# 2 -0.005436 0.010724 -0.001476 0.006058 0.000088 0.003558
# 3 -0.003157 -0.001476 0.012569 0.000465 0.006564 0.003852
# 4 -0.003975 0.006058 0.000465 0.026160 -0.001814 0.013066
# 5 0.003310 0.000088 0.006564 -0.001814 0.024576 0.002022
# 6 -0.004923 0.003558 0.003852 0.013066 0.002022 0.027701
#
#
# Mechanical properties :
#
#
# Convention : Reuss Voigt Hill
#
# Bulk Modulus (GPa) = 65.54711 95.17774 80.36242
# Shear Modulus (GPa) = 35.95783 48.74047 42.34915
#
# Velocity S-wave (km/s) = 3.62988 4.22610 3.93929
# Velocity P-wave (km/s) = 6.44875 7.66089 7.08080
#
# Compressibility (1/GPa) = 0.01525620
#
# Stress axis : x y z
#
# Youngs Moduli (GPa) = 82.64206 93.24620 79.56283
#
# Poissons Ratio (x) = 0.50691 0.25116
# Poissons Ratio (y) = 0.44926 0.11740
# Poissons Ratio (z) = 0.26088 0.13759
#
# Static dielectric constant tensor:
#      x y z
#    x 2.218610 -0.057840 0.075280 
#    y -0.057840 2.230340 0.058940 
#    z 0.075280 0.058940 2.349100 
# 
# From -- ./inp_files/480189.got.cif
#   From: 2010.05.17/outbox.cif.g08.bks.cpg/sg2_241_cif.got.tgz:480189.got - 2010.06.03 11:33:40.
