data_PCOD9108453
_publ_section_title
;
Structure prediction by ZEFSAII (Michael W. Deem and Ramdas Pophale) SiO2 
 PCOD9108453
Probable space group: P -1
;
_chemical_formula_sum "Si O2"
_cell_formula_units_Z 16
_cell_length_a 8.370808
_cell_length_b 12.128054
_cell_length_c 18.723754
_cell_angle_alpha 36.885212
_cell_angle_beta 99.040573
_cell_angle_gamma 126.414190
_cell_volume 691.656776
_symmetry_space_group_name_H-M "P -1"
_symmetry_group_IT_number 2
_symmetry_cell_setting 'triclinic'
loop_
_space_group_symop_operation_xyz
x,y,z
-x,-y,-z
loop_
_atom_site_type_symbol
_atom_site_label
_atom_site_fract_x
_atom_site_fract_y
_atom_site_fract_z
Si Si1 0.415537 0.123657 0.127514
Si Si2 0.343944 0.930676 0.711738
Si Si3 0.863627 0.565790 0.429729
Si Si4 0.729469 0.221853 0.842396
Si Si5 0.718688 0.304027 0.309404
Si Si6 0.196984 0.188698 0.586706
Si Si7 0.255758 0.344520 0.362427
Si Si8 0.599790 0.629950 0.791257
O O1 0.579377 0.165877 0.179221
O O2 0.389926 0.957971 0.146268
O O3 0.530896 0.416796 0.955511
O O4 0.111740 0.892131 0.245922
O O5 0.185654 0.732919 0.732552
O O6 0.212534 0.987406 0.712361
O O7 0.620636 0.258001 0.531036
O O8 0.000000 0.500000 0.500000
O O9 0.744176 0.599012 0.462643
O O10 0.805423 0.503247 0.700289
O O11 0.015852 0.390296 0.791087
O O12 0.500000 0.000000 0.000000
O O13 0.573905 0.344850 0.240714
O O14 0.500000 0.000000 0.500000
O O15 0.896410 0.955210 0.662213
O O16 0.362131 0.359339 0.436388
O O17 0.425077 0.485289 0.229414
O O18 0.000000 0.000000 0.500000
#
# Coordination Sequence:
#
# PCOD9108453 Si02
#       8
#     2   2   2   2   2   2   2   2
#     4  11  25  45  68 100 149 180 228 295 365 421
#     4  11  24  43  70 103 136 185 237 287 356 425
#     4  10  21  40  63  95 136 179 225 288 345 414
#     4  12  25  47  69 103 147 184 232 296 364 421
#     4  12  25  46  75 102 137 191 244 291 356 434
#     4  11  22  40  69 101 136 180 244 285 348 420
#     4  10  20  40  68  96 135 182 233 286 339 423
#     4  11  23  42  67 102 138 184 232 290 357 426
#
# _framework density 23.132860999999998
#
# number of rings (size 3 to 8) (size 9 to 14) (size 15 to 20)
#    0.000    1.000    1.250    7.875    0.000    3.000 
#    4.500    0.000    0.000    0.000    0.000    0.000 
#    0.000    0.000    0.000    0.000    0.000    0.000 
#
# Total GULP energy -89313.389110 kJ/mol
# GULP energy per Si atom -5582.086819 kJ/mol
# Density = 2.308021 g / cm^3
# Si number density = 23.132861 Si / 1000 Ang^3
#
#
#
# Elastic Constant Matrix: (Units=GPa)
#
#
# Indices 1 2 3 4 5 6 
#
# 1 89.3200 1.4943 14.7608 11.2947 22.9130 7.2063
# 2 1.4943 97.6612 18.6842 14.3274 8.4178 -8.0474
# 3 14.7608 18.6842 103.0284 16.3194 12.3686 11.7193
# 4 11.2947 14.3274 16.3194 30.0790 0.0491 -1.2514
# 5 22.9130 8.4178 12.3686 0.0491 38.1047 1.3531
# 6 7.2063 -8.0474 11.7193 -1.2514 1.3531 44.2010
#
#
#
# Elastic Compliance Matrix: (Units=1/GPa)
#
#
# Indices 1 2 3 4 5 6 
#
# 1 0.014373 0.001272 -0.000044 -0.006048 -0.008831 -0.002001
# 2 0.001272 0.011686 -0.001374 -0.005201 -0.002973 0.002228
# 3 -0.000044 -0.001374 0.011665 -0.005794 -0.003328 -0.003398
# 4 -0.006048 -0.005201 -0.005794 0.041233 0.006523 0.002543
# 5 -0.008831 -0.002973 -0.003328 0.006523 0.033248 0.000948
# 6 -0.002001 0.002228 -0.003398 0.002543 0.000948 0.024300
#
#
# Mechanical properties :
#
#
# Convention : Reuss Voigt Hill
#
# Bulk Modulus (GPa) = 26.71537 39.98756 33.35146
# Shear Modulus (GPa) = 33.49516 39.48165 36.48841
#
# Velocity S-wave (km/s) = 3.80932 4.13575 3.97588
# Velocity P-wave (km/s) = 5.56072 6.33478 5.96033
#
# Compressibility (1/GPa) = 0.03743164
#
# Stress axis : x y z
#
# Youngs Moduli (GPa) = 69.57374 85.57423 85.72339
#
# Poissons Ratio (x) = -0.10886 0.00379
# Poissons Ratio (y) = -0.08850 0.11781
# Poissons Ratio (z) = 0.00308 0.11760
#
# Static dielectric constant tensor:
#      x y z
#    x 1.964210 -0.021590 -0.046240 
#    y -0.021590 1.927510 0.016620 
#    z -0.046240 0.016620 1.919690 
# 
# From -- ./inp_files/559678.got.cif
#   From: 2010.05.17/outbox.cif.g08.bks.cpg/sg2_280_cif.got.tgz:559678.got - 2010.06.03 11:33:40.
