data_PCOD9108455
_publ_section_title
;
Structure prediction by ZEFSAII (Michael W. Deem and Ramdas Pophale) SiO2 
 PCOD9108455
Probable space group: P -1
;
_chemical_formula_sum "Si O2"
_cell_formula_units_Z 16
_cell_length_a 14.298732
_cell_length_b 9.361869
_cell_length_c 8.804442
_cell_angle_alpha 61.751638
_cell_angle_beta 81.310087
_cell_angle_gamma 125.363881
_cell_volume 682.584500
_symmetry_space_group_name_H-M "P -1"
_symmetry_group_IT_number 2
_symmetry_cell_setting 'triclinic'
loop_
_space_group_symop_operation_xyz
x,y,z
-x,-y,-z
loop_
_atom_site_type_symbol
_atom_site_label
_atom_site_fract_x
_atom_site_fract_y
_atom_site_fract_z
Si Si1 0.128522 0.128848 0.181591
Si Si2 0.277597 0.641916 0.518267
Si Si3 0.454524 0.094316 0.069836
Si Si4 0.663478 0.344987 0.175179
Si Si5 0.039865 0.692765 0.278754
Si Si6 0.920110 0.482221 0.892815
Si Si7 0.134396 0.036114 0.560193
Si Si8 0.584787 0.501919 0.600039
O O1 0.156782 0.169162 0.335462
O O2 0.254462 0.384054 0.941870
O O3 0.119532 0.939015 0.215973
O O4 0.973620 0.015889 0.268814
O O5 0.357469 0.759808 0.601345
O O6 0.108324 0.425128 0.692145
O O7 0.336238 0.553955 0.467229
O O8 0.308456 0.837556 0.305057
O O9 0.546257 0.225761 0.136388
O O10 0.484398 0.291443 0.861057
O O11 0.500000 0.000000 0.000000
O O12 0.782681 0.395508 0.030964
O O13 0.000000 0.500000 0.500000
O O14 0.123568 0.711078 0.116203
O O15 0.041496 0.763130 0.664970
O O16 0.000000 0.500000 0.000000
O O17 0.289906 0.224254 0.499009
O O18 0.500000 0.500000 0.500000
#
# Coordination Sequence:
#
# PCOD9108455 Si02
#       8
#     2   2   2   2   2   2   2   2
#     4  10  21  39  71  99 136 180 223 294 347 419
#     4  11  25  46  68 104 145 186 234 295 348 422
#     4  10  24  44  73  97 135 189 235 290 346 411
#     4  11  23  45  72 100 140 189 234 285 362 415
#     4  12  24  42  68 107 142 179 236 289 362 421
#     4  11  24  39  67 108 136 175 232 295 353 423
#     4  10  20  40  68  96 138 180 227 286 354 409
#     4  11  24  47  71 103 139 191 242 287 348 425
#
# _framework density 23.44032
#
# number of rings (size 3 to 8) (size 9 to 14) (size 15 to 20)
#    0.000    1.250    5.000    0.375    3.500    3.500 
#    4.500    0.625    0.000    0.000    0.000    0.000 
#    0.000    0.000    0.000    0.000    0.000    0.000 
#
# Total GULP energy -89379.790374 kJ/mol
# GULP energy per Si atom -5586.236898 kJ/mol
# Density = 2.338697 g / cm^3
# Si number density = 23.440320 Si / 1000 Ang^3
#
#
#
# Elastic Constant Matrix: (Units=GPa)
#
#
# Indices 1 2 3 4 5 6 
#
# 1 61.8973 20.1116 7.6919 -6.7134 16.2553 6.6346
# 2 20.1116 101.5249 15.3035 2.6507 -3.0608 -14.7087
# 3 7.6919 15.3035 95.5024 3.6529 16.7235 -2.5708
# 4 -6.7134 2.6507 3.6529 26.6524 5.1053 7.4255
# 5 16.2553 -3.0608 16.7235 5.1053 28.2086 4.0686
# 6 6.6346 -14.7087 -2.5708 7.4255 4.0686 37.8805
#
#
#
# Elastic Compliance Matrix: (Units=1/GPa)
#
#
# Indices 1 2 3 4 5 6 
#
# 1 0.024887 -0.007076 0.001452 0.012150 -0.017079 -0.007555
# 2 -0.007076 0.012907 -0.002321 -0.005896 0.006983 0.006499
# 3 0.001452 -0.002321 0.012207 0.000406 -0.008472 0.000503
# 4 0.012150 -0.005896 0.000406 0.047293 -0.014699 -0.012082
# 5 -0.017079 0.006983 -0.008472 -0.014699 0.053405 0.002273
# 6 -0.007555 0.006499 0.000503 -0.012082 0.002273 0.032404
#
#
# Mechanical properties :
#
#
# Convention : Reuss Voigt Hill
#
# Bulk Modulus (GPa) = 29.31416 38.34873 33.83145
# Shear Modulus (GPa) = 23.76842 32.93615 28.35229
#
# Velocity S-wave (km/s) = 3.18779 3.75254 3.48163
# Velocity P-wave (km/s) = 5.10709 5.93052 5.53414
#
# Compressibility (1/GPa) = 0.03411321
#
# Stress axis : x y z
#
# Youngs Moduli (GPa) = 40.18128 77.47518 81.91744
#
# Poissons Ratio (x) = 0.54818 -0.11895
# Poissons Ratio (y) = 0.28431 0.19012
# Poissons Ratio (z) = -0.05834 0.17981
#
# Static dielectric constant tensor:
#      x y z
#    x 1.842250 0.114130 -0.153410 
#    y 0.114130 1.619810 0.423450 
#    z -0.153410 0.423450 1.179280 
# 
# From -- ./inp_files/297653.got.cif
#   From: 2010.05.17/outbox.cif.g08.bks.cpg/sg2_149_cif.got.tgz:297653.got - 2010.06.03 11:33:40.
