data_PCOD9108556
_publ_section_title
;
Structure prediction by ZEFSAII (Michael W. Deem and Ramdas Pophale) SiO2 
 PCOD9108556
Probable space group: P -1
;
_chemical_formula_sum "Si O2"
_cell_formula_units_Z 16
_cell_length_a 14.512168
_cell_length_b 14.785509
_cell_length_c 9.045269
_cell_angle_alpha 85.885523
_cell_angle_beta 111.568230
_cell_angle_gamma 36.075105
_cell_volume 785.545157
_symmetry_space_group_name_H-M "P -1"
_symmetry_group_IT_number 2
_symmetry_cell_setting 'triclinic'
loop_
_space_group_symop_operation_xyz
x,y,z
-x,-y,-z
loop_
_atom_site_type_symbol
_atom_site_label
_atom_site_fract_x
_atom_site_fract_y
_atom_site_fract_z
Si Si1 0.874955 0.777526 0.596676
Si Si2 0.414980 0.957059 0.130153
Si Si3 0.193401 0.855181 0.254865
Si Si4 0.138303 0.527436 0.478933
Si Si5 0.004529 0.503878 0.828400
Si Si6 0.491404 0.904290 0.852119
Si Si7 0.731954 0.395562 0.603937
Si Si8 0.968632 0.814030 0.913631
O O1 0.016623 0.716338 0.807289
O O2 0.997514 0.647118 0.532972
O O3 0.816096 0.731451 0.645898
O O4 0.650339 0.013571 0.380624
O O5 0.627807 0.718215 0.323536
O O6 0.481390 0.009027 0.166862
O O7 0.213603 0.090964 0.103790
O O8 0.369791 0.980953 0.925420
O O9 0.459445 0.625671 0.397265
O O10 0.173403 0.783090 0.357714
O O11 0.145724 0.999837 0.240033
O O12 0.000000 0.000000 0.000000
O O13 0.175011 0.598994 0.438134
O O14 0.023880 0.562740 0.276774
O O15 0.251973 0.339978 0.956235
O O16 0.000000 0.500000 0.000000
O O17 0.821408 0.338877 0.832857
#
# Coordination Sequence:
#
# PCOD9108556 Si02
#       8
#     2   2   2   2   2   2   2   2
#     4  12  25  39  58  91 127 166 203 252 304 359
#     4  11  21  39  62  84 120 169 211 250 296 357
#     4   9  20  39  67  97 118 151 202 255 305 370
#     4  12  22  41  62  88 125 166 205 253 309 361
#     4  12  25  39  59  89 124 166 215 255 301 353
#     4  11  23  38  58  83 124 167 209 255 295 346
#     4  10  20  40  69  91 121 155 201 255 311 358
#     4  11  23  39  63  95 122 158 209 248 305 371
#
# _framework density 20.368023000000001
#
# number of rings (size 3 to 8) (size 9 to 14) (size 15 to 20)
#    0.000    1.000    3.750    4.875    1.750    2.000 
#    0.000    0.625    0.000    6.750    0.000    0.000 
#    0.000    0.000    0.000    0.000    0.000    0.000 
#
# Total GULP energy -89189.580477 kJ/mol
# GULP energy per Si atom -5574.348780 kJ/mol
# Density = 2.032166 g / cm^3
# Si number density = 20.368023 Si / 1000 Ang^3
#
#
#
# Elastic Constant Matrix: (Units=GPa)
#
#
# Indices 1 2 3 4 5 6 
#
# 1 82.7176 39.0822 42.3279 6.5802 -12.6415 21.4716
# 2 39.0822 71.5709 35.9204 8.3636 -9.5500 6.2178
# 3 42.3279 35.9204 131.9228 -2.4767 -10.8052 -7.6555
# 4 6.5802 8.3636 -2.4767 38.5614 0.2098 -7.8511
# 5 -12.6415 -9.5500 -10.8052 0.2098 33.9840 -15.6443
# 6 21.4716 6.2178 -7.6555 -7.8511 -15.6443 26.5006
#
#
#
# Elastic Compliance Matrix: (Units=1/GPa)
#
#
# Indices 1 2 3 4 5 6 
#
# 1 0.029168 -0.007969 -0.010190 -0.010748 -0.010165 -0.033891
# 2 -0.007969 0.020221 -0.002692 -0.002880 0.002633 0.001636
# 3 -0.010190 -0.002692 0.013651 0.007300 0.009132 0.020385
# 4 -0.010748 -0.002880 0.007300 0.034425 0.010006 0.027599
# 5 -0.010165 0.002633 0.009132 0.010006 0.048489 0.041845
# 6 -0.033891 0.001636 0.020385 0.027599 0.041845 0.103579
#
#
# Mechanical properties :
#
#
# Convention : Reuss Voigt Hill
#
# Bulk Modulus (GPa) = 46.86784 57.87470 52.37127
# Shear Modulus (GPa) = 16.75896 31.06793 23.91344
#
# Velocity S-wave (km/s) = 2.87157 3.90978 3.43018
# Velocity P-wave (km/s) = 5.83567 6.98985 6.43868
#
# Compressibility (1/GPa) = 0.02133659
#
# Stress axis : x y z
#
# Youngs Moduli (GPa) = 34.28421 49.45372 73.25660
#
# Poissons Ratio (x) = 0.39412 0.74647
# Poissons Ratio (y) = 0.27322 0.19723
# Poissons Ratio (z) = 0.34935 0.13315
#
# Static dielectric constant tensor:
#      x y z
#    x 1.757190 0.023100 0.016460 
#    y 0.023100 1.757010 -0.028690 
#    z 0.016460 -0.028690 1.771730 
# 
# From -- ./inp_files/215603.got.cif
#   From: 2010.05.17/outbox.cif.g08.bks.cpg/sg2_108_cif.got.tgz:215603.got - 2010.06.03 11:33:40.
