data_PCOD9108691
_publ_section_title
;
Structure prediction by ZEFSAII (Michael W. Deem and Ramdas Pophale) SiO2 
 PCOD9108691
Probable space group: P -1
;
_chemical_formula_sum "Si O2"
_cell_formula_units_Z 16
_cell_length_a 11.947922
_cell_length_b 11.904174
_cell_length_c 7.855854
_cell_angle_alpha 128.111839
_cell_angle_beta 65.851768
_cell_angle_gamma 85.145226
_cell_volume 708.259486
_symmetry_space_group_name_H-M "P -1"
_symmetry_group_IT_number 2
_symmetry_cell_setting 'triclinic'
loop_
_space_group_symop_operation_xyz
x,y,z
-x,-y,-z
loop_
_atom_site_type_symbol
_atom_site_label
_atom_site_fract_x
_atom_site_fract_y
_atom_site_fract_z
Si Si1 0.176942 0.641157 0.688442
Si Si2 0.355206 0.493061 0.099467
Si Si3 0.581443 0.057222 0.877805
Si Si4 0.374230 0.211447 0.633316
Si Si5 0.953723 0.656195 0.057337
Si Si6 0.847630 0.041261 0.828892
Si Si7 0.890005 0.222983 0.677405
Si Si8 0.432319 0.380832 0.440259
O O1 0.265192 0.570610 0.397311
O O2 0.270239 0.500242 0.630998
O O3 0.179117 0.808270 0.891498
O O4 0.026627 0.651061 0.824492
O O5 0.241626 0.613737 0.145244
O O6 0.500000 0.500000 0.000000
O O7 0.387957 0.308360 0.876806
O O8 0.727446 0.992546 0.829591
O O9 0.577136 0.975166 0.624032
O O10 0.506107 0.250635 0.123011
O O11 0.500000 0.000000 0.000000
O O12 0.209307 0.273820 0.788242
O O13 0.440083 0.281318 0.512592
O O14 0.010402 0.754171 0.227860
O O15 0.000000 0.500000 0.000000
O O16 0.841752 0.112900 0.709622
O O17 0.997733 0.891414 0.638385
O O18 0.500000 0.500000 0.500000
#
# Coordination Sequence:
#
# PCOD9108691 Si02
#       8
#     2   2   2   2   2   2   2   2
#     4  11  24  37  62  97 125 177 215 260 333 402
#     4  12  27  42  62  91 143 180 212 254 337 420
#     4  10  22  34  66 101 126 157 217 293 326 355
#     4  11  22  42  64  96 129 170 218 285 325 368
#     4  11  19  39  68  93 120 158 227 282 315 366
#     4  10  20  40  70  94 121 162 232 281 315 372
#     4  10  22  40  67  98 120 170 221 275 323 382
#     4  11  20  37  66  95 126 168 229 269 312 386
#
# _framework density 22.590591
#
# number of rings (size 3 to 8) (size 9 to 14) (size 15 to 20)
#    0.000    1.250    5.000    1.500    3.500    1.000 
#    0.000    0.625    0.000    0.000    0.000    0.000 
#    0.000    0.000    0.000    0.000    0.000    0.000 
#
# Total GULP energy -89087.779607 kJ/mol
# GULP energy per Si atom -5567.986225 kJ/mol
# Density = 2.253917 g / cm^3
# Si number density = 22.590591 Si / 1000 Ang^3
#
#
#
# Elastic Constant Matrix: (Units=GPa)
#
#
# Indices 1 2 3 4 5 6 
#
# 1 91.3152 35.7150 51.0748 1.5956 -8.0876 29.3230
# 2 35.7150 69.3019 42.6390 1.4337 -3.9320 27.2816
# 3 51.0748 42.6390 184.4919 14.7934 11.6546 18.0622
# 4 1.5956 1.4337 14.7934 46.7849 5.6952 -4.9501
# 5 -8.0876 -3.9320 11.6546 5.6952 36.4265 -1.2682
# 6 29.3230 27.2816 18.0622 -4.9501 -1.2682 37.1268
#
#
#
# Elastic Compliance Matrix: (Units=1/GPa)
#
#
# Indices 1 2 3 4 5 6 
#
# 1 0.017653 -0.002619 -0.003474 -0.001069 0.004556 -0.010315
# 2 -0.002619 0.023404 -0.003428 -0.001315 0.002776 -0.013542
# 3 -0.003474 -0.003428 0.007370 -0.001573 -0.003206 0.001358
# 4 -0.001069 -0.001315 -0.001573 0.022931 -0.003269 0.005521
# 5 0.004556 0.002776 -0.003206 -0.003269 0.030179 -0.003483
# 6 -0.010315 -0.013542 0.001358 0.005521 -0.003483 0.044989
#
#
# Mechanical properties :
#
#
# Convention : Reuss Voigt Hill
#
# Bulk Modulus (GPa) = 34.03084 67.10739 50.56911
# Shear Modulus (GPa) = 28.51217 38.44633 33.47925
#
# Velocity S-wave (km/s) = 3.55650 4.12985 3.85385
# Velocity P-wave (km/s) = 5.65347 7.24647 6.49896
#
# Compressibility (1/GPa) = 0.02938511
#
# Stress axis : x y z
#
# Youngs Moduli (GPa) = 56.64761 42.72725 135.68426
#
# Poissons Ratio (x) = 0.11190 0.47137
# Poissons Ratio (y) = 0.14835 0.46515
# Poissons Ratio (z) = 0.19680 0.14648
#
# Static dielectric constant tensor:
#      x y z
#    x 1.904360 -0.037120 0.138840 
#    y -0.037120 1.824370 0.169020 
#    z 0.138840 0.169020 1.810110 
# 
# From -- ./inp_files/271183.got.cif
#   From: 2010.05.17/outbox.cif.g08.bks.cpg/sg2_136_cif.got.tgz:271183.got - 2010.06.03 11:33:40.
