data_PCOD9108625
_publ_section_title
;
Structure prediction by ZEFSAII (Michael W. Deem and Ramdas Pophale) SiO2 
 PCOD9108625
Probable space group: P -1
;
_chemical_formula_sum "Si O2"
_cell_formula_units_Z 16
_cell_length_a 21.065952
_cell_length_b 9.436725
_cell_length_c 8.951226
_cell_angle_alpha 31.369898
_cell_angle_beta 55.317306
_cell_angle_gamma 64.424006
_cell_volume 755.602042
_symmetry_space_group_name_H-M "P -1"
_symmetry_group_IT_number 2
_symmetry_cell_setting 'triclinic'
loop_
_space_group_symop_operation_xyz
x,y,z
-x,-y,-z
loop_
_atom_site_type_symbol
_atom_site_label
_atom_site_fract_x
_atom_site_fract_y
_atom_site_fract_z
Si Si1 0.751536 0.046759 0.846257
Si Si2 0.885181 0.352568 0.598205
Si Si3 0.905998 0.934552 0.173952
Si Si4 0.345062 0.512660 0.483037
Si Si5 0.492657 0.281102 0.342973
Si Si6 0.451142 0.741423 0.385238
Si Si7 0.041702 0.391393 0.185867
Si Si8 0.860997 0.033761 0.459506
O O1 0.823191 0.203476 0.701173
O O2 0.680779 0.226177 0.803115
O O3 0.779912 0.050458 0.633194
O O4 0.726486 0.729283 0.201468
O O5 0.884264 0.675048 0.329144
O O6 0.972572 0.319701 0.459765
O O7 0.874025 0.196170 0.910030
O O8 0.867224 0.873325 0.441661
O O9 0.000000 0.000000 0.000000
O O10 0.414507 0.365869 0.450401
O O11 0.371585 0.641721 0.492914
O O12 0.549083 0.255291 0.436663
O O13 0.500000 0.000000 0.500000
O O14 0.500000 0.500000 0.000000
O O15 0.500000 0.500000 0.500000
O O16 0.500000 0.000000 0.000000
O O17 0.087727 0.128927 0.348307
O O18 0.000000 0.500000 0.000000
O O19 0.100330 0.659958 0.905112
#
# Coordination Sequence:
#
# PCOD9108625 Si02
#       8
#     2   2   2   2   2   2   2   2
#     4  12  26  43  62  91 133 184 213 259 321 414
#     4  12  24  40  63  89 126 167 219 274 347 377
#     4  12  23  41  62  92 117 160 211 298 346 373
#     4  11  24  45  66  95 138 177 214 251 325 393
#     4  11  22  41  73 111 133 162 216 276 311 366
#     4  10  20  40  70 100 133 172 215 264 305 370
#     4  12  22  37  63  93 115 155 226 295 314 366
#     4  12  25  39  63  89 124 162 225 272 329 383
#
# _framework density 21.175166999999998
#
# number of rings (size 3 to 8) (size 9 to 14) (size 15 to 20)
#    0.000    0.500    3.750    6.750    1.750    0.000 
#    0.000    7.500    0.000    0.000    0.000    0.000 
#    0.000    0.000    0.000    0.000    0.000    0.000 
#
# Total GULP energy -89219.448098 kJ/mol
# GULP energy per Si atom -5576.215506 kJ/mol
# Density = 2.112697 g / cm^3
# Si number density = 21.175167 Si / 1000 Ang^3
#
#
#
# Elastic Constant Matrix: (Units=GPa)
#
#
# Indices 1 2 3 4 5 6 
#
# 1 34.7572 26.7719 33.9907 -3.7126 7.3258 4.2969
# 2 26.7719 99.4216 27.0177 -3.8049 1.2067 12.8109
# 3 33.9907 27.0177 116.8941 -23.3204 11.1839 15.0739
# 4 -3.7126 -3.8049 -23.3204 41.0534 -0.2700 4.2261
# 5 7.3258 1.2067 11.1839 -0.2700 35.7464 -6.5083
# 6 4.2969 12.8109 15.0739 4.2261 -6.5083 37.4734
#
#
#
# Elastic Compliance Matrix: (Units=1/GPa)
#
#
# Indices 1 2 3 4 5 6 
#
# 1 0.049405 -0.010284 -0.012555 -0.003900 -0.005443 0.002396
# 2 -0.010284 0.013165 0.000498 0.000936 0.000882 -0.003474
# 3 -0.012555 0.000498 0.014749 0.007896 -0.003108 -0.006094
# 4 -0.003900 0.000936 0.007896 0.029262 -0.002724 -0.006822
# 5 -0.005443 0.000882 -0.003108 -0.002724 0.031346 0.007324
# 6 0.002396 -0.003474 -0.006094 -0.006822 0.007324 0.032091
#
#
# Mechanical properties :
#
#
# Convention : Reuss Voigt Hill
#
# Bulk Modulus (GPa) = 30.64035 47.40372 39.02203
# Shear Modulus (GPa) = 22.16519 33.74082 27.95301
#
# Velocity S-wave (km/s) = 3.23887 3.99609 3.63724
# Velocity P-wave (km/s) = 5.33745 6.61262 6.00896
#
# Compressibility (1/GPa) = 0.03263670
#
# Stress axis : x y z
#
# Youngs Moduli (GPa) = 20.24084 75.96037 67.80162
#
# Poissons Ratio (x) = 0.78114 0.85128
# Poissons Ratio (y) = 0.20815 -0.03376
# Poissons Ratio (z) = 0.25413 -0.03783
#
# Static dielectric constant tensor:
#      x y z
#    x 1.940890 -0.045740 0.114430 
#    y -0.045740 1.937310 -0.088040 
#    z 0.114430 -0.088040 1.889140 
# 
# From -- ./inp_files/351961.got.cif
#   From: 2010.05.17/outbox.cif.g08.bks.cpg/sg2_176_cif.got.tgz:351961.got - 2010.06.03 11:33:40.
