data_PCOD9108159
_publ_section_title
;
Structure prediction by ZEFSAII (Michael W. Deem and Ramdas Pophale) SiO2 
 PCOD9108159
Probable space group: P -1
;
_chemical_formula_sum "Si O2"
_cell_formula_units_Z 16
_cell_length_a 22.243888
_cell_length_b 12.023759
_cell_length_c 17.609214
_cell_angle_alpha 30.694873
_cell_angle_beta 161.382499
_cell_angle_gamma 150.385098
_cell_volume 723.379733
_symmetry_space_group_name_H-M "P -1"
_symmetry_group_IT_number 2
_symmetry_cell_setting 'triclinic'
loop_
_space_group_symop_operation_xyz
x,y,z
-x,-y,-z
loop_
_atom_site_type_symbol
_atom_site_label
_atom_site_fract_x
_atom_site_fract_y
_atom_site_fract_z
Si Si1 0.422919 0.212064 0.277793
Si Si2 0.752847 0.706206 0.364593
Si Si3 0.500341 0.837711 0.868978
Si Si4 0.265431 0.403912 0.112417
Si Si5 0.324152 0.185321 0.627536
Si Si6 0.920824 0.293167 0.363993
Si Si7 0.323335 0.254237 0.423182
Si Si8 0.762053 0.691305 0.141597
O O1 0.604745 0.441117 0.334484
O O2 0.356521 0.252194 0.258717
O O3 0.500000 0.000000 0.500000
O O4 0.246888 0.192424 0.018162
O O5 0.774988 0.747905 0.456031
O O6 0.952936 0.748708 0.531689
O O7 0.637982 0.860465 0.095138
O O8 0.332806 0.585348 0.822179
O O9 0.414821 0.048387 0.637950
O O10 0.630177 0.797795 0.976538
O O11 0.449247 0.643741 0.204874
O O12 0.198821 0.287391 0.182167
O O13 0.111056 0.470737 0.835336
O O14 0.224063 0.211465 0.412322
O O15 0.285591 0.914847 0.750038
O O16 0.042237 0.288449 0.588045
O O17 0.500000 0.500000 0.500000
#
# Coordination Sequence:
#
# PCOD9108159 Si02
#       8
#     2   2   2   2   2   2   2   2
#     4  10  20  40  67  88 123 164 204 246 304 375
#     4   9  21  38  64  92 115 159 208 252 303 361
#     4   9  18  37  63  85 119 158 204 252 296 369
#     4  10  23  39  61  90 122 161 205 255 308 357
#     4  10  22  39  62  85 119 165 206 246 301 370
#     4  11  22  39  61  94 125 155 204 258 305 362
#     4  10  22  38  61  89 121 161 207 251 306 364
#     4   9  20  37  61  92 117 159 205 247 306 359
#
# _framework density 22.118397000000002
#
# number of rings (size 3 to 8) (size 9 to 14) (size 15 to 20)
#    0.000    2.250    0.000    2.250    8.750    0.500 
#    2.250    1.875    0.000    0.000    0.000    0.000 
#    0.000    0.000    0.000    0.000    0.000    0.000 
#
# Total GULP energy -89281.437644 kJ/mol
# GULP energy per Si atom -5580.089853 kJ/mol
# Density = 2.206805 g / cm^3
# Si number density = 22.118397 Si / 1000 Ang^3
#
#
#
# Elastic Constant Matrix: (Units=GPa)
#
#
# Indices 1 2 3 4 5 6 
#
# 1 102.6186 29.3968 32.6300 3.1334 -37.4759 -3.9232
# 2 29.3968 63.9552 40.1538 -24.2245 -8.0643 -13.7870
# 3 32.6300 40.1538 98.2799 -21.7183 -29.8098 -13.2325
# 4 3.1334 -24.2245 -21.7183 24.6943 1.9173 4.1749
# 5 -37.4759 -8.0643 -29.8098 1.9173 40.7117 -1.9956
# 6 -3.9232 -13.7870 -13.2325 4.1749 -1.9956 19.4593
#
#
#
# Elastic Compliance Matrix: (Units=1/GPa)
#
#
# Indices 1 2 3 4 5 6 
#
# 1 0.020431 -0.014042 0.000231 -0.017454 0.017007 -0.000184
# 2 -0.014042 0.040463 -0.005123 0.035391 -0.009654 0.013771
# 3 0.000231 -0.005123 0.019677 0.009653 0.013598 0.009121
# 4 -0.017454 0.035391 0.009653 0.084762 -0.005521 0.009368
# 5 0.017007 -0.009654 0.013598 -0.005521 0.049114 0.012057
# 6 -0.000184 0.013771 0.009121 0.009368 0.012057 0.066537
#
#
# Mechanical properties :
#
#
# Convention : Reuss Voigt Hill
#
# Bulk Modulus (GPa) = 23.41778 52.13499 37.77638
# Shear Modulus (GPa) = 15.01103 27.81793 21.41448
#
# Velocity S-wave (km/s) = 2.60795 3.55023 3.11493
# Velocity P-wave (km/s) = 4.43610 6.35827 5.48209
#
# Compressibility (1/GPa) = 0.04270260
#
# Stress axis : x y z
#
# Youngs Moduli (GPa) = 48.94504 24.71379 50.81998
#
# Poissons Ratio (x) = 0.34703 -0.01172
# Poissons Ratio (y) = 0.68729 0.26035
# Poissons Ratio (z) = -0.01129 0.12661
#
# Static dielectric constant tensor:
#      x y z
#    x 1.832230 -0.005660 -0.021030 
#    y -0.005660 1.849210 0.032120 
#    z -0.021030 0.032120 1.817380 
# 
# From -- ./inp_files/420007.got.cif
#   From: 2010.05.17/outbox.cif.g08.bks.cpg/sg2_211_cif.got.tgz:420007.got - 2010.06.03 11:33:40.
