data_PCOD9108772
_publ_section_title
;
Structure prediction by ZEFSAII (Michael W. Deem and Ramdas Pophale) SiO2 
 PCOD9108772
Probable space group: P -1
;
_chemical_formula_sum "Si O2"
_cell_formula_units_Z 16
_cell_length_a 14.407663
_cell_length_b 7.191157
_cell_length_c 22.405527
_cell_angle_alpha 118.677201
_cell_angle_beta 160.080169
_cell_angle_gamma 59.729299
_cell_volume 682.930836
_symmetry_space_group_name_H-M "P -1"
_symmetry_group_IT_number 2
_symmetry_cell_setting 'triclinic'
loop_
_space_group_symop_operation_xyz
x,y,z
-x,-y,-z
loop_
_atom_site_type_symbol
_atom_site_label
_atom_site_fract_x
_atom_site_fract_y
_atom_site_fract_z
Si Si1 0.332454 0.183360 0.346073
Si Si2 0.134744 0.640297 0.298077
Si Si3 0.070938 0.960350 0.835386
Si Si4 0.340238 0.942410 0.195307
Si Si5 0.583325 0.038943 0.233051
Si Si6 0.674183 0.484049 0.297932
Si Si7 0.325762 0.721652 0.853525
Si Si8 0.163446 0.167931 0.750400
O O1 0.110383 0.399130 0.230105
O O2 0.577113 0.293226 0.536572
O O3 0.196742 0.042905 0.288161
O O4 0.426651 0.044107 0.324125
O O5 0.921406 0.820390 0.162605
O O6 0.099132 0.692734 0.354945
O O7 0.091731 0.766917 0.770066
O O8 0.325962 0.954421 0.032712
O O9 0.468642 0.690351 0.230685
O O10 0.498547 0.033725 0.249775
O O11 0.000000 0.000000 0.000000
O O12 0.615456 0.275583 0.266556
O O13 0.834158 0.877871 0.325883
O O14 0.624276 0.463996 0.193283
O O15 0.000000 0.500000 0.500000
O O16 0.238113 0.931322 0.789979
O O17 0.592241 0.721752 0.056403
#
# Coordination Sequence:
#
# PCOD9108772 Si02
#       8
#     2   2   2   2   2   2   2   2
#     4  11  25  41  59  97 131 175 220 270 331 397
#     4  10  22  40  64  92 129 166 217 284 333 386
#     4  10  20  40  71  91 126 170 225 277 324 391
#     4  12  28  45  66  96 142 179 224 272 323 417
#     4  10  23  44  68  97 128 180 223 275 339 385
#     4  11  26  45  68 100 135 178 224 274 336 403
#     4   8  17  35  63  94 115 159 217 271 319 378
#     4   8  16  35  67  88 118 159 215 277 317 379
#
# _framework density 23.428432000000001
#
# number of rings (size 3 to 8) (size 9 to 14) (size 15 to 20)
#    0.000    2.000    1.250    2.625    8.750    3.000 
#    4.500    2.500    0.000    0.000    0.000    0.000 
#    0.000    0.000    0.000    0.000    0.000    0.000 
#
# Total GULP energy -89237.417367 kJ/mol
# GULP energy per Si atom -5577.338585 kJ/mol
# Density = 2.337511 g / cm^3
# Si number density = 23.428432 Si / 1000 Ang^3
#
#
#
# Elastic Constant Matrix: (Units=GPa)
#
#
# Indices 1 2 3 4 5 6 
#
# 1 177.8028 70.6422 18.5183 13.0339 18.5971 -22.3792
# 2 70.6422 140.2100 7.9675 7.6050 2.1435 -24.7180
# 3 18.5183 7.9675 46.9055 4.7875 18.1662 -5.5643
# 4 13.0339 7.6050 4.7875 23.6839 -2.8269 3.5545
# 5 18.5971 2.1435 18.1662 -2.8269 21.2225 2.5656
# 6 -22.3792 -24.7180 -5.5643 3.5545 2.5656 46.2762
#
#
#
# Elastic Compliance Matrix: (Units=1/GPa)
#
#
# Indices 1 2 3 4 5 6 
#
# 1 0.008742 -0.003390 0.002236 -0.005985 -0.010480 0.003727
# 2 -0.003390 0.009513 -0.000415 -0.001405 0.001766 0.003402
# 3 0.002236 -0.000415 0.037156 -0.014251 -0.036643 0.008454
# 4 -0.005985 -0.001405 -0.014251 0.053595 0.026044 -0.010919
# 5 -0.010480 0.001766 -0.036643 0.026044 0.092856 -0.015679
# 6 0.003727 0.003402 0.008454 -0.010919 -0.015679 0.027953
#
#
# Mechanical properties :
#
#
# Convention : Reuss Voigt Hill
#
# Bulk Modulus (GPa) = 19.12985 62.13050 40.63017
# Shear Modulus (GPa) = 19.96999 36.08922 28.02960
#
# Velocity S-wave (km/s) = 2.92273 3.92905 3.46264
# Velocity P-wave (km/s) = 4.42411 6.86732 5.77637
#
# Compressibility (1/GPa) = 0.05227434
#
# Stress axis : x y z
#
# Youngs Moduli (GPa) = 114.39048 105.12464 26.91353
#
# Poissons Ratio (x) = 0.35635 -0.06019
# Poissons Ratio (y) = 0.38776 0.01116
# Poissons Ratio (z) = -0.25580 0.04358
#
# Static dielectric constant tensor:
#      x y z
#    x 1.917140 0.003880 0.009310 
#    y 0.003880 2.000530 -0.111250 
#    z 0.009310 -0.111250 2.013660 
# 
# From -- ./inp_files/597783.got.cif
#   From: 2010.05.17/outbox.cif.g08.bks.cpg/sg2_299_cif.got.tgz:597783.got - 2010.06.03 11:33:40.
