data_PCOD9108793
_publ_section_title
;
Structure prediction by ZEFSAII (Michael W. Deem and Ramdas Pophale) SiO2 
 PCOD9108793
Probable space group: P -1
;
_chemical_formula_sum "Si O2"
_cell_formula_units_Z 16
_cell_length_a 7.709581
_cell_length_b 14.110269
_cell_length_c 10.527683
_cell_angle_alpha 73.735378
_cell_angle_beta 142.605354
_cell_angle_gamma 113.079508
_cell_volume 638.833382
_symmetry_space_group_name_H-M "P -1"
_symmetry_group_IT_number 2
_symmetry_cell_setting 'triclinic'
loop_
_space_group_symop_operation_xyz
x,y,z
-x,-y,-z
loop_
_atom_site_type_symbol
_atom_site_label
_atom_site_fract_x
_atom_site_fract_y
_atom_site_fract_z
Si Si1 0.139212 0.491052 0.873846
Si Si2 0.434312 0.715420 0.901216
Si Si3 0.133811 0.958306 0.877136
Si Si4 0.643905 0.244658 0.890650
Si Si5 0.739852 0.576699 0.775779
Si Si6 0.690388 0.299598 0.615373
Si Si7 0.264827 0.899643 0.725839
Si Si8 0.490409 0.144335 0.340674
O O1 0.836804 0.510779 0.747284
O O2 0.026403 0.377556 0.790306
O O3 0.302525 0.593097 0.852786
O O4 0.331935 0.488116 0.112607
O O5 0.174983 0.775631 0.738691
O O6 0.579053 0.774059 0.834355
O O7 0.551517 0.738862 0.107208
O O8 0.098237 0.953265 0.705267
O O9 0.820921 0.934304 0.772259
O O10 0.274154 0.862890 0.018721
O O11 0.388193 0.055352 0.041364
O O12 0.554097 0.259807 0.688696
O O13 0.952845 0.335008 0.050910
O O14 0.498525 0.631666 0.580838
O O15 0.652898 0.205033 0.534114
O O16 0.298420 0.910113 0.591500
#
# Coordination Sequence:
#
# PCOD9108793 Si02
#       8
#     2   2   2   2   2   2   2   2
#     4   9  18  32  55  79 117 153 190 236 281 337
#     4   8  18  35  52  80 117 145 189 239 269 339
#     4  10  16  36  64  82 109 156 188 232 291 341
#     4   9  18  34  58  81 114 153 189 233 286 339
#     4   9  17  33  53  84 110 152 199 232 280 338
#     4  11  20  31  57  87 114 152 192 235 290 337
#     4   8  19  33  60  88 110 148 192 235 289 337
#     4  10  20  33  59  87 115 148 191 235 289 345
#
# _framework density 25.045656000000001
#
# number of rings (size 3 to 8) (size 9 to 14) (size 15 to 20)
#    0.750    2.000    1.250    1.500    0.000    0.500 
#    0.000    1.250   11.000    6.750    0.000    0.000 
#    0.000    0.000    0.000    0.000    0.000    0.000 
#
# Total GULP energy -89214.462323 kJ/mol
# GULP energy per Si atom -5575.903895 kJ/mol
# Density = 2.498865 g / cm^3
# Si number density = 25.045656 Si / 1000 Ang^3
#
#
#
# Elastic Constant Matrix: (Units=GPa)
#
#
# Indices 1 2 3 4 5 6 
#
# 1 84.8321 18.5079 41.8425 -15.1469 -29.9640 14.0977
# 2 18.5079 95.0607 25.2475 2.2583 -4.7898 14.0589
# 3 41.8425 25.2475 71.4731 4.2983 -26.0229 1.0592
# 4 -15.1469 2.2583 4.2983 22.4868 -8.6038 -6.5181
# 5 -29.9640 -4.7898 -26.0229 -8.6038 35.7273 -2.3524
# 6 14.0977 14.0589 1.0592 -6.5181 -2.3524 29.1263
#
#
#
# Elastic Compliance Matrix: (Units=1/GPa)
#
#
# Indices 1 2 3 4 5 6 
#
# 1 0.035933 -0.002594 -0.011311 0.036641 0.030038 -0.005103
# 2 -0.002594 0.013161 -0.004788 -0.006385 -0.005886 -0.006827
# 3 -0.011311 -0.004788 0.025117 -0.007739 0.006676 0.005680
# 4 0.036641 -0.006385 -0.007739 0.092216 0.047108 0.010070
# 5 0.030038 -0.005886 0.006676 0.047108 0.068875 0.004164
# 6 -0.005103 -0.006827 0.005680 0.010070 0.004164 0.042482
#
#
# Mechanical properties :
#
#
# Convention : Reuss Voigt Hill
#
# Bulk Modulus (GPa) = 27.15649 46.95130 37.05390
# Shear Modulus (GPa) = 15.26969 28.51928 21.89448
#
# Velocity S-wave (km/s) = 2.47184 3.37811 2.95987
# Velocity P-wave (km/s) = 4.36039 5.83117 5.14857
#
# Compressibility (1/GPa) = 0.03682361
#
# Stress axis : x y z
#
# Youngs Moduli (GPa) = 27.82919 75.98063 39.81402
#
# Poissons Ratio (x) = 0.19710 0.45035
# Poissons Ratio (y) = 0.07219 0.19065
# Poissons Ratio (z) = 0.31479 0.36383
#
# Static dielectric constant tensor:
#      x y z
#    x 2.043700 -0.005660 -0.063990 
#    y -0.005660 1.988480 -0.031720 
#    z -0.063990 -0.031720 2.058240 
# 
# From -- ./inp_files/212694.got.cif
#   From: 2010.05.17/outbox.cif.g08.bks.cpg/sg2_107_cif.got.tgz:212694.got - 2010.06.03 11:33:40.
