data_PCOD9108925
_publ_section_title
;
Structure prediction by ZEFSAII (Michael W. Deem and Ramdas Pophale) SiO2 
 PCOD9108925
Probable space group: P -1
;
_chemical_formula_sum "Si O2"
_cell_formula_units_Z 13
_cell_length_a 8.436019
_cell_length_b 6.300572
_cell_length_c 12.030120
_cell_angle_alpha 117.264075
_cell_angle_beta 102.656873
_cell_angle_gamma 90.489290
_cell_volume 550.183125
_symmetry_space_group_name_H-M "P -1"
_symmetry_group_IT_number 2
_symmetry_cell_setting 'triclinic'
loop_
_space_group_symop_operation_xyz
x,y,z
-x,-y,-z
loop_
_atom_site_type_symbol
_atom_site_label
_atom_site_fract_x
_atom_site_fract_y
_atom_site_fract_z
Si Si1 0.761108 0.693455 0.077853
Si Si2 0.000000 0.000000 0.500000
Si Si3 0.717362 0.447674 0.234088
Si Si4 0.617319 0.952941 0.405938
Si Si5 0.012601 0.809274 0.696782
Si Si6 0.508396 0.008713 0.845549
Si Si7 0.840333 0.832648 0.893489
O O1 0.788548 0.513378 0.137994
O O2 0.877378 0.940440 0.187376
O O3 0.577216 0.759278 0.080374
O O4 0.794096 0.643990 0.942058
O O5 0.807923 0.062296 0.468652
O O6 0.950055 0.873188 0.582967
O O7 0.633830 0.670587 0.320405
O O8 0.866610 0.393702 0.322372
O O9 0.589830 0.211680 0.156321
O O10 0.500000 0.000000 0.500000
O O11 0.535075 0.037554 0.301261
O O12 0.878035 0.739861 0.755146
O O13 0.695769 0.996850 0.896061
O O14 0.000000 0.000000 0.000000
#
# Coordination Sequence:
#
# PCOD9108925 Si02
#       7
#     2   1   2   2   2   2   2
#     4   9  19  39  62  86 122 169 206 253 319 371
#     4  12  20  44  66  90 126 168 214 256 322 380
#     4  10  20  41  61  88 132 160 207 267 316 374
#     4  11  24  42  65  92 126 173 217 260 321 383
#     4  10  21  39  60  93 127 160 214 259 311 377
#     4  10  20  41  59  92 126 164 211 260 323 375
#     4  10  21  38  65  92 125 167 211 261 316 380
#
# _framework density 23.628498
#
# number of rings (size 3 to 8) (size 9 to 14) (size 15 to 20)
#    0.000    1.846    4.615    1.385    0.000    2.462 
#    2.769    6.154    0.000    0.000    0.000    0.000 
#    0.000    0.000    0.000    0.000    0.000    0.000 
#
# Total GULP energy -72426.027417 kJ/mol
# GULP energy per Si atom -5571.232878 kJ/mol
# Density = 2.357472 g / cm^3
# Si number density = 23.628498 Si / 1000 Ang^3
#
#
#
# Elastic Constant Matrix: (Units=GPa)
#
#
# Indices 1 2 3 4 5 6 
#
# 1 117.1592 18.6275 46.3664 -14.5179 -1.5456 2.5638
# 2 18.6275 91.5390 56.7491 -33.8076 -9.2622 -2.9428
# 3 46.3664 56.7491 134.5094 -58.9087 -19.2236 3.1862
# 4 -14.5179 -33.8076 -58.9087 59.2404 1.0096 2.4633
# 5 -1.5456 -9.2622 -19.2236 1.0096 48.7798 -16.1989
# 6 2.5638 -2.9428 3.1862 2.4633 -16.1989 20.3674
#
#
#
# Elastic Compliance Matrix: (Units=1/GPa)
#
#
# Indices 1 2 3 4 5 6 
#
# 1 0.010139 -0.000305 -0.004538 -0.002078 -0.002176 -0.002090
# 2 -0.000305 0.015700 -0.004349 0.004323 0.002699 0.004611
# 3 -0.004538 -0.004349 0.017783 0.013989 0.005768 0.000056
# 4 -0.002078 0.004323 0.013989 0.032705 0.005225 -0.001102
# 5 -0.002176 0.002699 0.005768 0.005225 0.031010 0.023793
# 6 -0.002090 0.004611 0.000056 -0.001102 0.023793 0.069075
#
#
# Mechanical properties :
#
#
# Convention : Reuss Voigt Hill
#
# Bulk Modulus (GPa) = 39.62131 65.18817 52.40474
# Shear Modulus (GPa) = 24.60511 40.44185 32.52348
#
# Velocity S-wave (km/s) = 3.23047 4.14160 3.71408
# Velocity P-wave (km/s) = 5.54251 7.10768 6.37333
#
# Compressibility (1/GPa) = 0.02523894
#
# Stress axis : x y z
#
# Youngs Moduli (GPa) = 98.62590 63.69238 56.23387
#
# Poissons Ratio (x) = 0.01940 0.25519
# Poissons Ratio (y) = 0.03005 0.24458
# Poissons Ratio (z) = 0.44756 0.27702
#
# Static dielectric constant tensor:
#      x y z
#    x 1.898560 0.031680 0.003560 
#    y 0.031680 1.910840 0.021190 
#    z 0.003560 0.021190 1.972470 
# 
# From -- ./inp_files/87514.got.cif
#   From: 2010.05.17/outbox.cif.g08.bks.cpg/sg2_44_cif.got.tgz:87514.got - 2010.06.03 11:33:40.
