data_PCOD9108715
_publ_section_title
;
Structure prediction by ZEFSAII (Michael W. Deem and Ramdas Pophale) SiO2 
 PCOD9108715
Probable space group: P -1
;
_chemical_formula_sum "Si O2"
_cell_formula_units_Z 16
_cell_length_a 9.427366
_cell_length_b 20.036263
_cell_length_c 8.312893
_cell_angle_alpha 118.313793
_cell_angle_beta 31.961764
_cell_angle_gamma 124.813803
_cell_volume 682.240897
_symmetry_space_group_name_H-M "P -1"
_symmetry_group_IT_number 2
_symmetry_cell_setting 'triclinic'
loop_
_space_group_symop_operation_xyz
x,y,z
-x,-y,-z
loop_
_atom_site_type_symbol
_atom_site_label
_atom_site_fract_x
_atom_site_fract_y
_atom_site_fract_z
Si Si1 0.970304 0.581650 0.058085
Si Si2 0.567998 0.014740 0.638741
Si Si3 0.782901 0.649450 0.707806
Si Si4 0.385702 0.323513 0.426799
Si Si5 0.579806 0.844141 0.555899
Si Si6 0.133092 0.532054 0.240202
Si Si7 0.137550 0.072237 0.319716
Si Si8 0.926421 0.749510 0.016895
O O1 0.273564 0.654724 0.877020
O O2 0.932602 0.555293 0.880627
O O3 0.000000 0.500000 0.000000
O O4 0.687017 0.594005 0.404406
O O5 0.552544 0.928689 0.628013
O O6 0.500000 0.000000 0.500000
O O7 0.880823 0.077246 0.463288
O O8 0.342840 0.045460 0.978015
O O9 0.754915 0.705673 0.647465
O O10 0.991475 0.599645 0.408358
O O11 0.469569 0.581504 0.959716
O O12 0.862999 0.698987 0.855028
O O13 0.241041 0.288834 0.699002
O O14 0.685142 0.852692 0.650773
O O15 0.813748 0.824988 0.199674
O O16 0.263968 0.778687 0.759881
O O17 0.000000 0.500000 0.500000
O O18 0.000000 0.000000 0.500000
#
# Coordination Sequence:
#
# PCOD9108715 Si02
#       8
#     2   2   2   2   2   2   2   2
#     4  12  21  39  65  90 121 152 212 279 336 390
#     4  11  22  41  71 108 138 165 212 283 334 368
#     4  12  24  43  61  86 132 162 213 273 317 386
#     4  12  24  43  63  91 124 169 213 273 331 387
#     4  11  23  45  67  93 133 177 220 255 315 398
#     4  12  23  38  63  94 118 158 208 272 345 393
#     4  10  20  40  70  97 135 171 209 267 325 378
#     4  12  26  44  64  91 133 182 220 257 318 395
#
# _framework density 23.452124999999999
#
# number of rings (size 3 to 8) (size 9 to 14) (size 15 to 20)
#    0.000    0.500    2.500    8.625    0.000    0.000 
#    6.750    0.000    0.000    0.000    0.000    0.000 
#    0.000    0.000    0.000    0.000    0.000    0.000 
#
# Total GULP energy -89333.214821 kJ/mol
# GULP energy per Si atom -5583.325926 kJ/mol
# Density = 2.339875 g / cm^3
# Si number density = 23.452125 Si / 1000 Ang^3
#
#
#
# Elastic Constant Matrix: (Units=GPa)
#
#
# Indices 1 2 3 4 5 6 
#
# 1 154.3532 28.1311 53.5926 -30.2013 23.4132 47.6733
# 2 28.1311 30.1576 13.3708 -12.9773 6.5119 22.9705
# 3 53.5926 13.3708 153.4860 10.8796 -12.4607 32.0904
# 4 -30.2013 -12.9773 10.8796 5.0959 24.7156 5.2230
# 5 23.4132 6.5119 -12.4607 24.7156 36.3100 -4.3965
# 6 47.6733 22.9705 32.0904 5.2230 -4.3965 31.1468
#
#
#
# Elastic Compliance Matrix: (Units=1/GPa)
#
#
# Indices 1 2 3 4 5 6 
#
# 1 0.006092 -0.010586 -0.000506 -0.008433 0.003650 0.000933
# 2 -0.010586 0.040435 0.005573 -0.019216 0.012832 -0.014326
# 3 -0.000506 0.005573 0.008879 -0.000237 0.001047 -0.012296
# 4 -0.008433 -0.019216 -0.000237 -0.003031 0.014483 0.029875
# 5 0.003650 0.012832 0.001047 0.014483 0.011334 -0.016957
# 6 0.000933 -0.014326 -0.012296 0.029875 -0.016957 0.046508
#
#
# Mechanical properties :
#
#
# Convention : Reuss Voigt Hill
#
# Bulk Modulus (GPa) = 22.53882 58.68729 40.61305
# Shear Modulus (GPa) = 36.75280 30.70403 33.72841
#
# Velocity S-wave (km/s) = 3.96301 3.62224 3.79645
# Velocity P-wave (km/s) = 5.52920 6.52478 6.04751
#
# Compressibility (1/GPa) = 0.04436790
#
# Stress axis : x y z
#
# Youngs Moduli (GPa) = 164.15646 24.73101 112.62466
#
# Poissons Ratio (x) = 0.26180 0.05699
# Poissons Ratio (y) = 1.73773 -0.62764
# Poissons Ratio (z) = 0.08307 -0.13782
#
# Static dielectric constant tensor:
#      x y z
#    x 2.345030 -0.089440 -0.009760 
#    y -0.089440 1.956220 0.038200 
#    z -0.009760 0.038200 1.787330 
# 
# From -- ./inp_files/223742.got.cif
#   From: 2010.05.17/outbox.cif.g08.bks.cpg/sg2_112_cif.got.tgz:223742.got - 2010.06.03 11:33:40.
