data_PCOD9108683
_publ_section_title
;
Structure prediction by ZEFSAII (Michael W. Deem and Ramdas Pophale) SiO2 
 PCOD9108683
Probable space group: P -1
;
_chemical_formula_sum "Si O2"
_cell_formula_units_Z 15
_cell_length_a 11.716289
_cell_length_b 9.262792
_cell_length_c 7.905042
_cell_angle_alpha 84.151453
_cell_angle_beta 78.252538
_cell_angle_gamma 46.640666
_cell_volume 609.815694
_symmetry_space_group_name_H-M "P -1"
_symmetry_group_IT_number 2
_symmetry_cell_setting 'triclinic'
loop_
_space_group_symop_operation_xyz
x,y,z
-x,-y,-z
loop_
_atom_site_type_symbol
_atom_site_label
_atom_site_fract_x
_atom_site_fract_y
_atom_site_fract_z
Si Si1 0.275312 0.990981 0.983946
Si Si2 0.815256 0.309804 0.154094
Si Si3 0.495318 0.586790 0.811698
Si Si4 0.273513 0.291285 0.828422
Si Si5 0.005656 0.880769 0.195450
Si Si6 0.113711 0.278786 0.556592
Si Si7 0.500000 0.500000 0.500000
Si Si8 0.625669 0.106200 0.676326
O O1 0.427026 0.802323 0.853409
O O2 0.263155 0.174530 0.986505
O O3 0.126189 0.060751 0.912714
O O4 0.297024 0.904346 0.171304
O O5 0.639981 0.399149 0.254349
O O6 0.820438 0.477214 0.151461
O O7 0.941577 0.096026 0.231390
O O8 0.836986 0.262964 0.950846
O O9 0.613151 0.480546 0.632632
O O10 0.500000 0.500000 0.000000
O O11 0.203800 0.266916 0.692821
O O12 0.457228 0.177705 0.767325
O O13 0.987953 0.777669 0.356624
O O14 0.000000 0.500000 0.500000
O O15 0.251112 0.111639 0.410346
O O16 0.585867 0.267139 0.539827
#
# Coordination Sequence:
#
# PCOD9108683 Si02
#       8
#     2   2   2   2   2   2   1   2
#     4  10  22  40  69  93 135 176 225 276 343 406
#     4  10  20  40  70  92 128 170 228 271 336 395
#     4  11  21  42  62 100 132 175 219 273 342 398
#     4  11  23  42  68  97 131 176 227 288 336 409
#     4   9  22  43  65  93 132 181 216 280 330 419
#     4  11  27  45  63  95 139 180 222 278 347 407
#     4  12  22  40  70 100 140 174 218 288 340 398
#     4  12  24  42  68 102 133 176 229 286 344 401
#
# _framework density 24.597594999999998
#
# number of rings (size 3 to 8) (size 9 to 14) (size 15 to 20)
#    0.000    1.333    2.667    3.200    3.733    1.067 
#    2.400    0.667    0.000    0.000    0.000    0.000 
#    0.000    0.000    0.000    0.000    0.000    0.000 
#
# Total GULP energy -83596.595330 kJ/mol
# GULP energy per Si atom -5573.106355 kJ/mol
# Density = 2.454161 g / cm^3
# Si number density = 24.597595 Si / 1000 Ang^3
#
#
#
# Elastic Constant Matrix: (Units=GPa)
#
#
# Indices 1 2 3 4 5 6 
#
# 1 56.5897 27.7701 5.5674 -4.3506 -4.6714 3.9186
# 2 27.7701 179.3929 44.4598 3.4409 -6.1526 31.9697
# 3 5.5674 44.4598 98.8001 -20.2071 18.4828 7.8495
# 4 -4.3506 3.4409 -20.2071 46.7671 6.4684 -1.1962
# 5 -4.6714 -6.1526 18.4828 6.4684 28.2650 0.6065
# 6 3.9186 31.9697 7.8495 -1.1962 0.6065 45.2614
#
#
#
# Elastic Compliance Matrix: (Units=1/GPa)
#
#
# Indices 1 2 3 4 5 6 
#
# 1 0.019456 -0.003161 0.000337 0.001945 0.001851 0.000517
# 2 -0.003161 0.008515 -0.005162 -0.004075 0.005747 -0.005030
# 3 0.000337 -0.005162 0.017055 0.009813 -0.014490 0.001113
# 4 0.001945 -0.004075 0.009813 0.028011 -0.013434 0.001928
# 5 0.001851 0.005747 -0.014490 -0.013434 0.049544 -0.002726
# 6 0.000517 -0.005030 0.001113 0.001928 -0.002726 0.025497
#
#
# Mechanical properties :
#
#
# Convention : Reuss Voigt Hill
#
# Bulk Modulus (GPa) = 34.42150 54.48639 44.45395
# Shear Modulus (GPa) = 28.77958 41.19104 34.98531
#
# Velocity S-wave (km/s) = 3.42426 4.09662 3.77544
# Velocity P-wave (km/s) = 5.44594 6.67650 6.09237
#
# Compressibility (1/GPa) = 0.02905161
#
# Stress axis : x y z
#
# Youngs Moduli (GPa) = 51.39874 117.44271 58.63466
#
# Poissons Ratio (x) = 0.37125 -0.01974
# Poissons Ratio (y) = 0.16248 0.30270
# Poissons Ratio (z) = -0.01730 0.60629
#
# Static dielectric constant tensor:
#      x y z
#    x 1.869730 0.106930 0.514510 
#    y 0.106930 1.890850 -0.520610 
#    z 0.514510 -0.520610 0.320920 
# 
# From -- ./inp_files/243504.got.cif
#   From: 2010.05.17/outbox.cif.g08.bks.cpg/sg2_122_cif.got.tgz:243504.got - 2010.06.03 11:33:40.
