data_PCOD9108264
_publ_section_title
;
Structure prediction by ZEFSAII (Michael W. Deem and Ramdas Pophale) SiO2 
 PCOD9108264
Probable space group: P -1
;
_chemical_formula_sum "Si O2"
_cell_formula_units_Z 14
_cell_length_a 9.403819
_cell_length_b 13.085472
_cell_length_c 7.745316
_cell_angle_alpha 93.035196
_cell_angle_beta 134.255783
_cell_angle_gamma 72.933419
_cell_volume 636.317818
_symmetry_space_group_name_H-M "P -1"
_symmetry_group_IT_number 2
_symmetry_cell_setting 'triclinic'
loop_
_space_group_symop_operation_xyz
x,y,z
-x,-y,-z
loop_
_atom_site_type_symbol
_atom_site_label
_atom_site_fract_x
_atom_site_fract_y
_atom_site_fract_z
Si Si1 0.386966 0.322526 0.417401
Si Si2 0.538716 0.358915 0.210779
Si Si3 0.974521 0.611536 0.594724
Si Si4 0.575302 0.398229 0.876213
Si Si5 0.018771 0.812957 0.463572
Si Si6 0.638596 0.074955 0.628948
Si Si7 0.914045 0.019590 0.192837
O O1 0.363812 0.368492 0.208199
O O2 0.192585 0.368600 0.388817
O O3 0.572438 0.345276 0.685337
O O4 0.471234 0.193473 0.456412
O O5 0.570699 0.474858 0.253536
O O6 0.757703 0.263302 0.437994
O O7 0.495250 0.347025 0.969418
O O8 0.000000 0.500000 0.500000
O O9 0.923436 0.724150 0.448236
O O10 0.195797 0.603246 0.872318
O O11 0.087184 0.882511 0.674174
O O12 0.876289 0.913591 0.233247
O O13 0.500000 0.000000 0.500000
O O14 0.745342 0.070279 0.905489
O O15 0.843541 0.030933 0.675170
#
# Coordination Sequence:
#
# PCOD9108264 Si02
#       7
#     2   2   2   2   2   2   2
#     4  12  23  42  67  93 130 169 217 270 318 389
#     4  10  20  40  67  96 123 168 218 257 318 389
#     4  11  24  42  65  98 134 165 217 272 323 390
#     4  10  23  43  66  92 133 174 208 266 331 382
#     4  10  20  43  68  94 129 177 217 262 334 389
#     4  11  23  41  62 100 128 162 222 273 322 387
#     4  10  22  42  68  89 131 176 212 269 328 387
#
# _framework density 22.001584000000001
#
# number of rings (size 3 to 8) (size 9 to 14) (size 15 to 20)
#    0.000    1.429    1.429    5.571    0.000    1.714 
#    5.143    5.000    0.000    0.000    0.000    0.000 
#    0.000    0.000    0.000    0.000    0.000    0.000 
#
# Total GULP energy -78116.969356 kJ/mol
# GULP energy per Si atom -5579.783525 kJ/mol
# Density = 2.195151 g / cm^3
# Si number density = 22.001584 Si / 1000 Ang^3
#
#
#
# Elastic Constant Matrix: (Units=GPa)
#
#
# Indices 1 2 3 4 5 6 
#
# 1 126.6660 34.6161 31.9121 -13.2173 -11.9921 -0.1812
# 2 34.6161 108.8499 13.3576 -9.6144 -8.4574 16.0127
# 3 31.9121 13.3576 32.8293 5.1726 1.5292 9.6286
# 4 -13.2173 -9.6144 5.1726 24.4545 5.9085 -8.3045
# 5 -11.9921 -8.4574 1.5292 5.9085 29.3047 1.1680
# 6 -0.1812 16.0127 9.6286 -8.3045 1.1680 24.6068
#
#
#
# Elastic Compliance Matrix: (Units=1/GPa)
#
#
# Indices 1 2 3 4 5 6 
#
# 1 0.016619 -0.003211 -0.022703 0.017571 0.002843 0.016890
# 2 -0.003211 0.011421 0.000889 -0.000799 0.002423 -0.008189
# 3 -0.022703 0.000889 0.071033 -0.040539 -0.002890 -0.042085
# 4 0.017571 -0.000799 -0.040539 0.074812 -0.007688 0.042126
# 5 0.002843 0.002423 -0.002890 -0.007688 0.037880 -0.004818
# 6 0.016890 -0.008189 -0.042085 0.042126 -0.004818 0.077006
#
#
# Mechanical properties :
#
#
# Convention : Reuss Voigt Hill
#
# Bulk Modulus (GPa) = 20.39851 47.56853 33.98352
# Shear Modulus (GPa) = 14.07811 28.23716 21.15763
#
# Velocity S-wave (km/s) = 2.53231 3.58636 3.10440
# Velocity P-wave (km/s) = 4.22393 6.23031 5.32252
#
# Compressibility (1/GPa) = 0.04902320
#
# Stress axis : x y z
#
# Youngs Moduli (GPa) = 60.17288 87.55565 14.07800
#
# Poissons Ratio (x) = 0.28113 0.31961
# Poissons Ratio (y) = 0.19321 -0.01251
# Poissons Ratio (z) = 1.36609 -0.07783
#
# Static dielectric constant tensor:
#      x y z
#    x 1.885190 0.030970 -0.009600 
#    y 0.030970 1.797860 -0.032850 
#    z -0.009600 -0.032850 1.825340 
# 
# From -- ./inp_files/187927.got.cif
#   From: 2010.05.17/outbox.cif.g08.bks.cpg/sg2_94_cif.got.tgz:187927.got - 2010.06.03 11:33:40.
