data_PCOD9108155
_publ_section_title
;
Structure prediction by ZEFSAII (Michael W. Deem and Ramdas Pophale) SiO2 
 PCOD9108155
Probable space group: P -1
;
_chemical_formula_sum "Si O2"
_cell_formula_units_Z 14
_cell_length_a 9.013569
_cell_length_b 8.761356
_cell_length_c 11.800840
_cell_angle_alpha 63.408992
_cell_angle_beta 101.431443
_cell_angle_gamma 60.976508
_cell_volume 617.384514
_symmetry_space_group_name_H-M "P -1"
_symmetry_group_IT_number 2
_symmetry_cell_setting 'triclinic'
loop_
_space_group_symop_operation_xyz
x,y,z
-x,-y,-z
loop_
_atom_site_type_symbol
_atom_site_label
_atom_site_fract_x
_atom_site_fract_y
_atom_site_fract_z
Si Si1 0.934079 0.448446 0.637242
Si Si2 0.441756 0.328967 0.167777
Si Si3 0.257542 0.108512 0.222567
Si Si4 0.677589 0.661971 0.331836
Si Si5 0.458848 0.708934 0.068814
Si Si6 0.932152 0.857322 0.039590
Si Si7 0.701844 0.951347 0.508116
O O1 0.794668 0.471376 0.510917
O O2 0.847927 0.700852 0.563798
O O3 0.162054 0.307443 0.679646
O O4 0.931952 0.347727 0.786067
O O5 0.286150 0.290685 0.178624
O O6 0.387726 0.564084 0.109390
O O7 0.630280 0.138148 0.340685
O O8 0.482220 0.296067 0.049799
O O9 0.213831 0.053706 0.355301
O O10 0.471388 0.880789 0.283254
O O11 0.096112 0.190068 0.075083
O O12 0.629242 0.606525 0.224446
O O13 0.288627 0.966307 0.996389
O O14 0.000000 0.000000 0.000000
O O15 0.500000 0.000000 0.500000
#
# Coordination Sequence:
#
# PCOD9108155 Si02
#       7
#     2   2   2   2   2   2   2
#     4  11  22  39  65  95 123 159 213 253 298 364
#     4  10  20  40  67  87 118 165 208 243 300 375
#     4  10  21  43  67  87 121 170 204 244 314 369
#     4  10  21  40  67  94 117 164 211 254 298 363
#     4  10  23  41  63  92 126 162 200 255 314 357
#     4  11  26  40  61  95 127 157 202 262 305 364
#     4  10  21  38  64  93 120 165 204 251 300 371
#
# _framework density 22.676303000000001
#
# number of rings (size 3 to 8) (size 9 to 14) (size 15 to 20)
#    0.000    1.714    2.857    1.714    6.000    4.000 
#    5.143    3.571    0.000    0.000    0.000    0.000 
#    0.000    0.000    0.000    0.000    0.000    0.000 
#
# Total GULP energy -78187.158660 kJ/mol
# GULP energy per Si atom -5584.797047 kJ/mol
# Density = 2.262469 g / cm^3
# Si number density = 22.676303 Si / 1000 Ang^3
#
#
#
# Elastic Constant Matrix: (Units=GPa)
#
#
# Indices 1 2 3 4 5 6 
#
# 1 34.7654 12.4593 38.0816 15.4701 3.6894 6.4107
# 2 12.4593 87.1378 72.7340 22.2949 -12.1421 -3.5790
# 3 38.0816 72.7340 225.9899 46.7824 -9.5279 16.2474
# 4 15.4701 22.2949 46.7824 42.1212 -5.7623 -4.3604
# 5 3.6894 -12.1421 -9.5279 -5.7623 22.5204 -1.4001
# 6 6.4107 -3.5790 16.2474 -4.3604 -1.4001 25.7358
#
#
#
# Elastic Compliance Matrix: (Units=1/GPa)
#
#
# Indices 1 2 3 4 5 6 
#
# 1 0.043285 -0.002211 -0.003372 -0.014165 -0.014088 -0.012127
# 2 -0.002211 0.017854 -0.005321 -0.000957 0.007907 0.006661
# 3 -0.003372 -0.005321 0.008360 -0.005970 -0.000694 -0.006227
# 4 -0.014165 -0.000957 -0.005970 0.038948 0.010135 0.014314
# 5 -0.014088 0.007907 -0.000694 0.010135 0.053878 0.009695
# 6 -0.012127 0.006661 -0.006227 0.014314 0.009695 0.049688
#
#
# Mechanical properties :
#
#
# Convention : Reuss Voigt Hill
#
# Bulk Modulus (GPa) = 20.96891 66.04921 43.50906
# Shear Modulus (GPa) = 20.02257 33.05001 26.53629
#
# Velocity S-wave (km/s) = 2.97471 3.82182 3.42456
# Velocity P-wave (km/s) = 4.58974 6.97605 5.90470
#
# Compressibility (1/GPa) = 0.04768965
#
# Stress axis : x y z
#
# Youngs Moduli (GPa) = 23.10270 56.01021 119.61730
#
# Poissons Ratio (x) = 0.12387 0.40336
# Poissons Ratio (y) = 0.05109 0.63649
# Poissons Ratio (z) = 0.07790 0.29803
#
# Static dielectric constant tensor:
#      x y z
#    x 1.850610 -0.051300 0.024530 
#    y -0.051300 1.877510 0.020470 
#    z 0.024530 0.020470 1.910190 
# 
# From -- ./inp_files/160220.got.cif
#   From: 2010.05.17/outbox.cif.g08.bks.cpg/sg2_81_cif.got.tgz:160220.got - 2010.06.03 11:33:40.
