data_PCOD9108405
_publ_section_title
;
Structure prediction by ZEFSAII (Michael W. Deem and Ramdas Pophale) SiO2 
 PCOD9108405
Probable space group: P -1
;
_chemical_formula_sum "Si O2"
_cell_formula_units_Z 14
_cell_length_a 12.211794
_cell_length_b 8.302132
_cell_length_c 8.538023
_cell_angle_alpha 128.305892
_cell_angle_beta 64.424544
_cell_angle_gamma 106.016386
_cell_volume 612.663561
_symmetry_space_group_name_H-M "P -1"
_symmetry_group_IT_number 2
_symmetry_cell_setting 'triclinic'
loop_
_space_group_symop_operation_xyz
x,y,z
-x,-y,-z
loop_
_atom_site_type_symbol
_atom_site_label
_atom_site_fract_x
_atom_site_fract_y
_atom_site_fract_z
Si Si1 0.699600 0.881304 0.553146
Si Si2 0.263826 0.780965 0.534768
Si Si3 0.446700 0.728496 0.666274
Si Si4 0.066829 0.114485 0.385293
Si Si5 0.062921 0.789633 0.915554
Si Si6 0.880931 0.475747 0.736166
Si Si7 0.235943 0.559578 0.880525
O O1 0.561768 0.878546 0.698776
O O2 0.795468 0.868632 0.628139
O O3 0.719886 0.671145 0.314941
O O4 0.722088 0.065993 0.528127
O O5 0.381107 0.763896 0.561290
O O6 0.157209 0.849728 0.758510
O O7 0.216595 0.562374 0.363394
O O8 0.500000 0.500000 0.500000
O O9 0.341812 0.718203 0.856673
O O10 0.992768 0.324423 0.537619
O O11 0.000000 0.000000 0.500000
O O12 0.054046 0.966228 0.155540
O O13 0.124717 0.601968 0.858092
O O14 0.938435 0.697064 0.868897
O O15 0.813070 0.410479 0.898086
#
# Coordination Sequence:
#
# PCOD9108405 Si02
#       7
#     2   2   2   2   2   2   2
#     4  11  21  42  67  99 133 171 219 278 319 385
#     4  11  24  41  63 100 135 169 219 277 324 385
#     4   9  22  44  69  92 127 176 227 269 326 390
#     4  12  22  40  69  99 133 176 217 262 331 396
#     4  11  23  41  62  99 139 175 215 259 330 399
#     4  12  23  41  67 100 137 173 216 269 329 389
#     4  10  20  40  68  93 130 178 217 265 324 392
#
# _framework density 22.851040000000001
#
# number of rings (size 3 to 8) (size 9 to 14) (size 15 to 20)
#    0.000    1.143    4.286    2.143    0.000    0.571 
#    2.571   10.714    0.000    0.000    0.000    0.000 
#    0.000    0.000    0.000    0.000    0.000    0.000 
#
# Total GULP energy -78333.105750 kJ/mol
# GULP energy per Si atom -5595.221839 kJ/mol
# Density = 2.279903 g / cm^3
# Si number density = 22.851040 Si / 1000 Ang^3
#
#
#
# Elastic Constant Matrix: (Units=GPa)
#
#
# Indices 1 2 3 4 5 6 
#
# 1 143.0054 37.2720 38.2188 9.5162 19.3166 18.4108
# 2 37.2720 102.2232 44.7602 -10.8116 9.1768 6.8699
# 3 38.2188 44.7602 127.4131 -0.4668 16.8711 24.1334
# 4 9.5162 -10.8116 -0.4668 23.9919 5.7827 -6.3722
# 5 19.3166 9.1768 16.8711 5.7827 23.2476 8.6133
# 6 18.4108 6.8699 24.1334 -6.3722 8.6133 40.9837
#
#
#
# Elastic Compliance Matrix: (Units=1/GPa)
#
#
# Indices 1 2 3 4 5 6 
#
# 1 0.009197 -0.003093 -0.000600 -0.005094 -0.003489 -0.003318
# 2 -0.003093 0.013741 -0.004093 0.009159 -0.003518 0.003660
# 3 -0.000600 -0.004093 0.010865 -0.001898 -0.003440 -0.005014
# 4 -0.005094 0.009159 -0.001898 0.055657 -0.017079 0.014113
# 5 -0.003489 -0.003518 -0.003440 -0.017079 0.057998 -0.010662
# 6 -0.003318 0.003660 -0.005014 0.014113 -0.010662 0.032665
#
#
# Mechanical properties :
#
#
# Convention : Reuss Voigt Hill
#
# Bulk Modulus (GPa) = 54.85612 68.12707 61.49160
# Shear Modulus (GPa) = 24.78051 34.47070 29.62561
#
# Velocity S-wave (km/s) = 3.29665 3.88815 3.60455
# Velocity P-wave (km/s) = 6.20875 7.07356 6.65522
#
# Compressibility (1/GPa) = 0.01822951
#
# Stress axis : x y z
#
# Youngs Moduli (GPa) = 108.73488 72.77401 92.03988
#
# Poissons Ratio (x) = 0.22509 0.05525
# Poissons Ratio (y) = 0.33631 0.37675
# Poissons Ratio (z) = 0.06527 0.29789
#
# Static dielectric constant tensor:
#      x y z
#    x 1.869490 0.008910 -0.004070 
#    y 0.008910 1.894310 0.014590 
#    z -0.004070 0.014590 1.822980 
# 
# From -- ./inp_files/241290.got.cif
#   From: 2010.05.17/outbox.cif.g08.bks.cpg/sg2_121_cif.got.tgz:241290.got - 2010.06.03 11:33:40.
