data_PCOD9108537
_publ_section_title
;
Structure prediction by ZEFSAII (Michael W. Deem and Ramdas Pophale) SiO2 
 PCOD9108537
Probable space group: P -1
;
_chemical_formula_sum "Si O2"
_cell_formula_units_Z 16
_cell_length_a 8.641774
_cell_length_b 19.246923
_cell_length_c 9.047405
_cell_angle_alpha 49.101176
_cell_angle_beta 110.253803
_cell_angle_gamma 142.086946
_cell_volume 650.209574
_symmetry_space_group_name_H-M "P -1"
_symmetry_group_IT_number 2
_symmetry_cell_setting 'triclinic'
loop_
_space_group_symop_operation_xyz
x,y,z
-x,-y,-z
loop_
_atom_site_type_symbol
_atom_site_label
_atom_site_fract_x
_atom_site_fract_y
_atom_site_fract_z
Si Si1 0.645193 0.419823 0.552428
Si Si2 0.726803 0.696259 0.952829
Si Si3 0.268664 0.763179 0.540530
Si Si4 0.037555 0.753375 0.238357
Si Si5 0.018449 0.464841 0.796297
Si Si6 0.017322 0.104086 0.778511
Si Si7 0.225583 0.073963 0.352111
Si Si8 0.141965 0.353320 0.207310
O O1 0.774322 0.572692 0.440482
O O2 0.793008 0.471664 0.371783
O O3 0.328368 0.273582 0.628808
O O4 0.743372 0.382810 0.748316
O O5 0.677331 0.779939 0.862237
O O6 0.809823 0.714138 0.785446
O O7 0.961774 0.755227 0.048602
O O8 0.440745 0.517846 0.126414
O O9 0.149322 0.607808 0.727044
O O10 0.551171 0.885889 0.544091
O O11 0.270296 0.789055 0.330286
O O12 0.061892 0.737298 0.597269
O O13 0.101436 0.873341 0.181793
O O14 0.019883 0.377597 0.023049
O O15 0.875985 0.023990 0.687799
O O16 0.000000 0.000000 0.000000
O O17 0.000000 0.000000 0.500000
#
# Coordination Sequence:
#
# PCOD9108537 Si02
#       8
#     2   2   2   2   2   2   2   2
#     4  10  23  41  72 102 141 180 239 294 355 417
#     4  11  25  45  70 108 144 185 233 294 365 416
#     4  11  26  43  73 106 139 184 241 295 354 411
#     4  11  25  46  72 105 138 185 242 300 345 420
#     4  10  20  40  69 105 137 180 234 299 355 409
#     4  12  27  43  70 104 143 195 232 287 358 434
#     4  12  28  50  70  97 151 195 233 285 363 438
#     4  11  24  40  75 109 142 175 241 304 349 416
#
# _framework density 24.607451999999999
#
# number of rings (size 3 to 8) (size 9 to 14) (size 15 to 20)
#    0.000    1.000    3.750    1.500    8.750    0.500 
#    0.000    0.625    0.000    0.000    0.000    0.000 
#    0.000    0.000    0.000    0.000    0.000    0.000 
#
# Total GULP energy -89532.506379 kJ/mol
# GULP energy per Si atom -5595.781649 kJ/mol
# Density = 2.455144 g / cm^3
# Si number density = 24.607452 Si / 1000 Ang^3
#
#
#
# Elastic Constant Matrix: (Units=GPa)
#
#
# Indices 1 2 3 4 5 6 
#
# 1 61.4126 38.0164 1.0456 -3.5562 0.2269 -15.7222
# 2 38.0164 178.5969 21.2771 22.2313 5.0158 -4.2202
# 3 1.0456 21.2771 64.8090 17.4941 13.6239 -2.0864
# 4 -3.5562 22.2313 17.4941 35.0999 -1.4876 15.5794
# 5 0.2269 5.0158 13.6239 -1.4876 42.0629 -1.2020
# 6 -15.7222 -4.2202 -2.0864 15.5794 -1.2020 53.9233
#
#
#
# Elastic Compliance Matrix: (Units=1/GPa)
#
#
# Indices 1 2 3 4 5 6 
#
# 1 0.020569 -0.004666 0.000549 0.002607 0.000500 0.004911
# 2 -0.004666 0.007351 -0.000800 -0.005038 -0.000753 0.000623
# 3 0.000549 -0.000800 0.020417 -0.011734 -0.006818 0.004126
# 4 0.002607 -0.005038 -0.011734 0.043606 0.005570 -0.012562
# 5 0.000500 -0.000753 -0.006818 0.005570 0.026232 -0.001202
# 6 0.004911 0.000623 0.004126 -0.012562 -0.001202 0.023788
#
#
# Mechanical properties :
#
#
# Convention : Reuss Voigt Hill
#
# Bulk Modulus (GPa) = 25.97168 47.27741 36.62455
# Shear Modulus (GPa) = 30.37115 42.51586 36.44351
#
# Velocity S-wave (km/s) = 3.51697 4.16115 3.85254
# Velocity P-wave (km/s) = 5.20282 6.50701 5.89112
#
# Compressibility (1/GPa) = 0.03850348
#
# Stress axis : x y z
#
# Youngs Moduli (GPa) = 48.61689 136.04054 48.97871
#
# Poissons Ratio (x) = 0.63481 -0.02691
# Poissons Ratio (y) = 0.22686 0.03917
# Poissons Ratio (z) = -0.02671 0.10880
#
# Static dielectric constant tensor:
#      x y z
#    x 2.002920 0.008600 0.051110 
#    y 0.008600 1.916220 0.013280 
#    z 0.051110 0.013280 2.028560 
# 
# From -- ./inp_files/217123.got.cif
#   From: 2010.05.17/outbox.cif.g08.bks.cpg/sg2_109_cif.got.tgz:217123.got - 2010.06.03 11:33:40.
