data_PCOD9108083
_publ_section_title
;
Structure prediction by ZEFSAII (Michael W. Deem and Ramdas Pophale) SiO2 
 PCOD9108083
Probable space group: P -1
;
_chemical_formula_sum "Si O2"
_cell_formula_units_Z 16
_cell_length_a 16.075458
_cell_length_b 5.423086
_cell_length_c 9.168714
_cell_angle_alpha 74.385614
_cell_angle_beta 63.915900
_cell_angle_gamma 78.731616
_cell_volume 688.661785
_symmetry_space_group_name_H-M "P -1"
_symmetry_group_IT_number 2
_symmetry_cell_setting 'triclinic'
loop_
_space_group_symop_operation_xyz
x,y,z
-x,-y,-z
loop_
_atom_site_type_symbol
_atom_site_label
_atom_site_fract_x
_atom_site_fract_y
_atom_site_fract_z
Si Si1 0.712207 0.924453 0.059178
Si Si2 0.010137 0.446396 0.176854
Si Si3 0.669666 0.571420 0.679770
Si Si4 0.577619 0.295378 0.535175
Si Si5 0.731172 0.974506 0.346154
Si Si6 0.492157 0.884664 0.864253
Si Si7 0.213062 0.551523 0.114145
Si Si8 0.940569 0.976642 0.199027
O O1 0.617779 0.106695 0.074187
O O2 0.720361 0.812671 0.233885
O O3 0.784749 0.143554 0.968069
O O4 0.724901 0.681023 0.980961
O O5 0.110959 0.481476 0.157922
O O6 0.944217 0.670842 0.269032
O O7 0.984243 0.155577 0.255283
O O8 0.000000 0.500000 0.000000
O O9 0.641258 0.389634 0.600864
O O10 0.708820 0.814183 0.531098
O O11 0.570176 0.646781 0.824180
O O12 0.748340 0.468939 0.747875
O O13 0.500000 0.500000 0.500000
O O14 0.647799 0.197275 0.370188
O O15 0.522937 0.072815 0.683528
O O16 0.832452 0.072172 0.256220
O O17 0.500000 0.000000 0.000000
O O18 0.000000 0.000000 0.000000
#
# Coordination Sequence:
#
# PCOD9108083 Si02
#       8
#     2   2   2   2   2   2   2   2
#     4  12  25  41  72 104 137 185 247 285 349 419
#     4  10  20  40  66  97 134 169 226 292 350 407
#     4  11  26  44  67  99 151 188 233 294 363 422
#     4  11  25  44  69 100 146 190 238 286 351 425
#     4  11  26  43  71 104 140 187 235 295 359 423
#     4  11  23  42  63 100 138 185 236 289 345 412
#     4  12  26  44  71 107 140 185 236 299 356 422
#     4  10  21  41  68 100 132 172 229 293 346 411
#
# _framework density 23.233464999999999
#
# number of rings (size 3 to 8) (size 9 to 14) (size 15 to 20)
#    0.000    1.000    1.250    6.000    8.750    3.000 
#    0.000    1.250    0.000    0.000    0.000    0.000 
#    0.000    0.000    0.000    0.000    0.000    0.000 
#
# Total GULP energy -89341.853767 kJ/mol
# GULP energy per Si atom -5583.865860 kJ/mol
# Density = 2.318058 g / cm^3
# Si number density = 23.233465 Si / 1000 Ang^3
#
#
#
# Elastic Constant Matrix: (Units=GPa)
#
#
# Indices 1 2 3 4 5 6 
#
# 1 117.0353 -1.7334 16.6937 0.2992 8.1734 6.1593
# 2 -1.7334 96.4413 6.9993 10.6602 0.9789 12.0957
# 3 16.6937 6.9993 44.0307 3.1253 7.1403 -2.2886
# 4 0.2992 10.6602 3.1253 22.3276 2.9024 8.1165
# 5 8.1734 0.9789 7.1403 2.9024 40.1726 2.2095
# 6 6.1593 12.0957 -2.2886 8.1165 2.2095 42.6462
#
#
#
# Elastic Compliance Matrix: (Units=1/GPa)
#
#
# Indices 1 2 3 4 5 6 
#
# 1 0.009237 0.000560 -0.003550 0.000918 -0.001230 -0.001794
# 2 0.000560 0.011309 -0.001909 -0.004245 0.000400 -0.002604
# 3 -0.003550 -0.001909 0.025359 -0.003287 -0.003679 0.003231
# 4 0.000918 -0.004245 -0.003287 0.050747 -0.002691 -0.008624
# 5 -0.001230 0.000400 -0.003679 -0.002691 0.026035 -0.000970
# 6 -0.001794 -0.002604 0.003231 -0.008624 -0.000970 0.026311
#
#
# Mechanical properties :
#
#
# Convention : Reuss Voigt Hill
#
# Bulk Modulus (GPa) = 27.69570 33.49182 30.59376
# Shear Modulus (GPa) = 29.26850 36.73246 33.00048
#
# Velocity S-wave (km/s) = 3.55315 3.98051 3.77289
# Velocity P-wave (km/s) = 5.36467 5.96428 5.67240
#
# Compressibility (1/GPa) = 0.03610669
#
# Stress axis : x y z
#
# Youngs Moduli (GPa) = 108.25950 88.42230 39.43427
#
# Poissons Ratio (x) = -0.04949 0.14000
# Poissons Ratio (y) = -0.06060 0.07527
# Poissons Ratio (z) = 0.38433 0.16878
#
# Static dielectric constant tensor:
#      x y z
#    x 1.890500 -0.036100 -0.008840 
#    y -0.036100 2.016460 -0.094060 
#    z -0.008840 -0.094060 1.949540 
# 
# From -- ./inp_files/37483.got.cif
#   From: 2010.05.17/outbox.cif.g08.bks.cpg/sg2_19_cif.got.tgz:37483.got - 2010.06.03 11:33:40.
