data_PCOD9108139
_publ_section_title
;
Structure prediction by ZEFSAII (Michael W. Deem and Ramdas Pophale) SiO2 
 PCOD9108139
Probable space group: P -1
;
_chemical_formula_sum "Si O2"
_cell_formula_units_Z 13
_cell_length_a 15.681456
_cell_length_b 8.499430
_cell_length_c 11.073168
_cell_angle_alpha 126.294210
_cell_angle_beta 25.021300
_cell_angle_gamma 131.666484
_cell_volume 466.058223
_symmetry_space_group_name_H-M "P -1"
_symmetry_group_IT_number 2
_symmetry_cell_setting 'triclinic'
loop_
_space_group_symop_operation_xyz
x,y,z
-x,-y,-z
loop_
_atom_site_type_symbol
_atom_site_label
_atom_site_fract_x
_atom_site_fract_y
_atom_site_fract_z
Si Si1 0.342272 0.023041 0.943968
Si Si2 0.251332 0.840570 0.226751
Si Si3 0.000000 0.500000 0.500000
Si Si4 0.665585 0.802623 0.409374
Si Si5 0.681862 0.429813 0.642869
Si Si6 0.437507 0.513908 0.796028
Si Si7 0.918548 0.270712 0.066460
O O1 0.564497 0.976617 0.636897
O O2 0.210829 0.898431 0.942818
O O3 0.440866 0.273730 0.924119
O O4 0.205843 0.915548 0.189808
O O5 0.082206 0.779515 0.522917
O O6 0.248081 0.592567 0.121000
O O7 0.500000 0.000000 0.000000
O O8 0.845059 0.497929 0.574568
O O9 0.516837 0.644808 0.631891
O O10 0.625123 0.716955 0.284038
O O11 0.897728 0.801179 0.145949
O O12 0.622455 0.578223 0.689088
O O13 0.779759 0.307091 0.369012
O O14 0.000000 0.500000 0.000000
#
# Coordination Sequence:
#
# PCOD9108139 Si02
#       7
#     2   2   1   2   2   2   2
#     4  11  24  44  68 102 147 176 233 296 351 409
#     4  11  24  49  69  95 138 189 235 294 342 418
#     4  12  26  46  70  96 136 192 244 270 358 416
#     4  10  20  40  67 103 137 182 222 288 360 414
#     4  12  24  43  67 103 141 186 230 294 343 418
#     4  10  21  41  69  97 139 180 229 288 358 403
#     4  12  21  39  70 102 135 182 232 284 352 417
#
# _framework density 27.893512999999999
#
# number of rings (size 3 to 8) (size 9 to 14) (size 15 to 20)
#    0.000    0.923    4.615    4.154    0.000    1.231 
#    2.769    0.769    0.000    0.000    0.000    0.000 
#    0.000    0.000    0.000    0.000    0.000    0.000 
#
# Total GULP energy -72548.666924 kJ/mol
# GULP energy per Si atom -5580.666686 kJ/mol
# Density = 2.783003 g / cm^3
# Si number density = 27.893513 Si / 1000 Ang^3
#
#
#
# Elastic Constant Matrix: (Units=GPa)
#
#
# Indices 1 2 3 4 5 6 
#
# 1 202.4178 45.7479 55.3537 -15.0846 -2.1596 28.6322
# 2 45.7479 84.7604 25.1851 -29.7397 3.0912 -9.0551
# 3 55.3537 25.1851 120.2092 1.4137 -7.2076 -5.2934
# 4 -15.0846 -29.7397 1.4137 54.3652 -7.5503 6.2286
# 5 -2.1596 3.0912 -7.2076 -7.5503 58.7245 -17.3135
# 6 28.6322 -9.0551 -5.2934 6.2286 -17.3135 56.6904
#
#
#
# Elastic Compliance Matrix: (Units=1/GPa)
#
#
# Indices 1 2 3 4 5 6 
#
# 1 0.007210 -0.003257 -0.002939 0.000679 -0.001282 -0.004903
# 2 -0.003257 0.017469 -0.002051 0.008413 0.000846 0.003578
# 3 -0.002939 -0.002051 0.010369 -0.002287 0.001845 0.002940
# 4 0.000679 0.008413 -0.002287 0.023658 0.001988 -0.001205
# 5 -0.001282 0.000846 0.001845 0.001988 0.019381 0.006656
# 6 -0.004903 0.003578 0.002940 -0.001205 0.006656 0.023127
#
#
# Mechanical properties :
#
#
# Convention : Reuss Voigt Hill
#
# Bulk Modulus (GPa) = 53.89510 73.32899 63.61205
# Shear Modulus (GPa) = 40.35778 52.69605 46.52692
#
# Velocity S-wave (km/s) = 3.80788 4.35119 4.08857
# Velocity P-wave (km/s) = 6.22068 7.18261 6.71888
#
# Compressibility (1/GPa) = 0.01855456
#
# Stress axis : x y z
#
# Youngs Moduli (GPa) = 138.68802 57.24545 96.44552
#
# Poissons Ratio (x) = 0.18647 0.28341
# Poissons Ratio (y) = 0.45176 0.19777
# Poissons Ratio (z) = 0.40754 0.11739
#
# Static dielectric constant tensor:
#      x y z
#    x 2.115560 -0.045480 -0.026970 
#    y -0.045480 2.477980 0.031290 
#    z -0.026970 0.031290 2.471090 
# 
# From -- ./inp_files/224711.got.cif
#   From: 2010.05.17/outbox.cif.g08.bks.cpg/sg2_113_cif.got.tgz:224711.got - 2010.06.03 11:33:40.
