data_PCOD9108385
_publ_section_title
;
Structure prediction by ZEFSAII (Michael W. Deem and Ramdas Pophale) SiO2 
 PCOD9108385
Probable space group: P -1
;
_chemical_formula_sum "Si O2"
_cell_formula_units_Z 12
_cell_length_a 9.813876
_cell_length_b 9.188792
_cell_length_c 12.073007
_cell_angle_alpha 128.245613
_cell_angle_beta 140.502311
_cell_angle_gamma 47.189279
_cell_volume 497.442852
_symmetry_space_group_name_H-M "P -1"
_symmetry_group_IT_number 2
_symmetry_cell_setting 'triclinic'
loop_
_space_group_symop_operation_xyz
x,y,z
-x,-y,-z
loop_
_atom_site_type_symbol
_atom_site_label
_atom_site_fract_x
_atom_site_fract_y
_atom_site_fract_z
Si Si1 0.566307 0.616645 0.473067
Si Si2 0.877723 0.351564 0.880514
Si Si3 0.234911 0.491371 0.891915
Si Si4 0.391095 0.231168 0.667653
Si Si5 0.997348 0.793046 0.445476
Si Si6 0.797011 0.847858 0.833601
O O1 0.291672 0.668383 0.327159
O O2 0.605797 0.726286 0.439024
O O3 0.743846 0.383138 0.461010
O O4 0.639215 0.717130 0.670438
O O5 0.918367 0.842908 0.025960
O O6 0.700131 0.462796 0.923589
O O7 0.000000 0.500000 0.000000
O O8 0.364888 0.413661 0.821868
O O9 0.018457 0.705431 0.832643
O O10 0.169409 0.177660 0.536565
O O11 0.634628 0.057393 0.778098
O O12 0.866141 0.684214 0.234992
O O13 0.000000 0.000000 0.500000
#
# Coordination Sequence:
#
# PCOD9108385 Si02
#       6
#     2   2   2   2   2   2
#     4  11  22  40  68  89 127 169 200 258 319 359
#     4  10  23  40  61  91 129 166 205 256 312 366
#     4   7  20  39  58  89 128 152 205 258 292 365
#     4  10  20  40  68  92 124 165 207 254 311 374
#     4   9  20  36  62  90 120 160 203 248 307 360
#     4   9  21  41  63  91 128 159 210 256 305 371
#
# _framework density 24.123374999999999
#
# number of rings (size 3 to 8) (size 9 to 14) (size 15 to 20)
#    2.000    0.667    0.000    1.000    2.333    3.333 
#    0.000    5.000    0.000    0.000    0.000    0.000 
#    0.000    0.000    0.000    0.000    0.000    0.000 
#
# Total GULP energy -66830.959660 kJ/mol
# GULP energy per Si atom -5569.246638 kJ/mol
# Density = 2.406847 g / cm^3
# Si number density = 24.123375 Si / 1000 Ang^3
#
#
#
# Elastic Constant Matrix: (Units=GPa)
#
#
# Indices 1 2 3 4 5 6 
#
# 1 96.7858 7.3843 5.4150 -3.1437 20.7506 10.2995
# 2 7.3843 123.0477 4.0605 -43.0938 8.1911 -4.7554
# 3 5.4150 4.0605 82.4276 -21.1504 12.2259 0.4978
# 4 -3.1437 -43.0938 -21.1504 -34.7679 7.9124 -23.0968
# 5 20.7506 8.1911 12.2259 7.9124 20.2601 9.0311
# 6 10.2995 -4.7554 0.4978 -23.0968 9.0311 25.7678
#
#
#
# Elastic Compliance Matrix: (Units=1/GPa)
#
#
# Indices 1 2 3 4 5 6 
#
# 1 0.013086 -0.000672 0.000521 -0.001547 -0.011652 -0.002667
# 2 -0.000672 0.006445 -0.001686 -0.004315 0.002187 -0.003144
# 3 0.000521 -0.001686 0.011757 -0.004057 -0.004039 -0.002967
# 4 -0.001547 -0.004315 -0.004057 -0.008666 0.015015 -0.013130
# 5 -0.011652 0.002187 -0.004039 0.015015 0.057708 -0.001628
# 6 -0.002667 -0.003144 -0.002967 -0.013130 -0.001628 0.028153
#
#
# Mechanical properties :
#
#
# Convention : Reuss Voigt Hill
#
# Bulk Modulus (GPa) = 36.21433 37.33119 36.77276
# Shear Modulus (GPa) = 41.19968 21.27875 31.23921
#
# Velocity S-wave (km/s) = 4.13713 2.97321 3.60248
# Velocity P-wave (km/s) = 6.15352 5.22449 5.70794
#
# Compressibility (1/GPa) = 0.02761338
#
# Stress axis : x y z
#
# Youngs Moduli (GPa) = 76.41737 155.17054 85.05835
#
# Poissons Ratio (x) = 0.10424 -0.04430
# Poissons Ratio (y) = 0.05133 0.14340
# Poissons Ratio (z) = -0.03980 0.26161
#
# Static dielectric constant tensor:
#      x y z
#    x 2.006720 0.013370 0.078060 
#    y 0.013370 1.893380 0.014140 
#    z 0.078060 0.014140 2.075220 
# 
# From -- ./inp_files/491671.got.cif
#   From: 2010.05.17/outbox.cif.g08.bks.cpg/sg2_246_cif.got.tgz:491671.got - 2010.06.03 11:33:40.
