data_PCOD9108551
_publ_section_title
;
Structure prediction by ZEFSAII (Michael W. Deem and Ramdas Pophale) SiO2 
 PCOD9108551
Probable space group: P -1
;
_chemical_formula_sum "Si O2"
_cell_formula_units_Z 16
_cell_length_a 15.843606
_cell_length_b 10.503842
_cell_length_c 9.356294
_cell_angle_alpha 57.060287
_cell_angle_beta 34.503921
_cell_angle_gamma 62.930382
_cell_volume 740.147843
_symmetry_space_group_name_H-M "P -1"
_symmetry_group_IT_number 2
_symmetry_cell_setting 'triclinic'
loop_
_space_group_symop_operation_xyz
x,y,z
-x,-y,-z
loop_
_atom_site_type_symbol
_atom_site_label
_atom_site_fract_x
_atom_site_fract_y
_atom_site_fract_z
Si Si1 0.583541 0.860878 0.047559
Si Si2 0.208935 0.075606 0.756614
Si Si3 0.622876 0.144061 0.141782
Si Si4 0.666441 0.390224 0.381131
Si Si5 0.532771 0.448951 0.239080
Si Si6 0.628221 0.732571 0.774144
Si Si7 0.828664 0.045936 0.700600
Si Si8 0.122858 0.863660 0.739490
O O1 0.673284 0.786003 0.835790
O O2 0.705293 0.912626 0.961324
O O3 0.456897 0.745645 0.348889
O O4 0.500000 0.000000 0.000000
O O5 0.248521 0.237678 0.534200
O O6 0.334357 0.998985 0.729750
O O7 0.188024 0.963026 0.718641
O O8 0.051932 0.096163 0.041630
O O9 0.567873 0.281884 0.234549
O O10 0.501733 0.156361 0.175675
O O11 0.776278 0.162090 0.826112
O O12 0.634942 0.467486 0.226216
O O13 0.627228 0.502277 0.499255
O O14 0.826390 0.309627 0.201812
O O15 0.570980 0.566266 0.988779
O O16 0.811115 0.103590 0.528396
O O17 0.000000 0.000000 0.500000
#
# Coordination Sequence:
#
# PCOD9108551 Si02
#       8
#     2   2   2   2   2   2   2   2
#     4  11  19  36  65  95 119 166 213 265 315 372
#     4  11  23  38  65  96 127 164 214 268 315 381
#     4  12  23  38  65  99 128 164 212 272 319 371
#     4  10  20  40  69  89 124 173 216 256 312 391
#     4  10  23  40  62  95 128 170 211 262 320 378
#     4  11  22  39  63  94 128 169 214 265 313 376
#     4  12  23  38  62  97 134 161 204 269 332 373
#     4  11  21  40  64  91 130 166 206 264 327 374
#
# _framework density 21.617301999999999
#
# number of rings (size 3 to 8) (size 9 to 14) (size 15 to 20)
#    0.000    1.000    6.250    1.500    0.000    1.000 
#    0.000    0.625    5.500    1.500    0.000    0.000 
#    0.000    0.000    0.000    0.000    0.000    0.000 
#
# Total GULP energy -89156.839457 kJ/mol
# GULP energy per Si atom -5572.302466 kJ/mol
# Density = 2.156810 g / cm^3
# Si number density = 21.617302 Si / 1000 Ang^3
#
#
#
# Elastic Constant Matrix: (Units=GPa)
#
#
# Indices 1 2 3 4 5 6 
#
# 1 83.3719 36.6011 25.3160 -3.4432 7.1865 -8.2651
# 2 36.6011 96.0553 35.5823 18.3167 12.2261 -7.5948
# 3 25.3160 35.5823 87.6745 4.0088 23.4837 -2.7950
# 4 -3.4432 18.3167 4.0088 36.7716 -9.1671 13.3106
# 5 7.1865 12.2261 23.4837 -9.1671 39.6312 6.6634
# 6 -8.2651 -7.5948 -2.7950 13.3106 6.6634 33.1153
#
#
#
# Elastic Compliance Matrix: (Units=1/GPa)
#
#
# Indices 1 2 3 4 5 6 
#
# 1 0.015605 -0.006286 -0.002799 0.005600 0.002142 -0.000465
# 2 -0.006286 0.018539 -0.002402 -0.015434 -0.008472 0.010388
# 3 -0.002799 -0.002402 0.016286 -0.004894 -0.010231 0.004151
# 4 0.005600 -0.015434 -0.004894 0.051964 0.023399 -0.028150
# 5 0.002142 -0.008472 -0.010231 0.023399 0.042328 -0.020194
# 6 -0.000465 0.010388 0.004151 -0.028150 -0.020194 0.048193
#
#
# Mechanical properties :
#
#
# Convention : Reuss Voigt Hill
#
# Bulk Modulus (GPa) = 36.42576 51.34450 43.88513
# Shear Modulus (GPa) = 22.21810 33.21043 27.71426
#
# Velocity S-wave (km/s) = 3.20940 3.92380 3.58444
# Velocity P-wave (km/s) = 5.53358 6.65819 6.12176
#
# Compressibility (1/GPa) = 0.02745310
#
# Stress axis : x y z
#
# Youngs Moduli (GPa) = 64.08300 53.94059 61.40347
#
# Poissons Ratio (x) = 0.33910 0.17188
# Poissons Ratio (y) = 0.40286 0.14752
# Poissons Ratio (z) = 0.17938 0.12959
#
# Static dielectric constant tensor:
#      x y z
#    x 1.819850 0.039170 0.000340 
#    y 0.039170 1.851210 -0.008300 
#    z 0.000340 -0.008300 1.843660 
# 
# From -- ./inp_files/306664.got.cif
#   From: 2010.05.17/outbox.cif.g08.bks.cpg/sg2_154_cif.got.tgz:306664.got - 2010.06.03 11:33:40.
