data_PCOD9108191
_publ_section_title
;
Structure prediction by ZEFSAII (Michael W. Deem and Ramdas Pophale) SiO2 
 PCOD9108191
Probable space group: P -1
;
_chemical_formula_sum "Si O2"
_cell_formula_units_Z 16
_cell_length_a 11.701733
_cell_length_b 12.937690
_cell_length_c 8.121934
_cell_angle_alpha 115.049361
_cell_angle_beta 140.489227
_cell_angle_gamma 51.009838
_cell_volume 603.248019
_symmetry_space_group_name_H-M "P -1"
_symmetry_group_IT_number 2
_symmetry_cell_setting 'triclinic'
loop_
_space_group_symop_operation_xyz
x,y,z
-x,-y,-z
loop_
_atom_site_type_symbol
_atom_site_label
_atom_site_fract_x
_atom_site_fract_y
_atom_site_fract_z
Si Si1 0.955372 0.087500 0.344521
Si Si2 0.416491 0.129395 0.212287
Si Si3 0.993656 0.373698 0.970463
Si Si4 0.320782 0.676757 0.591611
Si Si5 0.325054 0.154933 0.766377
Si Si6 0.527852 0.414437 0.809473
Si Si7 0.777066 0.152641 0.730950
Si Si8 0.140077 0.383945 0.451955
O O1 0.137836 0.123701 0.559211
O O2 0.740652 0.225867 0.251831
O O3 0.004159 0.981786 0.176134
O O4 0.000000 0.000000 0.500000
O O5 0.208143 0.232180 0.139164
O O6 0.609202 0.106947 0.522887
O O7 0.460161 0.983515 0.128872
O O8 0.373335 0.195293 0.024351
O O9 0.955137 0.399812 0.137665
O O10 0.000000 0.500000 0.000000
O O11 0.872844 0.341876 0.680445
O O12 0.502478 0.523466 0.718368
O O13 0.317965 0.752337 0.474128
O O14 0.261221 0.254059 0.612429
O O15 0.725891 0.262969 0.889853
O O16 0.319628 0.401390 0.573691
O O17 0.500000 0.500000 0.000000
O O18 0.000000 0.500000 0.500000
#
# Coordination Sequence:
#
# PCOD9108191 Si02
#       8
#     2   2   2   2   2   2   2   2
#     4   9  19  40  70  93 128 162 218 271 321 394
#     4  10  20  40  67  91 129 166 223 262 322 399
#     4  12  22  41  66  93 129 174 222 269 327 391
#     4  11  22  42  70  94 126 173 223 268 326 398
#     4  10  21  38  67  99 127 170 214 270 330 385
#     4  12  27  44  61  96 137 173 217 273 333 387
#     4  10  22  42  65  93 125 174 218 264 320 398
#     4  12  26  42  65  96 137 171 221 279 327 385
#
# _framework density 26.52309
#
# number of rings (size 3 to 8) (size 9 to 14) (size 15 to 20)
#    0.000    1.250    3.750    1.875    3.500    0.500 
#    0.000    0.625    0.000    0.000    0.000    0.000 
#    0.000    0.000    0.000    0.000    0.000    0.000 
#
# Total GULP energy -89279.923379 kJ/mol
# GULP energy per Si atom -5579.995211 kJ/mol
# Density = 2.646272 g / cm^3
# Si number density = 26.523090 Si / 1000 Ang^3
#
#
#
# Elastic Constant Matrix: (Units=GPa)
#
#
# Indices 1 2 3 4 5 6 
#
# 1 54.2058 34.8118 18.2251 5.5418 -6.4400 -7.1272
# 2 34.8118 133.8961 28.9004 4.2651 -9.2003 -30.2317
# 3 18.2251 28.9004 61.7734 7.2461 -13.9697 -0.7584
# 4 5.5418 4.2651 7.2461 48.7078 -8.2385 -12.8562
# 5 -6.4400 -9.2003 -13.9697 -8.2385 48.1929 4.4936
# 6 -7.1272 -30.2317 -0.7584 -12.8562 4.4936 54.3332
#
#
#
# Elastic Compliance Matrix: (Units=1/GPa)
#
#
# Indices 1 2 3 4 5 6 
#
# 1 0.023349 -0.005141 -0.004148 -0.001545 0.000698 -0.000279
# 2 -0.005141 0.010834 -0.003663 0.001698 0.000078 0.005698
# 3 -0.004148 -0.003663 0.020390 -0.002320 0.004561 -0.003224
# 4 -0.001545 0.001698 -0.002320 0.022938 0.002816 0.005905
# 5 0.000698 0.000078 0.004561 0.002816 0.022756 -0.001017
# 6 -0.000279 0.005698 -0.003224 0.005905 -0.001017 0.022975
#
#
# Mechanical properties :
#
#
# Convention : Reuss Voigt Hill
#
# Bulk Modulus (GPa) = 34.88207 45.97222 40.42714
# Shear Modulus (GPa) = 31.50591 41.44266 36.47428
#
# Velocity S-wave (km/s) = 3.45028 3.95715 3.71238
# Velocity P-wave (km/s) = 5.39006 6.18460 5.80095
#
# Compressibility (1/GPa) = 0.02866803
#
# Stress axis : x y z
#
# Youngs Moduli (GPa) = 42.82918 92.30618 49.04443
#
# Poissons Ratio (x) = 0.47454 0.20342
# Poissons Ratio (y) = 0.22018 0.17966
# Poissons Ratio (z) = 0.17764 0.33814
#
# Static dielectric constant tensor:
#      x y z
#    x 2.285210 -0.015880 -0.135990 
#    y -0.015880 2.066220 0.047710 
#    z -0.135990 0.047710 2.343130 
# 
# From -- ./inp_files/314032.got.cif
#   From: 2010.05.17/outbox.cif.g08.bks.cpg/sg2_158_cif.got.tgz:314032.got - 2010.06.03 11:33:40.
