data_PCOD9108542
_publ_section_title
;
Structure prediction by ZEFSAII (Michael W. Deem and Ramdas Pophale) SiO2 
 PCOD9108542
Probable space group: P -1
;
_chemical_formula_sum "Si O2"
_cell_formula_units_Z 14
_cell_length_a 14.403447
_cell_length_b 11.200789
_cell_length_c 8.005736
_cell_angle_alpha 63.307709
_cell_angle_beta 116.193686
_cell_angle_gamma 152.456192
_cell_volume 530.691452
_symmetry_space_group_name_H-M "P -1"
_symmetry_group_IT_number 2
_symmetry_cell_setting 'triclinic'
loop_
_space_group_symop_operation_xyz
x,y,z
-x,-y,-z
loop_
_atom_site_type_symbol
_atom_site_label
_atom_site_fract_x
_atom_site_fract_y
_atom_site_fract_z
Si Si1 0.248218 0.565561 0.836952
Si Si2 0.841902 0.445214 0.892101
Si Si3 0.107227 0.763561 0.426742
Si Si4 0.418324 0.754048 0.487376
Si Si5 0.417650 0.448153 0.690605
Si Si6 0.237927 0.256045 0.030906
Si Si7 0.079550 0.933811 0.605782
O O1 0.347544 0.708884 0.647659
O O2 0.004711 0.294245 0.783614
O O3 0.280802 0.688818 0.948151
O O4 0.319107 0.495457 0.975507
O O5 0.690746 0.276786 0.719308
O O6 0.970534 0.725831 0.794397
O O7 0.000000 0.500000 0.000000
O O8 0.341276 0.989983 0.479859
O O9 0.000000 0.500000 0.500000
O O10 0.356821 0.531129 0.543364
O O11 0.946936 0.196597 0.489172
O O12 0.653632 0.706567 0.761793
O O13 0.320334 0.228475 0.634406
O O14 0.312401 0.300691 0.878343
O O15 0.000000 0.000000 0.000000
O O16 0.000000 0.000000 0.500000
#
# Coordination Sequence:
#
# PCOD9108542 Si02
#       7
#     2   2   2   2   2   2   2
#     4  11  25  48  77 112 163 214 273 348 427 494
#     4  12  27  51  84 123 166 222 289 358 427 516
#     4  12  28  53  82 118 172 233 281 350 433 520
#     4  11  26  52  82 119 164 225 286 348 438 516
#     4  10  22  41  76 116 159 211 266 344 418 495
#     4  10  20  40  69 115 157 201 262 330 414 497
#     4  12  24  51  85 121 173 218 288 355 428 506
#
# _framework density 26.380678
#
# number of rings (size 3 to 8) (size 9 to 14) (size 15 to 20)
#    0.000    0.857    2.857    3.429    2.000    4.571 
#    2.571    1.429    0.000    0.000    0.000    0.000 
#    0.000    0.000    0.000    0.000    0.000    0.000 
#
# Total GULP energy -78370.735391 kJ/mol
# GULP energy per Si atom -5597.909671 kJ/mol
# Density = 2.632063 g / cm^3
# Si number density = 26.380678 Si / 1000 Ang^3
#
#
#
# Elastic Constant Matrix: (Units=GPa)
#
#
# Indices 1 2 3 4 5 6 
#
# 1 175.0184 54.4431 90.0726 6.0453 7.4014 -3.7467
# 2 54.4431 156.5581 46.1989 16.3317 0.1579 5.6594
# 3 90.0726 46.1989 172.7479 21.9430 0.0967 10.2085
# 4 6.0453 16.3317 21.9430 32.5125 0.4525 5.8803
# 5 7.4014 0.1579 0.0967 0.4525 65.3812 3.0836
# 6 -3.7467 5.6594 10.2085 5.8803 3.0836 54.7897
#
#
#
# Elastic Compliance Matrix: (Units=1/GPa)
#
#
# Indices 1 2 3 4 5 6 
#
# 1 0.008522 -0.001970 -0.004259 0.002037 -0.001035 0.001419
# 2 -0.001970 0.007573 -0.000594 -0.002949 0.000250 -0.000504
# 3 -0.004259 -0.000594 0.008839 -0.004628 0.000569 -0.001412
# 4 0.002037 -0.002949 -0.004628 0.035437 -0.000345 -0.002478
# 5 -0.001035 0.000250 0.000569 -0.000345 0.015462 -0.001036
# 6 0.001419 -0.000504 -0.001412 -0.002478 -0.001036 0.018988
#
#
# Mechanical properties :
#
#
# Convention : Reuss Voigt Hill
#
# Bulk Modulus (GPa) = 88.57715 98.41706 93.49711
# Shear Modulus (GPa) = 44.55196 51.44401 47.99799
#
# Velocity S-wave (km/s) = 4.11397 4.42074 4.27011
# Velocity P-wave (km/s) = 7.49772 7.96522 7.73500
#
# Compressibility (1/GPa) = 0.01128959
#
# Stress axis : x y z
#
# Youngs Moduli (GPa) = 117.34565 132.04354 113.13278
#
# Poissons Ratio (x) = 0.26006 0.48179
# Poissons Ratio (y) = 0.23111 0.06722
# Poissons Ratio (z) = 0.49974 0.07846
#
# Static dielectric constant tensor:
#      x y z
#    x 2.128270 -0.008360 0.034060 
#    y -0.008360 2.205910 -0.081660 
#    z 0.034060 -0.081660 2.126620 
# 
# From -- ./inp_files/307119.got.cif
#   From: 2010.05.17/outbox.cif.g08.bks.cpg/sg2_154_cif.got.tgz:307119.got - 2010.06.03 11:33:40.
