data_PCOD9108539
_publ_section_title
;
Structure prediction by ZEFSAII (Michael W. Deem and Ramdas Pophale) SiO2 
 PCOD9108539
Probable space group: P -1
;
_chemical_formula_sum "Si O2"
_cell_formula_units_Z 16
_cell_length_a 14.293439
_cell_length_b 8.485490
_cell_length_c 13.496701
_cell_angle_alpha 61.040971
_cell_angle_beta 151.246932
_cell_angle_gamma 125.635053
_cell_volume 638.506190
_symmetry_space_group_name_H-M "P -1"
_symmetry_group_IT_number 2
_symmetry_cell_setting 'triclinic'
loop_
_space_group_symop_operation_xyz
x,y,z
-x,-y,-z
loop_
_atom_site_type_symbol
_atom_site_label
_atom_site_fract_x
_atom_site_fract_y
_atom_site_fract_z
Si Si1 0.318257 0.701531 0.724782
Si Si2 0.917826 0.917804 0.098655
Si Si3 0.749093 0.062021 0.233464
Si Si4 0.133393 0.380707 0.386837
Si Si5 0.771152 0.742679 0.221394
Si Si6 0.731527 0.201023 0.575861
Si Si7 0.095245 0.337779 0.139970
Si Si8 0.578088 0.645132 0.724279
O O1 0.226509 0.826636 0.672640
O O2 0.206905 0.465702 0.685417
O O3 0.333631 0.788756 0.602478
O O4 0.540109 0.719448 0.973551
O O5 0.912363 0.862895 0.225246
O O6 0.141558 0.936383 0.256346
O O7 0.734839 0.746258 0.927290
O O8 0.914020 0.128667 0.013559
O O9 0.916590 0.222149 0.271107
O O10 0.799061 0.871056 0.308147
O O11 0.500000 0.000000 0.000000
O O12 0.098343 0.583451 0.305729
O O13 0.164386 0.328469 0.319271
O O14 0.376975 0.456452 0.629164
O O15 0.537552 0.206987 0.457489
O O16 0.288444 0.389661 0.229202
O O17 0.000000 0.500000 0.000000
#
# Coordination Sequence:
#
# PCOD9108539 Si02
#       8
#     2   2   2   2   2   2   2   2
#     4  10  21  42  68 105 150 194 240 303 359 442
#     4  12  23  47  73 103 145 192 249 301 372 447
#     4  10  21  40  71 108 147 196 243 294 365 446
#     4  10  22  46  69 105 148 183 244 305 369 432
#     4  10  20  40  69 105 148 191 244 298 367 436
#     4  10  24  44  74 102 144 194 243 297 370 433
#     4  12  26  48  76 108 145 190 245 315 381 436
#     4  10  25  48  73 108 140 192 249 307 373 441
#
# _framework density 25.058489000000002
#
# number of rings (size 3 to 8) (size 9 to 14) (size 15 to 20)
#    0.750    0.750    2.500    2.250    0.000    2.500 
#    9.000    1.250    0.000    0.000    0.000    0.000 
#    0.000    0.000    0.000    0.000    0.000    0.000 
#
# Total GULP energy -89343.892586 kJ/mol
# GULP energy per Si atom -5583.993287 kJ/mol
# Density = 2.500146 g / cm^3
# Si number density = 25.058489 Si / 1000 Ang^3
#
#
#
# Elastic Constant Matrix: (Units=GPa)
#
#
# Indices 1 2 3 4 5 6 
#
# 1 166.0903 60.4339 50.9552 19.7239 28.0524 -28.2980
# 2 60.4339 107.5851 51.1187 18.2683 20.2174 -17.5614
# 3 50.9552 51.1187 115.0775 17.7989 16.0712 -5.7062
# 4 19.7239 18.2683 17.7989 37.8252 -8.5848 10.4426
# 5 28.0524 20.2174 16.0712 -8.5848 41.7405 6.4079
# 6 -28.2980 -17.5614 -5.7062 10.4426 6.4079 46.8344
#
#
#
# Elastic Compliance Matrix: (Units=1/GPa)
#
#
# Indices 1 2 3 4 5 6 
#
# 1 0.011350 -0.000262 -0.001258 -0.010526 -0.010783 0.010429
# 2 -0.000262 0.016469 -0.003616 -0.011012 -0.010119 0.009416
# 3 -0.001258 -0.003616 0.011919 -0.004045 -0.002921 0.000637
# 4 -0.010526 -0.011012 -0.004045 0.053129 0.029006 -0.026797
# 5 -0.010783 -0.010119 -0.002921 0.029006 0.046809 -0.023537
# 6 0.010429 0.009416 0.000637 -0.026797 -0.023537 0.040457
#
#
# Mechanical properties :
#
#
# Convention : Reuss Voigt Hill
#
# Bulk Modulus (GPa) = 33.93942 79.30760 56.62351
# Shear Modulus (GPa) = 24.97164 40.36304 32.66734
#
# Velocity S-wave (km/s) = 3.16022 4.01777 3.61452
# Velocity P-wave (km/s) = 5.18550 7.29665 6.32971
#
# Compressibility (1/GPa) = 0.02946427
#
# Stress axis : x y z
#
# Youngs Moduli (GPa) = 88.10419 60.72105 83.90255
#
# Poissons Ratio (x) = 0.01590 0.10558
# Poissons Ratio (y) = 0.02307 0.30343
# Poissons Ratio (z) = 0.11087 0.21959
#
# Static dielectric constant tensor:
#      x y z
#    x 1.997590 0.008870 -0.016940 
#    y 0.008870 2.026480 0.000610 
#    z -0.016940 0.000610 2.014200 
# 
# From -- ./inp_files/529582.got.cif
#   From: 2010.05.17/outbox.cif.g08.bks.cpg/sg2_265_cif.got.tgz:529582.got - 2010.06.03 11:33:40.
