data_PCOD9108964
_publ_section_title
;
Structure prediction by ZEFSAII (Michael W. Deem and Ramdas Pophale) SiO2 
 PCOD9108964
Probable space group: P -1
;
_chemical_formula_sum "Si O2"
_cell_formula_units_Z 14
_cell_length_a 20.465023
_cell_length_b 18.109778
_cell_length_c 9.443669
_cell_angle_alpha 49.264534
_cell_angle_beta 141.167832
_cell_angle_gamma 160.567089
_cell_volume 671.330660
_symmetry_space_group_name_H-M "P -1"
_symmetry_group_IT_number 2
_symmetry_cell_setting 'triclinic'
loop_
_space_group_symop_operation_xyz
x,y,z
-x,-y,-z
loop_
_atom_site_type_symbol
_atom_site_label
_atom_site_fract_x
_atom_site_fract_y
_atom_site_fract_z
Si Si1 0.594014 0.906631 0.114801
Si Si2 0.124019 0.005649 0.076917
Si Si3 0.306055 0.491340 0.509449
Si Si4 0.009222 0.462233 0.716437
Si Si5 0.043117 0.445522 0.241371
Si Si6 0.962466 0.080892 0.660986
Si Si7 0.853963 0.121616 0.986988
O O1 0.699093 0.901746 0.380097
O O2 0.645372 0.936784 0.994679
O O3 0.310371 0.691495 0.954592
O O4 0.789853 0.161071 0.169265
O O5 0.392121 0.269264 0.273072
O O6 0.986674 0.841443 0.188253
O O7 0.978840 0.978473 0.815677
O O8 0.171399 0.975555 0.062785
O O9 0.264129 0.565042 0.405614
O O10 0.174768 0.306372 0.631680
O O11 0.127947 0.335641 0.263304
O O12 0.000000 0.500000 0.500000
O O13 0.911529 0.466195 0.644069
O O14 0.859175 0.234972 0.788461
O O15 0.000000 0.500000 0.000000
#
# Coordination Sequence:
#
# PCOD9108964 Si02
#       7
#     2   2   2   2   2   2   2
#     4  10  23  42  62  84 123 165 197 248 306 355
#     4  11  22  40  67  89 123 156 199 259 299 350
#     4  10  22  41  63  88 125 160 201 245 301 362
#     4  12  25  38  59  92 123 155 206 248 296 358
#     4  10  20  41  61  85 120 163 201 240 303 358
#     4   9  22  41  63  93 116 157 206 241 311 364
#     4  10  24  41  59  94 122 157 208 244 296 369
#
# _framework density 20.854106000000002
#
# number of rings (size 3 to 8) (size 9 to 14) (size 15 to 20)
#    0.000    2.000    2.857    1.714    6.000    4.000 
#    0.000    6.429    0.000    0.000    0.000    0.000 
#    0.000    0.000    0.000    0.000    0.000    0.000 
#
# Total GULP energy -78119.838876 kJ/mol
# GULP energy per Si atom -5579.988491 kJ/mol
# Density = 2.080664 g / cm^3
# Si number density = 20.854106 Si / 1000 Ang^3
#
#
#
# Elastic Constant Matrix: (Units=GPa)
#
#
# Indices 1 2 3 4 5 6 
#
# 1 36.4441 -16.6723 9.5435 -8.7128 -9.6801 -29.7251
# 2 -16.6723 22.5007 22.7249 -11.9033 4.2154 0.7197
# 3 9.5435 22.7249 87.5814 -21.8659 -4.4664 2.8124
# 4 -8.7128 -11.9033 -21.8659 36.4470 13.3999 -1.7183
# 5 -9.6801 4.2154 -4.4664 13.3999 45.4836 2.7757
# 6 -29.7251 0.7197 2.8124 -1.7183 2.7757 12.4745
#
#
#
# Elastic Compliance Matrix: (Units=1/GPa)
#
#
# Indices 1 2 3 4 5 6 
#
# 1 -0.013749 -0.021207 0.005852 -0.010112 0.004748 -0.035306
# 2 -0.021207 0.039924 -0.005601 0.004936 -0.007210 -0.049291
# 3 0.005852 -0.005601 0.013974 0.008589 -0.000146 0.012333
# 4 -0.010112 0.004936 0.008589 0.034884 -0.010878 -0.019091
# 5 0.004748 -0.007210 -0.000146 -0.010878 0.026590 0.004347
# 6 -0.035306 -0.049291 0.012333 -0.019091 0.004347 -0.007501
#
#
# Mechanical properties :
#
#
# Convention : Reuss Voigt Hill
#
# Bulk Modulus (GPa) = -567.42499 19.74648 -273.83925
# Shear Modulus (GPa) = 36.91482 27.60970 32.26226
#
# Velocity S-wave (km/s) = 4.21188 3.64255 3.93752
# Velocity P-wave (km/s) = 15.78069 5.21348 10.53209
#
# Compressibility (1/GPa) = -0.00176235
#
# Stress axis : x y z
#
# Youngs Moduli (GPa) = -72.73464 25.04763 71.56006
#
# Poissons Ratio (x) = 0.53119 -0.41878
# Poissons Ratio (y) = -1.54251 0.40079
# Poissons Ratio (z) = 0.42565 0.14028
#
# Static dielectric constant tensor:
#      x y z
#    x 1.705140 0.032140 0.036350 
#    y 0.032140 1.765020 0.035860 
#    z 0.036350 0.035860 1.765650 
# 
# From -- ./inp_files/188858.got.cif
#   From: 2010.05.17/outbox.cif.g08.bks.cpg/sg2_95_cif.got.tgz:188858.got - 2010.06.03 11:33:40.
