data_PCOD9108501
_publ_section_title
;
Structure prediction by ZEFSAII (Michael W. Deem and Ramdas Pophale) SiO2 
 PCOD9108501
Probable space group: P -1
;
_chemical_formula_sum "Si O2"
_cell_formula_units_Z 16
_cell_length_a 11.134090
_cell_length_b 9.444844
_cell_length_c 15.391699
_cell_angle_alpha 65.534214
_cell_angle_beta 136.556851
_cell_angle_gamma 81.514574
_cell_volume 707.023651
_symmetry_space_group_name_H-M "P -1"
_symmetry_group_IT_number 2
_symmetry_cell_setting 'triclinic'
loop_
_space_group_symop_operation_xyz
x,y,z
-x,-y,-z
loop_
_atom_site_type_symbol
_atom_site_label
_atom_site_fract_x
_atom_site_fract_y
_atom_site_fract_z
Si Si1 0.758294 0.349458 0.752460
Si Si2 0.259779 0.417476 0.920067
Si Si3 0.322987 0.040056 0.131310
Si Si4 0.560163 0.189198 0.580930
Si Si5 0.433507 0.673549 0.175901
Si Si6 0.933970 0.413738 0.416429
Si Si7 0.159863 0.958810 0.675264
Si Si8 0.005687 0.134149 0.233322
O O1 0.703939 0.253914 0.675481
O O2 0.700390 0.563682 0.642315
O O3 0.577897 0.419597 0.719106
O O4 0.044686 0.155593 0.978314
O O5 0.285295 0.237224 0.028255
O O6 0.553836 0.281215 0.104081
O O7 0.135218 0.482535 0.742379
O O8 0.096272 0.647172 0.827946
O O9 0.468242 0.914576 0.329153
O O10 0.419836 0.861052 0.153379
O O11 0.724254 0.021371 0.630313
O O12 0.680855 0.491938 0.296592
O O13 0.193100 0.781571 0.966893
O O14 0.000000 0.500000 0.500000
O O15 0.153034 0.147508 0.606836
O O16 0.015141 0.992001 0.676094
O O17 0.000000 0.000000 0.500000
#
# Coordination Sequence:
#
# PCOD9108501 Si02
#       8
#     2   2   2   2   2   2   2   2
#     4  10  20  40  68  99 127 168 229 277 320 390
#     4  12  28  43  65 100 143 175 217 281 335 397
#     4  11  23  42  62 100 138 170 216 280 335 385
#     4  10  21  39  68  98 127 174 225 272 324 396
#     4  11  21  42  73  96 127 176 228 275 328 395
#     4  12  27  44  68 104 135 174 226 280 339 390
#     4  12  25  47  71  96 134 179 223 276 331 402
#     4  12  22  44  71  94 130 179 224 271 331 396
#
# _framework density 22.630077
#
# number of rings (size 3 to 8) (size 9 to 14) (size 15 to 20)
#    0.000    0.750    5.000    3.375    1.750    5.500 
#    0.000    0.625    0.000    0.000    0.000    0.000 
#    0.000    0.000    0.000    0.000    0.000    0.000 
#
# Total GULP energy -89472.708536 kJ/mol
# GULP energy per Si atom -5592.044284 kJ/mol
# Density = 2.257857 g / cm^3
# Si number density = 22.630077 Si / 1000 Ang^3
#
#
#
# Elastic Constant Matrix: (Units=GPa)
#
#
# Indices 1 2 3 4 5 6 
#
# 1 82.1015 29.8266 26.4776 -8.0544 -24.6750 -6.4192
# 2 29.8266 107.5109 44.8864 -4.5310 -23.3556 -10.5154
# 3 26.4776 44.8864 116.7113 -15.8320 -22.0036 -7.3867
# 4 -8.0544 -4.5310 -15.8320 37.8831 0.6990 -4.9024
# 5 -24.6750 -23.3556 -22.0036 0.6990 49.1467 -6.3268
# 6 -6.4192 -10.5154 -7.3867 -4.9024 -6.3268 33.5804
#
#
#
# Elastic Compliance Matrix: (Units=1/GPa)
#
#
# Indices 1 2 3 4 5 6 
#
# 1 0.015956 -0.001998 -0.000805 0.003211 0.007180 0.004069
# 2 -0.001998 0.012448 -0.003383 0.000033 0.003848 0.003502
# 3 -0.000805 -0.003383 0.011465 0.004490 0.003393 0.002604
# 4 0.003211 0.000033 0.004490 0.029755 0.004081 0.006725
# 5 0.007180 0.003848 0.003393 0.004081 0.028436 0.009277
# 6 0.004069 0.003502 0.002604 0.006725 0.009277 0.034956
#
#
# Mechanical properties :
#
#
# Convention : Reuss Voigt Hill
#
# Bulk Modulus (GPa) = 36.36480 56.52276 46.44378
# Shear Modulus (GPa) = 32.35139 37.79760 35.07450
#
# Velocity S-wave (km/s) = 3.78507 4.09129 3.94116
# Velocity P-wave (km/s) = 5.93351 6.88108 6.42479
#
# Compressibility (1/GPa) = 0.02749912
#
# Stress axis : x y z
#
# Youngs Moduli (GPa) = 62.67106 80.33601 87.22060
#
# Poissons Ratio (x) = 0.16048 0.07020
# Poissons Ratio (y) = 0.12520 0.29502
# Poissons Ratio (z) = 0.05044 0.27174
#
# Static dielectric constant tensor:
#      x y z
#    x 1.933390 0.037070 -0.001200 
#    y 0.037070 1.852630 -0.002750 
#    z -0.001200 -0.002750 1.854510 
# 
# From -- ./inp_files/308105.got.cif
#   From: 2010.05.17/outbox.cif.g08.bks.cpg/sg2_155_cif.got.tgz:308105.got - 2010.06.03 11:33:40.
