data_PCOD9108873
_publ_section_title
;
Structure prediction by ZEFSAII (Michael W. Deem and Ramdas Pophale) SiO2 
 PCOD9108873
Probable space group: P -1
;
_chemical_formula_sum "Si O2"
_cell_formula_units_Z 14
_cell_length_a 7.351129
_cell_length_b 17.788241
_cell_length_c 10.734086
_cell_angle_alpha 23.828953
_cell_angle_beta 79.359709
_cell_angle_gamma 84.201425
_cell_volume 549.123588
_symmetry_space_group_name_H-M "P -1"
_symmetry_group_IT_number 2
_symmetry_cell_setting 'triclinic'
loop_
_space_group_symop_operation_xyz
x,y,z
-x,-y,-z
loop_
_atom_site_type_symbol
_atom_site_label
_atom_site_fract_x
_atom_site_fract_y
_atom_site_fract_z
Si Si1 0.136980 0.637055 0.367818
Si Si2 0.852684 0.005444 0.342344
Si Si3 0.504392 0.622957 0.492249
Si Si4 0.445605 0.208556 0.164364
Si Si5 0.142153 0.191299 0.714789
Si Si6 0.495324 0.703384 0.637812
Si Si7 0.771473 0.056087 0.556829
O O1 0.337998 0.595689 0.453385
O O2 0.000000 0.500000 0.500000
O O3 0.998801 0.662766 0.461275
O O4 0.191207 0.837671 0.984228
O O5 0.856653 0.104922 0.331085
O O6 0.051154 0.950128 0.371815
O O7 0.712528 0.809593 0.682129
O O8 0.702074 0.769016 0.251717
O O9 0.408016 0.683304 0.540008
O O10 0.559136 0.415702 0.827554
O O11 0.500000 0.000000 0.500000
O O12 0.339718 0.156303 0.127222
O O13 0.288602 0.210793 0.552472
O O14 0.000000 0.000000 0.000000
O O15 0.370501 0.815781 0.568500
O O16 0.500000 0.500000 0.000000
#
# Coordination Sequence:
#
# PCOD9108873 Si02
#       7
#     2   2   2   2   2   2   2
#     4  12  27  48  79 116 169 208 266 332 405 483
#     4   9  23  42  75 109 153 208 267 327 391 478
#     4  10  26  49  76 123 153 211 267 335 398 479
#     4  10  20  40  74 109 154 196 273 326 392 467
#     4  10  28  53  74 114 164 212 267 322 413 485
#     4  10  23  46  81 113 160 210 265 340 400 478
#     4   9  20  44  74 110 150 209 274 323 398 460
#
# _framework density 25.495170000000002
#
# number of rings (size 3 to 8) (size 9 to 14) (size 15 to 20)
#    1.714    0.286    0.000    1.714    4.000    4.571 
#    5.143    1.429    0.000    0.000    0.000    0.000 
#    0.000    0.000    0.000    0.000    0.000    0.000 
#
# Total GULP energy -77949.249777 kJ/mol
# GULP energy per Si atom -5567.803556 kJ/mol
# Density = 2.543714 g / cm^3
# Si number density = 25.495170 Si / 1000 Ang^3
#
#
#
# Elastic Constant Matrix: (Units=GPa)
#
#
# Indices 1 2 3 4 5 6 
#
# 1 189.3510 36.1783 78.7603 1.5437 -15.5349 -14.2662
# 2 36.1783 123.8953 47.8982 -8.3042 0.7668 -23.5851
# 3 78.7603 47.8982 132.4318 -3.0959 -28.5972 -9.7209
# 4 1.5437 -8.3042 -3.0959 36.6487 0.9424 4.6023
# 5 -15.5349 0.7668 -28.5972 0.9424 41.9752 -4.4844
# 6 -14.2662 -23.5851 -9.7209 4.6023 -4.4844 47.5715
#
#
#
# Elastic Compliance Matrix: (Units=1/GPa)
#
#
# Indices 1 2 3 4 5 6 
#
# 1 0.007129 -0.000347 -0.004034 -0.000875 0.000047 0.001231
# 2 -0.000347 0.010525 -0.003822 0.001648 -0.002541 0.003934
# 3 -0.004034 -0.003822 0.012957 0.000179 0.007424 0.000225
# 4 -0.000875 0.001648 0.000179 0.028019 -0.001099 -0.002223
# 5 0.000047 -0.002541 0.007424 -0.001099 0.029306 0.003140
# 6 0.001231 0.003934 0.000225 -0.002223 0.003140 0.023898
#
#
# Mechanical properties :
#
#
# Convention : Reuss Voigt Hill
#
# Bulk Modulus (GPa) = 70.39847 85.70573 78.05210
# Shear Modulus (GPa) = 37.60104 44.09516 40.84810
#
# Velocity S-wave (km/s) = 3.84452 4.16330 4.00708
# Velocity P-wave (km/s) = 6.88328 7.53659 7.21733
#
# Compressibility (1/GPa) = 0.01420485
#
# Stress axis : x y z
#
# Youngs Moduli (GPa) = 140.26546 95.00906 77.18045
#
# Poissons Ratio (x) = 0.03294 0.31138
# Poissons Ratio (y) = 0.04864 0.29499
# Poissons Ratio (z) = 0.56589 0.36313
#
# Static dielectric constant tensor:
#      x y z
#    x 2.365690 0.061180 0.057540 
#    y 0.061180 2.182060 0.013910 
#    z 0.057540 0.013910 2.019120 
# 
# From -- ./inp_files/507592.got.cif
#   From: 2010.05.17/outbox.cif.g08.bks.cpg/sg2_254_cif.got.tgz:507592.got - 2010.06.03 11:33:40.
