data_PCOD9108431
_publ_section_title
;
Structure prediction by ZEFSAII (Michael W. Deem and Ramdas Pophale) SiO2 
 PCOD9108431
Probable space group: P -1
;
_chemical_formula_sum "Si O2"
_cell_formula_units_Z 16
_cell_length_a 15.566391
_cell_length_b 9.344436
_cell_length_c 8.077608
_cell_angle_alpha 48.043674
_cell_angle_beta 92.362188
_cell_angle_gamma 65.237696
_cell_volume 697.892268
_symmetry_space_group_name_H-M "P -1"
_symmetry_group_IT_number 2
_symmetry_cell_setting 'triclinic'
loop_
_space_group_symop_operation_xyz
x,y,z
-x,-y,-z
loop_
_atom_site_type_symbol
_atom_site_label
_atom_site_fract_x
_atom_site_fract_y
_atom_site_fract_z
Si Si1 0.673450 0.356409 0.803259
Si Si2 0.593331 0.713736 0.212707
Si Si3 0.279283 0.093378 0.016783
Si Si4 0.095157 0.365577 0.246482
Si Si5 0.942221 0.453078 0.392310
Si Si6 0.656670 0.963322 0.580766
Si Si7 0.105128 0.733960 0.186261
Si Si8 0.431464 0.346680 0.112832
O O1 0.607651 0.561928 0.494109
O O2 0.791766 0.290155 0.849213
O O3 0.622358 0.449494 0.908168
O O4 0.689402 0.112229 0.950047
O O5 0.687235 0.742589 0.170935
O O6 0.582968 0.608892 0.120420
O O7 0.500000 0.000000 0.000000
O O8 0.151957 0.287370 0.892173
O O9 0.340426 0.957142 0.295495
O O10 0.221372 0.172218 0.368356
O O11 0.090322 0.574366 0.184167
O O12 0.043368 0.265597 0.431341
O O13 0.000000 0.500000 0.000000
O O14 0.885059 0.358614 0.554816
O O15 0.000000 0.500000 0.500000
O O16 0.625827 0.781049 0.750285
O O17 0.558356 0.167533 0.303777
O O18 0.000000 0.000000 0.000000
#
# Coordination Sequence:
#
# PCOD9108431 Si02
#       8
#     2   2   2   2   2   2   2   2
#     4  12  23  45  73 103 143 189 231 299 350 409
#     4  11  25  44  71 101 141 191 232 290 360 410
#     4  11  23  42  70 100 139 179 239 286 347 428
#     4  11  21  38  69  97 129 177 228 282 353 410
#     4  10  21  39  63  96 131 175 224 273 344 420
#     4  10  20  40  68  95 138 181 224 293 349 412
#     4  11  24  43  67  97 138 183 228 286 349 419
#     4  10  23  43  68 103 140 183 240 283 349 423
#
# _framework density 22.926175000000001
#
# number of rings (size 3 to 8) (size 9 to 14) (size 15 to 20)
#    0.000    1.250    3.750    3.750    0.000    2.000 
#    0.000    9.375    0.000    0.000    0.000    0.000 
#    0.000    0.000    0.000    0.000    0.000    0.000 
#
# Total GULP energy -89213.954772 kJ/mol
# GULP energy per Si atom -5575.872173 kJ/mol
# Density = 2.287399 g / cm^3
# Si number density = 22.926175 Si / 1000 Ang^3
#
#
#
# Elastic Constant Matrix: (Units=GPa)
#
#
# Indices 1 2 3 4 5 6 
#
# 1 111.6860 51.8767 45.7859 2.2952 32.3867 -17.4011
# 2 51.8767 136.0052 30.5964 -6.6362 7.3557 -10.7834
# 3 45.7859 30.5964 86.4450 -4.1487 16.3437 -9.8441
# 4 2.2952 -6.6362 -4.1487 21.6961 -12.2844 4.4044
# 5 32.3867 7.3557 16.3437 -12.2844 31.0194 -9.4492
# 6 -17.4011 -10.7834 -9.8441 4.4044 -9.4492 37.8935
#
#
#
# Elastic Compliance Matrix: (Units=1/GPa)
#
#
# Indices 1 2 3 4 5 6 
#
# 1 0.023361 -0.007041 -0.005363 -0.021922 -0.027669 0.002979
# 2 -0.007041 0.010279 -0.001150 0.008732 0.009181 0.000668
# 3 -0.005363 -0.001150 0.015188 0.002442 -0.000972 0.000630
# 4 -0.021922 0.008732 0.002442 0.080851 0.050399 -0.003777
# 5 -0.027669 0.009181 -0.000972 0.050399 0.080608 0.003897
# 6 0.002979 0.000668 0.000630 -0.003777 0.003897 0.029522
#
#
# Mechanical properties :
#
#
# Convention : Reuss Voigt Hill
#
# Bulk Modulus (GPa) = 46.03729 65.62822 55.83275
# Shear Modulus (GPa) = 18.23771 31.84695 25.04233
#
# Velocity S-wave (km/s) = 2.82352 3.73112 3.30859
# Velocity P-wave (km/s) = 5.54562 6.87384 6.24514
#
# Compressibility (1/GPa) = 0.02172152
#
# Stress axis : x y z
#
# Youngs Moduli (GPa) = 42.80675 97.28130 65.84190
#
# Poissons Ratio (x) = 0.68497 0.35308
# Poissons Ratio (y) = 0.30141 0.07570
# Poissons Ratio (z) = 0.22955 0.11184
#
# Static dielectric constant tensor:
#      x y z
#    x 1.950340 -0.066130 -0.035990 
#    y -0.066130 1.885010 0.094940 
#    z -0.035990 0.094940 2.006030 
# 
# From -- ./inp_files/297477.got.cif
#   From: 2010.05.17/outbox.cif.g08.bks.cpg/sg2_149_cif.got.tgz:297477.got - 2010.06.03 11:33:40.
