data_PCOD9108122
_publ_section_title
;
Structure prediction by ZEFSAII (Michael W. Deem and Ramdas Pophale) SiO2 
 PCOD9108122
Probable space group: P -1
;
_chemical_formula_sum "Si O2"
_cell_formula_units_Z 16
_cell_length_a 5.819884
_cell_length_b 12.219176
_cell_length_c 11.924037
_cell_angle_alpha 79.885977
_cell_angle_beta 94.417923
_cell_angle_gamma 125.020523
_cell_volume 683.352597
_symmetry_space_group_name_H-M "P -1"
_symmetry_group_IT_number 2
_symmetry_cell_setting 'triclinic'
loop_
_space_group_symop_operation_xyz
x,y,z
-x,-y,-z
loop_
_atom_site_type_symbol
_atom_site_label
_atom_site_fract_x
_atom_site_fract_y
_atom_site_fract_z
Si Si1 0.551581 0.549513 0.805467
Si Si2 0.834885 0.251216 0.293890
Si Si3 0.903058 0.505924 0.368105
Si Si4 0.408707 0.102611 0.969596
Si Si5 0.674823 0.389263 0.000507
Si Si6 0.357927 0.815019 0.272652
Si Si7 0.769190 0.967388 0.792193
Si Si8 0.147201 0.980536 0.608804
O O1 0.377756 0.507486 0.689141
O O2 0.533337 0.426388 0.891787
O O3 0.876784 0.666628 0.778793
O O4 0.443164 0.606742 0.884156
O O5 0.845421 0.370530 0.335337
O O6 0.554611 0.146591 0.232804
O O7 0.844201 0.147257 0.393581
O O8 0.000000 0.500000 0.500000
O O9 0.153455 0.653277 0.302989
O O10 0.643584 0.253677 0.991406
O O11 0.420885 0.131936 0.832276
O O12 0.191477 0.059131 0.073154
O O13 0.500000 0.000000 0.000000
O O14 0.000000 0.500000 0.000000
O O15 0.195277 0.888573 0.239607
O O16 0.549960 0.885021 0.376529
O O17 0.952943 0.949936 0.715017
O O18 0.000000 0.000000 0.500000
#
# Coordination Sequence:
#
# PCOD9108122 Si02
#       8
#     2   2   2   2   2   2   2   2
#     4  11  24  42  71 106 138 190 239 290 355 423
#     4  11  24  44  68  99 133 180 241 286 347 421
#     4  12  28  45  69 100 148 191 241 298 356 416
#     4  10  20  40  67 100 141 175 217 283 360 416
#     4  11  22  41  73 104 143 184 234 292 353 427
#     4  10  25  43  66 103 139 183 232 296 351 421
#     4  10  23  44  72  99 137 184 231 291 359 431
#     4  11  26  44  71  95 133 185 245 287 353 424
#
# _framework density 23.413974
#
# number of rings (size 3 to 8) (size 9 to 14) (size 15 to 20)
#    0.000    1.250    0.000    5.250    5.250    5.000 
#    0.000    3.750    0.000    0.000    0.000    0.000 
#    0.000    0.000    0.000    0.000    0.000    0.000 
#
# Total GULP energy -89316.279060 kJ/mol
# GULP energy per Si atom -5582.267441 kJ/mol
# Density = 2.336068 g / cm^3
# Si number density = 23.413974 Si / 1000 Ang^3
#
#
#
# Elastic Constant Matrix: (Units=GPa)
#
#
# Indices 1 2 3 4 5 6 
#
# 1 46.6770 21.5457 31.3839 4.7218 10.8090 10.1346
# 2 21.5457 153.0065 56.3032 -3.9370 25.4799 -18.5873
# 3 31.3839 56.3032 118.1258 0.6133 27.6911 9.8398
# 4 4.7218 -3.9370 0.6133 24.2411 -3.9219 2.3030
# 5 10.8090 25.4799 27.6911 -3.9219 43.3863 4.0168
# 6 10.1346 -18.5873 9.8398 2.3030 4.0168 32.6499
#
#
#
# Elastic Compliance Matrix: (Units=1/GPa)
#
#
# Indices 1 2 3 4 5 6 
#
# 1 0.029152 -0.003124 -0.005060 -0.005540 -0.001896 -0.008678
# 2 -0.003124 0.009939 -0.003819 0.001018 -0.003280 0.008110
# 3 -0.005060 -0.003819 0.013007 -0.000310 -0.004460 -0.003953
# 4 -0.005540 0.001018 -0.000310 0.043440 0.005026 -0.001290
# 5 -0.001896 -0.003280 -0.004460 0.005026 0.029106 -0.003870
# 6 -0.008678 0.008110 -0.003953 -0.001290 -0.003870 0.039697
#
#
# Mechanical properties :
#
#
# Convention : Reuss Voigt Hill
#
# Bulk Modulus (GPa) = 35.59925 59.58609 47.59267
# Shear Modulus (GPa) = 25.28948 33.96054 29.62501
#
# Velocity S-wave (km/s) = 3.29006 3.81259 3.56092
# Velocity P-wave (km/s) = 5.44701 6.69965 6.10554
#
# Compressibility (1/GPa) = 0.02809048
#
# Stress axis : x y z
#
# Youngs Moduli (GPa) = 34.30333 100.61807 76.88415
#
# Poissons Ratio (x) = 0.31435 0.38903
# Poissons Ratio (y) = 0.10717 0.29363
# Poissons Ratio (z) = 0.17357 0.38427
#
# Static dielectric constant tensor:
#      x y z
#    x 1.736840 -0.060820 -0.082890 
#    y -0.060820 1.820550 -0.053230 
#    z -0.082890 -0.053230 1.888310 
# 
# From -- ./inp_files/364319.got.cif
#   From: 2010.05.17/outbox.cif.g08.bks.cpg/sg2_183_cif.got.tgz:364319.got - 2010.06.03 11:33:40.
