data_PCOD9108366
_publ_section_title
;
Structure prediction by ZEFSAII (Michael W. Deem and Ramdas Pophale) SiO2 
 PCOD9108366
Probable space group: P -1
;
_chemical_formula_sum "Si O2"
_cell_formula_units_Z 14
_cell_length_a 18.053521
_cell_length_b 13.352016
_cell_length_c 8.724362
_cell_angle_alpha 32.897719
_cell_angle_beta 125.525310
_cell_angle_gamma 148.957121
_cell_volume 512.179046
_symmetry_space_group_name_H-M "P -1"
_symmetry_group_IT_number 2
_symmetry_cell_setting 'triclinic'
loop_
_space_group_symop_operation_xyz
x,y,z
-x,-y,-z
loop_
_atom_site_type_symbol
_atom_site_label
_atom_site_fract_x
_atom_site_fract_y
_atom_site_fract_z
Si Si1 0.121297 0.404961 0.348127
Si Si2 0.084128 0.944895 0.168251
Si Si3 0.793106 0.274674 0.537580
Si Si4 0.151943 0.018635 0.873039
Si Si5 0.296424 0.937022 0.635512
Si Si6 0.633904 0.632594 0.600312
Si Si7 0.438302 0.927888 0.277369
O O1 0.978366 0.233566 0.515448
O O2 0.088703 0.134633 0.626678
O O3 0.299408 0.720737 0.245396
O O4 0.155284 0.590417 0.005463
O O5 0.980097 0.674966 0.242006
O O6 0.000000 0.000000 0.000000
O O7 0.242408 0.223106 0.893875
O O8 0.764504 0.139767 0.512511
O O9 0.673858 0.238877 0.489122
O O10 0.795979 0.121016 0.863209
O O11 0.203650 0.099794 0.650007
O O12 0.448455 0.053189 0.648939
O O13 0.347109 0.210039 0.429445
O O14 0.500000 0.500000 0.500000
O O15 0.565261 0.312298 0.954907
#
# Coordination Sequence:
#
# PCOD9108366 Si02
#       7
#     2   2   2   2   2   2   2
#     4  10  20  40  68  88 119 170 208 245 300 372
#     4   9  21  43  67  86 116 168 210 245 305 374
#     4  11  24  40  61  96 125 154 206 263 308 351
#     4  11  21  41  66  89 120 164 211 250 297 377
#     4  12  24  39  61  96 130 158 200 261 310 350
#     4  12  21  39  65  92 121 168 211 241 299 373
#     4  11  22  41  62  88 129 168 205 241 305 379
#
# _framework density 27.334191000000001
#
# number of rings (size 3 to 8) (size 9 to 14) (size 15 to 20)
#    0.000    1.143    4.286    3.000    0.000    0.571 
#    7.714    5.714    0.000    0.000    0.000    0.000 
#    0.000    0.000    0.000    0.000    0.000    0.000 
#
# Total GULP energy -77948.870581 kJ/mol
# GULP energy per Si atom -5567.776470 kJ/mol
# Density = 2.727198 g / cm^3
# Si number density = 27.334191 Si / 1000 Ang^3
#
#
#
# Elastic Constant Matrix: (Units=GPa)
#
#
# Indices 1 2 3 4 5 6 
#
# 1 180.9796 34.7455 22.8603 -26.3560 -9.9722 -26.1340
# 2 34.7455 86.0381 31.8650 -16.6800 -6.9782 -8.0632
# 3 22.8603 31.8650 142.7188 -7.2912 -3.3213 2.4956
# 4 -26.3560 -16.6800 -7.2912 35.6421 -10.2834 2.8983
# 5 -9.9722 -6.9782 -3.3213 -10.2834 47.4745 4.2846
# 6 -26.1340 -8.0632 2.4956 2.8983 4.2846 37.8796
#
#
#
# Elastic Compliance Matrix: (Units=1/GPa)
#
#
# Indices 1 2 3 4 5 6 
#
# 1 0.007271 -0.001175 -0.000678 0.004921 0.001993 0.004209
# 2 -0.001175 0.014699 -0.002742 0.006148 0.002900 0.001700
# 3 -0.000678 -0.002742 0.007757 -0.000032 0.000133 -0.001575
# 4 0.004921 0.006148 -0.000032 0.037384 0.009968 0.000718
# 5 0.001993 0.002900 0.000133 0.009968 0.024214 -0.001518
# 6 0.004209 0.001700 -0.001575 0.000718 -0.001518 0.029886
#
#
# Mechanical properties :
#
#
# Convention : Reuss Voigt Hill
#
# Bulk Modulus (GPa) = 48.69339 65.40870 57.05104
# Shear Modulus (GPa) = 36.43093 45.55030 40.99061
#
# Velocity S-wave (km/s) = 3.65471 4.08661 3.87668
# Velocity P-wave (km/s) = 5.97176 6.80062 6.39962
#
# Compressibility (1/GPa) = 0.02053667
#
# Stress axis : x y z
#
# Youngs Moduli (GPa) = 137.53347 68.03103 128.92256
#
# Poissons Ratio (x) = 0.07994 0.08742
# Poissons Ratio (y) = 0.16161 0.35349
# Poissons Ratio (z) = 0.09326 0.18653
#
# Static dielectric constant tensor:
#      x y z
#    x 2.203140 0.101470 0.042140 
#    y 0.101470 2.359890 0.013600 
#    z 0.042140 0.013600 2.268110 
# 
# From -- ./inp_files/215570.got.cif
#   From: 2010.05.17/outbox.cif.g08.bks.cpg/sg2_108_cif.got.tgz:215570.got - 2010.06.03 11:33:40.
