data_PCOD9108344
_publ_section_title
;
Structure prediction by ZEFSAII (Michael W. Deem and Ramdas Pophale) SiO2 
 PCOD9108344
Probable space group: P -1
;
_chemical_formula_sum "Si O2"
_cell_formula_units_Z 14
_cell_length_a 7.316951
_cell_length_b 11.201176
_cell_length_c 21.000684
_cell_angle_alpha 28.840818
_cell_angle_beta 41.739109
_cell_angle_gamma 40.407628
_cell_volume 520.651816
_symmetry_space_group_name_H-M "P -1"
_symmetry_group_IT_number 2
_symmetry_cell_setting 'triclinic'
loop_
_space_group_symop_operation_xyz
x,y,z
-x,-y,-z
loop_
_atom_site_type_symbol
_atom_site_label
_atom_site_fract_x
_atom_site_fract_y
_atom_site_fract_z
Si Si1 0.811773 0.113996 0.932189
Si Si2 0.546467 0.761815 0.222427
Si Si3 0.000000 0.500000 0.500000
Si Si4 0.165413 0.118388 0.516145
Si Si5 0.952980 0.932008 0.246926
Si Si6 0.000000 0.500000 0.000000
Si Si7 0.186072 0.371130 0.263012
Si Si8 0.742375 0.817686 0.798574
O O1 0.985935 0.074673 0.840199
O O2 0.675827 0.422465 0.837235
O O3 0.578360 0.964400 0.065141
O O4 0.000000 0.000000 0.000000
O O5 0.253503 0.699057 0.310330
O O6 0.854167 0.537588 0.250227
O O7 0.479932 0.932910 0.223959
O O8 0.017060 0.364445 0.485439
O O9 0.754274 0.792486 0.397483
O O10 0.142257 0.195542 0.412585
O O11 0.500000 0.000000 0.500000
O O12 0.011892 0.906311 0.668264
O O13 0.962551 0.203639 0.145256
O O14 0.153579 0.422409 0.067282
O O15 0.364071 0.255272 0.207264
#
# Coordination Sequence:
#
# PCOD9108344 Si02
#       8
#     2   2   1   2   2   1   2   2
#     4  10  21  40  65 103 138 185 228 285 356 419
#     4  10  23  42  70 101 138 190 233 288 358 424
#     4  12  24  50  72 104 142 188 244 290 360 422
#     4  12  28  47  72 105 141 188 241 298 358 427
#     4  11  22  43  73 103 141 188 241 293 351 426
#     4  10  20  40  68 102 140 174 232 290 334 420
#     4  11  25  45  69 100 147 182 237 299 354 421
#     4  11  25  45  68 110 139 187 238 289 357 425
#
# _framework density 26.889372999999999
#
# number of rings (size 3 to 8) (size 9 to 14) (size 15 to 20)
#    0.000    1.143    4.286    2.571    2.000    5.714 
#    0.000    0.000    0.000    0.000    0.000    0.000 
#    0.000    0.000    0.000    0.000    0.000    0.000 
#
# Total GULP energy -78008.027305 kJ/mol
# GULP energy per Si atom -5572.001950 kJ/mol
# Density = 2.682817 g / cm^3
# Si number density = 26.889373 Si / 1000 Ang^3
#
#
#
# Elastic Constant Matrix: (Units=GPa)
#
#
# Indices 1 2 3 4 5 6 
#
# 1 82.4720 32.6174 35.9466 9.1786 10.6831 23.3741
# 2 32.6174 132.7356 48.6127 13.0143 8.9364 38.0085
# 3 35.9466 48.6127 177.1906 1.0126 13.4682 23.8004
# 4 9.1786 13.0143 1.0126 50.6017 17.3825 0.7523
# 5 10.6831 8.9364 13.4682 17.3825 42.1216 22.0787
# 6 23.3741 38.0085 23.8004 0.7523 22.0787 51.7484
#
#
#
# Elastic Compliance Matrix: (Units=1/GPa)
#
#
# Indices 1 2 3 4 5 6 
#
# 1 0.015219 -0.001239 -0.002084 -0.002661 0.000993 -0.005391
# 2 -0.001239 0.011142 -0.001979 -0.004144 0.004870 -0.008731
# 3 -0.002084 -0.001979 0.006732 0.001367 -0.001791 0.000043
# 4 -0.002661 -0.004144 0.001367 0.026179 -0.014662 0.009492
# 5 0.000993 0.004870 -0.001791 -0.014662 0.039473 -0.019830
# 6 -0.005391 -0.008731 0.000043 0.009492 -0.019830 0.036475
#
#
# Mechanical properties :
#
#
# Convention : Reuss Voigt Hill
#
# Bulk Modulus (GPa) = 44.46619 69.63903 57.05261
# Shear Modulus (GPa) = 32.61168 47.24245 39.92706
#
# Velocity S-wave (km/s) = 3.48632 4.19611 3.85757
# Velocity P-wave (km/s) = 5.72525 7.03072 6.41130
#
# Compressibility (1/GPa) = 0.02248899
#
# Stress axis : x y z
#
# Youngs Moduli (GPa) = 65.70750 89.75345 148.54672
#
# Poissons Ratio (x) = 0.11119 0.30953
# Poissons Ratio (y) = 0.08140 0.29399
# Poissons Ratio (z) = 0.13692 0.17763
#
# Static dielectric constant tensor:
#      x y z
#    x 2.219120 -0.069470 -0.175030 
#    y -0.069470 2.202510 -0.125420 
#    z -0.175030 -0.125420 2.003580 
# 
# From -- ./inp_files/588806.got.cif
#   From: 2010.05.17/outbox.cif.g08.bks.cpg/sg2_295_cif.got.tgz:588806.got - 2010.06.03 11:33:40.
