data_PCOD9108586
_publ_section_title
;
Structure prediction by ZEFSAII (Michael W. Deem and Ramdas Pophale) SiO2 
 PCOD9108586
Probable space group: P -1
;
_chemical_formula_sum "Si O2"
_cell_formula_units_Z 14
_cell_length_a 8.124682
_cell_length_b 16.569417
_cell_length_c 12.221265
_cell_angle_alpha 39.720196
_cell_angle_beta 50.738272
_cell_angle_gamma 35.787514
_cell_volume 614.648246
_symmetry_space_group_name_H-M "P -1"
_symmetry_group_IT_number 2
_symmetry_cell_setting 'triclinic'
loop_
_space_group_symop_operation_xyz
x,y,z
-x,-y,-z
loop_
_atom_site_type_symbol
_atom_site_label
_atom_site_fract_x
_atom_site_fract_y
_atom_site_fract_z
Si Si1 0.812493 0.275741 0.871215
Si Si2 0.345963 0.322348 0.136242
Si Si3 0.705436 0.302085 0.643305
Si Si4 0.765350 0.987695 0.425168
Si Si5 0.620193 0.054211 0.980112
Si Si6 0.792226 0.853456 0.765922
Si Si7 0.827540 0.400084 0.948131
O O1 0.837330 0.285924 0.722246
O O2 0.883766 0.359918 0.838573
O O3 0.496573 0.353156 0.951161
O O4 0.044585 0.081821 0.008827
O O5 0.183765 0.275478 0.190741
O O6 0.138079 0.475264 0.145559
O O7 0.619284 0.170115 0.249557
O O8 0.500000 0.500000 0.500000
O O9 0.547003 0.227553 0.802322
O O10 0.955834 0.172064 0.587020
O O11 0.811734 0.963324 0.561667
O O12 0.500000 0.000000 0.500000
O O13 0.504552 0.053096 0.146915
O O14 0.500000 0.000000 0.000000
O O15 0.001847 0.759716 0.877304
O O16 0.500000 0.500000 0.000000
#
# Coordination Sequence:
#
# PCOD9108586 Si02
#       7
#     2   2   2   2   2   2   2
#     4  11  21  44  67  97 139 183 229 283 354 420
#     4  10  20  40  69  95 133 184 227 281 347 419
#     4  12  27  46  75 105 141 184 241 296 353 413
#     4  10  23  42  68 106 136 180 238 293 348 415
#     4  12  24  46  73 103 139 188 234 285 356 429
#     4  11  22  41  71  99 137 180 237 285 349 425
#     4  10  23  37  61 101 134 176 226 283 344 415
#
# _framework density 22.777255
#
# number of rings (size 3 to 8) (size 9 to 14) (size 15 to 20)
#    0.000    1.143    4.286    2.571    4.000    2.286 
#    2.571    4.286    0.000    0.000    0.000    0.000 
#    0.000    0.000    0.000    0.000    0.000    0.000 
#
# Total GULP energy -78092.627138 kJ/mol
# GULP energy per Si atom -5578.044796 kJ/mol
# Density = 2.272541 g / cm^3
# Si number density = 22.777255 Si / 1000 Ang^3
#
#
#
# Elastic Constant Matrix: (Units=GPa)
#
#
# Indices 1 2 3 4 5 6 
#
# 1 98.5079 9.9287 29.2156 -2.3180 16.0159 14.0977
# 2 9.9287 98.1130 53.4895 1.0216 3.1040 -0.6928
# 3 29.2156 53.4895 104.5227 3.6131 25.6037 9.2785
# 4 -2.3180 1.0216 3.6131 38.5101 -1.3534 7.8337
# 5 16.0159 3.1040 25.6037 -1.3534 21.9124 -1.9100
# 6 14.0977 -0.6928 9.2785 7.8337 -1.9100 39.8794
#
#
#
# Elastic Compliance Matrix: (Units=1/GPa)
#
#
# Indices 1 2 3 4 5 6 
#
# 1 0.012582 -0.000706 -0.000631 0.001554 -0.008702 -0.005035
# 2 -0.000706 0.016015 -0.011183 0.000251 0.011647 0.003638
# 3 -0.000631 -0.011183 0.021988 -0.001443 -0.024255 -0.005965
# 4 0.001554 0.000251 -0.001443 0.027369 0.001726 -0.005503
# 5 -0.008702 0.011647 -0.024255 0.001726 0.079876 0.012409
# 6 -0.005035 0.003638 -0.005965 -0.005503 0.012409 0.029982
#
#
# Mechanical properties :
#
#
# Convention : Reuss Voigt Hill
#
# Bulk Modulus (GPa) = 39.14634 54.04570 46.59602
# Shear Modulus (GPa) = 22.58699 33.96103 28.27401
#
# Velocity S-wave (km/s) = 3.15246 3.86554 3.52707
# Velocity P-wave (km/s) = 5.52038 6.61080 6.09004
#
# Compressibility (1/GPa) = 0.02554517
#
# Stress axis : x y z
#
# Youngs Moduli (GPa) = 79.48101 62.44069 45.48036
#
# Poissons Ratio (x) = 0.04407 0.02868
# Poissons Ratio (y) = 0.05610 0.50861
# Poissons Ratio (z) = 0.05012 0.69828
#
# Static dielectric constant tensor:
#      x y z
#    x 1.892290 0.038740 -0.037860 
#    y 0.038740 1.901540 -0.027210 
#    z -0.037860 -0.027210 1.996000 
# 
# From -- ./inp_files/238184.got.cif
#   From: 2010.05.17/outbox.cif.g08.bks.cpg/sg2_120_cif.got.tgz:238184.got - 2010.06.03 11:33:40.
