data_PCOD9108185
_publ_section_title
;
Structure prediction by ZEFSAII (Michael W. Deem and Ramdas Pophale) SiO2 
 PCOD9108185
Probable space group: P -1
;
_chemical_formula_sum "Si O2"
_cell_formula_units_Z 12
_cell_length_a 14.413368
_cell_length_b 13.890369
_cell_length_c 7.855941
_cell_angle_alpha 46.177058
_cell_angle_beta 146.685734
_cell_angle_gamma 146.929439
_cell_volume 471.209789
_symmetry_space_group_name_H-M "P -1"
_symmetry_group_IT_number 2
_symmetry_cell_setting 'triclinic'
loop_
_space_group_symop_operation_xyz
x,y,z
-x,-y,-z
loop_
_atom_site_type_symbol
_atom_site_label
_atom_site_fract_x
_atom_site_fract_y
_atom_site_fract_z
Si Si1 0.761116 0.065135 0.166264
Si Si2 0.767760 0.953999 0.684792
Si Si3 0.208202 0.626244 0.036868
Si Si4 0.599582 0.378036 0.245388
Si Si5 0.694334 0.209777 0.366955
Si Si6 0.733324 0.619287 0.447924
O O1 0.735298 0.965473 0.420234
O O2 0.023262 0.196847 0.357476
O O3 0.700518 0.186442 0.976335
O O4 0.573703 0.929234 0.909992
O O5 0.772367 0.098385 0.612734
O O6 0.583098 0.768267 0.720958
O O7 0.000000 0.000000 0.000000
O O8 0.316862 0.535226 0.324243
O O9 0.191585 0.654676 0.780109
O O10 0.000000 0.500000 0.000000
O O11 0.727060 0.312795 0.458788
O O12 0.746766 0.562677 0.345236
O O13 0.466851 0.380025 0.884857
#
# Coordination Sequence:
#
# PCOD9108185 Si02
#       6
#     2   2   2   2   2   2
#     4  10  20  40  67  91 119 169 213 251 314 377
#     4  11  21  41  65  91 127 172 206 253 326 378
#     4   9  19  38  63  87 122 166 207 245 320 376
#     4  11  23  39  63  95 131 158 215 262 313 366
#     4  11  23  39  67  99 120 160 221 270 293 366
#     4  10  21  40  63  88 130 176 196 252 329 381
#
# _framework density 25.466365
#
# number of rings (size 3 to 8) (size 9 to 14) (size 15 to 20)
#    0.000    1.667    1.667    4.500    0.000    1.333 
#    0.000   10.833    0.000    0.000    0.000    0.000 
#    0.000    0.000    0.000    0.000    0.000    0.000 
#
# Total GULP energy -67136.153840 kJ/mol
# GULP energy per Si atom -5594.679487 kJ/mol
# Density = 2.540840 g / cm^3
# Si number density = 25.466365 Si / 1000 Ang^3
#
#
#
# Elastic Constant Matrix: (Units=GPa)
#
#
# Indices 1 2 3 4 5 6 
#
# 1 69.1172 21.0731 -2.3007 1.7789 1.9692 -7.5513
# 2 21.0731 114.1005 36.1692 -0.1899 -6.3274 8.4024
# 3 -2.3007 36.1692 122.3236 -13.8142 7.9051 2.7724
# 4 1.7789 -0.1899 -13.8142 52.1036 6.9618 -5.1641
# 5 1.9692 -6.3274 7.9051 6.9618 24.1024 -15.6475
# 6 -7.5513 8.4024 2.7724 -5.1641 -15.6475 37.4132
#
#
#
# Elastic Compliance Matrix: (Units=1/GPa)
#
#
# Indices 1 2 3 4 5 6 
#
# 1 0.016067 -0.003695 0.001348 0.000216 -0.000259 0.003895
# 2 -0.003695 0.010935 -0.003680 -0.001471 0.003804 -0.001541
# 3 0.001348 -0.003680 0.010137 0.003320 -0.006640 -0.001971
# 4 0.000216 -0.001471 0.003320 0.021070 -0.007698 -0.000183
# 5 -0.000259 0.003804 -0.006640 -0.007698 0.063079 0.024905
# 6 0.003895 -0.001541 -0.001971 -0.000183 0.024905 0.038398
#
#
# Mechanical properties :
#
#
# Convention : Reuss Voigt Hill
#
# Bulk Modulus (GPa) = 39.86557 46.15827 43.01192
# Shear Modulus (GPa) = 27.76196 39.43048 33.59622
#
# Velocity S-wave (km/s) = 3.30531 3.93916 3.63607
# Velocity P-wave (km/s) = 5.50045 6.23328 5.87830
#
# Compressibility (1/GPa) = 0.02508430
#
# Stress axis : x y z
#
# Youngs Moduli (GPa) = 62.23927 91.44815 98.64705
#
# Poissons Ratio (x) = 0.33794 -0.13295
# Poissons Ratio (y) = 0.23000 0.36300
# Poissons Ratio (z) = -0.08388 0.33651
#
# Static dielectric constant tensor:
#      x y z
#    x 1.986590 -0.020550 -0.005310 
#    y -0.020550 2.030270 0.067200 
#    z -0.005310 0.067200 2.116840 
# 
# From -- ./inp_files/314550.got.cif
#   From: 2010.05.17/outbox.cif.g08.bks.cpg/sg2_158_cif.got.tgz:314550.got - 2010.06.03 11:33:40.
