data_PCOD9108855
_publ_section_title
;
Structure prediction by ZEFSAII (Michael W. Deem and Ramdas Pophale) SiO2 
 PCOD9108855
Probable space group: P -1
;
_chemical_formula_sum "Si O2"
_cell_formula_units_Z 12
_cell_length_a 7.980850
_cell_length_b 9.206382
_cell_length_c 12.665796
_cell_angle_alpha 41.863195
_cell_angle_beta 135.864714
_cell_angle_gamma 128.999001
_cell_volume 423.375988
_symmetry_space_group_name_H-M "P -1"
_symmetry_group_IT_number 2
_symmetry_cell_setting 'triclinic'
loop_
_space_group_symop_operation_xyz
x,y,z
-x,-y,-z
loop_
_atom_site_type_symbol
_atom_site_label
_atom_site_fract_x
_atom_site_fract_y
_atom_site_fract_z
Si Si1 0.339295 0.008821 0.732996
Si Si2 0.867778 0.476721 0.065985
Si Si3 0.243756 0.454517 0.691404
Si Si4 0.202105 0.896987 0.504656
Si Si5 0.380128 0.558527 0.308531
Si Si6 0.936130 0.988173 0.850739
O O1 0.347969 0.030245 0.597829
O O2 0.327145 0.750600 0.894215
O O3 0.561562 0.172988 0.802799
O O4 0.081415 0.072856 0.618661
O O5 0.100018 0.445786 0.256370
O O6 0.000000 0.500000 0.000000
O O7 0.839052 0.721701 0.945391
O O8 0.262885 0.649786 0.680087
O O9 0.481516 0.502609 0.698308
O O10 0.000000 0.500000 0.500000
O O11 0.164707 0.193448 0.816896
O O12 0.231450 0.961101 0.358319
O O13 0.500000 0.500000 0.500000
O O14 0.000000 0.000000 0.000000
#
# Coordination Sequence:
#
# PCOD9108855 Si02
#       6
#     2   2   2   2   2   2
#     4  11  22  45  71 108 143 185 243 299 360 430
#     4  12  26  45  71 108 151 188 236 302 369 427
#     4  10  21  43  69 106 145 189 245 299 356 432
#     4  10  20  40  73  98 143 194 232 301 354 424
#     4  12  26  43  78 113 137 198 250 292 365 441
#     4  11  23  39  70 104 141 198 236 285 378 422
#
# _framework density 28.343599999999999
#
# number of rings (size 3 to 8) (size 9 to 14) (size 15 to 20)
#    0.000    1.000    5.000    3.000    4.667    2.667 
#    0.000    5.000    0.000    4.000    0.000    0.000 
#    0.000    0.000    0.000    0.000    0.000    0.000 
#
# Total GULP energy -66868.970024 kJ/mol
# GULP energy per Si atom -5572.414169 kJ/mol
# Density = 2.827909 g / cm^3
# Si number density = 28.343600 Si / 1000 Ang^3
#
#
#
# Elastic Constant Matrix: (Units=GPa)
#
#
# Indices 1 2 3 4 5 6 
#
# 1 134.1788 42.2611 34.7082 -5.6928 -17.8034 -12.5952
# 2 42.2611 187.0121 35.7541 -25.4630 0.3178 -26.1397
# 3 34.7082 35.7541 136.5183 -17.7460 -20.5543 -13.9489
# 4 -5.6928 -25.4630 -17.7460 83.9428 -7.4350 -1.9370
# 5 -17.8034 0.3178 -20.5543 -7.4350 40.1139 8.8005
# 6 -12.5952 -26.1397 -13.9489 -1.9370 8.8005 46.8186
#
#
#
# Elastic Compliance Matrix: (Units=1/GPa)
#
#
# Indices 1 2 3 4 5 6 
#
# 1 0.008773 -0.001668 -0.001251 0.000117 0.003186 0.000462
# 2 -0.001668 0.006605 -0.001022 0.001596 -0.001751 0.003330
# 3 -0.001251 -0.001022 0.008881 0.001872 0.004122 0.001042
# 4 0.000117 0.001596 0.001872 0.013110 0.003113 0.001438
# 5 0.003186 -0.001751 0.004122 0.003113 0.030012 -0.004405
# 6 0.000462 0.003330 0.001042 0.001438 -0.004405 0.024540
#
#
# Mechanical properties :
#
#
# Convention : Reuss Voigt Hill
#
# Bulk Modulus (GPa) = 61.06200 75.90623 68.48412
# Shear Modulus (GPa) = 47.50009 57.17408 52.33709
#
# Velocity S-wave (km/s) = 4.09818 4.49617 4.30178
# Velocity P-wave (km/s) = 6.63202 7.33437 6.99202
#
# Compressibility (1/GPa) = 0.01637680
#
# Stress axis : x y z
#
# Youngs Moduli (GPa) = 113.98720 151.39348 112.59884
#
# Poissons Ratio (x) = 0.25255 0.14091
# Poissons Ratio (y) = 0.19015 0.11504
# Poissons Ratio (z) = 0.14264 0.15468
#
# Static dielectric constant tensor:
#      x y z
#    x 2.213010 -0.054830 0.065490 
#    y -0.054830 2.451060 0.045870 
#    z 0.065490 0.045870 2.327690 
# 
# From -- ./inp_files/381109.got.cif
#   From: 2010.05.17/outbox.cif.g08.bks.cpg/sg2_191_cif.got.tgz:381109.got - 2010.06.03 11:33:40.
