data_PCOD9108052
_publ_section_title
;
Structure prediction by ZEFSAII (Michael W. Deem and Ramdas Pophale) SiO2 
 PCOD9108052
Probable space group: P -1
;
_chemical_formula_sum "Si O2"
_cell_formula_units_Z 14
_cell_length_a 10.873837
_cell_length_b 7.623031
_cell_length_c 8.866513
_cell_angle_alpha 90.634643
_cell_angle_beta 71.980565
_cell_angle_gamma 114.501394
_cell_volume 630.113342
_symmetry_space_group_name_H-M "P -1"
_symmetry_group_IT_number 2
_symmetry_cell_setting 'triclinic'
loop_
_space_group_symop_operation_xyz
x,y,z
-x,-y,-z
loop_
_atom_site_type_symbol
_atom_site_label
_atom_site_fract_x
_atom_site_fract_y
_atom_site_fract_z
Si Si1 0.115186 0.006488 0.580655
Si Si2 0.871554 0.310596 0.612143
Si Si3 0.647652 0.761607 0.036542
Si Si4 0.334074 0.596576 0.112594
Si Si5 0.857584 0.523495 0.099361
Si Si6 0.343513 0.400536 0.634479
Si Si7 0.057580 0.909284 0.138574
O O1 0.242145 0.216916 0.569004
O O2 0.013494 0.956626 0.764517
O O3 0.172755 0.855289 0.500074
O O4 0.000000 0.000000 0.500000
O O5 0.750582 0.371852 0.715985
O O6 0.923892 0.225390 0.735770
O O7 0.000000 0.500000 0.500000
O O8 0.496068 0.758293 0.055706
O O9 0.633826 0.669790 0.207606
O O10 0.664509 0.615040 0.904583
O O11 0.784378 0.965770 0.979796
O O12 0.250031 0.592863 0.992638
O O13 0.753407 0.482214 0.286699
O O14 0.934014 0.759214 0.078209
O O15 0.000000 0.500000 0.000000
O O16 0.500000 0.500000 0.500000
#
# Coordination Sequence:
#
# PCOD9108052 Si02
#       7
#     2   2   2   2   2   2   2
#     4   9  21  39  64  93 124 165 210 259 314 380
#     4  11  22  36  60  94 127 161 207 261 314 366
#     4  10  23  41  63  91 124 169 212 256 315 383
#     4  10  22  40  63  91 126 166 210 256 317 379
#     4  10  20  40  66  96 121 162 213 268 310 371
#     4  10  23  43  67  91 129 171 211 262 323 381
#     4  10  21  40  63  90 125 162 214 259 315 374
#
# _framework density 22.218225
#
# number of rings (size 3 to 8) (size 9 to 14) (size 15 to 20)
#    0.000    2.000    1.429    0.857    0.000   17.143 
#    2.571    0.714    0.000    0.000    0.000    0.000 
#    0.000    0.000    0.000    0.000    0.000    0.000 
#
# Total GULP energy -78010.882218 kJ/mol
# GULP energy per Si atom -5572.205873 kJ/mol
# Density = 2.216766 g / cm^3
# Si number density = 22.218225 Si / 1000 Ang^3
#
#
#
# Elastic Constant Matrix: (Units=GPa)
#
#
# Indices 1 2 3 4 5 6 
#
# 1 119.9976 43.3174 60.0920 -5.2890 -32.8328 29.5160
# 2 43.3174 83.9453 74.7152 12.3858 -20.8775 23.5935
# 3 60.0920 74.7152 155.2255 5.9943 -50.1465 0.6935
# 4 -5.2890 12.3858 5.9943 53.2580 -4.1974 -8.6952
# 5 -32.8328 -20.8775 -50.1465 -4.1974 53.5850 -2.9893
# 6 29.5160 23.5935 0.6935 -8.6952 -2.9893 40.8091
#
#
#
# Elastic Compliance Matrix: (Units=1/GPa)
#
#
# Indices 1 2 3 4 5 6 
#
# 1 0.013859 0.000065 -0.003988 0.000589 0.004298 -0.009553
# 2 0.000065 0.033590 -0.017365 -0.009784 -0.005097 -0.021630
# 3 -0.003988 -0.017365 0.019353 0.004594 0.010060 0.014311
# 4 0.000589 -0.009784 0.004594 0.022506 0.003179 0.010181
# 5 0.004298 -0.005097 0.010060 0.003179 0.029112 0.002477
# 6 -0.009553 -0.021630 0.014311 0.010181 0.002477 0.046027
#
#
# Mechanical properties :
#
#
# Convention : Reuss Voigt Hill
#
# Bulk Modulus (GPa) = 41.27832 79.49084 60.38458
# Shear Modulus (GPa) = 23.24516 41.59998 32.42257
#
# Velocity S-wave (km/s) = 3.23804 4.33174 3.82419
# Velocity P-wave (km/s) = 5.70954 7.80216 6.83639
#
# Compressibility (1/GPa) = 0.02422579
#
# Stress axis : x y z
#
# Youngs Moduli (GPa) = 72.15563 29.77064 51.67054
#
# Poissons Ratio (x) = -0.00194 0.20607
# Poissons Ratio (y) = -0.00470 0.89728
# Poissons Ratio (z) = 0.28776 0.51698
#
# Static dielectric constant tensor:
#      x y z
#    x 1.716410 -0.230830 -0.251150 
#    y -0.230830 1.698320 -0.200290 
#    z -0.251150 -0.200290 1.524150 
# 
# From -- ./inp_files/210491.got.cif
#   From: 2010.05.17/outbox.cif.g08.bks.cpg/sg2_106_cif.got.tgz:210491.got - 2010.06.03 11:33:40.
