data_PCOD9108569
_publ_section_title
;
Structure prediction by ZEFSAII (Michael W. Deem and Ramdas Pophale) SiO2 
 PCOD9108569
Probable space group: P -1
;
_chemical_formula_sum "Si O2"
_cell_formula_units_Z 16
_cell_length_a 12.721614
_cell_length_b 14.399112
_cell_length_c 9.884403
_cell_angle_alpha 129.356937
_cell_angle_beta 143.625370
_cell_angle_gamma 50.950348
_cell_volume 801.642239
_symmetry_space_group_name_H-M "P -1"
_symmetry_group_IT_number 2
_symmetry_cell_setting 'triclinic'
loop_
_space_group_symop_operation_xyz
x,y,z
-x,-y,-z
loop_
_atom_site_type_symbol
_atom_site_label
_atom_site_fract_x
_atom_site_fract_y
_atom_site_fract_z
Si Si1 0.578176 0.116499 0.154121
Si Si2 0.703359 0.219550 0.881475
Si Si3 0.686571 0.769365 0.594366
Si Si4 0.382274 0.362436 0.328141
Si Si5 0.123327 0.851809 0.302653
Si Si6 0.066607 0.601107 0.747136
Si Si7 0.255247 0.976462 0.031628
Si Si8 0.774769 0.421912 0.820674
O O1 0.447361 0.248659 0.185358
O O2 0.756536 0.101409 0.419505
O O3 0.626322 0.109415 0.039876
O O4 0.500000 0.000000 0.000000
O O5 0.483474 0.250407 0.685939
O O6 0.768043 0.179031 0.756765
O O7 0.779350 0.106366 0.957039
O O8 0.782749 0.336930 0.104601
O O9 0.685859 0.694119 0.662758
O O10 0.886280 0.715351 0.688372
O O11 0.652841 0.915736 0.723738
O O12 0.564822 0.407336 0.598175
O O13 0.237311 0.475903 0.212330
O O14 0.105641 0.718161 0.214404
O O15 0.932521 0.947531 0.162578
O O16 0.000000 0.500000 0.500000
O O17 0.151783 0.546965 0.929877
#
# Coordination Sequence:
#
# PCOD9108569 Si02
#       8
#     2   2   2   2   2   2   2   2
#     4  11  21  38  60  98 137 162 218 271 319 387
#     4  11  23  45  65  95 132 172 219 267 323 400
#     4  12  22  42  71  92 128 177 215 264 340 386
#     4  10  20  40  69  93 127 176 214 273 323 385
#     4  10  20  42  65  87 131 171 216 273 315 383
#     4  11  25  45  63  96 134 171 220 278 322 389
#     4  12  23  39  67  99 130 177 214 262 338 387
#     4   9  19  42  66  87 127 169 220 267 321 376
#
# _framework density 19.959028
#
# number of rings (size 3 to 8) (size 9 to 14) (size 15 to 20)
#    0.000    1.250    7.500    1.125    0.000    2.000 
#    9.000    0.000    0.000    0.000    0.000    0.000 
#    0.000    0.000    0.000    0.000    0.000    0.000 
#
# Total GULP energy -89368.562656 kJ/mol
# GULP energy per Si atom -5585.535166 kJ/mol
# Density = 1.991360 g / cm^3
# Si number density = 19.959028 Si / 1000 Ang^3
#
#
#
# Elastic Constant Matrix: (Units=GPa)
#
#
# Indices 1 2 3 4 5 6 
#
# 1 26.8187 19.1323 16.9496 3.1981 -4.0925 11.1740
# 2 19.1323 100.9223 51.3441 -17.5316 -8.1478 27.5051
# 3 16.9496 51.3441 138.2249 21.0082 5.5100 10.1820
# 4 3.1981 -17.5316 21.0082 29.6569 -3.5620 5.1067
# 5 -4.0925 -8.1478 5.5100 -3.5620 23.7528 -0.2962
# 6 11.1740 27.5051 10.1820 5.1067 -0.2962 31.0671
#
#
#
# Elastic Compliance Matrix: (Units=1/GPa)
#
#
# Indices 1 2 3 4 5 6 
#
# 1 0.048934 -0.003226 -0.003972 -0.001152 0.007909 -0.013177
# 2 -0.003226 0.041963 -0.021012 0.049492 0.025673 -0.036995
# 3 -0.003972 -0.021012 0.019552 -0.031065 -0.016854 0.018569
# 4 -0.001152 0.049492 -0.031065 0.098116 0.038088 -0.048987
# 5 0.007909 0.025673 -0.016854 0.038088 0.061570 -0.025724
# 6 -0.013177 -0.036995 0.018569 -0.048987 -0.025724 0.071402
#
#
# Mechanical properties :
#
#
# Convention : Reuss Voigt Hill
#
# Bulk Modulus (GPa) = 18.50866 48.97977 33.74421
# Shear Modulus (GPa) = 12.02021 28.79801 20.40911
#
# Velocity S-wave (km/s) = 2.45673 3.80262 3.20120
# Velocity P-wave (km/s) = 4.16423 6.62369 5.53236
#
# Compressibility (1/GPa) = 0.05402878
#
# Stress axis : x y z
#
# Youngs Moduli (GPa) = 20.43584 23.83065 51.14574
#
# Poissons Ratio (x) = 0.07689 0.20313
# Poissons Ratio (y) = 0.06593 1.07467
# Poissons Ratio (z) = 0.08116 0.50073
#
# Static dielectric constant tensor:
#      x y z
#    x 1.706270 -0.012510 0.029150 
#    y -0.012510 1.700040 -0.003920 
#    z 0.029150 -0.003920 1.721160 
# 
# From -- ./inp_files/274518.got.cif
#   From: 2010.05.17/outbox.cif.g08.bks.cpg/sg2_138_cif.got.tgz:274518.got - 2010.06.03 11:33:40.
