data_PCOD9108457
_publ_section_title
;
Structure prediction by ZEFSAII (Michael W. Deem and Ramdas Pophale) SiO2 
 PCOD9108457
Probable space group: P -1
;
_chemical_formula_sum "Si O2"
_cell_formula_units_Z 14
_cell_length_a 11.817747
_cell_length_b 10.371074
_cell_length_c 7.867598
_cell_angle_alpha 51.711765
_cell_angle_beta 123.474707
_cell_angle_gamma 104.528766
_cell_volume 625.207267
_symmetry_space_group_name_H-M "P -1"
_symmetry_group_IT_number 2
_symmetry_cell_setting 'triclinic'
loop_
_space_group_symop_operation_xyz
x,y,z
-x,-y,-z
loop_
_atom_site_type_symbol
_atom_site_label
_atom_site_fract_x
_atom_site_fract_y
_atom_site_fract_z
Si Si1 0.485729 0.138672 0.020154
Si Si2 0.353247 0.457700 0.465658
Si Si3 0.775878 0.095287 0.418599
Si Si4 0.974589 0.755336 0.396256
Si Si5 0.268612 0.074299 0.142201
Si Si6 0.905671 0.402682 0.726168
Si Si7 0.182207 0.275234 0.220359
O O1 0.388331 0.302049 0.748170
O O2 0.636065 0.181756 0.152332
O O3 0.414130 0.062542 0.182954
O O4 0.500000 0.000000 0.000000
O O5 0.500000 0.500000 0.500000
O O6 0.249772 0.605314 0.343221
O O7 0.267956 0.397320 0.287271
O O8 0.911180 0.179294 0.446498
O O9 0.750204 0.067712 0.622010
O O10 0.798681 0.904994 0.527441
O O11 0.050846 0.685310 0.343312
O O12 0.916733 0.598356 0.556021
O O13 0.853200 0.897162 0.120272
O O14 0.243088 0.236243 0.112473
O O15 0.022106 0.334151 0.012986
#
# Coordination Sequence:
#
# PCOD9108457 Si02
#       7
#     2   2   2   2   2   2   2
#     4  12  23  43  61  89 133 169 207 256 312 373
#     4  12  26  44  61  93 131 171 207 254 317 375
#     4  10  22  39  67  95 121 161 215 252 315 365
#     4  10  20  40  68  97 120 162 215 259 309 369
#     4   9  20  40  66  87 127 159 207 263 304 365
#     4  10  22  41  66  92 128 163 207 264 311 366
#     4   9  22  43  65  92 123 163 213 260 309 364
#
# _framework density 22.392572999999999
#
# number of rings (size 3 to 8) (size 9 to 14) (size 15 to 20)
#    0.857    0.857    2.857    1.286    2.000    2.286 
#    0.000    2.857    0.000    0.000    0.000    0.000 
#    0.000    0.000    0.000    0.000    0.000    0.000 
#
# Total GULP energy -78214.972542 kJ/mol
# GULP energy per Si atom -5586.783753 kJ/mol
# Density = 2.234161 g / cm^3
# Si number density = 22.392573 Si / 1000 Ang^3
#
#
#
# Elastic Constant Matrix: (Units=GPa)
#
#
# Indices 1 2 3 4 5 6 
#
# 1 91.8243 15.0747 14.7153 11.2711 16.2139 3.3382
# 2 15.0747 48.8114 1.1437 15.5830 11.3516 8.7145
# 3 14.7153 1.1437 91.9268 14.8864 29.1830 -1.8597
# 4 11.2711 15.5830 14.8864 23.2292 8.2652 7.6263
# 5 16.2139 11.3516 29.1830 8.2652 37.0756 1.9951
# 6 3.3382 8.7145 -1.8597 7.6263 1.9951 24.2583
#
#
#
# Elastic Compliance Matrix: (Units=1/GPa)
#
#
# Indices 1 2 3 4 5 6 
#
# 1 0.012319 -0.001875 -0.000140 -0.003326 -0.003980 0.000340
# 2 -0.001875 0.029238 0.005386 -0.018120 -0.008146 -0.003466
# 3 -0.000140 0.005386 0.016651 -0.011058 -0.012437 0.003860
# 4 -0.003326 -0.018120 -0.011058 0.068558 0.001259 -0.015538
# 5 -0.003980 -0.008146 -0.012437 0.001259 0.040781 -0.001229
# 6 0.000340 -0.003466 0.003860 -0.015538 -0.001229 0.047703
#
#
# Mechanical properties :
#
#
# Convention : Reuss Voigt Hill
#
# Bulk Modulus (GPa) = 15.39600 32.71444 24.05522
# Shear Modulus (GPa) = 21.72436 30.35452 26.03944
#
# Velocity S-wave (km/s) = 3.11812 3.68579 3.41377
# Velocity P-wave (km/s) = 4.45578 5.72317 5.12877
#
# Compressibility (1/GPa) = 0.06495194
#
# Stress axis : x y z
#
# Youngs Moduli (GPa) = 81.17403 34.20244 60.05814
#
# Poissons Ratio (x) = 0.06412 0.00838
# Poissons Ratio (y) = 0.15217 -0.32350
# Poissons Ratio (z) = 0.01133 -0.18423
#
# Static dielectric constant tensor:
#      x y z
#    x 1.843630 -0.016670 -0.022340 
#    y -0.016670 1.814370 -0.005430 
#    z -0.022340 -0.005430 1.815560 
# 
# From -- ./inp_files/261806.got.cif
#   From: 2010.05.17/outbox.cif.g08.bks.cpg/sg2_131_cif.got.tgz:261806.got - 2010.06.03 11:33:40.
