data_PCOD9108137
_publ_section_title
;
Structure prediction by ZEFSAII (Michael W. Deem and Ramdas Pophale) SiO2 
 PCOD9108137
Probable space group: P -1
;
_chemical_formula_sum "Si O2"
_cell_formula_units_Z 16
_cell_length_a 11.344729
_cell_length_b 12.013388
_cell_length_c 13.686267
_cell_angle_alpha 126.281019
_cell_angle_beta 29.762814
_cell_angle_gamma 131.082444
_cell_volume 696.815227
_symmetry_space_group_name_H-M "P -1"
_symmetry_group_IT_number 2
_symmetry_cell_setting 'triclinic'
loop_
_space_group_symop_operation_xyz
x,y,z
-x,-y,-z
loop_
_atom_site_type_symbol
_atom_site_label
_atom_site_fract_x
_atom_site_fract_y
_atom_site_fract_z
Si Si1 0.055242 0.962427 0.808421
Si Si2 0.160324 0.457907 0.945745
Si Si3 0.464597 0.273789 0.659281
Si Si4 0.003758 0.680079 0.802139
Si Si5 0.523758 0.784990 0.863212
Si Si6 0.557869 0.013937 0.129351
Si Si7 0.892357 0.150937 0.502656
Si Si8 0.759890 0.428744 0.706291
O O1 0.992622 0.841781 0.876265
O O2 0.088621 0.878737 0.641576
O O3 0.311488 0.103548 0.704260
O O4 0.816873 0.013987 0.990439
O O5 0.009243 0.380436 0.110899
O O6 0.291993 0.343109 0.758026
O O7 0.381188 0.612764 0.895192
O O8 0.000000 0.500000 0.000000
O O9 0.723362 0.301572 0.430593
O O10 0.530189 0.360733 0.760560
O O11 0.787954 0.558783 0.829350
O O12 0.411759 0.840460 0.878720
O O13 0.824242 0.821471 0.649194
O O14 0.490362 0.881519 0.028872
O O15 0.328738 0.980776 0.353677
O O16 0.809618 0.292115 0.650526
O O17 0.000000 0.500000 0.500000
#
# Coordination Sequence:
#
# PCOD9108137 Si02
#       8
#     2   2   2   2   2   2   2   2
#     4  11  24  41  66 105 138 171 223 283 339 402
#     4  12  28  46  68  97 137 183 228 278 338 403
#     4  11  25  44  68 102 142 174 224 280 339 411
#     4  11  25  44  72 100 137 181 224 278 344 403
#     4  10  22  44  64  96 137 179 231 277 326 399
#     4  10  23  40  69 100 134 177 230 278 331 403
#     4  11  21  40  70  99 135 177 223 277 342 399
#     4  10  20  40  67 103 130 172 220 271 336 401
#
# _framework density 22.961611000000001
#
# number of rings (size 3 to 8) (size 9 to 14) (size 15 to 20)
#    0.000    1.250    2.500    3.750    3.500    3.500 
#    0.000    1.250    0.000    0.000    0.000    0.000 
#    0.000    0.000    0.000    0.000    0.000    0.000 
#
# Total GULP energy -89588.449479 kJ/mol
# GULP energy per Si atom -5599.278092 kJ/mol
# Density = 2.290935 g / cm^3
# Si number density = 22.961611 Si / 1000 Ang^3
#
#
#
# Elastic Constant Matrix: (Units=GPa)
#
#
# Indices 1 2 3 4 5 6 
#
# 1 126.8772 52.9665 49.4065 -12.8392 -9.4652 -24.4445
# 2 52.9665 140.9703 30.7604 -19.5921 -3.0805 -17.9233
# 3 49.4065 30.7604 122.2821 -23.1104 -2.2150 -16.3376
# 4 -12.8392 -19.5921 -23.1104 29.8136 -11.3982 -4.1940
# 5 -9.4652 -3.0805 -2.2150 -11.3982 32.0097 -3.8013
# 6 -24.4445 -17.9233 -16.3376 -4.1940 -3.8013 43.0645
#
#
#
# Elastic Compliance Matrix: (Units=1/GPa)
#
#
# Indices 1 2 3 4 5 6 
#
# 1 0.011790 -0.002452 -0.002474 0.004368 0.005303 0.005627
# 2 -0.002452 0.009474 0.000575 0.007415 0.003316 0.003784
# 3 -0.002474 0.000575 0.011815 0.010899 0.004590 0.004784
# 4 0.004368 0.007415 0.010899 0.061537 0.026816 0.018060
# 5 0.005303 0.003316 0.004590 0.026816 0.044499 0.012671
# 6 0.005627 0.003784 0.004784 0.018060 0.012671 0.032682
#
#
# Mechanical properties :
#
#
# Convention : Reuss Voigt Hill
#
# Bulk Modulus (GPa) = 41.02231 72.93294 56.97762
# Shear Modulus (GPa) = 26.50777 38.11063 32.30920
#
# Velocity S-wave (km/s) = 3.40139 4.07843 3.75520
# Velocity P-wave (km/s) = 5.77324 7.34915 6.60834
#
# Compressibility (1/GPa) = 0.02437698
#
# Stress axis : x y z
#
# Youngs Moduli (GPa) = 84.81727 105.55518 84.63982
#
# Poissons Ratio (x) = 0.25880 0.20936
# Poissons Ratio (y) = 0.20796 -0.04863
# Poissons Ratio (z) = 0.20980 -0.06065
#
# Static dielectric constant tensor:
#      x y z
#    x 1.880620 -0.069200 0.006820 
#    y -0.069200 2.307540 -0.051150 
#    z 0.006820 -0.051150 1.851170 
# 
# From -- ./inp_files/519023.got.cif
#   From: 2010.05.17/outbox.cif.g08.bks.cpg/sg2_260_cif.got.tgz:519023.got - 2010.06.03 11:33:40.
