data_PCOD9108436
_publ_section_title
;
Structure prediction by ZEFSAII (Michael W. Deem and Ramdas Pophale) SiO2 
 PCOD9108436
Probable space group: P -1
;
_chemical_formula_sum "Si O2"
_cell_formula_units_Z 16
_cell_length_a 9.379681
_cell_length_b 10.331151
_cell_length_c 30.682481
_cell_angle_alpha 27.221235
_cell_angle_beta 149.946813
_cell_angle_gamma 135.283120
_cell_volume 658.049022
_symmetry_space_group_name_H-M "P -1"
_symmetry_group_IT_number 2
_symmetry_cell_setting 'triclinic'
loop_
_space_group_symop_operation_xyz
x,y,z
-x,-y,-z
loop_
_atom_site_type_symbol
_atom_site_label
_atom_site_fract_x
_atom_site_fract_y
_atom_site_fract_z
Si Si1 0.428953 0.577190 0.344928
Si Si2 0.813901 0.992071 0.065988
Si Si3 0.780406 0.408359 0.132650
Si Si4 0.124209 0.800436 0.361565
Si Si5 0.692879 0.113475 0.281863
Si Si6 0.805831 0.405717 0.866007
Si Si7 0.732902 0.338675 0.407287
Si Si8 0.849048 0.817568 0.824892
O O1 0.572560 0.365320 0.485636
O O2 0.570638 0.858406 0.301825
O O3 0.546846 0.417098 0.379135
O O4 0.079993 0.699336 0.220512
O O5 0.950168 0.175606 0.082615
O O6 0.760338 0.132028 0.961945
O O7 0.500000 0.000000 0.000000
O O8 0.979181 0.630046 0.107536
O O9 0.691578 0.365689 0.171243
O O10 0.500000 0.500000 0.000000
O O11 0.974713 0.087282 0.264826
O O12 0.912099 0.583506 0.373360
O O13 0.167922 0.897598 0.294902
O O14 0.021450 0.962907 0.430530
O O15 0.468223 0.200239 0.236269
O O16 0.501109 0.624384 0.704486
O O17 0.960483 0.559362 0.897553
#
# Coordination Sequence:
#
# PCOD9108436 Si02
#       8
#     2   2   2   2   2   2   2   2
#     4  10  20  40  68  96 126 164 220 269 311 372
#     4  11  24  44  66  94 130 167 217 268 321 374
#     4  11  21  40  64  92 125 170 214 256 322 381
#     4  10  20  40  69  94 124 169 214 257 323 377
#     4  10  20  40  69  93 126 173 215 262 321 371
#     4  11  26  41  60  94 131 169 213 260 323 384
#     4  11  21  40  66  95 131 163 220 271 306 380
#     4  10  23  42  65  92 131 169 208 267 321 391
#
# _framework density 24.314298999999998
#
# number of rings (size 3 to 8) (size 9 to 14) (size 15 to 20)
#    0.000    1.500    2.500    3.375    0.000    8.000 
#    6.750    0.000    0.000    0.000    0.000    0.000 
#    0.000    0.000    0.000    0.000    0.000    0.000 
#
# Total GULP energy -89563.976954 kJ/mol
# GULP energy per Si atom -5597.748560 kJ/mol
# Density = 2.425896 g / cm^3
# Si number density = 24.314299 Si / 1000 Ang^3
#
#
#
# Elastic Constant Matrix: (Units=GPa)
#
#
# Indices 1 2 3 4 5 6 
#
# 1 160.8928 26.9924 68.7256 0.4320 -6.9845 30.6514
# 2 26.9924 42.9830 28.1681 9.9556 -1.1702 3.5256
# 3 68.7256 28.1681 171.1524 24.5649 -1.4534 29.6218
# 4 0.4320 9.9556 24.5649 33.6006 5.6085 -1.8033
# 5 -6.9845 -1.1702 -1.4534 5.6085 52.9551 -2.0568
# 6 30.6514 3.5256 29.6218 -1.8033 -2.0568 44.0700
#
#
#
# Elastic Compliance Matrix: (Units=1/GPa)
#
#
# Indices 1 2 3 4 5 6 
#
# 1 0.008752 -0.004113 -0.002536 0.002656 0.000560 -0.003919
# 2 -0.004113 0.028886 -0.002471 -0.006730 0.000817 0.001974
# 3 -0.002536 -0.002471 0.008862 -0.005995 0.000325 -0.004226
# 4 0.002656 -0.006730 -0.005995 0.036943 -0.003718 0.004059
# 5 0.000560 0.000817 0.000325 -0.003718 0.019382 0.000079
# 6 -0.003919 0.001974 -0.004226 0.004059 0.000079 0.028269
#
#
# Mechanical properties :
#
#
# Convention : Reuss Voigt Hill
#
# Bulk Modulus (GPa) = 35.38436 69.20004 52.29220
# Shear Modulus (GPa) = 31.49514 42.86798 37.18156
#
# Velocity S-wave (km/s) = 3.60298 4.20346 3.91475
# Velocity P-wave (km/s) = 5.64740 7.21673 6.47975
#
# Compressibility (1/GPa) = 0.02826107
#
# Stress axis : x y z
#
# Youngs Moduli (GPa) = 114.25591 34.61826 112.83833
#
# Poissons Ratio (x) = 0.14238 0.28612
# Poissons Ratio (y) = 0.46993 0.27885
# Poissons Ratio (z) = 0.28972 0.08555
#
# Static dielectric constant tensor:
#      x y z
#    x 1.915060 0.025580 -0.000570 
#    y 0.025580 1.998840 -0.047680 
#    z -0.000570 -0.047680 1.910040 
# 
# From -- ./inp_files/279251.got.cif
#   From: 2010.05.17/outbox.cif.g08.bks.cpg/sg2_140_cif.got.tgz:279251.got - 2010.06.03 11:33:40.
