data_PCOD9108268
_publ_section_title
;
Structure prediction by ZEFSAII (Michael W. Deem and Ramdas Pophale) SiO2 
 PCOD9108268
Probable space group: P -1
;
_chemical_formula_sum "Si O2"
_cell_formula_units_Z 14
_cell_length_a 9.527802
_cell_length_b 15.827604
_cell_length_c 10.959217
_cell_angle_alpha 48.661997
_cell_angle_beta 141.098196
_cell_angle_gamma 102.570485
_cell_volume 606.066640
_symmetry_space_group_name_H-M "P -1"
_symmetry_group_IT_number 2
_symmetry_cell_setting 'triclinic'
loop_
_space_group_symop_operation_xyz
x,y,z
-x,-y,-z
loop_
_atom_site_type_symbol
_atom_site_label
_atom_site_fract_x
_atom_site_fract_y
_atom_site_fract_z
Si Si1 0.349541 0.955818 0.850574
Si Si2 0.610302 0.492446 0.217573
Si Si3 0.242365 0.517148 0.161207
Si Si4 0.798350 0.189784 0.383707
Si Si5 0.197357 0.036520 0.246151
Si Si6 0.726663 0.268576 0.895110
Si Si7 0.141328 0.188404 0.830384
O O1 0.377824 0.818940 0.043897
O O2 0.521752 0.907229 0.885580
O O3 0.010564 0.088092 0.514169
O O4 0.500000 0.000000 0.000000
O O5 0.430694 0.473016 0.208923
O O6 0.945915 0.353383 0.591438
O O7 0.500000 0.500000 0.000000
O O8 0.492422 0.656504 0.001141
O O9 0.447482 0.408401 0.509816
O O10 0.149141 0.673038 0.988224
O O11 0.000000 0.500000 0.000000
O O12 0.987797 0.213792 0.572934
O O13 0.758225 0.100949 0.536520
O O14 0.500000 0.000000 0.500000
O O15 0.111877 0.093241 0.994793
O O16 0.961141 0.168293 0.046654
#
# Coordination Sequence:
#
# PCOD9108268 Si02
#       7
#     2   2   2   2   2   2   2
#     4   9  20  40  70  93 133 181 224 272 347 408
#     4  10  22  41  67 102 133 172 233 287 342 412
#     4  11  25  44  73  96 139 186 228 287 350 408
#     4   9  21  40  64  93 134 174 228 276 339 424
#     4  11  23  42  62  95 136 176 226 285 344 404
#     4  10  24  47  65 104 137 179 239 280 336 431
#     4  10  20  40  67  96 131 179 221 283 342 400
#
# _framework density 23.099768000000001
#
# number of rings (size 3 to 8) (size 9 to 14) (size 15 to 20)
#    0.000    2.000    1.429    0.429    6.000    4.571 
#    7.714    4.286    0.000    0.000    0.000    0.000 
#    0.000    0.000    0.000    0.000    0.000    0.000 
#
# Total GULP energy -78125.536370 kJ/mol
# GULP energy per Si atom -5580.395455 kJ/mol
# Density = 2.304719 g / cm^3
# Si number density = 23.099768 Si / 1000 Ang^3
#
#
#
# Elastic Constant Matrix: (Units=GPa)
#
#
# Indices 1 2 3 4 5 6 
#
# 1 166.9704 62.2479 51.7809 -23.5418 17.7985 10.9901
# 2 62.2479 112.1144 41.5581 -12.6254 -1.6520 21.0687
# 3 51.7809 41.5581 108.1054 -31.1786 -2.1858 24.4725
# 4 -23.5418 -12.6254 -31.1786 48.1430 1.1842 -5.2495
# 5 17.7985 -1.6520 -2.1858 1.1842 39.3721 2.7734
# 6 10.9901 21.0687 24.4725 -5.2495 2.7734 27.4812
#
#
#
# Elastic Compliance Matrix: (Units=1/GPa)
#
#
# Indices 1 2 3 4 5 6 
#
# 1 0.009112 -0.004431 -0.002951 0.001850 -0.004751 0.003214
# 2 -0.004431 0.013302 -0.001331 -0.000447 0.003038 -0.007633
# 3 -0.002951 -0.001331 0.015715 0.007152 0.002689 -0.010699
# 4 0.001850 -0.000447 0.007152 0.026035 -0.001123 -0.001679
# 5 -0.004751 0.003038 0.002689 -0.001123 0.028272 -0.005892
# 6 0.003214 -0.007633 -0.010699 -0.001679 -0.005892 0.050756
#
#
# Mechanical properties :
#
#
# Convention : Reuss Voigt Hill
#
# Bulk Modulus (GPa) = 48.30407 77.59601 62.95004
# Shear Modulus (GPa) = 29.84762 38.43947 34.14355
#
# Velocity S-wave (km/s) = 3.59850 4.08372 3.84877
# Velocity P-wave (km/s) = 6.18240 7.47665 6.86012
#
# Compressibility (1/GPa) = 0.02070219
#
# Stress axis : x y z
#
# Youngs Moduli (GPa) = 109.74727 75.17907 63.63546
#
# Poissons Ratio (x) = 0.33310 0.18781
# Poissons Ratio (y) = 0.48626 0.08469
# Poissons Ratio (z) = 0.32390 0.10005
#
# Static dielectric constant tensor:
#      x y z
#    x 1.866460 -0.041070 0.009910 
#    y -0.041070 1.926170 -0.022020 
#    z 0.009910 -0.022020 1.917160 
# 
# From -- ./inp_files/402894.got.cif
#   From: 2010.05.17/outbox.cif.g08.bks.cpg/sg2_202_cif.got.tgz:402894.got - 2010.06.03 11:33:40.
