data_PCOD9108762
_publ_section_title
;
Structure prediction by ZEFSAII (Michael W. Deem and Ramdas Pophale) SiO2 
 PCOD9108762
Probable space group: P -1
;
_chemical_formula_sum "Si O2"
_cell_formula_units_Z 14
_cell_length_a 12.062151
_cell_length_b 5.320975
_cell_length_c 13.978179
_cell_angle_alpha 47.171302
_cell_angle_beta 123.259279
_cell_angle_gamma 113.687174
_cell_volume 549.574670
_symmetry_space_group_name_H-M "P -1"
_symmetry_group_IT_number 2
_symmetry_cell_setting 'triclinic'
loop_
_space_group_symop_operation_xyz
x,y,z
-x,-y,-z
loop_
_atom_site_type_symbol
_atom_site_label
_atom_site_fract_x
_atom_site_fract_y
_atom_site_fract_z
Si Si1 0.060242 0.958530 0.342867
Si Si2 0.347302 0.091674 0.173618
Si Si3 0.409641 0.235012 0.962176
Si Si4 0.451626 0.668250 0.663770
Si Si5 0.792961 0.662719 0.326092
Si Si6 0.936804 0.846574 0.913460
Si Si7 0.326440 0.343228 0.390257
O O1 0.054303 0.900106 0.240296
O O2 0.168826 0.275514 0.318786
O O3 0.125626 0.658071 0.513461
O O4 0.906686 0.967760 0.301444
O O5 0.351994 0.736255 0.328711
O O6 0.469558 0.338353 0.199194
O O7 0.213663 0.247462 0.104371
O O8 0.346204 0.016427 0.079956
O O9 0.282404 0.350933 0.809011
O O10 0.500000 0.500000 0.000000
O O11 0.500000 0.000000 0.000000
O O12 0.341366 0.368317 0.664894
O O13 0.570432 0.688177 0.640233
O O14 0.371076 0.011334 0.552774
O O15 0.000000 0.500000 0.000000
O O16 0.000000 0.000000 0.000000
#
# Coordination Sequence:
#
# PCOD9108762 Si02
#       7
#     2   2   2   2   2   2   2
#     4  10  22  45  74 105 150 195 254 313 384 459
#     4  12  24  42  74 104 149 195 259 313 388 449
#     4  12  27  48  75 113 159 204 256 317 389 469
#     4  10  20  40  71 104 146 188 252 311 383 460
#     4  10  22  45  72 106 147 202 249 313 383 458
#     4  12  27  47  74 109 149 198 256 322 384 456
#     4  10  21  40  70 109 145 191 248 315 384 456
#
# _framework density 25.474247999999999
#
# number of rings (size 3 to 8) (size 9 to 14) (size 15 to 20)
#    0.000    1.143    2.857    3.000    0.000    1.143 
#    2.571    2.857    0.000   10.286    0.000    0.000 
#    0.000    0.000    0.000    0.000    0.000    0.000 
#
# Total GULP energy -78022.113428 kJ/mol
# GULP energy per Si atom -5573.008102 kJ/mol
# Density = 2.541627 g / cm^3
# Si number density = 25.474248 Si / 1000 Ang^3
#
#
#
# Elastic Constant Matrix: (Units=GPa)
#
#
# Indices 1 2 3 4 5 6 
#
# 1 152.9363 73.2096 56.6628 19.5937 20.1729 13.6501
# 2 73.2096 128.0347 43.8701 4.6704 32.9538 20.2212
# 3 56.6628 43.8701 142.3434 9.2252 13.4719 4.0000
# 4 19.5937 4.6704 9.2252 32.2948 11.9747 17.9997
# 5 20.1729 32.9538 13.4719 11.9747 33.0646 4.6223
# 6 13.6501 20.2212 4.0000 17.9997 4.6223 54.8933
#
#
#
# Elastic Compliance Matrix: (Units=1/GPa)
#
#
# Indices 1 2 3 4 5 6 
#
# 1 0.010627 -0.006041 -0.002225 -0.006941 0.002707 0.001793
# 2 -0.006041 0.016407 -0.001761 0.011167 -0.015042 -0.006809
# 3 -0.002225 -0.001761 0.008515 -0.001413 0.000009 0.001044
# 4 -0.006941 0.011167 -0.001413 0.052138 -0.022760 -0.017464
# 5 0.002707 -0.015042 0.000009 -0.022760 0.050696 0.008062
# 6 0.001793 -0.006809 0.001044 -0.017464 0.008062 0.025251
#
#
# Mechanical properties :
#
#
# Convention : Reuss Voigt Hill
#
# Bulk Modulus (GPa) = 64.53338 85.64440 75.08889
# Shear Modulus (GPa) = 26.47553 40.68866 33.58209
#
# Velocity S-wave (km/s) = 3.22732 4.00089 3.63475
# Velocity P-wave (km/s) = 6.26700 7.41861 6.86699
#
# Compressibility (1/GPa) = 0.01549586
#
# Stress axis : x y z
#
# Youngs Moduli (GPa) = 94.10038 60.94877 117.43733
#
# Poissons Ratio (x) = 0.36816 0.26133
# Poissons Ratio (y) = 0.56842 0.20680
# Poissons Ratio (z) = 0.20940 0.10733
#
# Static dielectric constant tensor:
#      x y z
#    x 2.148550 0.100950 -0.122440 
#    y 0.100950 2.020300 -0.046520 
#    z -0.122440 -0.046520 2.150910 
# 
# From -- ./inp_files/510696.got.cif
#   From: 2010.05.17/outbox.cif.g08.bks.cpg/sg2_256_cif.got.tgz:510696.got - 2010.06.03 11:33:40.
