data_PCOD9108593
_publ_section_title
;
Structure prediction by ZEFSAII (Michael W. Deem and Ramdas Pophale) SiO2 
 PCOD9108593
Probable space group: P -1
;
_chemical_formula_sum "Si O2"
_cell_formula_units_Z 12
_cell_length_a 14.122827
_cell_length_b 13.005546
_cell_length_c 7.603626
_cell_angle_alpha 47.065269
_cell_angle_beta 139.997421
_cell_angle_gamma 149.587725
_cell_volume 453.557299
_symmetry_space_group_name_H-M "P -1"
_symmetry_group_IT_number 2
_symmetry_cell_setting 'triclinic'
loop_
_space_group_symop_operation_xyz
x,y,z
-x,-y,-z
loop_
_atom_site_type_symbol
_atom_site_label
_atom_site_fract_x
_atom_site_fract_y
_atom_site_fract_z
Si Si1 0.368403 0.015030 0.674431
Si Si2 0.748246 0.906727 0.268411
Si Si3 0.280551 0.437747 0.804662
Si Si4 0.631759 0.200630 0.336033
Si Si5 0.157077 0.280659 0.198895
Si Si6 0.195499 0.524191 0.250030
O O1 0.217161 0.000463 0.599462
O O2 0.568941 0.251468 0.629595
O O3 0.248776 0.831655 0.578905
O O4 0.500000 0.000000 0.000000
O O5 0.691607 0.711319 0.473250
O O6 0.546017 0.843610 0.977858
O O7 0.931246 0.060558 0.205362
O O8 0.271747 0.599153 0.662085
O O9 0.174727 0.385267 0.524248
O O10 0.500000 0.500000 0.000000
O O11 0.189130 0.300818 0.011989
O O12 0.500000 0.000000 0.500000
O O13 0.180727 0.450656 0.118064
O O14 0.000000 0.500000 0.000000
#
# Coordination Sequence:
#
# PCOD9108593 Si02
#       6
#     2   2   2   2   2   2
#     4  10  20  40  69  96 133 186 226 280 348 419
#     4  10  23  46  68  99 141 189 233 285 357 415
#     4  12  27  47  75 105 139 188 239 287 351 425
#     4  11  22  42  70 104 135 180 235 286 345 423
#     4  11  25  46  70 100 144 185 233 294 348 420
#     4  12  25  45  69 107 143 178 235 296 353 407
#
# _framework density 26.457516999999999
#
# number of rings (size 3 to 8) (size 9 to 14) (size 15 to 20)
#    0.000    1.000    1.667    6.000    0.000    2.667 
#    9.000    2.500    0.000    0.000    0.000    0.000 
#    0.000    0.000    0.000    0.000    0.000    0.000 
#
# Total GULP energy -66897.461780 kJ/mol
# GULP energy per Si atom -5574.788482 kJ/mol
# Density = 2.639730 g / cm^3
# Si number density = 26.457517 Si / 1000 Ang^3
#
#
#
# Elastic Constant Matrix: (Units=GPa)
#
#
# Indices 1 2 3 4 5 6 
#
# 1 188.9813 41.4515 39.4844 -10.9188 -7.7200 23.9930
# 2 41.4515 126.6282 23.4085 -17.8861 -1.9262 24.9226
# 3 39.4844 23.4085 131.1688 -13.0673 -7.4407 36.5572
# 4 -10.9188 -17.8861 -13.0673 31.1482 6.4592 -6.3854
# 5 -7.7200 -1.9262 -7.4407 6.4592 48.2026 -16.7858
# 6 23.9930 24.9226 36.5572 -6.3854 -16.7858 43.0416
#
#
#
# Elastic Compliance Matrix: (Units=1/GPa)
#
#
# Indices 1 2 3 4 5 6 
#
# 1 0.006055 -0.001411 -0.001095 0.000515 0.000156 -0.001491
# 2 -0.001411 0.010023 0.000575 0.004822 -0.002373 -0.005715
# 3 -0.001095 0.000575 0.010550 0.002946 -0.002071 -0.009054
# 4 0.000515 0.004822 0.002946 0.036895 -0.004920 -0.002026
# 5 0.000156 -0.002373 -0.002071 -0.004920 0.025252 0.012164
# 6 -0.001491 -0.005715 -0.009054 -0.002026 0.012164 0.039507
#
#
# Mechanical properties :
#
#
# Convention : Reuss Voigt Hill
#
# Bulk Modulus (GPa) = 43.92779 72.82968 58.37874
# Shear Modulus (GPa) = 35.78249 47.30739 41.54494
#
# Velocity S-wave (km/s) = 3.68156 4.23312 3.96694
# Velocity P-wave (km/s) = 5.89161 7.17490 6.56469
#
# Compressibility (1/GPa) = 0.02276463
#
# Stress axis : x y z
#
# Youngs Moduli (GPa) = 165.14461 99.77332 94.78501
#
# Poissons Ratio (x) = 0.14080 0.10382
# Poissons Ratio (y) = 0.23306 -0.05448
# Poissons Ratio (z) = 0.18088 -0.05734
#
# Static dielectric constant tensor:
#      x y z
#    x 2.450250 -0.155330 0.024510 
#    y -0.155330 2.407300 0.014580 
#    z 0.024510 0.014580 2.034050 
# 
# From -- ./inp_files/314520.got.cif
#   From: 2010.05.17/outbox.cif.g08.bks.cpg/sg2_158_cif.got.tgz:314520.got - 2010.06.03 11:33:40.
