data_PCOD9108958
_publ_section_title
;
Structure prediction by ZEFSAII (Michael W. Deem and Ramdas Pophale) SiO2 
 PCOD9108958
Probable space group: P -1
;
_chemical_formula_sum "Si O2"
_cell_formula_units_Z 14
_cell_length_a 10.714461
_cell_length_b 11.158611
_cell_length_c 13.532349
_cell_angle_alpha 146.943572
_cell_angle_beta 105.692756
_cell_angle_gamma 95.595044
_cell_volume 668.379588
_symmetry_space_group_name_H-M "P -1"
_symmetry_group_IT_number 2
_symmetry_cell_setting 'triclinic'
loop_
_space_group_symop_operation_xyz
x,y,z
-x,-y,-z
loop_
_atom_site_type_symbol
_atom_site_label
_atom_site_fract_x
_atom_site_fract_y
_atom_site_fract_z
Si Si1 0.063402 0.352625 0.561092
Si Si2 0.090717 0.747777 0.345061
Si Si3 0.347948 0.955994 0.991951
Si Si4 0.272978 0.145914 0.934418
Si Si5 0.509889 0.962304 0.219700
Si Si6 0.357715 0.723215 0.336132
Si Si7 0.772339 0.654903 0.225537
O O1 0.971754 0.392335 0.657049
O O2 0.184683 0.635905 0.723369
O O3 0.177308 0.309711 0.622411
O O4 0.921667 0.082576 0.284437
O O5 0.182414 0.661319 0.243348
O O6 0.926399 0.694992 0.232903
O O7 0.220537 0.084220 0.621090
O O8 0.398069 0.994135 0.144177
O O9 0.500000 0.000000 0.000000
O O10 0.314254 0.145909 0.058511
O O11 0.340716 0.449240 0.121705
O O12 0.364729 0.047988 0.826759
O O13 0.598414 0.195662 0.483025
O O14 0.389484 0.657618 0.035031
O O15 0.500000 0.000000 0.500000
#
# Coordination Sequence:
#
# PCOD9108958 Si02
#       7
#     2   2   2   2   2   2   2
#     4   9  17  36  64  84 116 153 195 244 294 344
#     4   9  18  36  56  85 117 156 197 231 299 345
#     4   9  20  38  67  88 111 159 201 241 299 351
#     4  11  22  38  62  90 120 156 199 240 298 351
#     4  10  20  41  61  83 125 152 197 252 288 344
#     4  12  26  36  58  93 122 159 199 237 297 358
#     4   8  17  33  65  78 110 170 185 232 307 335
#
# _framework density 20.946182
#
# number of rings (size 3 to 8) (size 9 to 14) (size 15 to 20)
#    0.857    1.429    1.429    1.286    2.000    1.714 
#    0.000    7.857    0.000    0.000    0.000    0.000 
#    0.000    0.000    0.000    0.000    0.000    0.000 
#
# Total GULP energy -78031.555370 kJ/mol
# GULP energy per Si atom -5573.682526 kJ/mol
# Density = 2.089851 g / cm^3
# Si number density = 20.946182 Si / 1000 Ang^3
#
#
#
# Elastic Constant Matrix: (Units=GPa)
#
#
# Indices 1 2 3 4 5 6 
#
# 1 43.7387 18.3817 19.3422 4.8264 3.6684 -1.6805
# 2 18.3817 73.7060 22.6752 16.6696 -4.0231 -3.9071
# 3 19.3422 22.6752 64.5046 2.4422 8.2449 -4.0322
# 4 4.8264 16.6696 2.4422 37.1919 8.7960 7.8678
# 5 3.6684 -4.0231 8.2449 8.7960 23.8698 3.3835
# 6 -1.6805 -3.9071 -4.0322 7.8678 3.3835 26.1206
#
#
#
# Elastic Compliance Matrix: (Units=1/GPa)
#
#
# Indices 1 2 3 4 5 6 
#
# 1 0.028072 -0.005161 -0.006170 -0.000333 -0.003011 0.000572
# 2 -0.005161 0.019928 -0.006054 -0.010965 0.009752 0.003754
# 3 -0.006170 -0.006054 0.020585 0.003867 -0.008871 0.001859
# 4 -0.000333 -0.010965 0.003867 0.037435 -0.015462 -0.010338
# 5 -0.003011 0.009752 -0.008871 -0.015462 0.053092 -0.002324
# 6 0.000572 0.003754 0.001859 -0.010338 -0.002324 0.042584
#
#
# Mechanical properties :
#
#
# Convention : Reuss Voigt Hill
#
# Bulk Modulus (GPa) = 29.57379 33.63861 31.60620
# Shear Modulus (GPa) = 20.18253 25.53980 22.86117
#
# Velocity S-wave (km/s) = 3.10747 3.49564 3.30725
# Velocity P-wave (km/s) = 5.19853 5.69097 5.45031
#
# Compressibility (1/GPa) = 0.03381373
#
# Stress axis : x y z
#
# Youngs Moduli (GPa) = 35.62274 50.17967 48.57943
#
# Poissons Ratio (x) = 0.25900 0.29973
# Poissons Ratio (y) = 0.18387 0.29412
# Poissons Ratio (z) = 0.21979 0.30381
#
# Static dielectric constant tensor:
#      x y z
#    x 1.763260 -0.017580 0.031280 
#    y -0.017580 1.843720 -0.042630 
#    z 0.031280 -0.042630 1.745020 
# 
# From -- ./inp_files/518431.got.cif
#   From: 2010.05.17/outbox.cif.g08.bks.cpg/sg2_260_cif.got.tgz:518431.got - 2010.06.03 11:33:40.
