data_PCOD9108580
_publ_section_title
;
Structure prediction by ZEFSAII (Michael W. Deem and Ramdas Pophale) SiO2 
 PCOD9108580
Probable space group: P -1
;
_chemical_formula_sum "Si O2"
_cell_formula_units_Z 16
_cell_length_a 12.259940
_cell_length_b 11.504753
_cell_length_c 12.874877
_cell_angle_alpha 80.786247
_cell_angle_beta 46.835319
_cell_angle_gamma 119.041135
_cell_volume 736.256655
_symmetry_space_group_name_H-M "P -1"
_symmetry_group_IT_number 2
_symmetry_cell_setting 'triclinic'
loop_
_space_group_symop_operation_xyz
x,y,z
-x,-y,-z
loop_
_atom_site_type_symbol
_atom_site_label
_atom_site_fract_x
_atom_site_fract_y
_atom_site_fract_z
Si Si1 0.261782 0.102504 0.779355
Si Si2 0.966090 0.607768 0.711538
Si Si3 0.015674 0.213226 0.505601
Si Si4 0.465159 0.976181 0.650342
Si Si5 0.001723 0.401335 0.858817
Si Si6 0.388511 0.240000 0.226223
Si Si7 0.536908 0.713363 0.584854
Si Si8 0.270669 0.419194 0.533792
O O1 0.341931 0.020854 0.759788
O O2 0.254386 0.097748 0.658873
O O3 0.508318 0.336197 0.632577
O O4 0.000000 0.000000 0.000000
O O5 0.964673 0.649668 0.587116
O O6 0.233466 0.847076 0.537722
O O7 0.002031 0.500658 0.753725
O O8 0.683572 0.459313 0.963822
O O9 0.209366 0.239819 0.324838
O O10 0.117456 0.304803 0.541836
O O11 0.737784 0.959231 0.716281
O O12 0.500000 0.000000 0.500000
O O13 0.260155 0.760636 0.877303
O O14 0.252952 0.573737 0.748354
O O15 0.055276 0.313401 0.776418
O O16 0.399109 0.229419 0.345192
O O17 0.564543 0.593128 0.559122
#
# Coordination Sequence:
#
# PCOD9108580 Si02
#       8
#     2   2   2   2   2   2   2   2
#     4  11  22  41  68 104 132 173 222 274 337 409
#     4  12  24  41  65  96 137 172 222 277 328 400
#     4  10  24  45  68  95 130 182 230 271 326 397
#     4  12  26  41  67 104 138 175 220 279 350 400
#     4  11  23  42  65 100 135 170 214 277 342 399
#     4  10  23  45  67  97 131 174 229 278 329 394
#     4  10  20  40  69  94 133 168 218 283 333 396
#     4  10  21  45  66  94 135 176 223 274 327 398
#
# _framework density 21.731553000000002
#
# number of rings (size 3 to 8) (size 9 to 14) (size 15 to 20)
#    0.000    1.250    2.500    4.875    3.500    2.500 
#    9.000    1.250    0.000    0.000    0.000    0.000 
#    0.000    0.000    0.000    0.000    0.000    0.000 
#
# Total GULP energy -89180.881885 kJ/mol
# GULP energy per Si atom -5573.805118 kJ/mol
# Density = 2.168209 g / cm^3
# Si number density = 21.731553 Si / 1000 Ang^3
#
#
#
# Elastic Constant Matrix: (Units=GPa)
#
#
# Indices 1 2 3 4 5 6 
#
# 1 100.2338 36.9941 27.1911 -8.8231 2.2173 -2.1646
# 2 36.9941 99.8376 32.6275 13.1685 4.5496 -4.5612
# 3 27.1911 32.6275 154.1671 -6.7774 -13.1051 11.8657
# 4 -8.8231 13.1685 -6.7774 9.5626 -1.6506 0.1293
# 5 2.2173 4.5496 -13.1051 -1.6506 34.1933 0.5783
# 6 -2.1646 -4.5612 11.8657 0.1293 0.5783 43.7449
#
#
#
# Elastic Compliance Matrix: (Units=1/GPa)
#
#
# Indices 1 2 3 4 5 6 
#
# 1 0.016181 -0.010424 0.000919 0.030318 0.002165 -0.000654
# 2 -0.010424 0.022208 -0.005706 -0.045451 -0.006720 0.003571
# 3 0.000919 -0.005706 0.008886 0.015894 0.004924 -0.003072
# 4 0.030318 -0.045451 0.015894 0.210047 0.020456 -0.008442
# 5 0.002165 -0.006720 0.004924 0.020456 0.032915 -0.002425
# 6 -0.000654 0.003571 -0.003072 -0.008442 -0.002425 0.024090
#
#
# Mechanical properties :
#
#
# Convention : Reuss Voigt Hill
#
# Bulk Modulus (GPa) = 59.33209 60.87377 60.10293
# Shear Modulus (GPa) = 14.27084 34.66189 24.46636
#
# Velocity S-wave (km/s) = 2.56537 3.99808 3.35900
# Velocity P-wave (km/s) = 6.01136 7.02747 6.53918
#
# Compressibility (1/GPa) = 0.01685429
#
# Stress axis : x y z
#
# Youngs Moduli (GPa) = 61.80018 45.02942 112.54125
#
# Poissons Ratio (x) = 0.46937 -0.10345
# Poissons Ratio (y) = 0.64418 0.64212
# Poissons Ratio (z) = -0.05681 0.25692
#
# Static dielectric constant tensor:
#      x y z
#    x 1.918640 -0.060060 0.030580 
#    y -0.060060 1.833010 -0.022400 
#    z 0.030580 -0.022400 1.811130 
# 
# From -- ./inp_files/428102.got.cif
#   From: 2010.05.17/outbox.cif.g08.bks.cpg/sg2_215_cif.got.tgz:428102.got - 2010.06.03 11:33:40.
