data_PCOD9108597
_publ_section_title
;
Structure prediction by ZEFSAII (Michael W. Deem and Ramdas Pophale) SiO2 
 PCOD9108597
Probable space group: P -1
;
_chemical_formula_sum "Si O2"
_cell_formula_units_Z 13
_cell_length_a 5.855935
_cell_length_b 16.892528
_cell_length_c 8.147675
_cell_angle_alpha 136.414276
_cell_angle_beta 79.157307
_cell_angle_gamma 112.984739
_cell_volume 505.828798
_symmetry_space_group_name_H-M "P -1"
_symmetry_group_IT_number 2
_symmetry_cell_setting 'triclinic'
loop_
_space_group_symop_operation_xyz
x,y,z
-x,-y,-z
loop_
_atom_site_type_symbol
_atom_site_label
_atom_site_fract_x
_atom_site_fract_y
_atom_site_fract_z
Si Si1 0.000000 0.500000 0.500000
Si Si2 0.165143 0.942221 0.216940
Si Si3 0.456243 0.702325 0.624892
Si Si4 0.702079 0.988548 0.048719
Si Si5 0.617631 0.646096 0.172900
Si Si6 0.896380 0.135889 0.556690
Si Si7 0.726480 0.675505 0.855451
O O1 0.837578 0.368863 0.417949
O O2 0.842134 0.572577 0.724859
O O3 0.265359 0.906090 0.318711
O O4 0.080836 0.058176 0.428460
O O5 0.929255 0.814691 0.027135
O O6 0.338056 0.975447 0.082025
O O7 0.524263 0.700014 0.423176
O O8 0.581882 0.640577 0.649954
O O9 0.569017 0.842387 0.880531
O O10 0.748237 0.088857 0.339697
O O11 0.000000 0.000000 0.000000
O O12 0.920390 0.720761 0.252618
O O13 0.500000 0.500000 0.000000
O O14 0.553075 0.670992 0.031808
#
# Coordination Sequence:
#
# PCOD9108597 Si02
#       7
#     1   2   2   2   2   2   2
#     4  12  26  44  66 102 134 182 236 282 340 416
#     4  10  20  40  69  97 128 172 226 276 342 408
#     4  12  25  46  71  97 142 186 228 285 351 408
#     4  12  24  41  68 104 137 174 227 284 344 413
#     4  11  23  43  73 100 132 185 235 274 345 424
#     4  10  21  40  70  98 130 172 226 284 338 405
#     4  11  24  46  71  99 139 181 230 291 347 409
#
# _framework density 25.700393999999999
#
# number of rings (size 3 to 8) (size 9 to 14) (size 15 to 20)
#    0.000    0.923    4.615    2.769    0.000    0.615 
#    0.000    6.154    0.000    0.000    0.000    0.000 
#    0.000    0.000    0.000    0.000    0.000    0.000 
#
# Total GULP energy -72405.760419 kJ/mol
# GULP energy per Si atom -5569.673878 kJ/mol
# Density = 2.564190 g / cm^3
# Si number density = 25.700394 Si / 1000 Ang^3
#
#
#
# Elastic Constant Matrix: (Units=GPa)
#
#
# Indices 1 2 3 4 5 6 
#
# 1 40.5806 23.4537 39.9034 -3.1589 8.7495 -10.6879
# 2 23.4537 211.5873 67.1360 -2.4559 15.5276 33.7493
# 3 39.9034 67.1360 138.5030 7.2268 11.2474 2.7775
# 4 -3.1589 -2.4559 7.2268 72.0179 3.6482 -7.6575
# 5 8.7495 15.5276 11.2474 3.6482 29.3665 6.5688
# 6 -10.6879 33.7493 2.7775 -7.6575 6.5688 30.1274
#
#
#
# Elastic Compliance Matrix: (Units=1/GPa)
#
#
# Indices 1 2 3 4 5 6 
#
# 1 0.051821 -0.005700 -0.011898 0.007386 -0.015761 0.031180
# 2 -0.005700 0.007586 -0.001842 -0.001003 0.000935 -0.010810
# 3 -0.011898 -0.001842 0.011638 -0.002249 0.001252 -0.004075
# 4 0.007386 -0.001003 -0.002249 0.015593 -0.004748 0.008950
# 5 -0.015761 0.000935 0.001252 -0.004748 0.042203 -0.017163
# 6 0.031180 -0.010810 -0.004075 0.008950 -0.017163 0.062755
#
#
# Mechanical properties :
#
#
# Convention : Reuss Voigt Hill
#
# Bulk Modulus (GPa) = 31.08867 72.40633 51.74750
# Shear Modulus (GPa) = 20.72991 43.64756 32.18873
#
# Velocity S-wave (km/s) = 2.84315 4.12554 3.54285
# Velocity P-wave (km/s) = 4.78548 7.13638 6.07572
#
# Compressibility (1/GPa) = 0.03216606
#
# Stress axis : x y z
#
# Youngs Moduli (GPa) = 19.29727 131.81558 85.92513
#
# Poissons Ratio (x) = 0.75135 1.02231
# Poissons Ratio (y) = 0.10999 0.15827
# Poissons Ratio (z) = 0.22959 0.24279
#
# Static dielectric constant tensor:
#      x y z
#    x 2.550810 0.115680 0.011770 
#    y 0.115680 2.107610 -0.048390 
#    z 0.011770 -0.048390 2.023940 
# 
# From -- ./inp_files/221294.got.cif
#   From: 2010.05.17/outbox.cif.g08.bks.cpg/sg2_111_cif.got.tgz:221294.got - 2010.06.03 11:33:40.
