data_PCOD9108142
_publ_section_title
;
Structure prediction by ZEFSAII (Michael W. Deem and Ramdas Pophale) SiO2 
 PCOD9108142
Probable space group: P -1
;
_chemical_formula_sum "Si O2"
_cell_formula_units_Z 16
_cell_length_a 11.623358
_cell_length_b 12.338538
_cell_length_c 5.347753
_cell_angle_alpha 96.822245
_cell_angle_beta 86.588961
_cell_angle_gamma 123.768003
_cell_volume 633.027050
_symmetry_space_group_name_H-M "P -1"
_symmetry_group_IT_number 2
_symmetry_cell_setting 'triclinic'
loop_
_space_group_symop_operation_xyz
x,y,z
-x,-y,-z
loop_
_atom_site_type_symbol
_atom_site_label
_atom_site_fract_x
_atom_site_fract_y
_atom_site_fract_z
Si Si1 0.863695 0.016596 0.280183
Si Si2 0.163841 0.457136 0.857692
Si Si3 0.728242 0.128311 0.048492
Si Si4 0.651013 0.575116 0.875766
Si Si5 0.110851 0.628602 0.249627
Si Si6 0.648629 0.351729 0.496967
Si Si7 0.472634 0.082486 0.333695
Si Si8 0.822287 0.854157 0.734790
O O1 0.819564 0.927280 0.507011
O O2 0.784424 0.088254 0.261410
O O3 0.834718 0.929011 0.012060
O O4 0.027709 0.126019 0.303236
O O5 0.300654 0.584174 0.762936
O O6 0.039330 0.405171 0.659233
O O7 0.221078 0.373640 0.929416
O O8 0.106405 0.505241 0.096232
O O9 0.597887 0.135245 0.133546
O O10 0.841750 0.260237 0.934832
O O11 0.665491 0.010935 0.824121
O O12 0.651124 0.463318 0.686545
O O13 0.696704 0.702739 0.740676
O O14 0.500000 0.500000 0.000000
O O15 0.236743 0.677514 0.437539
O O16 0.502690 0.214256 0.489229
O O17 0.500000 0.000000 0.500000
#
# Coordination Sequence:
#
# PCOD9108142 Si02
#       8
#     2   2   2   2   2   2   2   2
#     4  10  24  46  79 104 143 189 247 315 365 436
#     4  10  22  41  67  99 139 179 227 291 356 440
#     4  11  23  41  66 102 139 183 228 296 367 433
#     4  11  27  47  69 100 143 193 247 304 364 435
#     4  10  20  40  67 104 139 172 226 289 364 430
#     4  11  23  43  70 101 136 189 235 292 362 442
#     4  11  24  41  64  99 141 179 230 284 358 448
#     4  10  24  50  72 109 141 188 257 308 367 427
#
# _framework density 25.275383999999999
#
# number of rings (size 3 to 8) (size 9 to 14) (size 15 to 20)
#    0.000    1.500    2.500    1.125    3.500    2.500 
#    4.500    0.000    0.000    0.000    0.000    0.000 
#    0.000    0.000    0.000    0.000    0.000    0.000 
#
# Total GULP energy -89498.156726 kJ/mol
# GULP energy per Si atom -5593.634795 kJ/mol
# Density = 2.521786 g / cm^3
# Si number density = 25.275384 Si / 1000 Ang^3
#
#
#
# Elastic Constant Matrix: (Units=GPa)
#
#
# Indices 1 2 3 4 5 6 
#
# 1 126.9176 37.4892 25.9067 -12.9218 4.6697 1.2296
# 2 37.4892 146.8070 34.4031 -23.4897 -2.8535 17.6781
# 3 25.9067 34.4031 92.8765 -21.6895 9.0257 -0.2935
# 4 -12.9218 -23.4897 -21.6895 42.8347 -3.2729 3.5448
# 5 4.6697 -2.8535 9.0257 -3.2729 35.8995 -7.6308
# 6 1.2296 17.6781 -0.2935 3.5448 -7.6308 31.9769
#
#
#
# Elastic Compliance Matrix: (Units=1/GPa)
#
#
# Indices 1 2 3 4 5 6 
#
# 1 0.008837 -0.001833 -0.001525 0.000798 -0.000756 0.000391
# 2 -0.001833 0.009005 -0.002010 0.003850 0.000709 -0.005184
# 3 -0.001525 -0.002010 0.013380 0.004990 -0.002858 0.000058
# 4 0.000798 0.003850 0.004990 0.028689 0.000461 -0.005184
# 5 -0.000756 0.000709 -0.002858 0.000461 0.030210 0.006769
# 6 0.000391 -0.005184 0.000058 -0.005184 0.006769 0.036314
#
#
# Mechanical properties :
#
#
# Convention : Reuss Voigt Hill
#
# Bulk Modulus (GPa) = 48.81525 62.46656 55.64090
# Shear Modulus (GPa) = 34.72222 40.06236 37.39229
#
# Velocity S-wave (km/s) = 3.71044 3.98557 3.85046
# Velocity P-wave (km/s) = 6.14099 6.77847 6.46759
#
# Compressibility (1/GPa) = 0.02048540
#
# Stress axis : x y z
#
# Youngs Moduli (GPa) = 113.15759 111.04886 74.73784
#
# Poissons Ratio (x) = 0.20360 0.11396
# Poissons Ratio (y) = 0.20747 0.15025
# Poissons Ratio (z) = 0.17254 0.22324
#
# Static dielectric constant tensor:
#      x y z
#    x 2.053400 -0.002810 0.022990 
#    y -0.002810 1.988740 0.066070 
#    z 0.022990 0.066070 2.075180 
# 
# From -- ./inp_files/70601.got.cif
#   From: 2010.05.17/outbox.cif.g08.bks.cpg/sg2_36_cif.got.tgz:70601.got - 2010.06.03 11:33:40.
