data_PCOD9108327
_publ_section_title
;
Structure prediction by ZEFSAII (Michael W. Deem and Ramdas Pophale) SiO2 
 PCOD9108327
Probable space group: P -1
;
_chemical_formula_sum "Si O2"
_cell_formula_units_Z 13
_cell_length_a 6.715810
_cell_length_b 14.932699
_cell_length_c 9.027814
_cell_angle_alpha 131.695970
_cell_angle_beta 124.316275
_cell_angle_gamma 50.577786
_cell_volume 506.289952
_symmetry_space_group_name_H-M "P -1"
_symmetry_group_IT_number 2
_symmetry_cell_setting 'triclinic'
loop_
_space_group_symop_operation_xyz
x,y,z
-x,-y,-z
loop_
_atom_site_type_symbol
_atom_site_label
_atom_site_fract_x
_atom_site_fract_y
_atom_site_fract_z
Si Si1 0.122434 0.403846 0.728000
Si Si2 0.796230 0.817188 0.251179
Si Si3 0.919082 0.083755 0.298392
Si Si4 0.752559 0.171001 0.016179
Si Si5 0.598903 0.716876 0.587602
Si Si6 0.104799 0.674368 0.957134
Si Si7 0.500000 0.500000 0.500000
O O1 0.160958 0.316857 0.793005
O O2 0.299928 0.312969 0.569737
O O3 0.191919 0.529488 0.899306
O O4 0.812684 0.461424 0.620735
O O5 0.497601 0.865512 0.118893
O O6 0.855655 0.908342 0.493940
O O7 0.010193 0.776403 0.165388
O O8 0.646176 0.140138 0.336629
O O9 0.851121 0.179811 0.231227
O O10 0.019949 0.943298 0.106950
O O11 0.693234 0.303451 0.045677
O O12 0.505450 0.607101 0.488634
O O13 0.845317 0.705904 0.780789
#
# Coordination Sequence:
#
# PCOD9108327 Si02
#       7
#     2   2   2   2   2   2   1
#     4  11  25  41  73 105 144 183 227 284 355 412
#     4  12  25  47  70 107 135 187 233 290 342 416
#     4  11  25  50  72 100 139 188 234 288 347 408
#     4  11  27  49  71  99 143 184 236 291 339 413
#     4  11  23  43  71 105 138 186 230 284 351 411
#     4  11  25  43  68 107 138 182 231 287 347 417
#     4  10  20  40  68 100 136 180 226 278 332 416
#
# _framework density 25.676988000000001
#
# number of rings (size 3 to 8) (size 9 to 14) (size 15 to 20)
#    0.000    0.923    3.077    3.692    4.308    1.846 
#    2.769    0.000    0.000    0.000    0.000    0.000 
#    0.000    0.000    0.000    0.000    0.000    0.000 
#
# Total GULP energy -72616.101213 kJ/mol
# GULP energy per Si atom -5585.853939 kJ/mol
# Density = 2.561855 g / cm^3
# Si number density = 25.676988 Si / 1000 Ang^3
#
#
#
# Elastic Constant Matrix: (Units=GPa)
#
#
# Indices 1 2 3 4 5 6 
#
# 1 74.8736 25.3031 41.1857 23.8630 -0.5214 -7.6929
# 2 25.3031 26.8075 -16.5413 -32.0472 -2.1386 11.3053
# 3 41.1857 -16.5413 89.2415 -22.2664 -12.0852 6.2504
# 4 23.8630 -32.0472 -22.2664 -20.1512 3.6775 13.6482
# 5 -0.5214 -2.1386 -12.0852 3.6775 45.4693 -10.4731
# 6 -7.6929 11.3053 6.2504 13.6482 -10.4731 42.4364
#
#
#
# Elastic Compliance Matrix: (Units=1/GPa)
#
#
# Indices 1 2 3 4 5 6 
#
# 1 0.010423 0.001761 -0.002028 0.010170 -0.001608 -0.001949
# 2 0.001761 0.014198 -0.002102 -0.016097 0.002012 0.002520
# 3 -0.002028 -0.002102 0.010095 -0.008039 0.003720 0.002209
# 4 0.010170 -0.016097 -0.008039 0.001138 -0.001345 0.006618
# 5 -0.001608 0.002012 0.003720 -0.001345 0.024333 0.005062
# 6 -0.001949 0.002520 0.002209 0.006618 0.005062 0.021336
#
#
# Mechanical properties :
#
#
# Convention : Reuss Voigt Hill
#
# Bulk Modulus (GPa) = 33.35563 32.31306 32.83435
# Shear Modulus (GPa) = 51.94675 22.94923 37.44799
#
# Velocity S-wave (km/s) = 4.50275 2.99284 3.82308
# Velocity P-wave (km/s) = 6.32864 4.95525 5.68358
#
# Compressibility (1/GPa) = 0.02997994
#
# Stress axis : x y z
#
# Youngs Moduli (GPa) = 95.93766 70.43336 99.05725
#
# Poissons Ratio (x) = -0.12406 0.20087
# Poissons Ratio (y) = -0.16898 0.20819
# Poissons Ratio (z) = 0.19455 0.14803
#
# Static dielectric constant tensor:
#      x y z
#    x 1.889090 0.044680 0.011510 
#    y 0.044680 2.070440 0.027660 
#    z 0.011510 0.027660 2.006920 
# 
# From -- ./inp_files/36805.got.cif
#   From: 2010.05.17/outbox.cif.g08.bks.cpg/sg2_19_cif.got.tgz:36805.got - 2010.06.03 11:33:40.
