data_PCOD9108382
_publ_section_title
;
Structure prediction by ZEFSAII (Michael W. Deem and Ramdas Pophale) SiO2 
 PCOD9108382
Probable space group: P -1
;
_chemical_formula_sum "Si O2"
_cell_formula_units_Z 14
_cell_length_a 8.269343
_cell_length_b 7.450920
_cell_length_c 11.235325
_cell_angle_alpha 84.757015
_cell_angle_beta 64.589288
_cell_angle_gamma 61.148080
_cell_volume 541.780243
_symmetry_space_group_name_H-M "P -1"
_symmetry_group_IT_number 2
_symmetry_cell_setting 'triclinic'
loop_
_space_group_symop_operation_xyz
x,y,z
-x,-y,-z
loop_
_atom_site_type_symbol
_atom_site_label
_atom_site_fract_x
_atom_site_fract_y
_atom_site_fract_z
Si Si1 0.801975 0.013448 0.127309
Si Si2 0.238237 0.366240 0.943317
Si Si3 0.744084 0.514282 0.437709
Si Si4 0.565574 0.389805 0.685870
Si Si5 0.574493 0.822187 0.882713
Si Si6 0.747884 0.909757 0.409993
Si Si7 0.867117 0.926002 0.635750
O O1 0.740685 0.840126 0.115556
O O2 0.798693 0.003500 0.271589
O O3 0.603147 0.203926 0.120248
O O4 0.000000 0.000000 0.000000
O O5 0.378305 0.439734 0.828292
O O6 0.282199 0.367466 0.068433
O O7 0.000000 0.500000 0.000000
O O8 0.662737 0.526258 0.597964
O O9 0.550871 0.609844 0.401815
O O10 0.839354 0.663582 0.382096
O O11 0.914107 0.271269 0.382266
O O12 0.752284 0.171901 0.688543
O O13 0.705009 0.864686 0.743678
O O14 0.500000 0.000000 0.000000
O O15 0.843646 0.938261 0.499415
O O16 0.500000 0.000000 0.500000
#
# Coordination Sequence:
#
# PCOD9108382 Si02
#       7
#     2   2   2   2   2   2   2
#     4  11  24  44  66  98 130 176 225 272 341 399
#     4  11  22  43  68  93 133 177 220 275 337 397
#     4  11  24  39  67 101 127 173 225 272 334 403
#     4  11  22  43  64  98 137 165 223 284 321 397
#     4  10  20  40  68  91 132 173 220 271 332 395
#     4  12  22  45  67  90 139 174 211 280 339 388
#     4  12  22  43  71  95 133 180 222 270 344 396
#
# _framework density 25.840736
#
# number of rings (size 3 to 8) (size 9 to 14) (size 15 to 20)
#    0.000    0.857    7.143    1.714    0.000    2.286 
#    5.143    0.714    0.000    0.000    0.000    0.000 
#    0.000    0.000    0.000    0.000    0.000    0.000 
#
# Total GULP energy -78121.206832 kJ/mol
# GULP energy per Si atom -5580.086202 kJ/mol
# Density = 2.578192 g / cm^3
# Si number density = 25.840736 Si / 1000 Ang^3
#
#
#
# Elastic Constant Matrix: (Units=GPa)
#
#
# Indices 1 2 3 4 5 6 
#
# 1 68.0578 45.0719 54.3262 -7.3625 -15.0454 -15.1338
# 2 45.0719 100.3631 39.1864 -5.9480 -6.8968 -18.7060
# 3 54.3262 39.1864 192.0943 -27.5111 -33.3120 -21.5146
# 4 -7.3625 -5.9480 -27.5111 38.7338 -7.8900 -1.5626
# 5 -15.0454 -6.8968 -33.3120 -7.8900 49.1191 5.8340
# 6 -15.1338 -18.7060 -21.5146 -1.5626 5.8340 56.2303
#
#
#
# Elastic Compliance Matrix: (Units=1/GPa)
#
#
# Indices 1 2 3 4 5 6 
#
# 1 0.025533 -0.009103 -0.004383 0.001136 0.003535 0.001831
# 2 -0.009103 0.014547 -0.000320 0.000123 -0.001228 0.002398
# 3 -0.004383 -0.000320 0.008486 0.006265 0.005184 0.001597
# 4 0.001136 0.000123 0.006265 0.032550 0.009527 0.002660
# 5 0.003535 -0.001228 0.005184 0.009527 0.026308 0.000062
# 6 0.001831 0.002398 0.001597 0.002660 0.000062 0.019753
#
#
# Mechanical properties :
#
#
# Convention : Reuss Voigt Hill
#
# Bulk Modulus (GPa) = 47.72647 70.85382 59.29014
# Shear Modulus (GPa) = 30.90762 43.61200 37.25981
#
# Velocity S-wave (km/s) = 3.46219 4.11265 3.80136
# Velocity P-wave (km/s) = 5.87298 7.07324 6.50087
#
# Compressibility (1/GPa) = 0.02095273
#
# Stress axis : x y z
#
# Youngs Moduli (GPa) = 39.16576 68.74410 117.84513
#
# Poissons Ratio (x) = 0.62581 0.51651
# Poissons Ratio (y) = 0.35655 0.03767
# Poissons Ratio (z) = 0.17166 0.02198
#
# Static dielectric constant tensor:
#      x y z
#    x 2.073330 -0.120440 -0.016200 
#    y -0.120440 2.740230 0.024210 
#    z -0.016200 0.024210 2.052570 
# 
# From -- ./inp_files/381588.got.cif
#   From: 2010.05.17/outbox.cif.g08.bks.cpg/sg2_191_cif.got.tgz:381588.got - 2010.06.03 11:33:40.
