data_PCOD9108383
_publ_section_title
;
Structure prediction by ZEFSAII (Michael W. Deem and Ramdas Pophale) SiO2 
 PCOD9108383
Probable space group: P -1
;
_chemical_formula_sum "Si O2"
_cell_formula_units_Z 12
_cell_length_a 11.067737
_cell_length_b 12.923994
_cell_length_c 10.225379
_cell_angle_alpha 87.680969
_cell_angle_beta 117.196622
_cell_angle_gamma 38.027183
_cell_volume 546.945721
_symmetry_space_group_name_H-M "P -1"
_symmetry_group_IT_number 2
_symmetry_cell_setting 'triclinic'
loop_
_space_group_symop_operation_xyz
x,y,z
-x,-y,-z
loop_
_atom_site_type_symbol
_atom_site_label
_atom_site_fract_x
_atom_site_fract_y
_atom_site_fract_z
Si Si1 0.708563 0.122032 0.317659
Si Si2 0.285699 0.047999 0.234161
Si Si3 0.755399 0.368844 0.528653
Si Si4 0.619305 0.443221 0.919065
Si Si5 0.712051 0.714708 0.691651
Si Si6 0.832389 0.774827 0.101720
O O1 0.435566 0.395416 0.137522
O O2 0.563712 0.149066 0.359316
O O3 0.000000 0.000000 0.500000
O O4 0.894238 0.928502 0.308062
O O5 0.250040 0.191420 0.258612
O O6 0.597370 0.794735 0.479395
O O7 0.241600 0.092229 0.055965
O O8 0.000847 0.165970 0.122501
O O9 0.500000 0.500000 0.500000
O O10 0.571195 0.487297 0.292065
O O11 0.875540 0.390822 0.652581
O O12 0.500000 0.500000 0.000000
O O13 0.041018 0.421964 0.881904
O O14 0.500000 0.000000 0.000000
#
# Coordination Sequence:
#
# PCOD9108383 Si02
#       6
#     2   2   2   2   2   2
#     4  10  20  40  68  91 132 180 224 278 329 404
#     4  11  23  43  70  98 133 182 238 275 335 417
#     4  11  22  42  64  99 139 172 224 286 344 399
#     4  11  23  42  70  98 130 183 240 272 336 415
#     4  11  24  44  69 101 137 179 237 282 329 421
#     4  12  25  42  68 101 144 180 219 288 358 396
#
# _framework density 21.940018999999999
#
# number of rings (size 3 to 8) (size 9 to 14) (size 15 to 20)
#    0.000    1.000    3.333    4.500    2.333    2.000 
#    3.000    1.667    0.000    0.000    0.000    0.000 
#    0.000    0.000    0.000    0.000    0.000    0.000 
#
# Total GULP energy -66876.368982 kJ/mol
# GULP energy per Si atom -5573.030748 kJ/mol
# Density = 2.189008 g / cm^3
# Si number density = 21.940019 Si / 1000 Ang^3
#
#
#
# Elastic Constant Matrix: (Units=GPa)
#
#
# Indices 1 2 3 4 5 6 
#
# 1 81.5091 23.6928 39.4216 12.4151 12.5303 -17.7711
# 2 23.6928 81.5020 16.2621 6.4656 0.3481 -17.4074
# 3 39.4216 16.2621 124.3373 20.4475 0.5781 -12.7313
# 4 12.4151 6.4656 20.4475 41.4098 -3.6755 0.6154
# 5 12.5303 0.3481 0.5781 -3.6755 36.0808 0.1652
# 6 -17.7711 -17.4074 -12.7313 0.6154 0.1652 47.0281
#
#
#
# Elastic Compliance Matrix: (Units=1/GPa)
#
#
# Indices 1 2 3 4 5 6 
#
# 1 0.017637 -0.003046 -0.004146 -0.003399 -0.006396 0.004482
# 2 -0.003046 0.014160 -0.000290 -0.001144 0.000791 0.004024
# 3 -0.004146 -0.000290 0.010102 -0.003636 0.000905 0.001105
# 4 -0.003399 -0.001144 -0.003636 0.027549 0.004070 -0.003067
# 5 -0.006396 0.000791 0.000905 0.004070 0.030339 -0.002039
# 6 0.004482 0.004024 0.001105 -0.003067 -0.002039 0.024794
#
#
# Mechanical properties :
#
#
# Convention : Reuss Voigt Hill
#
# Bulk Modulus (GPa) = 37.12473 49.56682 43.34578
# Shear Modulus (GPa) = 33.66511 38.76853 36.21682
#
# Velocity S-wave (km/s) = 3.92141 4.20816 4.06731
# Velocity P-wave (km/s) = 6.12054 6.80092 6.46968
#
# Compressibility (1/GPa) = 0.02693622
#
# Stress axis : x y z
#
# Youngs Moduli (GPa) = 56.69794 70.62293 98.99102
#
# Poissons Ratio (x) = 0.21509 0.41041
# Poissons Ratio (y) = 0.17268 0.02868
# Poissons Ratio (z) = 0.23507 0.02046
#
# Static dielectric constant tensor:
#      x y z
#    x 1.815050 0.047820 0.034540 
#    y 0.047820 1.899140 -0.005710 
#    z 0.034540 -0.005710 1.840230 
# 
# From -- ./inp_files/170344.got.cif
#   From: 2010.05.17/outbox.cif.g08.bks.cpg/sg2_86_cif.got.tgz:170344.got - 2010.06.03 11:33:40.
