data_PCOD9108884
_publ_section_title
;
Structure prediction by ZEFSAII (Michael W. Deem and Ramdas Pophale) SiO2 
 PCOD9108884
Probable space group: P -1
;
_chemical_formula_sum "Si O2"
_cell_formula_units_Z 13
_cell_length_a 16.922095
_cell_length_b 7.924241
_cell_length_c 9.938707
_cell_angle_alpha 76.900717
_cell_angle_beta 42.973171
_cell_angle_gamma 111.513492
_cell_volume 528.376472
_symmetry_space_group_name_H-M "P -1"
_symmetry_group_IT_number 2
_symmetry_cell_setting 'triclinic'
loop_
_space_group_symop_operation_xyz
x,y,z
-x,-y,-z
loop_
_atom_site_type_symbol
_atom_site_label
_atom_site_fract_x
_atom_site_fract_y
_atom_site_fract_z
Si Si1 0.226696 0.715994 0.006566
Si Si2 0.724539 0.268171 0.523842
Si Si3 0.681478 0.029232 0.878560
Si Si4 0.500000 0.500000 0.500000
Si Si5 0.105807 0.229265 0.944550
Si Si6 0.593724 0.895998 0.527517
Si Si7 0.077441 0.949876 0.513898
O O1 0.235893 0.857785 0.094089
O O2 0.055005 0.376315 0.290974
O O3 0.417205 0.822507 0.755697
O O4 0.241467 0.839722 0.829072
O O5 0.778313 0.279922 0.606321
O O6 0.855760 0.535280 0.210272
O O7 0.669618 0.022139 0.560706
O O8 0.537991 0.168563 0.797125
O O9 0.711448 0.871504 0.816090
O O10 0.310037 0.395035 0.712682
O O11 0.524540 0.638579 0.588535
O O12 0.964082 0.053540 0.280945
O O13 0.000000 0.000000 0.000000
O O14 0.000000 0.000000 0.500000
#
# Coordination Sequence:
#
# PCOD9108884 Si02
#       7
#     2   2   2   1   2   2   2
#     4  10  20  42  66  99 136 194 242 293 363 448
#     4  10  23  49  72 103 144 200 252 295 376 449
#     4  10  24  42  73 102 142 190 247 312 368 440
#     4  12  24  44  78 108 148 190 240 318 366 438
#     4  12  29  48  74 111 149 201 252 307 370 449
#     4  10  20  40  75 100 135 195 252 287 367 446
#     4  12  27  44  66 111 151 190 249 313 375 437
#
# _framework density 24.603670000000001
#
# number of rings (size 3 to 8) (size 9 to 14) (size 15 to 20)
#    0.000    1.231    3.077    2.308    8.615    1.846 
#    0.000    0.769    0.000    0.000    0.000    0.000 
#    0.000    0.000    0.000    0.000    0.000    0.000 
#
# Total GULP energy -72417.208341 kJ/mol
# GULP energy per Si atom -5570.554488 kJ/mol
# Density = 2.454767 g / cm^3
# Si number density = 24.603670 Si / 1000 Ang^3
#
#
#
# Elastic Constant Matrix: (Units=GPa)
#
#
# Indices 1 2 3 4 5 6 
#
# 1 102.8277 41.1916 45.4040 18.0894 0.8195 3.0440
# 2 41.1916 117.2593 46.1903 49.1282 -2.1412 3.4807
# 3 45.4040 46.1903 88.2896 29.2730 19.9804 0.5352
# 4 18.0894 49.1282 29.2730 50.7137 4.7599 1.2248
# 5 0.8195 -2.1412 19.9804 4.7599 28.6175 6.0869
# 6 3.0440 3.4807 0.5352 1.2248 6.0869 17.5562
#
#
#
# Elastic Compliance Matrix: (Units=1/GPa)
#
#
# Indices 1 2 3 4 5 6 
#
# 1 0.013762 -0.002127 -0.007489 0.001068 0.005272 -0.003638
# 2 -0.002127 0.017425 -0.005355 -0.013702 0.008422 -0.004887
# 3 -0.007489 -0.005355 0.023237 -0.004111 -0.017424 0.007980
# 4 0.001068 -0.013702 -0.004111 0.035359 -0.004434 0.001727
# 5 0.005272 0.008422 -0.017424 -0.004434 0.052573 -0.019971
# 6 -0.003638 -0.004887 0.007980 0.001727 -0.019971 0.065120
#
#
# Mechanical properties :
#
#
# Convention : Reuss Voigt Hill
#
# Bulk Modulus (GPa) = 40.84981 63.77204 52.31093
# Shear Modulus (GPa) = 20.35990 31.08353 25.72172
#
# Velocity S-wave (km/s) = 2.87978 3.55825 3.23684
# Velocity P-wave (km/s) = 5.26276 6.54656 5.93945
#
# Compressibility (1/GPa) = 0.02447992
#
# Stress axis : x y z
#
# Youngs Moduli (GPa) = 72.66381 57.38967 43.03407
#
# Poissons Ratio (x) = 0.12210 0.32230
# Poissons Ratio (y) = 0.15459 0.23046
# Poissons Ratio (z) = 0.54421 0.30733
#
# Static dielectric constant tensor:
#      x y z
#    x 1.971950 -0.040960 -0.054360 
#    y -0.040960 1.942650 -0.021210 
#    z -0.054360 -0.021210 2.044830 
# 
# From -- ./inp_files/326042.got.cif
#   From: 2010.05.17/outbox.cif.g08.bks.cpg/sg2_164_cif.got.tgz:326042.got - 2010.06.03 11:33:40.
