data_PCOD9108720
_publ_section_title
;
Structure prediction by ZEFSAII (Michael W. Deem and Ramdas Pophale) SiO2 
 PCOD9108720
Probable space group: P -1
;
_chemical_formula_sum "Si O2"
_cell_formula_units_Z 15
_cell_length_a 11.596484
_cell_length_b 12.089155
_cell_length_c 8.797740
_cell_angle_alpha 115.452170
_cell_angle_beta 48.048080
_cell_angle_gamma 131.224638
_cell_volume 689.775298
_symmetry_space_group_name_H-M "P -1"
_symmetry_group_IT_number 2
_symmetry_cell_setting 'triclinic'
loop_
_space_group_symop_operation_xyz
x,y,z
-x,-y,-z
loop_
_atom_site_type_symbol
_atom_site_label
_atom_site_fract_x
_atom_site_fract_y
_atom_site_fract_z
Si Si1 0.000000 0.000000 0.500000
Si Si2 0.225826 0.416409 0.281482
Si Si3 0.622490 0.722917 0.113708
Si Si4 0.047413 0.391059 0.747848
Si Si5 0.295339 0.913807 0.200366
Si Si6 0.591981 0.137535 0.609354
Si Si7 0.884707 0.774927 0.187531
Si Si8 0.941333 0.343957 0.229852
O O1 0.943337 0.902345 0.331531
O O2 0.189112 0.996349 0.339239
O O3 0.429074 0.563990 0.202725
O O4 0.118660 0.380191 0.511713
O O5 0.111439 0.426589 0.249137
O O6 0.254444 0.288027 0.130743
O O7 0.563783 0.833111 0.189668
O O8 0.729637 0.756962 0.198460
O O9 0.170059 0.369653 0.749139
O O10 0.052677 0.539656 0.821751
O O11 0.839904 0.244759 0.854920
O O12 0.316696 0.882695 0.337286
O O13 0.500000 0.000000 0.000000
O O14 0.754303 0.272258 0.448591
O O15 0.500000 0.000000 0.500000
O O16 0.038820 0.778425 0.943232
#
# Coordination Sequence:
#
# PCOD9108720 Si02
#       8
#     1   2   2   2   2   2   2   2
#     4  10  24  50  70  92 148 186 234 288 356 416
#     4  10  20  40  70  97 139 176 227 287 361 411
#     4  10  22  42  66 106 138 175 235 295 343 429
#     4  11  21  42  74  97 140 190 221 296 351 420
#     4  11  26  46  71 105 139 189 236 282 359 422
#     4  12  25  41  68  97 138 183 235 295 344 415
#     4  10  24  42  66 101 139 185 232 287 358 414
#     4  11  22  44  67 102 137 179 240 281 354 427
#
# _framework density 21.746213000000001
#
# number of rings (size 3 to 8) (size 9 to 14) (size 15 to 20)
#    0.000    1.333    2.667    2.400    3.733    2.667 
#    0.000    2.000    0.000    0.000    0.000    0.000 
#    0.000    0.000    0.000    0.000    0.000    0.000 
#
# Total GULP energy -83567.441981 kJ/mol
# GULP energy per Si atom -5571.162799 kJ/mol
# Density = 2.169672 g / cm^3
# Si number density = 21.746213 Si / 1000 Ang^3
#
#
#
# Elastic Constant Matrix: (Units=GPa)
#
#
# Indices 1 2 3 4 5 6 
#
# 1 123.2434 9.3514 29.5864 13.9860 -13.3177 0.7241
# 2 9.3514 43.5845 27.5335 4.7298 -16.0961 10.1667
# 3 29.5864 27.5335 97.8417 22.3711 -19.8835 -1.8416
# 4 13.9860 4.7298 22.3711 42.4280 -4.2514 7.7945
# 5 -13.3177 -16.0961 -19.8835 -4.2514 40.8190 10.3085
# 6 0.7241 10.1667 -1.8416 7.7945 10.3085 25.8523
#
#
#
# Elastic Compliance Matrix: (Units=1/GPa)
#
#
# Indices 1 2 3 4 5 6 
#
# 1 0.008997 0.000700 -0.002132 -0.001476 0.002311 -0.001156
# 2 0.000700 0.042060 -0.010318 0.007490 0.019466 -0.027315
# 3 -0.002132 -0.010318 0.015733 -0.007804 0.000188 0.007516
# 4 -0.001476 0.007490 -0.007804 0.030647 0.005637 -0.014948
# 5 0.002311 0.019466 0.000188 0.005637 0.040012 -0.025361
# 6 -0.001156 -0.027315 0.007516 -0.014948 -0.025361 0.064610
#
#
# Mechanical properties :
#
#
# Convention : Reuss Voigt Hill
#
# Bulk Modulus (GPa) = 23.10103 44.17912 33.64007
# Shear Modulus (GPa) = 20.83421 35.03309 27.93365
#
# Velocity S-wave (km/s) = 3.09861 4.01808 3.58792
# Velocity P-wave (km/s) = 4.84231 6.47198 5.71552
#
# Compressibility (1/GPa) = 0.04328811
#
# Stress axis : x y z
#
# Youngs Moduli (GPa) = 111.15133 23.77562 63.55969
#
# Poissons Ratio (x) = -0.01664 0.13552
# Poissons Ratio (y) = -0.07777 0.65583
# Poissons Ratio (z) = 0.23700 0.24533
#
# Static dielectric constant tensor:
#      x y z
#    x 1.758570 -0.005610 0.013580 
#    y -0.005610 1.794010 0.005190 
#    z 0.013580 0.005190 1.813460 
# 
# From -- ./inp_files/262977.got.cif
#   From: 2010.05.17/outbox.cif.g08.bks.cpg/sg2_132_cif.got.tgz:262977.got - 2010.06.03 11:33:40.
