data_PCOD9108235
_publ_section_title
;
Structure prediction by ZEFSAII (Michael W. Deem and Ramdas Pophale) SiO2 
 PCOD9108235
Probable space group: P -1
;
_chemical_formula_sum "Si O2"
_cell_formula_units_Z 16
_cell_length_a 9.629438
_cell_length_b 11.538857
_cell_length_c 18.801287
_cell_angle_alpha 131.188426
_cell_angle_beta 32.561138
_cell_angle_gamma 109.858303
_cell_volume 716.624402
_symmetry_space_group_name_H-M "P -1"
_symmetry_group_IT_number 2
_symmetry_cell_setting 'triclinic'
loop_
_space_group_symop_operation_xyz
x,y,z
-x,-y,-z
loop_
_atom_site_type_symbol
_atom_site_label
_atom_site_fract_x
_atom_site_fract_y
_atom_site_fract_z
Si Si1 0.680995 0.652816 0.850791
Si Si2 0.214664 0.309700 0.869193
Si Si3 0.327192 0.899799 0.854660
Si Si4 0.740431 0.176892 0.483580
Si Si5 0.706847 0.055813 0.746113
Si Si6 0.621416 0.360596 0.825097
Si Si7 0.219597 0.512709 0.468767
Si Si8 0.882131 0.109794 0.914458
O O1 0.755770 0.449816 0.752519
O O2 0.980877 0.633632 0.681915
O O3 0.547275 0.779457 0.028541
O O4 0.402458 0.747984 0.953734
O O5 0.472882 0.188221 0.649971
O O6 0.365760 0.349132 0.886572
O O7 0.032466 0.212924 0.926241
O O8 0.000000 0.500000 0.000000
O O9 0.526495 0.681054 0.687402
O O10 0.532847 0.963763 0.753777
O O11 0.254680 0.955645 0.991964
O O12 0.000000 0.000000 0.000000
O O13 0.647697 0.376855 0.579794
O O14 0.027190 0.092097 0.378805
O O15 0.867719 0.046402 0.307656
O O16 0.822510 0.158351 0.688011
O O17 0.500000 0.500000 0.000000
O O18 0.000000 0.500000 0.500000
#
# Coordination Sequence:
#
# PCOD9108235 Si02
#       8
#     2   2   2   2   2   2   2   2
#     4  10  20  40  67  94 124 176 225 265 323 401
#     4  12  23  40  66  96 132 174 226 275 327 393
#     4  12  25  42  64  97 135 168 220 282 345 389
#     4  11  24  41  67  99 126 178 232 271 326 402
#     4  10  22  41  64  93 133 171 218 273 331 394
#     4  10  22  41  64  94 133 171 213 268 334 394
#     4  12  21  40  68  95 123 171 231 273 320 402
#     4  11  22  42  65  96 137 172 222 281 331 390
#
# _framework density 22.326898
#
# number of rings (size 3 to 8) (size 9 to 14) (size 15 to 20)
#    0.000    1.000    3.750    3.375    0.000    2.500 
#    2.250    3.750    0.000    0.000    0.000    0.000 
#    0.000    0.000    0.000    0.000    0.000    0.000 
#
# Total GULP energy -89415.215854 kJ/mol
# GULP energy per Si atom -5588.450991 kJ/mol
# Density = 2.227608 g / cm^3
# Si number density = 22.326898 Si / 1000 Ang^3
#
#
#
# Elastic Constant Matrix: (Units=GPa)
#
#
# Indices 1 2 3 4 5 6 
#
# 1 40.9904 5.1000 7.5574 19.2197 4.4366 -5.0275
# 2 5.1000 126.0577 10.9842 21.1154 -9.9299 1.1046
# 3 7.5574 10.9842 117.6992 8.8367 6.0788 -4.2259
# 4 19.2197 21.1154 8.8367 37.8502 -4.9987 -1.9648
# 5 4.4366 -9.9299 6.0788 -4.9987 25.9318 -2.3609
# 6 -5.0275 1.1046 -4.2259 -1.9648 -2.3609 29.5425
#
#
#
# Elastic Compliance Matrix: (Units=1/GPa)
#
#
# Indices 1 2 3 4 5 6 
#
# 1 0.034705 0.001101 -0.000303 -0.019126 -0.008781 0.003848
# 2 0.001101 0.008997 -0.000663 -0.005128 0.002388 -0.000394
# 3 -0.000303 -0.000663 0.008881 -0.001839 -0.002555 0.000917
# 4 -0.019126 -0.005128 -0.001839 0.040697 0.009598 0.000148
# 5 -0.008781 0.002388 -0.002555 0.009598 0.043626 0.002176
# 6 0.003848 -0.000394 0.000917 0.000148 0.002176 0.034834
#
#
# Mechanical properties :
#
#
# Convention : Reuss Voigt Hill
#
# Bulk Modulus (GPa) = 18.92112 36.89226 27.90669
# Shear Modulus (GPa) = 26.44270 36.07193 31.25732
#
# Velocity S-wave (km/s) = 3.44516 4.02385 3.74570
# Velocity P-wave (km/s) = 4.93138 6.17641 5.58867
#
# Compressibility (1/GPa) = 0.05285100
#
# Stress axis : x y z
#
# Youngs Moduli (GPa) = 28.81421 111.15260 112.60600
#
# Poissons Ratio (x) = -0.12233 0.03417
# Poissons Ratio (y) = -0.03171 0.07463
# Poissons Ratio (z) = 0.00874 0.07366
#
# Static dielectric constant tensor:
#      x y z
#    x 1.813110 -0.027680 0.044750 
#    y -0.027680 1.841840 -0.015350 
#    z 0.044750 -0.015350 1.861660 
# 
# From -- ./inp_files/278590.got.cif
#   From: 2010.05.17/outbox.cif.g08.bks.cpg/sg2_140_cif.got.tgz:278590.got - 2010.06.03 11:33:40.
