data_PCOD9108949
_publ_section_title
;
Structure prediction by ZEFSAII (Michael W. Deem and Ramdas Pophale) SiO2 
 PCOD9108949
Probable space group: P -1
;
_chemical_formula_sum "Si O2"
_cell_formula_units_Z 16
_cell_length_a 8.196185
_cell_length_b 13.738912
_cell_length_c 9.026878
_cell_angle_alpha 72.119223
_cell_angle_beta 130.927114
_cell_angle_gamma 104.255543
_cell_volume 729.463983
_symmetry_space_group_name_H-M "P -1"
_symmetry_group_IT_number 2
_symmetry_cell_setting 'triclinic'
loop_
_space_group_symop_operation_xyz
x,y,z
-x,-y,-z
loop_
_atom_site_type_symbol
_atom_site_label
_atom_site_fract_x
_atom_site_fract_y
_atom_site_fract_z
Si Si1 0.136119 0.117929 0.363103
Si Si2 0.546662 0.841536 0.734052
Si Si3 0.325458 0.986257 0.773220
Si Si4 0.797317 0.323036 0.461266
Si Si5 0.922868 0.657535 0.861897
Si Si6 0.486037 0.524855 0.649892
Si Si7 0.263765 0.559599 0.924312
Si Si8 0.837198 0.670743 0.117305
O O1 0.279599 0.105269 0.304105
O O2 0.080399 0.235845 0.273541
O O3 0.904393 0.054920 0.272359
O O4 0.274522 0.086582 0.601553
O O5 0.423310 0.911991 0.741719
O O6 0.360962 0.777024 0.560174
O O7 0.675463 0.758323 0.942781
O O8 0.500000 0.000000 0.000000
O O9 0.731649 0.422905 0.466187
O O10 0.749414 0.356762 0.249844
O O11 0.037603 0.307810 0.665739
O O12 0.677602 0.612014 0.751600
O O13 0.053484 0.577650 0.887541
O O14 0.999539 0.677536 0.067069
O O15 0.500000 0.500000 0.500000
O O16 0.547393 0.436282 0.841433
O O17 0.257080 0.447374 0.897532
#
# Coordination Sequence:
#
# PCOD9108949 Si02
#       8
#     2   2   2   2   2   2   2   2
#     4  10  23  47  68  98 137 165 219 282 330 405
#     4  11  24  45  68  98 134 174 218 276 336 404
#     4  11  26  46  73 101 127 167 221 277 351 406
#     4  12  22  39  62  92 131 176 218 269 329 378
#     4  10  20  41  60  91 132 172 217 272 317 387
#     4  11  21  37  60  92 129 180 223 255 317 382
#     4  11  21  37  59  91 139 172 224 279 309 380
#     4  10  22  38  63  91 134 174 227 265 320 392
#
# _framework density 21.933914000000001
#
# number of rings (size 3 to 8) (size 9 to 14) (size 15 to 20)
#    0.000    1.250    3.750    4.875    0.000    5.500 
#    4.500    0.000    0.000    0.000    0.000    0.000 
#    0.000    0.000    0.000    0.000    0.000    0.000 
#
# Total GULP energy -89279.691459 kJ/mol
# GULP energy per Si atom -5579.980716 kJ/mol
# Density = 2.188399 g / cm^3
# Si number density = 21.933914 Si / 1000 Ang^3
#
#
#
# Elastic Constant Matrix: (Units=GPa)
#
#
# Indices 1 2 3 4 5 6 
#
# 1 94.0650 18.8780 26.7751 -4.6387 -20.4866 6.3708
# 2 18.8780 34.0944 30.2727 -10.4098 -15.3448 7.1574
# 3 26.7751 30.2727 159.0417 -4.4010 -8.5390 14.4536
# 4 -4.6387 -10.4098 -4.4010 28.5706 2.7736 -5.1102
# 5 -20.4866 -15.3448 -8.5390 2.7736 27.6638 0.5943
# 6 6.3708 7.1574 14.4536 -5.1102 0.5943 31.7867
#
#
#
# Elastic Compliance Matrix: (Units=1/GPa)
#
#
# Indices 1 2 3 4 5 6 
#
# 1 0.013354 -0.002155 -0.001226 0.000066 0.008347 -0.001779
# 2 -0.002155 0.054345 -0.007657 0.014711 0.024849 -0.006423
# 3 -0.001226 -0.007657 0.007939 -0.001864 -0.002477 -0.001893
# 4 0.000066 0.014711 -0.001864 0.040454 0.003492 0.003960
# 5 0.008347 0.024849 -0.002477 0.003492 0.055141 -0.006611
# 6 -0.001779 -0.006423 -0.001893 0.003960 -0.006611 0.034884
#
#
# Mechanical properties :
#
#
# Convention : Reuss Voigt Hill
#
# Bulk Modulus (GPa) = 18.66966 48.78362 33.72664
# Shear Modulus (GPa) = 20.32134 31.68924 26.00529
#
# Velocity S-wave (km/s) = 3.04712 3.80512 3.44702
# Velocity P-wave (km/s) = 4.57276 6.44940 5.59039
#
# Compressibility (1/GPa) = 0.05356283
#
# Stress axis : x y z
#
# Youngs Moduli (GPa) = 74.88274 18.40084 125.96026
#
# Poissons Ratio (x) = 0.03965 0.15447
# Poissons Ratio (y) = 0.16136 0.96443
# Poissons Ratio (z) = 0.09183 0.14089
#
# Static dielectric constant tensor:
#      x y z
#    x 1.853040 0.031240 -0.027040 
#    y 0.031240 1.825220 0.006040 
#    z -0.027040 0.006040 1.839020 
# 
# From -- ./inp_files/201117.got.cif
#   From: 2010.05.17/outbox.cif.g08.bks.cpg/sg2_101_cif.got.tgz:201117.got - 2010.06.03 11:33:40.
