data_PCOD9108577
_publ_section_title
;
Structure prediction by ZEFSAII (Michael W. Deem and Ramdas Pophale) SiO2 
 PCOD9108577
Probable space group: P -1
;
_chemical_formula_sum "Si O2"
_cell_formula_units_Z 14
_cell_length_a 9.458441
_cell_length_b 8.930277
_cell_length_c 8.787310
_cell_angle_alpha 75.750933
_cell_angle_beta 105.645175
_cell_angle_gamma 108.829397
_cell_volume 666.097356
_symmetry_space_group_name_H-M "P -1"
_symmetry_group_IT_number 2
_symmetry_cell_setting 'triclinic'
loop_
_space_group_symop_operation_xyz
x,y,z
-x,-y,-z
loop_
_atom_site_type_symbol
_atom_site_label
_atom_site_fract_x
_atom_site_fract_y
_atom_site_fract_z
Si Si1 0.885302 0.109202 0.921837
Si Si2 0.830450 0.788069 0.600462
Si Si3 0.945048 0.359919 0.137339
Si Si4 0.536491 0.033694 0.822454
Si Si5 0.974282 0.149968 0.624168
Si Si6 0.509994 0.318681 0.524600
Si Si7 0.284192 0.747610 0.659235
O O1 0.709741 0.023558 0.851842
O O2 0.956123 0.215819 0.768549
O O3 0.881728 0.203925 0.051727
O O4 0.000000 0.000000 0.000000
O O5 0.653798 0.767360 0.575956
O O6 0.905077 0.657450 0.726170
O O7 0.865060 0.791262 0.428733
O O8 0.926676 0.956848 0.656512
O O9 0.807954 0.369140 0.206971
O O10 0.000000 0.500000 0.000000
O O11 0.531136 0.206373 0.702880
O O12 0.413489 0.895360 0.730805
O O13 0.500000 0.000000 0.000000
O O14 0.849617 0.188602 0.468148
O O15 0.500000 0.500000 0.500000
O O16 0.641002 0.324407 0.438035
#
# Coordination Sequence:
#
# PCOD9108577 Si02
#       7
#     2   2   2   2   2   2   2
#     4  12  24  40  66 102 130 171 230 277 332 398
#     4  10  22  40  67  96 129 170 224 273 334 398
#     4  11  26  44  64  96 141 177 217 281 349 399
#     4  12  25  44  72 101 138 177 233 285 330 404
#     4  10  20  40  69  94 124 170 229 275 315 397
#     4  12  27  44  69 103 139 179 226 280 346 407
#     4  11  23  47  69  94 130 186 225 277 334 406
#
# _framework density 21.017949000000002
#
# number of rings (size 3 to 8) (size 9 to 14) (size 15 to 20)
#    0.000    0.857    5.714    1.286    4.000    1.143 
#    0.000    4.286    0.000    0.000    0.000    0.000 
#    0.000    0.000    0.000    0.000    0.000    0.000 
#
# Total GULP energy -78134.579778 kJ/mol
# GULP energy per Si atom -5581.041413 kJ/mol
# Density = 2.097011 g / cm^3
# Si number density = 21.017949 Si / 1000 Ang^3
#
#
#
# Elastic Constant Matrix: (Units=GPa)
#
#
# Indices 1 2 3 4 5 6 
#
# 1 129.3871 20.2978 45.9361 -20.1819 -10.6375 -5.6292
# 2 20.2978 51.1221 31.3097 -21.4160 -1.9760 -9.3364
# 3 45.9361 31.3097 118.6771 -17.6257 -19.7868 -4.8918
# 4 -20.1819 -21.4160 -17.6257 34.7345 -0.5614 -2.9311
# 5 -10.6375 -1.9760 -19.7868 -0.5614 45.4060 7.7498
# 6 -5.6292 -9.3364 -4.8918 -2.9311 7.7498 23.5743
#
#
#
# Elastic Compliance Matrix: (Units=1/GPa)
#
#
# Indices 1 2 3 4 5 6 
#
# 1 0.009559 0.000248 -0.002909 0.004419 0.000678 0.002104
# 2 0.000248 0.034091 -0.006171 0.019313 -0.003617 0.015871
# 3 -0.002909 -0.006171 0.011930 0.000454 0.004617 -0.002124
# 4 0.004419 0.019313 0.000454 0.044705 0.000187 0.014295
# 5 0.000678 -0.003617 0.004617 0.000187 0.025520 -0.008679
# 6 0.002104 0.015871 -0.002124 0.014295 -0.008679 0.053397
#
#
# Mechanical properties :
#
#
# Convention : Reuss Voigt Hill
#
# Bulk Modulus (GPa) = 26.37374 54.91926 40.64650
# Shear Modulus (GPa) = 23.86581 34.18582 29.02581
#
# Velocity S-wave (km/s) = 3.37337 4.03737 3.72021
# Velocity P-wave (km/s) = 5.26766 6.92245 6.15096
#
# Compressibility (1/GPa) = 0.03791651
#
# Stress axis : x y z
#
# Youngs Moduli (GPa) = 104.60939 29.33336 83.82264
#
# Poissons Ratio (x) = -0.00728 0.24388
# Poissons Ratio (y) = -0.02597 0.51724
# Poissons Ratio (z) = 0.30436 0.18100
#
# Static dielectric constant tensor:
#      x y z
#    x 1.752630 0.003450 -0.037130 
#    y 0.003450 1.805870 -0.009380 
#    z -0.037130 -0.009380 1.825210 
# 
# From -- ./inp_files/155519.got.cif
#   From: 2010.05.17/outbox.cif.g08.bks.cpg/sg2_78_cif.got.tgz:155519.got - 2010.06.03 11:33:40.
