data_PCOD9108281
_publ_section_title
;
Structure prediction by ZEFSAII (Michael W. Deem and Ramdas Pophale) SiO2 
 PCOD9108281
Probable space group: P -1
;
_chemical_formula_sum "Si O2"
_cell_formula_units_Z 15
_cell_length_a 7.982684
_cell_length_b 8.076881
_cell_length_c 14.948123
_cell_angle_alpha 91.705583
_cell_angle_beta 43.954788
_cell_angle_gamma 70.705345
_cell_volume 576.286227
_symmetry_space_group_name_H-M "P -1"
_symmetry_group_IT_number 2
_symmetry_cell_setting 'triclinic'
loop_
_space_group_symop_operation_xyz
x,y,z
-x,-y,-z
loop_
_atom_site_type_symbol
_atom_site_label
_atom_site_fract_x
_atom_site_fract_y
_atom_site_fract_z
Si Si1 0.371332 0.982970 0.200262
Si Si2 0.434323 0.802126 0.988761
Si Si3 0.726605 0.531976 0.362408
Si Si4 0.000000 0.000000 0.500000
Si Si5 0.835518 0.180593 0.198565
Si Si6 0.666847 0.837556 0.510093
Si Si7 0.703494 0.707544 0.200013
Si Si8 0.315353 0.573009 0.914786
O O1 0.462520 0.824696 0.083207
O O2 0.608023 0.899155 0.184796
O O3 0.097493 0.036458 0.362679
O O4 0.375899 0.149149 0.146081
O O5 0.477740 0.606201 0.930467
O O6 0.113557 0.973749 0.097085
O O7 0.500000 0.500000 0.500000
O O8 0.878169 0.339775 0.239728
O O9 0.840741 0.627470 0.390702
O O10 0.601793 0.698983 0.336743
O O11 0.147688 0.112298 0.495568
O O12 0.576117 0.174097 0.341643
O O13 0.770992 0.261105 0.124102
O O14 0.500000 0.000000 0.500000
O O15 0.553783 0.615573 0.198728
O O16 0.034998 0.592339 0.065869
#
# Coordination Sequence:
#
# PCOD9108281 Si02
#       8
#     2   2   2   1   2   2   2   2
#     4  11  25  42  59  93 139 169 212 276 326 398
#     4  11  23  40  66  96 129 172 217 271 335 388
#     4   9  21  39  64  96 129 170 220 268 332 397
#     4  12  26  40  60 100 130 172 224 264 328 398
#     4  10  20  40  67  97 127 173 225 274 330 392
#     4  11  23  40  67  95 132 177 220 277 329 401
#     4  10  21  39  63  93 127 163 211 272 324 396
#     4  10  21  36  65  96 120 163 215 269 329 385
#
# _framework density 26.028732999999999
#
# number of rings (size 3 to 8) (size 9 to 14) (size 15 to 20)
#    0.000    1.600    1.333    2.800    5.600    1.600 
#    0.000    2.667    0.000   33.600    0.000    0.000 
#    0.000    0.000    0.000    0.000    0.000    0.000 
#
# Total GULP energy -83555.785775 kJ/mol
# GULP energy per Si atom -5570.385718 kJ/mol
# Density = 2.596949 g / cm^3
# Si number density = 26.028733 Si / 1000 Ang^3
#
#
#
# Elastic Constant Matrix: (Units=GPa)
#
#
# Indices 1 2 3 4 5 6 
#
# 1 119.9553 70.4864 59.8171 -9.6838 29.2022 40.4413
# 2 70.4864 67.1620 46.8667 -14.4344 18.8138 29.6031
# 3 59.8171 46.8667 175.0027 -45.1265 24.1545 8.5833
# 4 -9.6838 -14.4344 -45.1265 54.9812 -1.1805 16.2917
# 5 29.2022 18.8138 24.1545 -1.1805 44.1137 5.0787
# 6 40.4413 29.6031 8.5833 16.2917 5.0787 67.1901
#
#
#
# Elastic Compliance Matrix: (Units=1/GPa)
#
#
# Indices 1 2 3 4 5 6 
#
# 1 0.024504 -0.021137 -0.002237 -0.001925 -0.005542 -0.004264
# 2 -0.021137 0.044962 -0.001528 0.009411 -0.003065 -0.008942
# 3 -0.002237 -0.001528 0.008995 0.006699 -0.002549 -0.000561
# 4 -0.001925 0.009411 0.006699 0.028834 -0.004427 -0.010500
# 5 -0.005542 -0.003065 -0.002549 -0.004427 0.028469 0.003933
# 6 -0.004264 -0.008942 -0.000561 -0.010500 0.003933 0.023710
#
#
# Mechanical properties :
#
#
# Convention : Reuss Voigt Hill
#
# Bulk Modulus (GPa) = 34.89685 79.60668 57.25177
# Shear Modulus (GPa) = 22.84884 45.58698 34.21791
#
# Velocity S-wave (km/s) = 2.96604 4.18953 3.62970
# Velocity P-wave (km/s) = 5.01657 7.35210 6.29362
#
# Compressibility (1/GPa) = 0.02865588
#
# Stress axis : x y z
#
# Youngs Moduli (GPa) = 40.81004 22.24119 111.17637
#
# Poissons Ratio (x) = 0.47012 0.24873
# Poissons Ratio (y) = 0.86261 0.16985
# Poissons Ratio (z) = 0.09130 0.03398
#
# Static dielectric constant tensor:
#      x y z
#    x 2.092480 -0.004860 0.001860 
#    y -0.004860 2.125080 0.100830 
#    z 0.001860 0.100830 2.057910 
# 
# From -- ./inp_files/495011.got.cif
#   From: 2010.05.17/outbox.cif.g08.bks.cpg/sg2_248_cif.got.tgz:495011.got - 2010.06.03 11:33:40.
