data_PCOD9108430
_publ_section_title
;
Structure prediction by ZEFSAII (Michael W. Deem and Ramdas Pophale) SiO2 
 PCOD9108430
Probable space group: P -1
;
_chemical_formula_sum "Si O2"
_cell_formula_units_Z 15
_cell_length_a 10.677745
_cell_length_b 10.403648
_cell_length_c 9.973837
_cell_angle_alpha 86.941054
_cell_angle_beta 114.114298
_cell_angle_gamma 41.971597
_cell_volume 548.479966
_symmetry_space_group_name_H-M "P -1"
_symmetry_group_IT_number 2
_symmetry_cell_setting 'triclinic'
loop_
_space_group_symop_operation_xyz
x,y,z
-x,-y,-z
loop_
_atom_site_type_symbol
_atom_site_label
_atom_site_fract_x
_atom_site_fract_y
_atom_site_fract_z
Si Si1 0.000000 0.500000 0.500000
Si Si2 0.807615 0.792591 0.804883
Si Si3 0.046699 0.726883 0.684623
Si Si4 0.788024 0.288244 0.715426
Si Si5 0.247757 0.091720 0.933885
Si Si6 0.244799 0.398151 0.390136
Si Si7 0.390462 0.345907 0.057910
Si Si8 0.679561 0.299757 0.378793
O O1 0.002902 0.631537 0.585994
O O2 0.270671 0.330662 0.554594
O O3 0.828911 0.889900 0.696551
O O4 0.696971 0.755892 0.683464
O O5 0.111522 0.531394 0.980586
O O6 0.699620 0.900549 0.896583
O O7 0.107917 0.790686 0.604829
O O8 0.303383 0.515594 0.896842
O O9 0.681462 0.516573 0.618592
O O10 0.783484 0.213441 0.581118
O O11 0.586666 0.408900 0.733154
O O12 0.072534 0.102357 0.884530
O O13 0.066803 0.333997 0.759081
O O14 0.473177 0.874129 0.950331
O O15 0.579305 0.256918 0.253487
#
# Coordination Sequence:
#
# PCOD9108430 Si02
#       8
#     1   2   2   2   2   2   2   2
#     4  10  16  36  58  82 102 144 194 210 284 330
#     4   9  19  35  56  82 108 146 179 224 280 317
#     4   9  19  34  57  81 109 146 180 227 271 329
#     4   9  20  32  57  77 108 149 177 232 263 325
#     4  10  19  36  52  87 112 140 188 224 272 325
#     4   9  18  34  58  79 107 148 178 231 270 329
#     4  10  21  32  57  84 111 145 183 225 273 324
#     4  11  18  36  54  81 113 144 190 218 274 328
#
# _framework density 27.348312
#
# number of rings (size 3 to 8) (size 9 to 14) (size 15 to 20)
#    1.600    0.800    2.667    0.800    0.000    1.067 
#    0.000    2.667    0.000    8.000    0.000    0.000 
#    0.000    0.000    0.000    0.000    0.000    0.000 
#
# Total GULP energy -83537.825639 kJ/mol
# GULP energy per Si atom -5569.188376 kJ/mol
# Density = 2.728607 g / cm^3
# Si number density = 27.348312 Si / 1000 Ang^3
#
#
#
# Elastic Constant Matrix: (Units=GPa)
#
#
# Indices 1 2 3 4 5 6 
#
# 1 96.6242 27.6724 14.4184 21.5562 -7.2053 -13.3020
# 2 27.6724 109.6253 68.9786 42.6493 -14.0197 -8.4027
# 3 14.4184 68.9786 75.2013 16.6430 10.7887 -4.9428
# 4 21.5562 42.6493 16.6430 58.1500 3.2883 -10.1887
# 5 -7.2053 -14.0197 10.7887 3.2883 9.3092 3.5705
# 6 -13.3020 -8.4027 -4.9428 -10.1887 3.5705 32.1170
#
#
#
# Elastic Compliance Matrix: (Units=1/GPa)
#
#
# Indices 1 2 3 4 5 6 
#
# 1 0.011705 -0.005176 0.003526 -0.000549 -0.004292 0.004340
# 2 -0.005176 -0.017018 0.023601 0.012752 -0.064664 0.008270
# 3 0.003526 0.023601 -0.014579 -0.019539 0.065158 -0.008051
# 4 -0.000549 0.012752 -0.019539 0.011439 0.037553 -0.000444
# 5 -0.004292 -0.064664 0.065158 0.037553 -0.087018 0.012919
# 6 0.004340 0.008270 -0.008051 -0.000444 0.012919 0.032281
#
#
# Mechanical properties :
#
#
# Convention : Reuss Voigt Hill
#
# Bulk Modulus (GPa) = 41.64994 55.95440 48.80217
# Shear Modulus (GPa) = -50.45982 31.27400 -9.59291
#
# Velocity S-wave (km/s) = -4.30010 3.38530 -1.87491
# Velocity P-wave (km/s) = 3.06463 5.98203 3.63268
#
# Compressibility (1/GPa) = 0.02400964
#
# Stress axis : x y z
#
# Youngs Moduli (GPa) = 85.43033 -58.75999 -68.59118
#
# Poissons Ratio (x) = -0.30415 0.24185
# Poissons Ratio (y) = 0.44220 1.61882
# Poissons Ratio (z) = -0.30122 1.38679
#
# Static dielectric constant tensor:
#      x y z
#    x 2.067920 0.009780 0.027200 
#    y 0.009780 2.232370 -0.119100 
#    z 0.027200 -0.119100 2.100170 
# 
# From -- ./inp_files/453204.got.cif
#   From: 2010.05.17/outbox.cif.g08.bks.cpg/sg2_227_cif.got.tgz:453204.got - 2010.06.03 11:33:40.
