data_PCOD9108748
_publ_section_title
;
Structure prediction by ZEFSAII (Michael W. Deem and Ramdas Pophale) SiO2 
 PCOD9108748
Probable space group: P -1
;
_chemical_formula_sum "Si O2"
_cell_formula_units_Z 16
_cell_length_a 12.704376
_cell_length_b 8.769743
_cell_length_c 7.338714
_cell_angle_alpha 86.928323
_cell_angle_beta 48.229565
_cell_angle_gamma 94.469209
_cell_volume 601.805182
_symmetry_space_group_name_H-M "P -1"
_symmetry_group_IT_number 2
_symmetry_cell_setting 'triclinic'
loop_
_space_group_symop_operation_xyz
x,y,z
-x,-y,-z
loop_
_atom_site_type_symbol
_atom_site_label
_atom_site_fract_x
_atom_site_fract_y
_atom_site_fract_z
Si Si1 0.498072 0.715372 0.885896
Si Si2 0.391464 0.858387 0.550898
Si Si3 0.086739 0.168628 0.881584
Si Si4 0.268090 0.870096 0.311294
Si Si5 0.192480 0.190507 0.350350
Si Si6 0.256563 0.584456 0.963471
Si Si7 0.998039 0.646976 0.713815
Si Si8 0.372474 0.300674 0.666402
O O1 0.563133 0.703248 0.609904
O O2 0.289347 0.753002 0.818689
O O3 0.409891 0.851504 0.037553
O O4 0.358416 0.585129 0.024683
O O5 0.310348 0.911506 0.468870
O O6 0.498115 0.742519 0.361259
O O7 0.500000 0.000000 0.500000
O O8 0.010213 0.290987 0.073901
O O9 0.808515 0.990612 0.678006
O O10 0.126722 0.209458 0.624989
O O11 0.000000 0.000000 0.000000
O O12 0.156839 0.710990 0.461051
O O13 0.359378 0.264639 0.161036
O O14 0.234397 0.171388 0.823178
O O15 0.088351 0.525867 0.186766
O O16 0.103441 0.266087 0.300901
O O17 0.315572 0.458145 0.772455
#
# Coordination Sequence:
#
# PCOD9108748 Si02
#       8
#     2   2   2   2   2   2   2   2
#     4  10  22  42  68 100 138 180 236 301 354 415
#     4  11  23  42  72 104 143 181 233 302 354 421
#     4  10  20  40  71 101 133 189 245 283 347 425
#     4  12  25  42  66 109 148 178 238 299 377 416
#     4  11  24  47  68 106 143 189 249 295 351 432
#     4  10  23  49  71 102 142 193 244 285 358 442
#     4  11  26  46  71 101 147 195 242 293 354 444
#     4   9  21  45  70 102 138 185 246 287 350 437
#
# _framework density 26.586676000000001
#
# number of rings (size 3 to 8) (size 9 to 14) (size 15 to 20)
#    0.000    1.500    1.250    4.500    3.500    1.500 
#   15.750    0.000    0.000    0.000    0.000    0.000 
#    0.000    0.000    0.000    0.000    0.000    0.000 
#
# Total GULP energy -89459.742107 kJ/mol
# GULP energy per Si atom -5591.233882 kJ/mol
# Density = 2.652616 g / cm^3
# Si number density = 26.586676 Si / 1000 Ang^3
#
#
#
# Elastic Constant Matrix: (Units=GPa)
#
#
# Indices 1 2 3 4 5 6 
#
# 1 63.8498 26.8529 38.4518 -21.6541 -10.3714 11.7710
# 2 26.8529 150.8410 49.9075 -30.0552 -3.8865 28.8066
# 3 38.4518 49.9075 144.6919 -3.1062 -4.6767 7.7630
# 4 -21.6541 -30.0552 -3.1062 42.6200 4.5936 -9.7398
# 5 -10.3714 -3.8865 -4.6767 4.5936 33.1977 -9.4554
# 6 11.7710 28.8066 7.7630 -9.7398 -9.4554 50.8855
#
#
#
# Elastic Compliance Matrix: (Units=1/GPa)
#
#
# Indices 1 2 3 4 5 6 
#
# 1 0.023982 0.000417 -0.006028 0.011112 0.004619 -0.001879
# 2 0.000417 0.009496 -0.003078 0.005874 -0.001171 -0.004096
# 3 -0.006028 -0.003078 0.009434 -0.004344 -0.000071 0.000853
# 4 0.011112 0.005874 -0.004344 0.033244 -0.000772 0.000986
# 5 0.004619 -0.001171 -0.000071 -0.000772 0.033124 0.005612
# 6 -0.001879 -0.004096 0.000853 0.000986 0.005612 0.023507
#
#
# Mechanical properties :
#
#
# Convention : Reuss Voigt Hill
#
# Bulk Modulus (GPa) = 39.16508 65.53412 52.34960
# Shear Modulus (GPa) = 31.51063 41.61867 36.56465
#
# Velocity S-wave (km/s) = 3.44641 3.96080 3.71253
# Velocity P-wave (km/s) = 5.53174 6.75426 6.17333
#
# Compressibility (1/GPa) = 0.02553295
#
# Stress axis : x y z
#
# Youngs Moduli (GPa) = 41.69779 105.30441 106.00209
#
# Poissons Ratio (x) = -0.04394 0.63903
# Poissons Ratio (y) = -0.01740 0.32631
# Poissons Ratio (z) = 0.25137 0.32416
#
# Static dielectric constant tensor:
#      x y z
#    x 2.086230 0.007610 -0.000910 
#    y 0.007610 2.138010 -0.025740 
#    z -0.000910 -0.025740 2.110830 
# 
# From -- ./inp_files/303585.got.cif
#   From: 2010.05.17/outbox.cif.g08.bks.cpg/sg2_152_cif.got.tgz:303585.got - 2010.06.03 11:33:40.
