data_PCOD9108103
_publ_section_title
;
Structure prediction by ZEFSAII (Michael W. Deem and Ramdas Pophale) SiO2 
 PCOD9108103
Probable space group: P -1
;
_chemical_formula_sum "Si O2"
_cell_formula_units_Z 16
_cell_length_a 9.324399
_cell_length_b 9.002154
_cell_length_c 11.754277
_cell_angle_alpha 60.635599
_cell_angle_beta 108.211645
_cell_angle_gamma 121.614604
_cell_volume 730.222818
_symmetry_space_group_name_H-M "P -1"
_symmetry_group_IT_number 2
_symmetry_cell_setting 'triclinic'
loop_
_space_group_symop_operation_xyz
x,y,z
-x,-y,-z
loop_
_atom_site_type_symbol
_atom_site_label
_atom_site_fract_x
_atom_site_fract_y
_atom_site_fract_z
Si Si1 0.307650 0.435358 0.011598
Si Si2 0.275922 0.757940 0.807547
Si Si3 0.593469 0.801680 0.715907
Si Si4 0.051232 0.412441 0.364277
Si Si5 0.114516 0.788317 0.365998
Si Si6 0.878158 0.842889 0.114357
Si Si7 0.581020 0.890035 0.136593
Si Si8 0.589365 0.525170 0.633881
O O1 0.287865 0.276661 0.157916
O O2 0.500000 0.500000 0.000000
O O3 0.279831 0.618709 0.963002
O O4 0.194384 0.348865 0.905140
O O5 0.427136 0.773861 0.754727
O O6 0.095275 0.662778 0.738067
O O7 0.326613 0.966150 0.790934
O O8 0.542802 0.667444 0.643673
O O9 0.709670 0.025173 0.643942
O O10 0.125271 0.633114 0.340801
O O11 0.210418 0.384695 0.371890
O O12 0.961016 0.300753 0.498226
O O13 0.977825 0.838409 0.251631
O O14 0.719493 0.875277 0.095715
O O15 0.000000 0.000000 0.000000
O O16 0.470296 0.677554 0.239108
O O17 0.500000 0.000000 0.000000
O O18 0.500000 0.500000 0.500000
#
# Coordination Sequence:
#
# PCOD9108103 Si02
#       8
#     2   2   2   2   2   2   2   2
#     4  10  20  40  66  98 135 180 227 278 347 413
#     4  11  24  43  72 104 140 183 236 288 350 410
#     4  11  24  44  71  98 139 188 230 285 356 423
#     4  11  27  44  71 103 139 181 238 296 338 422
#     4  11  25  45  70 100 141 182 238 285 356 415
#     4  12  24  43  71 102 139 184 230 288 351 413
#     4  12  27  47  71 106 146 185 238 292 348 421
#     4  12  29  49  72 103 145 186 235 288 361 420
#
# _framework density 21.911118999999999
#
# number of rings (size 3 to 8) (size 9 to 14) (size 15 to 20)
#    0.000    0.750    2.500    5.250    8.750    1.000 
#    0.000    1.875    0.000    0.000    0.000    0.000 
#    0.000    0.000    0.000    0.000    0.000    0.000 
#
# Total GULP energy -89439.597729 kJ/mol
# GULP energy per Si atom -5589.974858 kJ/mol
# Density = 2.186125 g / cm^3
# Si number density = 21.911119 Si / 1000 Ang^3
#
#
#
# Elastic Constant Matrix: (Units=GPa)
#
#
# Indices 1 2 3 4 5 6 
#
# 1 59.4293 7.6653 7.8983 -0.3710 -6.2801 10.3927
# 2 7.6653 142.5478 24.0879 1.4595 -12.3718 8.5196
# 3 7.8983 24.0879 75.0259 7.8707 5.4672 12.7926
# 4 -0.3710 1.4595 7.8707 34.2397 4.8567 -3.4922
# 5 -6.2801 -12.3718 5.4672 4.8567 25.4087 6.1339
# 6 10.3927 8.5196 12.7926 -3.4922 6.1339 31.6455
#
#
#
# Elastic Compliance Matrix: (Units=1/GPa)
#
#
# Indices 1 2 3 4 5 6 
#
# 1 0.018977 0.000250 -0.001211 -0.001279 0.007085 -0.007324
# 2 0.000250 0.008024 -0.002509 -0.000738 0.005210 -0.002319
# 3 -0.001211 -0.002509 0.015730 -0.003620 -0.002981 -0.005107
# 4 -0.001279 -0.000738 -0.003620 0.031871 -0.007700 0.007092
# 5 0.007085 0.005210 -0.002981 -0.007700 0.048859 -0.012844
# 6 -0.007324 -0.002319 -0.005107 0.007092 -0.012844 0.039966
#
#
# Mechanical properties :
#
#
# Convention : Reuss Voigt Hill
#
# Bulk Modulus (GPa) = 27.94115 39.58953 33.76534
# Shear Modulus (GPa) = 27.42759 34.08222 30.75491
#
# Velocity S-wave (km/s) = 3.54187 3.94823 3.75056
# Velocity P-wave (km/s) = 5.43196 6.23636 5.84801
#
# Compressibility (1/GPa) = 0.03578951
#
# Stress axis : x y z
#
# Youngs Moduli (GPa) = 52.69518 124.62477 63.57413
#
# Poissons Ratio (x) = -0.03116 0.07701
# Poissons Ratio (y) = -0.01318 0.15953
# Poissons Ratio (z) = 0.06383 0.31272
#
# Static dielectric constant tensor:
#      x y z
#    x 1.747200 -0.011630 0.008420 
#    y -0.011630 1.876460 -0.002610 
#    z 0.008420 -0.002610 1.843780 
# 
# From -- ./inp_files/189555.got.cif
#   From: 2010.05.17/outbox.cif.g08.bks.cpg/sg2_95_cif.got.tgz:189555.got - 2010.06.03 11:33:40.
