data_PCOD9108829
_publ_section_title
;
Structure prediction by ZEFSAII (Michael W. Deem and Ramdas Pophale) SiO2 
 PCOD9108829
Probable space group: P -1
;
_chemical_formula_sum "Si O2"
_cell_formula_units_Z 13
_cell_length_a 10.922061
_cell_length_b 4.933170
_cell_length_c 12.862015
_cell_angle_alpha 69.919232
_cell_angle_beta 127.927793
_cell_angle_gamma 88.919461
_cell_volume 488.059716
_symmetry_space_group_name_H-M "P -1"
_symmetry_group_IT_number 2
_symmetry_cell_setting 'triclinic'
loop_
_space_group_symop_operation_xyz
x,y,z
-x,-y,-z
loop_
_atom_site_type_symbol
_atom_site_label
_atom_site_fract_x
_atom_site_fract_y
_atom_site_fract_z
Si Si1 0.925802 0.348217 0.391647
Si Si2 0.741477 0.649634 0.920488
Si Si3 0.318479 0.212866 0.886883
Si Si4 0.491404 0.101512 0.600509
Si Si5 0.943168 0.142686 0.206901
Si Si6 0.228068 0.635825 0.332519
Si Si7 0.000000 0.000000 0.000000
O O1 0.731230 0.512257 0.258316
O O2 0.961150 0.352140 0.284886
O O3 0.000000 0.500000 0.500000
O O4 0.000000 0.000000 0.500000
O O5 0.695287 0.683066 0.013953
O O6 0.866919 0.298358 0.034835
O O7 0.850681 0.860135 0.923691
O O8 0.573804 0.797914 0.751043
O O9 0.188943 0.032545 0.815633
O O10 0.500000 0.000000 0.000000
O O11 0.308573 0.333675 0.483719
O O12 0.615251 0.299057 0.645291
O O13 0.500000 0.000000 0.500000
O O14 0.120248 0.905109 0.314164
O O15 0.101652 0.676996 0.166574
#
# Coordination Sequence:
#
# PCOD9108829 Si02
#       7
#     2   2   2   2   2   2   1
#     4  11  24  48  76 109 145 193 252 319 382 453
#     4  10  24  42  68 103 141 197 249 310 374 451
#     4  11  25  48  73 106 149 196 255 320 385 450
#     4  10  24  41  62 101 146 186 234 308 366 436
#     4  11  24  44  75 105 143 200 255 306 382 455
#     4  10  23  40  65  99 138 185 241 294 366 444
#     4  10  20  40  72  96 144 186 250 298 362 450
#
# _framework density 26.636088999999998
#
# number of rings (size 3 to 8) (size 9 to 14) (size 15 to 20)
#    0.000    1.538    3.077    0.000    4.308    6.154 
#    2.769    0.000    0.000    0.000    0.000    0.000 
#    0.000    0.000    0.000    0.000    0.000    0.000 
#
# Total GULP energy -72376.814958 kJ/mol
# GULP energy per Si atom -5567.447304 kJ/mol
# Density = 2.657546 g / cm^3
# Si number density = 26.636089 Si / 1000 Ang^3
#
#
#
# Elastic Constant Matrix: (Units=GPa)
#
#
# Indices 1 2 3 4 5 6 
#
# 1 44.1882 1.5459 42.9306 -3.7785 2.9899 -4.5777
# 2 1.5459 109.2340 71.1077 -3.6244 -2.7008 -9.1251
# 3 42.9306 71.1077 351.0192 -44.7043 0.2100 -24.1636
# 4 -3.7785 -3.6244 -44.7043 63.3117 -9.5647 -7.5466
# 5 2.9899 -2.7008 0.2100 -9.5647 49.7225 -2.2154
# 6 -4.5777 -9.1251 -24.1636 -7.5466 -2.2154 35.5588
#
#
#
# Elastic Compliance Matrix: (Units=1/GPa)
#
#
# Indices 1 2 3 4 5 6 
#
# 1 0.026269 0.002042 -0.003681 -0.001027 -0.001602 0.001086
# 2 0.002042 0.010810 -0.002456 -0.000791 0.000377 0.001223
# 3 -0.003681 -0.002456 0.004377 0.003158 0.000792 0.002590
# 4 -0.001027 -0.000791 0.003158 0.019253 0.003983 0.006145
# 5 -0.001602 0.000377 0.000792 0.003983 0.021107 0.002589
# 6 0.001086 0.001223 0.002590 0.006145 0.002589 0.031801
#
#
# Mechanical properties :
#
#
# Convention : Reuss Voigt Hill
#
# Bulk Modulus (GPa) = 30.06287 81.73441 55.89864
# Shear Modulus (GPa) = 37.62339 55.64242 46.63291
#
# Velocity S-wave (km/s) = 3.76240 4.57550 4.18873
# Velocity P-wave (km/s) = 5.49411 7.65936 6.66525
#
# Compressibility (1/GPa) = 0.03326362
#
# Stress axis : x y z
#
# Youngs Moduli (GPa) = 38.06787 92.50693 228.48181
#
# Poissons Ratio (x) = -0.18888 0.84116
# Poissons Ratio (y) = -0.07773 0.56122
# Poissons Ratio (z) = 0.14015 0.22722
#
# Static dielectric constant tensor:
#      x y z
#    x 2.209650 -0.016970 -0.019470 
#    y -0.016970 2.112610 -0.345170 
#    z -0.019470 -0.345170 2.249680 
# 
# From -- ./inp_files/509712.got.cif
#   From: 2010.05.17/outbox.cif.g08.bks.cpg/sg2_255_cif.got.tgz:509712.got - 2010.06.03 11:33:40.
