data_PCOD9108611
_publ_section_title
;
Structure prediction by ZEFSAII (Michael W. Deem and Ramdas Pophale) SiO2 
 PCOD9108611
Probable space group: P -1
;
_chemical_formula_sum "Si O2"
_cell_formula_units_Z 14
_cell_length_a 25.243961
_cell_length_b 24.910064
_cell_length_c 9.203104
_cell_angle_alpha 142.754891
_cell_angle_beta 37.881407
_cell_angle_gamma 168.645563
_cell_volume 687.686590
_symmetry_space_group_name_H-M "P -1"
_symmetry_group_IT_number 2
_symmetry_cell_setting 'triclinic'
loop_
_space_group_symop_operation_xyz
x,y,z
-x,-y,-z
loop_
_atom_site_type_symbol
_atom_site_label
_atom_site_fract_x
_atom_site_fract_y
_atom_site_fract_z
Si Si1 0.804648 0.466171 0.502442
Si Si2 0.083017 0.985579 0.732353
Si Si3 0.424800 0.637911 0.477595
Si Si4 0.653868 0.843637 0.718893
Si Si5 0.648913 0.109346 0.770822
Si Si6 0.162520 0.417171 0.016297
Si Si7 0.264539 0.712945 0.320926
O O1 0.680772 0.394161 0.476241
O O2 0.864621 0.593517 0.776383
O O3 0.076352 0.676868 0.332254
O O4 0.571019 0.171803 0.427309
O O5 0.215185 0.111520 0.555742
O O6 0.824060 0.669349 0.609703
O O7 0.319339 0.171130 0.718399
O O8 0.000000 0.000000 0.000000
O O9 0.543406 0.790012 0.700750
O O10 0.884595 0.117900 0.898933
O O11 0.399509 0.581231 0.808060
O O12 0.720538 0.255348 0.815443
O O13 0.500000 0.000000 0.000000
O O14 0.253862 0.600891 0.149237
O O15 0.000000 0.500000 0.500000
O O16 0.500000 0.000000 0.500000
#
# Coordination Sequence:
#
# PCOD9108611 Si02
#       7
#     2   2   2   2   2   2   2
#     4  12  25  43  61  91 130 167 207 273 335 372
#     4  10  20  40  69  99 127 158 207 257 310 384
#     4  10  22  40  63  96 126 159 209 249 328 373
#     4  10  22  38  62  98 113 168 209 256 307 377
#     4  12  26  42  61  90 124 172 222 279 324 377
#     4  12  22  39  66  85 129 165 218 267 307 388
#     4  12  23  43  60  87 121 172 225 260 329 367
#
# _framework density 20.358111000000001
#
# number of rings (size 3 to 8) (size 9 to 14) (size 15 to 20)
#    0.857    0.000    4.286    3.429    2.000    0.000 
#    0.000    0.000    0.000    5.143    0.000    0.000 
#    0.000    0.000    0.000    0.000    0.000    0.000 
#
# Total GULP energy -78137.757084 kJ/mol
# GULP energy per Si atom -5581.268363 kJ/mol
# Density = 2.031178 g / cm^3
# Si number density = 20.358111 Si / 1000 Ang^3
#
#
#
# Elastic Constant Matrix: (Units=GPa)
#
#
# Indices 1 2 3 4 5 6 
#
# 1 35.5924 19.9774 18.3681 -2.6648 18.9333 17.9477
# 2 19.9774 141.4802 15.7022 -5.9990 1.8429 29.0485
# 3 18.3681 15.7022 65.0382 -14.0713 13.2028 21.3181
# 4 -2.6648 -5.9990 -14.0713 30.4025 4.4469 0.6497
# 5 18.9333 1.8429 13.2028 4.4469 28.1209 -0.2071
# 6 17.9477 29.0485 21.3181 0.6497 -0.2071 29.7419
#
#
#
# Elastic Compliance Matrix: (Units=1/GPa)
#
#
# Indices 1 2 3 4 5 6 
#
# 1 0.109522 0.002425 0.023054 0.035911 -0.091037 -0.086402
# 2 0.002425 0.009279 0.003215 0.004475 -0.004553 -0.012960
# 3 0.023054 0.003215 0.034990 0.025098 -0.036445 -0.042934
# 4 0.035911 0.004475 0.025098 0.056164 -0.045472 -0.045574
# 5 -0.091037 -0.004553 -0.036445 -0.045472 0.122098 0.087350
# 6 -0.086402 -0.012960 -0.042934 -0.045574 0.087350 0.130797
#
#
# Mechanical properties :
#
#
# Convention : Reuss Voigt Hill
#
# Bulk Modulus (GPa) = 4.73533 38.91182 21.82357
# Shear Modulus (GPa) = 10.50745 30.19061 20.34903
#
# Velocity S-wave (km/s) = 2.27432 3.85512 3.16500
# Velocity P-wave (km/s) = 3.03772 6.24268 4.90912
#
# Compressibility (1/GPa) = 0.21117872
#
# Stress axis : x y z
#
# Youngs Moduli (GPa) = 9.13062 107.77223 28.57994
#
# Poissons Ratio (x) = -0.26134 -0.65888
# Poissons Ratio (y) = -0.02214 -0.09190
# Poissons Ratio (z) = -0.21050 -0.34653
#
# Static dielectric constant tensor:
#      x y z
#    x 1.745590 0.020140 -0.011550 
#    y 0.020140 1.708420 0.039740 
#    z -0.011550 0.039740 1.585370 
# 
# From -- ./inp_files/357927.got.cif
#   From: 2010.05.17/outbox.cif.g08.bks.cpg/sg2_179_cif.got.tgz:357927.got - 2010.06.03 11:33:40.
