data_PCOD9108040
_publ_section_title
;
Structure prediction by ZEFSAII (Michael W. Deem and Ramdas Pophale) SiO2 
 PCOD9108040
Probable space group: P -1
;
_chemical_formula_sum "Si O2"
_cell_formula_units_Z 16
_cell_length_a 18.783597
_cell_length_b 14.897463
_cell_length_c 5.311135
_cell_angle_alpha 96.765850
_cell_angle_beta 108.199656
_cell_angle_gamma 28.939321
_cell_volume 642.886997
_symmetry_space_group_name_H-M "P -1"
_symmetry_group_IT_number 2
_symmetry_cell_setting 'triclinic'
loop_
_space_group_symop_operation_xyz
x,y,z
-x,-y,-z
loop_
_atom_site_type_symbol
_atom_site_label
_atom_site_fract_x
_atom_site_fract_y
_atom_site_fract_z
Si Si1 0.368860 0.600160 0.191143
Si Si2 0.689923 0.799284 0.051688
Si Si3 0.441459 0.288511 0.512547
Si Si4 0.088926 0.183753 0.887012
Si Si5 0.865420 0.293878 0.952853
Si Si6 0.382782 0.764122 0.977147
Si Si7 0.191726 0.498484 0.680929
Si Si8 0.734197 0.858651 0.601884
O O1 0.500000 0.500000 0.500000
O O2 0.198300 0.740176 0.142163
O O3 0.331625 0.718292 0.986888
O O4 0.469448 0.411185 0.107752
O O5 0.779998 0.606250 0.109699
O O6 0.777193 0.766194 0.355606
O O7 0.707497 0.819201 0.796015
O O8 0.500000 0.000000 0.000000
O O9 0.283333 0.492846 0.268301
O O10 0.543364 0.265240 0.708852
O O11 0.367732 0.318343 0.685028
O O12 0.561038 0.093641 0.440632
O O13 0.023283 0.162835 0.943653
O O14 0.947184 0.379786 0.630055
O O15 0.149974 0.188281 0.167174
O O16 0.238442 0.986564 0.815204
O O17 0.865727 0.339869 0.242303
#
# Coordination Sequence:
#
# PCOD9108040 Si02
#       8
#     2   2   2   2   2   2   2   2
#     4  11  22  40  72 100 127 171 230 287 340 411
#     4  12  25  43  72 106 138 183 244 301 343 405
#     4  10  20  40  66  95 131 176 228 283 339 411
#     4  10  27  44  64  99 142 185 221 278 361 419
#     4  11  23  42  67  98 134 179 230 280 350 419
#     4  10  22  42  65 100 131 170 227 282 345 416
#     4  11  24  41  66  94 138 182 225 281 349 414
#     4  11  26  44  70 103 141 184 240 293 347 416
#
# _framework density 24.887732
#
# number of rings (size 3 to 8) (size 9 to 14) (size 15 to 20)
#    0.000    1.250    3.750    1.125    5.250    2.500 
#    0.000    1.250    0.000    0.000    0.000    0.000 
#    0.000    0.000    0.000    0.000    0.000    0.000 
#
# Total GULP energy -89469.441440 kJ/mol
# GULP energy per Si atom -5591.840090 kJ/mol
# Density = 2.483109 g / cm^3
# Si number density = 24.887732 Si / 1000 Ang^3
#
#
#
# Elastic Constant Matrix: (Units=GPa)
#
#
# Indices 1 2 3 4 5 6 
#
# 1 99.1218 12.6061 7.0313 -5.5181 4.2097 -9.2374
# 2 12.6061 58.8778 -5.9174 -2.7114 6.9322 4.0003
# 3 7.0313 -5.9174 62.8825 0.6358 13.9104 4.3434
# 4 -5.5181 -2.7114 0.6358 32.2833 0.6187 5.5615
# 5 4.2097 6.9322 13.9104 0.6187 33.1192 2.9100
# 6 -9.2374 4.0003 4.3434 5.5615 2.9100 23.7528
#
#
#
# Elastic Compliance Matrix: (Units=1/GPa)
#
#
# Indices 1 2 3 4 5 6 
#
# 1 0.011100 -0.002784 -0.001733 0.000852 -0.000553 0.004971
# 2 -0.002784 0.018888 0.003429 0.001955 -0.004657 -0.004778
# 3 -0.001733 0.003429 0.018425 0.000427 -0.007914 -0.003751
# 4 0.000852 0.001955 0.000427 0.032604 -0.000635 -0.007632
# 5 -0.000553 -0.004657 -0.007914 -0.000635 0.034759 -0.002093
# 6 0.004971 -0.004778 -0.003751 -0.007632 -0.002093 0.047567
#
#
# Mechanical properties :
#
#
# Convention : Reuss Voigt Hill
#
# Bulk Modulus (GPa) = 21.62775 27.59135 24.60955
# Shear Modulus (GPa) = 27.63492 31.64187 29.63839
#
# Velocity S-wave (km/s) = 3.33586 3.56952 3.45466
# Velocity P-wave (km/s) = 4.85245 5.30085 5.08160
#
# Compressibility (1/GPa) = 0.04623690
#
# Stress axis : x y z
#
# Youngs Moduli (GPa) = 90.09242 52.94377 54.27515
#
# Poissons Ratio (x) = 0.14740 0.09404
# Poissons Ratio (y) = 0.25082 -0.18611
# Poissons Ratio (z) = 0.15611 -0.18155
#
# Static dielectric constant tensor:
#      x y z
#    x 2.061410 -0.035850 0.010700 
#    y -0.035850 1.944160 0.020680 
#    z 0.010700 0.020680 2.073120 
# 
# From -- ./inp_files/46507.got.cif
#   From: 2010.05.17/outbox.cif.g08.bks.cpg/sg2_24_cif.got.tgz:46507.got - 2010.06.03 11:33:40.
