data_PCOD9108497
_publ_section_title
;
Structure prediction by ZEFSAII (Michael W. Deem and Ramdas Pophale) SiO2 
 PCOD9108497
Probable space group: P -1
;
_chemical_formula_sum "Si O2"
_cell_formula_units_Z 15
_cell_length_a 15.543705
_cell_length_b 8.977077
_cell_length_c 9.294463
_cell_angle_alpha 121.779821
_cell_angle_beta 54.313307
_cell_angle_gamma 144.013107
_cell_volume 614.899712
_symmetry_space_group_name_H-M "P -1"
_symmetry_group_IT_number 2
_symmetry_cell_setting 'triclinic'
loop_
_space_group_symop_operation_xyz
x,y,z
-x,-y,-z
loop_
_atom_site_type_symbol
_atom_site_label
_atom_site_fract_x
_atom_site_fract_y
_atom_site_fract_z
Si Si1 0.162325 0.728893 0.198242
Si Si2 0.104326 0.006041 0.501076
Si Si3 0.565974 0.066060 0.132141
Si Si4 0.906033 0.677983 0.776167
Si Si5 0.145655 0.993048 0.960796
Si Si6 0.512575 0.681667 0.185558
Si Si7 0.397520 0.526647 0.539963
Si Si8 0.000000 0.500000 0.000000
O O1 0.181948 0.603336 0.233632
O O2 0.991388 0.524295 0.196321
O O3 0.211507 0.982893 0.315646
O O4 0.251662 0.765501 0.985939
O O5 0.219439 0.265888 0.610770
O O6 0.000000 0.000000 0.500000
O O7 0.990480 0.757029 0.584211
O O8 0.558602 0.239141 0.309034
O O9 0.490775 0.825801 0.180481
O O10 0.500000 0.000000 0.000000
O O11 0.823677 0.767665 0.900436
O O12 0.038715 0.864531 0.860388
O O13 0.309988 0.104740 0.827448
O O14 0.056579 0.775477 0.057697
O O15 0.415813 0.558083 0.364470
O O16 0.500000 0.500000 0.000000
O O17 0.500000 0.500000 0.500000
#
# Coordination Sequence:
#
# PCOD9108497 Si02
#       8
#     2   2   2   2   2   2   2   1
#     4  11  24  43  69 103 141 186 239 302 372 440
#     4  12  27  44  72 109 148 189 249 314 377 446
#     4  12  28  48  75 105 146 200 257 309 378 450
#     4  10  24  39  70 102 142 184 242 296 376 432
#     4  10  22  41  69 103 136 189 237 299 362 450
#     4  12  26  46  75 107 152 194 250 309 380 453
#     4  12  29  50  74 109 153 202 253 314 377 458
#     4  10  20  40  68  98 136 178 228 294 354 432
#
# _framework density 24.394221999999999
#
# number of rings (size 3 to 8) (size 9 to 14) (size 15 to 20)
#    0.000    0.800    1.333    4.800   13.067    0.000 
#    0.000    2.667    0.000    0.000    0.000    0.000 
#    0.000    0.000    0.000    0.000    0.000    0.000 
#
# Total GULP energy -83694.074908 kJ/mol
# GULP energy per Si atom -5579.604994 kJ/mol
# Density = 2.433870 g / cm^3
# Si number density = 24.394222 Si / 1000 Ang^3
#
#
#
# Elastic Constant Matrix: (Units=GPa)
#
#
# Indices 1 2 3 4 5 6 
#
# 1 126.5564 54.3118 30.6317 8.3374 2.5667 -34.0183
# 2 54.3118 134.3263 43.5301 14.9778 3.5340 -47.1866
# 3 30.6317 43.5301 113.1240 14.1165 10.4817 -33.5915
# 4 8.3374 14.9778 14.1165 51.4105 -7.7295 -0.4957
# 5 2.5667 3.5340 10.4817 -7.7295 31.4999 -4.5289
# 6 -34.0183 -47.1866 -33.5915 -0.4957 -4.5289 52.9608
#
#
#
# Elastic Compliance Matrix: (Units=1/GPa)
#
#
# Indices 1 2 3 4 5 6 
#
# 1 0.010218 -0.002461 -0.000531 -0.000753 0.000015 0.004028
# 2 -0.002461 0.012075 -0.001108 -0.002771 -0.000254 0.008427
# 3 -0.000531 -0.001108 0.011929 -0.003379 -0.003785 0.005882
# 4 -0.000753 -0.002771 -0.003379 0.022217 0.006323 -0.004348
# 5 0.000015 -0.000254 -0.003785 0.006323 0.034643 0.000404
# 6 0.004028 0.008427 0.005882 -0.004348 0.000404 0.032703
#
#
# Mechanical properties :
#
#
# Convention : Reuss Voigt Hill
#
# Bulk Modulus (GPa) = 38.42921 70.10600 54.26761
# Shear Modulus (GPa) = 35.54691 43.54309 39.54500
#
# Velocity S-wave (km/s) = 3.82145 4.22948 4.03063
# Velocity P-wave (km/s) = 5.93792 7.25620 6.62991
#
# Compressibility (1/GPa) = 0.02602187
#
# Stress axis : x y z
#
# Youngs Moduli (GPa) = 97.86302 82.81880 83.82715
#
# Poissons Ratio (x) = 0.20379 0.04453
# Poissons Ratio (y) = 0.24081 0.09291
# Poissons Ratio (z) = 0.05198 0.09179
#
# Static dielectric constant tensor:
#      x y z
#    x 1.826900 -0.074770 -0.039050 
#    y -0.074770 1.935870 0.011030 
#    z -0.039050 0.011030 2.041080 
# 
# From -- ./inp_files/327808.got.cif
#   From: 2010.05.17/outbox.cif.g08.bks.cpg/sg2_164_cif.got.tgz:327808.got - 2010.06.03 11:33:40.
