data_PCOD9108767
_publ_section_title
;
Structure prediction by ZEFSAII (Michael W. Deem and Ramdas Pophale) SiO2 
 PCOD9108767
Probable space group: P -1
;
_chemical_formula_sum "Si O2"
_cell_formula_units_Z 14
_cell_length_a 9.056235
_cell_length_b 14.435500
_cell_length_c 14.281343
_cell_angle_alpha 139.832823
_cell_angle_beta 40.307793
_cell_angle_gamma 149.928618
_cell_volume 573.044783
_symmetry_space_group_name_H-M "P -1"
_symmetry_group_IT_number 2
_symmetry_cell_setting 'triclinic'
loop_
_space_group_symop_operation_xyz
x,y,z
-x,-y,-z
loop_
_atom_site_type_symbol
_atom_site_label
_atom_site_fract_x
_atom_site_fract_y
_atom_site_fract_z
Si Si1 0.170505 0.369010 0.502941
Si Si2 0.788960 0.914059 0.129596
Si Si3 0.709990 0.058028 0.617162
Si Si4 0.808093 0.562303 0.667975
Si Si5 0.151859 0.901821 0.090328
Si Si6 0.152281 0.199247 0.657237
Si Si7 0.164104 0.477775 0.164916
O O1 0.500000 0.500000 0.500000
O O2 0.183119 0.355461 0.374199
O O3 0.889028 0.147631 0.502609
O O4 0.041912 0.470729 0.672988
O O5 0.607836 0.990890 0.270297
O O6 0.494867 0.684432 0.126807
O O7 0.042846 0.980432 0.135040
O O8 0.000000 0.000000 0.000000
O O9 0.975950 0.225462 0.689730
O O10 0.700938 0.887022 0.519258
O O11 0.439892 0.385861 0.715854
O O12 0.868436 0.619288 0.793172
O O13 0.000000 0.500000 0.500000
O O14 0.093312 0.932786 0.246241
O O15 0.966815 0.681957 0.974494
O O16 0.500000 0.000000 0.000000
#
# Coordination Sequence:
#
# PCOD9108767 Si02
#       7
#     2   2   2   2   2   2   2
#     4  10  20  40  71 108 135 175 238 293 350 413
#     4  11  24  47  71 104 144 184 236 295 358 421
#     4  10  24  44  69 104 143 178 234 308 341 420
#     4  10  21  40  68 101 134 187 226 282 362 416
#     4  12  27  47  71 101 140 198 240 285 368 429
#     4  11  23  44  69  99 144 187 236 284 362 425
#     4  10  24  47  69 100 147 187 234 292 358 435
#
# _framework density 24.430900999999999
#
# number of rings (size 3 to 8) (size 9 to 14) (size 15 to 20)
#    0.000    1.429    2.857    1.286    2.000    4.000 
#    2.571    7.857    0.000    0.000    0.000    0.000 
#    0.000    0.000    0.000    0.000    0.000    0.000 
#
# Total GULP energy -77970.528417 kJ/mol
# GULP energy per Si atom -5569.323458 kJ/mol
# Density = 2.437530 g / cm^3
# Si number density = 24.430901 Si / 1000 Ang^3
#
#
#
# Elastic Constant Matrix: (Units=GPa)
#
#
# Indices 1 2 3 4 5 6 
#
# 1 143.9324 61.7888 57.7612 -24.4683 -13.4726 10.7225
# 2 61.7888 80.4729 52.8075 -32.0559 -6.5052 3.4709
# 3 57.7612 52.8075 139.1776 -30.0474 -9.7885 0.7208
# 4 -24.4683 -32.0559 -30.0474 51.4148 1.7412 -2.3635
# 5 -13.4726 -6.5052 -9.7885 1.7412 47.4744 -16.3360
# 6 10.7225 3.4709 0.7208 -2.3635 -16.3360 41.0544
#
#
#
# Elastic Compliance Matrix: (Units=1/GPa)
#
#
# Indices 1 2 3 4 5 6 
#
# 1 0.010937 -0.007233 -0.001809 -0.000483 0.001143 -0.001786
# 2 -0.007233 0.024502 -0.004257 0.009362 0.000269 0.000538
# 3 -0.001809 -0.004257 0.010168 0.002442 0.001371 0.001340
# 4 -0.000483 0.009362 0.002442 0.026504 0.001111 0.001260
# 5 0.001143 0.000269 0.001371 0.001111 0.024992 0.009663
# 6 -0.001786 0.000538 0.001340 0.001260 0.009663 0.028673
#
#
# Mechanical properties :
#
#
# Convention : Reuss Voigt Hill
#
# Bulk Modulus (GPa) = 52.61277 78.69978 65.65628
# Shear Modulus (GPa) = 31.50365 40.73707 36.12036
#
# Velocity S-wave (km/s) = 3.59486 4.08786 3.84926
# Velocity P-wave (km/s) = 6.22999 7.38674 6.83289
#
# Compressibility (1/GPa) = 0.01900679
#
# Stress axis : x y z
#
# Youngs Moduli (GPa) = 91.43392 40.81311 98.34765
#
# Poissons Ratio (x) = 0.29522 0.17793
# Poissons Ratio (y) = 0.66138 0.41871
# Poissons Ratio (z) = 0.16542 0.17376
#
# Static dielectric constant tensor:
#      x y z
#    x 2.155750 -0.072660 0.003010 
#    y -0.072660 2.144760 0.134280 
#    z 0.003010 0.134280 1.957050 
# 
# From -- ./inp_files/245653.got.cif
#   From: 2010.05.17/outbox.cif.g08.bks.cpg/sg2_123_cif.got.tgz:245653.got - 2010.06.03 11:33:40.
