data_PCOD9108228
_publ_section_title
;
Structure prediction by ZEFSAII (Michael W. Deem and Ramdas Pophale) SiO2 
 PCOD9108228
Probable space group: P -1
;
_chemical_formula_sum "Si O2"
_cell_formula_units_Z 14
_cell_length_a 20.621391
_cell_length_b 11.046087
_cell_length_c 7.863308
_cell_angle_alpha 119.883984
_cell_angle_beta 40.661217
_cell_angle_gamma 148.184503
_cell_volume 556.632505
_symmetry_space_group_name_H-M "P -1"
_symmetry_group_IT_number 2
_symmetry_cell_setting 'triclinic'
loop_
_space_group_symop_operation_xyz
x,y,z
-x,-y,-z
loop_
_atom_site_type_symbol
_atom_site_label
_atom_site_fract_x
_atom_site_fract_y
_atom_site_fract_z
Si Si1 0.310617 0.108398 0.468387
Si Si2 0.199887 0.278759 0.842264
Si Si3 0.019534 0.572994 0.707037
Si Si4 0.748439 0.045550 0.900370
Si Si5 0.507173 0.205281 0.471350
Si Si6 0.634552 0.198787 0.711212
Si Si7 0.905588 0.754924 0.601874
O O1 0.322413 0.287716 0.562489
O O2 0.434447 0.192933 0.431048
O O3 0.101351 0.822333 0.729892
O O4 0.332175 0.064468 0.207107
O O5 0.284042 0.509251 0.740106
O O6 0.185012 0.298434 0.082321
O O7 0.000000 0.000000 0.000000
O O8 0.185806 0.681515 0.527972
O O9 0.000000 0.500000 0.500000
O O10 0.835563 0.298004 0.953211
O O11 0.921159 0.143535 0.636356
O O12 0.599337 0.848389 0.201008
O O13 0.467611 0.995710 0.375871
O O14 0.735326 0.465184 0.662726
O O15 0.500000 0.000000 0.000000
O O16 0.000000 0.000000 0.500000
#
# Coordination Sequence:
#
# PCOD9108228 Si02
#       7
#     2   2   2   2   2   2   2
#     4  10  21  40  66  94 133 174 218 274 327 399
#     4  12  24  43  63  95 136 179 213 272 347 395
#     4   8  18  35  63  91 124 170 213 263 329 387
#     4  10  21  42  65  99 130 172 223 276 324 404
#     4  11  24  41  70  97 127 178 231 269 336 399
#     4  10  20  40  67  93 132 173 219 274 331 392
#     4  11  23  41  68  99 137 175 222 274 338 397
#
# _framework density 25.151246
#
# number of rings (size 3 to 8) (size 9 to 14) (size 15 to 20)
#    0.000    1.714    2.857    1.286    0.000    6.857 
#    2.571    0.000    0.000    9.429    0.000    0.000 
#    0.000    0.000    0.000    0.000    0.000    0.000 
#
# Total GULP energy -78146.201923 kJ/mol
# GULP energy per Si atom -5581.871566 kJ/mol
# Density = 2.509400 g / cm^3
# Si number density = 25.151246 Si / 1000 Ang^3
#
#
#
# Elastic Constant Matrix: (Units=GPa)
#
#
# Indices 1 2 3 4 5 6 
#
# 1 75.9728 37.8904 32.2758 -11.9647 1.1989 6.4938
# 2 37.8904 194.3268 51.8453 -26.8293 6.0221 -12.9630
# 3 32.2758 51.8453 136.4812 -25.5395 27.7026 7.9420
# 4 -11.9647 -26.8293 -25.5395 45.3699 1.4541 0.6279
# 5 1.1989 6.0221 27.7026 1.4541 33.3393 -6.6971
# 6 6.4938 -12.9630 7.9420 0.6279 -6.6971 34.0761
#
#
#
# Elastic Compliance Matrix: (Units=1/GPa)
#
#
# Indices 1 2 3 4 5 6 
#
# 1 0.015988 -0.002472 -0.002735 0.001211 0.001472 -0.003083
# 2 -0.002472 0.006659 -0.002020 0.002059 0.001213 0.003675
# 3 -0.002735 -0.002020 0.012331 0.005457 -0.011107 -0.005404
# 4 0.001211 0.002059 0.005457 0.026897 -0.006628 -0.002517
# 5 0.001472 0.001213 -0.011107 -0.006628 0.041458 0.011039
# 6 -0.003083 0.003675 -0.005404 -0.002517 0.011039 0.034807
#
#
# Mechanical properties :
#
#
# Convention : Reuss Voigt Hill
#
# Bulk Modulus (GPa) = 48.72073 72.31154 60.51613
# Shear Modulus (GPa) = 31.36096 41.54169 36.45132
#
# Velocity S-wave (km/s) = 3.53497 4.06849 3.81108
# Velocity P-wave (km/s) = 6.00621 7.13325 6.59385
#
# Compressibility (1/GPa) = 0.02052515
#
# Stress axis : x y z
#
# Youngs Moduli (GPa) = 62.54613 150.18142 81.09741
#
# Poissons Ratio (x) = 0.37123 0.22179
# Poissons Ratio (y) = 0.15461 0.16378
# Poissons Ratio (z) = 0.17105 0.30330
#
# Static dielectric constant tensor:
#      x y z
#    x 2.015400 -0.017850 0.014550 
#    y -0.017850 2.127320 0.030950 
#    z 0.014550 0.030950 1.999150 
# 
# From -- ./inp_files/265967.got.cif
#   From: 2010.05.17/outbox.cif.g08.bks.cpg/sg2_133_cif.got.tgz:265967.got - 2010.06.03 11:33:40.
