data_PCOD9108777
_publ_section_title
;
Structure prediction by ZEFSAII (Michael W. Deem and Ramdas Pophale) SiO2 
 PCOD9108777
Probable space group: P -1
;
_chemical_formula_sum "Si O2"
_cell_formula_units_Z 15
_cell_length_a 13.317564
_cell_length_b 11.322813
_cell_length_c 8.353607
_cell_angle_alpha 84.139993
_cell_angle_beta 74.050697
_cell_angle_gamma 34.862924
_cell_volume 674.655374
_symmetry_space_group_name_H-M "P -1"
_symmetry_group_IT_number 2
_symmetry_cell_setting 'triclinic'
loop_
_space_group_symop_operation_xyz
x,y,z
-x,-y,-z
loop_
_atom_site_type_symbol
_atom_site_label
_atom_site_fract_x
_atom_site_fract_y
_atom_site_fract_z
Si Si1 0.738115 0.549967 0.431091
Si Si2 0.928786 0.662206 0.881551
Si Si3 0.209916 0.778153 0.991433
Si Si4 0.500000 0.000000 0.500000
Si Si5 0.393871 0.140958 0.188677
Si Si6 0.618714 0.137876 0.017657
Si Si7 0.501467 0.637116 0.282563
Si Si8 0.179477 0.761466 0.383861
O O1 0.663991 0.745602 0.498728
O O2 0.564648 0.649745 0.406389
O O3 0.818218 0.375798 0.539904
O O4 0.900170 0.426469 0.252285
O O5 0.815617 0.703361 0.781168
O O6 0.000000 0.500000 0.000000
O O7 0.790575 0.885987 0.995670
O O8 0.196848 0.750973 0.185693
O O9 0.331367 0.784726 0.934353
O O10 0.317548 0.586099 0.856576
O O11 0.000000 0.000000 0.000000
O O12 0.501115 0.023160 0.689337
O O13 0.440013 0.238431 0.151819
O O14 0.500000 0.000000 0.000000
O O15 0.594546 0.189293 0.833422
O O16 0.358194 0.667106 0.380761
O O17 0.000000 0.000000 0.500000
#
# Coordination Sequence:
#
# PCOD9108777 Si02
#       8
#     2   2   2   1   2   2   2   2
#     4  12  25  44  69 103 144 178 236 300 363 424
#     4  11  22  43  69 102 137 194 241 291 364 430
#     4  11  24  42  69 108 135 186 243 284 368 449
#     4  12  28  44  68 106 140 190 250 286 372 424
#     4  10  23  45  69  95 139 188 239 294 358 432
#     4  10  20  40  71  94 136 180 237 290 348 433
#     4  11  23  44  74  99 138 194 232 291 368 442
#     4  11  24  44  69 107 146 181 235 303 366 427
#
# _framework density 22.233573
#
# number of rings (size 3 to 8) (size 9 to 14) (size 15 to 20)
#    0.000    1.067    0.000    9.200    3.733    0.533 
#    2.400    0.000    0.000    0.000    0.000    0.000 
#    0.000    0.000    0.000    0.000    0.000    0.000 
#
# Total GULP energy -83644.214163 kJ/mol
# GULP energy per Si atom -5576.280944 kJ/mol
# Density = 2.218297 g / cm^3
# Si number density = 22.233573 Si / 1000 Ang^3
#
#
#
# Elastic Constant Matrix: (Units=GPa)
#
#
# Indices 1 2 3 4 5 6 
#
# 1 57.8190 6.1971 10.1675 -16.8825 -25.3457 -3.9608
# 2 6.1971 122.6502 21.3089 -5.2200 -11.3197 20.7790
# 3 10.1675 21.3089 54.5396 -7.2190 -17.4596 6.3068
# 4 -16.8825 -5.2200 -7.2190 52.7665 6.5428 0.8029
# 5 -25.3457 -11.3197 -17.4596 6.5428 24.7015 1.1679
# 6 -3.9608 20.7790 6.3068 0.8029 1.1679 37.9347
#
#
#
# Elastic Compliance Matrix: (Units=1/GPa)
#
#
# Indices 1 2 3 4 5 6 
#
# 1 0.035647 0.000902 0.006592 0.007470 0.039634 0.000754
# 2 0.000902 0.009705 -0.002012 0.000548 0.004043 -0.005023
# 3 0.006592 -0.002012 0.026271 0.002594 0.023883 -0.003367
# 4 0.007470 0.000548 0.002594 0.021244 0.004148 -0.000529
# 5 0.039634 0.004043 0.023883 0.004148 0.099031 -0.005183
# 6 0.000754 -0.005023 -0.003367 -0.000529 -0.005183 0.029922
#
#
# Mechanical properties :
#
#
# Convention : Reuss Voigt Hill
#
# Bulk Modulus (GPa) = 12.10870 34.48398 23.29634
# Shear Modulus (GPa) = 20.97448 36.23623 28.60536
#
# Velocity S-wave (km/s) = 3.07476 4.04146 3.59079
# Velocity P-wave (km/s) = 4.25012 6.10912 5.26236
#
# Compressibility (1/GPa) = 0.08258524
#
# Stress axis : x y z
#
# Youngs Moduli (GPa) = 28.05321 103.04216 38.06509
#
# Poissons Ratio (x) = -0.09293 -0.25092
# Poissons Ratio (y) = -0.02530 0.07659
# Poissons Ratio (z) = -0.18492 0.20734
#
# Static dielectric constant tensor:
#      x y z
#    x 1.790840 -0.038000 0.000760 
#    y -0.038000 1.790400 -0.031600 
#    z 0.000760 -0.031600 1.859430 
# 
# From -- ./inp_files/307293.got.cif
#   From: 2010.05.17/outbox.cif.g08.bks.cpg/sg2_154_cif.got.tgz:307293.got - 2010.06.03 11:33:40.
