data_PCOD9108680
_publ_section_title
;
Structure prediction by ZEFSAII (Michael W. Deem and Ramdas Pophale) SiO2 
 PCOD9108680
Probable space group: P -1
;
_chemical_formula_sum "Si O2"
_cell_formula_units_Z 12
_cell_length_a 17.380893
_cell_length_b 11.226887
_cell_length_c 13.862680
_cell_angle_alpha 149.287950
_cell_angle_beta 147.560793
_cell_angle_gamma 22.629309
_cell_volume 513.788943
_symmetry_space_group_name_H-M "P -1"
_symmetry_group_IT_number 2
_symmetry_cell_setting 'triclinic'
loop_
_space_group_symop_operation_xyz
x,y,z
-x,-y,-z
loop_
_atom_site_type_symbol
_atom_site_label
_atom_site_fract_x
_atom_site_fract_y
_atom_site_fract_z
Si Si1 0.098486 0.570706 0.080896
Si Si2 0.495627 0.692707 0.717050
Si Si3 0.823019 0.142678 0.047553
Si Si4 0.247059 0.892461 0.265958
Si Si5 0.949464 0.915647 0.484568
Si Si6 0.692897 0.683806 0.423426
O O1 0.345740 0.279138 0.115799
O O2 0.935273 0.794157 0.976684
O O3 0.090287 0.831926 0.305590
O O4 0.000000 0.500000 0.000000
O O5 0.500000 0.500000 0.500000
O O6 0.588479 0.447750 0.736413
O O7 0.250127 0.013483 0.692823
O O8 0.683832 0.461243 0.194010
O O9 0.723888 0.188575 0.873382
O O10 0.019913 0.073536 0.180827
O O11 0.260321 0.150885 0.480371
O O12 0.132271 0.562271 0.482456
O O13 0.000000 0.000000 0.500000
O O14 0.500000 0.000000 0.500000
#
# Coordination Sequence:
#
# PCOD9108680 Si02
#       6
#     2   2   2   2   2   2
#     4   9  19  37  65  94 132 168 210 277 334 392
#     4   9  19  39  67  95 127 171 217 270 338 401
#     4   9  21  39  64  98 127 168 224 274 322 403
#     4  10  20  40  70  91 131 168 217 278 334 394
#     4  10  21  38  63  93 129 166 221 269 322 405
#     4  11  23  39  66  94 129 178 220 268 335 392
#
# _framework density 23.355892999999998
#
# number of rings (size 3 to 8) (size 9 to 14) (size 15 to 20)
#    0.000    2.333    0.000    2.500    2.333    0.667 
#    0.000    0.833   14.667    0.000    0.000    0.000 
#    0.000    0.000    0.000    0.000    0.000    0.000 
#
# Total GULP energy -67028.748343 kJ/mol
# GULP energy per Si atom -5585.729029 kJ/mol
# Density = 2.330273 g / cm^3
# Si number density = 23.355893 Si / 1000 Ang^3
#
#
#
# Elastic Constant Matrix: (Units=GPa)
#
#
# Indices 1 2 3 4 5 6 
#
# 1 122.8818 52.7831 34.4594 -18.2003 7.2552 4.5591
# 2 52.7831 144.5754 47.1244 -15.8457 5.3928 -8.1856
# 3 34.4594 47.1244 117.9645 -13.6948 -5.3138 -0.1012
# 4 -18.2003 -15.8457 -13.6948 26.0597 3.6935 -9.2613
# 5 7.2552 5.3928 -5.3138 3.6935 55.8021 -2.4721
# 6 4.5591 -8.1856 -0.1012 -9.2613 -2.4721 33.8233
#
#
#
# Elastic Compliance Matrix: (Units=1/GPa)
#
#
# Indices 1 2 3 4 5 6 
#
# 1 0.010622 -0.002864 -0.001475 0.004797 -0.001603 -0.000933
# 2 -0.002864 0.009446 -0.002528 0.003836 -0.000873 0.003651
# 3 -0.001475 -0.002528 0.010305 0.002845 0.001251 0.000488
# 4 0.004797 0.003836 0.002845 0.051023 -0.003480 0.014007
# 5 -0.001603 -0.000873 0.001251 -0.003480 0.018581 0.000414
# 6 -0.000933 0.003651 0.000488 0.014007 0.000414 0.034442
#
#
# Mechanical properties :
#
#
# Convention : Reuss Voigt Hill
#
# Bulk Modulus (GPa) = 60.09926 72.68395 66.39160
# Shear Modulus (GPa) = 32.53138 39.87401 36.20269
#
# Velocity S-wave (km/s) = 3.73615 4.13635 3.94133
# Velocity P-wave (km/s) = 6.66330 7.34849 7.01426
#
# Compressibility (1/GPa) = 0.01663914
#
# Stress axis : x y z
#
# Youngs Moduli (GPa) = 94.14749 105.86200 97.04385
#
# Poissons Ratio (x) = 0.30324 0.14310
# Poissons Ratio (y) = 0.26968 0.24529
# Poissons Ratio (z) = 0.13883 0.26758
#
# Static dielectric constant tensor:
#      x y z
#    x 2.026780 -0.077060 -0.064690 
#    y -0.077060 1.919910 0.005410 
#    z -0.064690 0.005410 1.921850 
# 
# From -- ./inp_files/160594.got.cif
#   From: 2010.05.17/outbox.cif.g08.bks.cpg/sg2_81_cif.got.tgz:160594.got - 2010.06.03 11:33:40.
