data_PCOD9108616
_publ_section_title
;
Structure prediction by ZEFSAII (Michael W. Deem and Ramdas Pophale) SiO2 
 PCOD9108616
Probable space group: P -1
;
_chemical_formula_sum "Si O2"
_cell_formula_units_Z 14
_cell_length_a 8.962743
_cell_length_b 21.692721
_cell_length_c 10.926706
_cell_angle_alpha 35.002910
_cell_angle_beta 68.474911
_cell_angle_gamma 41.052620
_cell_volume 597.198341
_symmetry_space_group_name_H-M "P -1"
_symmetry_group_IT_number 2
_symmetry_cell_setting 'triclinic'
loop_
_space_group_symop_operation_xyz
x,y,z
-x,-y,-z
loop_
_atom_site_type_symbol
_atom_site_label
_atom_site_fract_x
_atom_site_fract_y
_atom_site_fract_z
Si Si1 0.779028 0.521439 0.531151
Si Si2 0.231522 0.154175 0.152979
Si Si3 0.878265 0.482190 0.164012
Si Si4 0.253805 0.552012 0.963911
Si Si5 0.424775 0.821425 0.934565
Si Si6 0.818108 0.102079 0.760066
Si Si7 0.486154 0.179515 0.548467
O O1 0.585563 0.643939 0.267016
O O2 0.514090 0.667131 0.476322
O O3 0.000000 0.500000 0.500000
O O4 0.009378 0.300118 0.866483
O O5 0.455906 0.128519 0.144084
O O6 0.031109 0.269792 0.148943
O O7 0.398427 0.951442 0.391107
O O8 0.572597 0.701075 0.958946
O O9 0.149221 0.322824 0.441397
O O10 0.838923 0.398779 0.231024
O O11 0.000000 0.500000 0.000000
O O12 0.421464 0.341796 0.277155
O O13 0.500000 0.500000 0.000000
O O14 0.062621 0.019382 0.732181
O O15 0.717721 0.050144 0.803470
O O16 0.000000 0.000000 0.000000
#
# Coordination Sequence:
#
# PCOD9108616 Si02
#       7
#     2   2   2   2   2   2   2
#     4   9  18  40  68  94 137 178 212 279 339 399
#     4  11  22  42  69  98 136 185 221 282 349 401
#     4  10  21  45  67  94 136 183 228 274 336 408
#     4  11  25  45  68  96 138 178 234 290 335 396
#     4  10  20  40  69  99 138 178 227 284 336 400
#     4  10  21  40  68 102 140 173 228 284 330 406
#     4  11  23  43  67  98 133 176 234 269 347 412
#
# _framework density 23.442796999999999
#
# number of rings (size 3 to 8) (size 9 to 14) (size 15 to 20)
#    0.000    1.714    4.286    0.857    2.000    2.286 
#    2.571   15.714    0.000    0.000    0.000    0.000 
#    0.000    0.000    0.000    0.000    0.000    0.000 
#
# Total GULP energy -78051.918182 kJ/mol
# GULP energy per Si atom -5575.137013 kJ/mol
# Density = 2.338944 g / cm^3
# Si number density = 23.442797 Si / 1000 Ang^3
#
#
#
# Elastic Constant Matrix: (Units=GPa)
#
#
# Indices 1 2 3 4 5 6 
#
# 1 146.6116 45.3847 34.1625 -20.0829 24.4214 10.8296
# 2 45.3847 133.3087 39.3588 -34.6062 -6.2610 -4.6459
# 3 34.1625 39.3588 81.9550 -20.3080 3.4918 2.9557
# 4 -20.0829 -34.6062 -20.3080 41.5835 8.8168 10.3080
# 5 24.4214 -6.2610 3.4918 8.8168 38.3402 -13.2805
# 6 10.8296 -4.6459 2.9557 10.3080 -13.2805 43.3707
#
#
#
# Elastic Compliance Matrix: (Units=1/GPa)
#
#
# Indices 1 2 3 4 5 6 
#
# 1 0.011683 -0.002570 -0.000776 0.008046 -0.012743 -0.008954
# 2 -0.002570 0.010829 -0.003029 0.005215 0.003075 0.001710
# 3 -0.000776 -0.003029 0.016054 0.006967 -0.004544 -0.004272
# 4 0.008046 0.005215 0.006967 0.045151 -0.022009 -0.019396
# 5 -0.012743 0.003075 -0.004544 -0.022009 0.048450 0.023888
# 6 -0.008954 0.001710 -0.004272 -0.019396 0.023888 0.037692
#
#
# Mechanical properties :
#
#
# Convention : Reuss Voigt Hill
#
# Bulk Modulus (GPa) = 38.73803 66.63192 52.68497
# Shear Modulus (GPa) = 26.14846 40.85683 33.50265
#
# Velocity S-wave (km/s) = 3.34341 4.17925 3.78448
# Velocity P-wave (km/s) = 5.60935 7.19535 6.45128
#
# Compressibility (1/GPa) = 0.02581443
#
# Stress axis : x y z
#
# Youngs Moduli (GPa) = 85.59196 92.34734 62.28847
#
# Poissons Ratio (x) = 0.23736 0.04835
# Poissons Ratio (y) = 0.22000 0.18870
# Poissons Ratio (z) = 0.06644 0.27976
#
# Static dielectric constant tensor:
#      x y z
#    x 1.984790 0.064090 0.096650 
#    y 0.064090 1.945170 0.080910 
#    z 0.096650 0.080910 2.034670 
# 
# From -- ./inp_files/325649.got.cif
#   From: 2010.05.17/outbox.cif.g08.bks.cpg/sg2_163_cif.got.tgz:325649.got - 2010.06.03 11:33:40.
