data_PCOD9108063
_publ_section_title
;
Structure prediction by ZEFSAII (Michael W. Deem and Ramdas Pophale) SiO2 
 PCOD9108063
Probable space group: P -1
;
_chemical_formula_sum "Si O2"
_cell_formula_units_Z 16
_cell_length_a 11.756638
_cell_length_b 15.070115
_cell_length_c 8.417257
_cell_angle_alpha 49.360291
_cell_angle_beta 115.076403
_cell_angle_gamma 140.702557
_cell_volume 706.672901
_symmetry_space_group_name_H-M "P -1"
_symmetry_group_IT_number 2
_symmetry_cell_setting 'triclinic'
loop_
_space_group_symop_operation_xyz
x,y,z
-x,-y,-z
loop_
_atom_site_type_symbol
_atom_site_label
_atom_site_fract_x
_atom_site_fract_y
_atom_site_fract_z
Si Si1 0.505250 0.599167 0.025030
Si Si2 0.354226 0.352652 0.458632
Si Si3 0.083407 0.566224 0.295989
Si Si4 0.518234 0.857632 0.846804
Si Si5 0.129318 0.189501 0.803068
Si Si6 0.122499 0.793176 0.489554
Si Si7 0.774257 0.160347 0.174309
Si Si8 0.511742 0.799729 0.272901
O O1 0.337847 0.444870 0.217093
O O2 0.694510 0.697226 0.113687
O O3 0.500000 0.500000 0.000000
O O4 0.496441 0.734181 0.855615
O O5 0.500000 0.500000 0.500000
O O6 0.182783 0.206239 0.632272
O O7 0.434003 0.286456 0.515923
O O8 0.296072 0.672900 0.306923
O O9 0.000000 0.500000 0.500000
O O10 0.959344 0.391154 0.332305
O O11 0.096627 0.694987 0.051816
O O12 0.342135 0.816333 0.831584
O O13 0.680733 0.050137 0.656163
O O14 0.561628 0.830799 0.077658
O O15 0.019112 0.235361 0.675767
O O16 0.000000 0.000000 0.000000
O O17 0.133228 0.843891 0.619005
O O18 0.625680 0.980039 0.208974
#
# Coordination Sequence:
#
# PCOD9108063 Si02
#       8
#     2   2   2   2   2   2   2   2
#     4  11  24  43  70 100 130 178 242 279 336 410
#     4  10  20  40  66  96 130 177 223 272 339 406
#     4  11  23  42  67 100 136 177 228 279 347 401
#     4  11  22  44  71  94 139 181 226 281 339 413
#     4  11  22  43  70  97 134 179 222 287 353 393
#     4  12  24  43  64  99 142 175 223 291 345 395
#     4  11  26  42  70 103 136 184 231 272 342 416
#     4  11  21  43  72  95 132 179 232 273 335 419
#
# _framework density 22.641311000000002
#
# number of rings (size 3 to 8) (size 9 to 14) (size 15 to 20)
#    0.000    1.000    3.750    5.250    3.500    0.000 
#    2.250    3.750    0.000    0.000    0.000    0.000 
#    0.000    0.000    0.000    0.000    0.000    0.000 
#
# Total GULP energy -89298.508609 kJ/mol
# GULP energy per Si atom -5581.156788 kJ/mol
# Density = 2.258978 g / cm^3
# Si number density = 22.641311 Si / 1000 Ang^3
#
#
#
# Elastic Constant Matrix: (Units=GPa)
#
#
# Indices 1 2 3 4 5 6 
#
# 1 59.5362 39.2287 23.4202 -6.9444 -2.3233 -9.3366
# 2 39.2287 112.2139 45.9325 -19.2151 -3.3677 -20.4806
# 3 23.4202 45.9325 115.3325 -39.1148 -22.2314 9.1018
# 4 -6.9444 -19.2151 -39.1148 34.5318 2.0336 4.1806
# 5 -2.3233 -3.3677 -22.2314 2.0336 44.4325 -2.2786
# 6 -9.3366 -20.4806 9.1018 4.1806 -2.2786 31.6354
#
#
#
# Elastic Compliance Matrix: (Units=1/GPa)
#
#
# Indices 1 2 3 4 5 6 
#
# 1 0.022609 -0.006215 -0.003894 -0.003782 -0.000848 0.004208
# 2 -0.006215 0.015205 -0.006206 -0.000902 -0.001734 0.009789
# 3 -0.003894 -0.006206 0.022182 0.022052 0.008706 -0.013836
# 4 -0.003782 -0.000902 0.022052 0.054002 0.007545 -0.014638
# 5 -0.000848 -0.001734 0.008706 0.007545 0.026187 -0.002989
# 6 0.004208 0.009789 -0.013836 -0.014638 -0.002989 0.044890
#
#
# Mechanical properties :
#
#
# Convention : Reuss Voigt Hill
#
# Bulk Modulus (GPa) = 36.54346 56.02724 46.28535
# Shear Modulus (GPa) = 22.04315 34.02003 28.03159
#
# Velocity S-wave (km/s) = 3.12361 3.88050 3.52244
# Velocity P-wave (km/s) = 5.40227 6.69903 6.08529
#
# Compressibility (1/GPa) = 0.02736468
#
# Stress axis : x y z
#
# Youngs Moduli (GPa) = 44.22984 65.76904 45.08172
#
# Poissons Ratio (x) = 0.40874 0.17557
# Poissons Ratio (y) = 0.27488 0.27979
# Poissons Ratio (z) = 0.17225 0.40818
#
# Static dielectric constant tensor:
#      x y z
#    x 1.922640 0.002900 0.040020 
#    y 0.002900 1.859560 0.019890 
#    z 0.040020 0.019890 2.017900 
# 
# From -- ./inp_files/271869.got.cif
#   From: 2010.05.17/outbox.cif.g08.bks.cpg/sg2_136_cif.got.tgz:271869.got - 2010.06.03 11:33:40.
