data_PCOD9108917
_publ_section_title
;
Structure prediction by ZEFSAII (Michael W. Deem and Ramdas Pophale) SiO2 
 PCOD9108917
Probable space group: P -1
;
_chemical_formula_sum "Si O2"
_cell_formula_units_Z 14
_cell_length_a 8.994615
_cell_length_b 7.165959
_cell_length_c 15.143926
_cell_angle_alpha 113.451033
_cell_angle_beta 139.730154
_cell_angle_gamma 77.538582
_cell_volume 572.435993
_symmetry_space_group_name_H-M "P -1"
_symmetry_group_IT_number 2
_symmetry_cell_setting 'triclinic'
loop_
_space_group_symop_operation_xyz
x,y,z
-x,-y,-z
loop_
_atom_site_type_symbol
_atom_site_label
_atom_site_fract_x
_atom_site_fract_y
_atom_site_fract_z
Si Si1 0.747899 0.932201 0.583350
Si Si2 0.398056 0.899009 0.719120
Si Si3 0.243938 0.129934 0.856972
Si Si4 0.909049 0.689518 0.446190
Si Si5 0.035961 0.878708 0.853534
Si Si6 0.461090 0.443954 0.151735
Si Si7 0.181324 0.789992 0.089391
O O1 0.784352 0.807414 0.487869
O O2 0.819043 0.803929 0.677365
O O3 0.500000 0.000000 0.500000
O O4 0.964273 0.120039 0.715781
O O5 0.486822 0.712180 0.776904
O O6 0.148741 0.822345 0.546734
O O7 0.345063 0.059688 0.799771
O O8 0.602367 0.022441 0.778300
O O9 0.365127 0.328880 0.998381
O O10 0.242309 0.934161 0.887166
O O11 0.706433 0.588491 0.271264
O O12 0.000000 0.500000 0.500000
O O13 0.003775 0.105616 0.919667
O O14 0.090581 0.757591 0.941489
O O15 0.276931 0.589263 0.127689
#
# Coordination Sequence:
#
# PCOD9108917 Si02
#       7
#     2   2   2   2   2   2   2
#     4   9  17  37  62  81 114 162 195 230 299 360
#     4  10  20  41  59  85 120 159 191 243 300 343
#     4   9  20  38  62  83 120 154 194 241 296 347
#     4   9  20  35  60  89 116 154 200 247 291 348
#     4   9  21  39  56  87 122 153 188 248 295 344
#     4  11  21  36  61  92 114 154 199 241 293 352
#     4  11  22  36  60  91 120 151 197 249 289 351
#
# _framework density 24.456880999999999
#
# number of rings (size 3 to 8) (size 9 to 14) (size 15 to 20)
#    0.857    1.429    1.429    1.286    0.000    1.714 
#    0.000    0.000    0.000    7.714    0.000    0.000 
#    0.000    0.000    0.000    0.000    0.000    0.000 
#
# Total GULP energy -78205.314687 kJ/mol
# GULP energy per Si atom -5586.093906 kJ/mol
# Density = 2.440122 g / cm^3
# Si number density = 24.456881 Si / 1000 Ang^3
#
#
#
# Elastic Constant Matrix: (Units=GPa)
#
#
# Indices 1 2 3 4 5 6 
#
# 1 64.0148 17.3779 19.7638 2.7146 11.3216 -4.6137
# 2 17.3779 135.8890 27.7098 -20.6337 1.1224 -0.6099
# 3 19.7638 27.7098 178.1548 3.1702 8.5873 -11.8874
# 4 2.7146 -20.6337 3.1702 32.3472 -10.9804 -3.7402
# 5 11.3216 1.1224 8.5873 -10.9804 22.8627 -14.7828
# 6 -4.6137 -0.6099 -11.8874 -3.7402 -14.7828 26.9715
#
#
#
# Elastic Compliance Matrix: (Units=1/GPa)
#
#
# Indices 1 2 3 4 5 6 
#
# 1 0.021367 -0.004605 -0.001027 -0.014707 -0.025322 -0.012820
# 2 -0.004605 0.010029 -0.001387 0.012337 0.013293 0.007824
# 3 -0.001027 -0.001387 0.006147 -0.001883 -0.001839 0.001233
# 4 -0.014707 0.012337 -0.001883 0.068781 0.069086 0.044337
# 5 -0.025322 0.013293 -0.001839 0.069086 0.143370 0.083318
# 6 -0.012820 0.007824 0.001233 0.044337 0.083318 0.087418
#
#
# Mechanical properties :
#
#
# Convention : Reuss Voigt Hill
#
# Bulk Modulus (GPa) = 42.54450 56.41797 49.48123
# Shear Modulus (GPa) = 13.92816 37.31676 25.62246
#
# Velocity S-wave (km/s) = 2.38901 3.91041 3.24027
# Velocity P-wave (km/s) = 5.00433 6.59597 5.85449
#
# Compressibility (1/GPa) = 0.02350480
#
# Stress axis : x y z
#
# Youngs Moduli (GPa) = 46.80201 99.70810 162.67369
#
# Poissons Ratio (x) = 0.45911 0.16712
# Poissons Ratio (y) = 0.21550 0.22568
# Poissons Ratio (z) = 0.04808 0.13833
#
# Static dielectric constant tensor:
#      x y z
#    x 1.939970 0.046590 0.021960 
#    y 0.046590 1.966180 -0.030590 
#    z 0.021960 -0.030590 2.039410 
# 
# From -- ./inp_files/609667.got.cif
#   From: 2010.05.17/outbox.cif.g08.bks.cpg/sg2_305_cif.got.tgz:609667.got - 2010.06.03 11:33:40.
