data_PCOD9108673
_publ_section_title
;
Structure prediction by ZEFSAII (Michael W. Deem and Ramdas Pophale) SiO2 
 PCOD9108673
Probable space group: P -1
;
_chemical_formula_sum "Si O2"
_cell_formula_units_Z 14
_cell_length_a 12.817048
_cell_length_b 12.099309
_cell_length_c 8.924536
_cell_angle_alpha 34.949793
_cell_angle_beta 53.833628
_cell_angle_gamma 43.117384
_cell_volume 541.779129
_symmetry_space_group_name_H-M "P -1"
_symmetry_group_IT_number 2
_symmetry_cell_setting 'triclinic'
loop_
_space_group_symop_operation_xyz
x,y,z
-x,-y,-z
loop_
_atom_site_type_symbol
_atom_site_label
_atom_site_fract_x
_atom_site_fract_y
_atom_site_fract_z
Si Si1 0.050991 0.376431 0.755604
Si Si2 0.258694 0.812633 0.936692
Si Si3 0.041457 0.795055 0.396262
Si Si4 0.502347 0.200281 0.687539
Si Si5 0.271025 0.480972 0.078262
Si Si6 0.635131 0.908410 0.337095
Si Si7 0.283014 0.639594 0.579399
O O1 0.054444 0.554108 0.663814
O O2 0.220713 0.174124 0.805320
O O3 0.000000 0.500000 0.500000
O O4 0.914537 0.346394 0.947289
O O5 0.383099 0.857108 0.854188
O O6 0.155117 0.786646 0.179123
O O7 0.330562 0.602580 0.998052
O O8 0.129513 0.027571 0.710652
O O9 0.113378 0.809214 0.473816
O O10 0.475249 0.144462 0.603775
O O11 0.375280 0.455040 0.572839
O O12 0.650806 0.208707 0.589412
O O13 0.500000 0.000000 0.000000
O O14 0.315051 0.248428 0.382282
O O15 0.305780 0.478291 0.879099
#
# Coordination Sequence:
#
# PCOD9108673 Si02
#       7
#     2   2   2   2   2   2   2
#     4  10  16  36  61  93 123 159 198 238 307 362
#     4  11  20  35  66  94 124 162 206 240 300 377
#     4  11  19  37  63  93 126 165 202 243 301 371
#     4  11  25  47  68  84 115 168 220 255 301 366
#     4  11  23  39  61  98 131 157 195 255 316 367
#     4  11  21  41  66  90 124 165 210 249 297 364
#     4  11  26  44  62  91 128 161 202 261 315 352
#
# _framework density 25.840789000000001
#
# number of rings (size 3 to 8) (size 9 to 14) (size 15 to 20)
#    0.000    1.143    7.143    1.714    0.000    4.000 
#    0.000    1.429    0.000    0.000    0.000    0.000 
#    0.000    0.000    0.000    0.000    0.000    0.000 
#
# Total GULP energy -78301.212108 kJ/mol
# GULP energy per Si atom -5592.943722 kJ/mol
# Density = 2.578197 g / cm^3
# Si number density = 25.840789 Si / 1000 Ang^3
#
#
#
# Elastic Constant Matrix: (Units=GPa)
#
#
# Indices 1 2 3 4 5 6 
#
# 1 203.3944 37.2156 46.2830 -1.6465 -11.9768 31.1799
# 2 37.2156 73.0651 12.3523 -8.7427 -11.5746 18.8259
# 3 46.2830 12.3523 82.6665 0.9355 10.7678 16.1795
# 4 -1.6465 -8.7427 0.9355 22.8925 10.2008 -7.2233
# 5 -11.9768 -11.5746 10.7678 10.2008 44.8456 -8.0861
# 6 31.1799 18.8259 16.1795 -7.2233 -8.0861 36.9872
#
#
#
# Elastic Compliance Matrix: (Units=1/GPa)
#
#
# Indices 1 2 3 4 5 6 
#
# 1 0.006527 -0.001947 -0.002950 -0.001977 0.001820 -0.003209
# 2 -0.001947 0.017004 -0.000702 0.003659 0.002212 -0.005508
# 3 -0.002950 -0.000702 0.015618 -0.000283 -0.005604 -0.005268
# 4 -0.001977 0.003659 -0.000283 0.051844 -0.009885 0.007892
# 5 0.001820 0.002212 -0.005604 -0.009885 0.027654 0.003907
# 6 -0.003209 -0.005508 -0.005268 0.007892 0.003907 0.037245
#
#
# Mechanical properties :
#
#
# Convention : Reuss Voigt Hill
#
# Bulk Modulus (GPa) = 35.77771 61.20310 48.49040
# Shear Modulus (GPa) = 28.34327 38.49672 33.42000
#
# Velocity S-wave (km/s) = 3.31545 3.86394 3.60016
# Velocity P-wave (km/s) = 5.34152 6.60627 6.00727
#
# Compressibility (1/GPa) = 0.02795036
#
# Stress axis : x y z
#
# Youngs Moduli (GPa) = 153.20308 58.80825 64.03004
#
# Poissons Ratio (x) = 0.11452 0.18890
# Poissons Ratio (y) = 0.29834 0.04495
# Poissons Ratio (z) = 0.45197 0.04129
#
# Static dielectric constant tensor:
#      x y z
#    x 2.077900 -0.031310 0.000630 
#    y -0.031310 2.122950 -0.021610 
#    z 0.000630 -0.021610 2.041650 
# 
# From -- ./inp_files/255734.got.cif
#   From: 2010.05.17/outbox.cif.g08.bks.cpg/sg2_128_cif.got.tgz:255734.got - 2010.06.03 11:33:40.
