data_PCOD9108806
_publ_section_title
;
Structure prediction by ZEFSAII (Michael W. Deem and Ramdas Pophale) SiO2 
 PCOD9108806
Probable space group: P -1
;
_chemical_formula_sum "Si O2"
_cell_formula_units_Z 14
_cell_length_a 9.146767
_cell_length_b 8.534944
_cell_length_c 12.376203
_cell_angle_alpha 34.551868
_cell_angle_beta 82.966075
_cell_angle_gamma 79.607066
_cell_volume 538.386734
_symmetry_space_group_name_H-M "P -1"
_symmetry_group_IT_number 2
_symmetry_cell_setting 'triclinic'
loop_
_space_group_symop_operation_xyz
x,y,z
-x,-y,-z
loop_
_atom_site_type_symbol
_atom_site_label
_atom_site_fract_x
_atom_site_fract_y
_atom_site_fract_z
Si Si1 0.048403 0.123392 0.096546
Si Si2 0.624464 0.105090 0.717812
Si Si3 0.541646 0.381929 0.947641
Si Si4 0.088283 0.370443 0.732470
Si Si5 0.061761 0.032062 0.596347
Si Si6 0.568135 0.697221 0.213453
Si Si7 0.659362 0.896219 0.591872
O O1 0.222766 0.029016 0.161701
O O2 0.974058 0.875756 0.186178
O O3 0.966165 0.181422 0.185753
O O4 0.042832 0.352057 0.873264
O O5 0.560378 0.364066 0.656205
O O6 0.667465 0.063261 0.610791
O O7 0.481145 0.937143 0.840198
O O8 0.431266 0.460359 0.811988
O O9 0.675854 0.557300 0.805128
O O10 0.500000 0.500000 0.000000
O O11 0.267124 0.333358 0.737484
O O12 0.020800 0.670064 0.524324
O O13 0.230096 0.049011 0.543945
O O14 0.000000 0.000000 0.500000
O O15 0.500000 0.000000 0.000000
O O16 0.500000 0.000000 0.500000
#
# Coordination Sequence:
#
# PCOD9108806 Si02
#       7
#     2   2   2   2   2   2   2
#     4  11  24  48  73 105 148 182 247 292 364 433
#     4  10  21  44  70 102 136 181 235 298 343 429
#     4   9  20  39  67  95 134 172 227 281 345 412
#     4  11  26  45  75 106 143 197 231 299 369 420
#     4  12  28  49  69 104 150 189 244 297 357 434
#     4  10  20  40  72 102 135 175 239 287 348 425
#     4  11  26  45  66  98 141 185 235 294 354 420
#
# _framework density 26.003613000000001
#
# number of rings (size 3 to 8) (size 9 to 14) (size 15 to 20)
#    0.000    1.429    4.286    0.429    6.000    1.714 
#    5.143    1.429    0.000    0.000    0.000    0.000 
#    0.000    0.000    0.000    0.000    0.000    0.000 
#
# Total GULP energy -78027.758738 kJ/mol
# GULP energy per Si atom -5573.411338 kJ/mol
# Density = 2.594443 g / cm^3
# Si number density = 26.003613 Si / 1000 Ang^3
#
#
#
# Elastic Constant Matrix: (Units=GPa)
#
#
# Indices 1 2 3 4 5 6 
#
# 1 146.5672 37.0757 29.3541 7.7233 -7.4087 -18.2191
# 2 37.0757 86.4586 22.2289 23.7246 -2.1538 10.0496
# 3 29.3541 22.2289 123.3074 30.4234 -17.0866 -10.5500
# 4 7.7233 23.7246 30.4234 51.9532 0.5330 -5.1062
# 5 -7.4087 -2.1538 -17.0866 0.5330 42.4654 15.6123
# 6 -18.2191 10.0496 -10.5500 -5.1062 15.6123 36.6991
#
#
#
# Elastic Compliance Matrix: (Units=1/GPa)
#
#
# Indices 1 2 3 4 5 6 
#
# 1 0.008953 -0.004905 -0.001540 0.002458 -0.001693 0.006407
# 2 -0.004905 0.017164 -0.000312 -0.007933 0.003616 -0.009867
# 3 -0.001540 -0.000312 0.010528 -0.005857 0.004103 -0.000213
# 4 0.002458 -0.007933 -0.005857 0.026756 -0.005527 0.007783
# 5 -0.001693 0.003616 0.004103 -0.005527 0.030440 -0.014370
# 6 0.006407 -0.009867 -0.000213 0.007783 -0.014370 0.040266
#
#
# Mechanical properties :
#
#
# Convention : Reuss Voigt Hill
#
# Bulk Modulus (GPa) = 43.23274 59.29452 51.26363
# Shear Modulus (GPa) = 32.18904 44.06850 38.12877
#
# Velocity S-wave (km/s) = 3.52215 4.12115 3.83337
# Velocity P-wave (km/s) = 5.76216 6.74515 6.27294
#
# Compressibility (1/GPa) = 0.02313062
#
# Stress axis : x y z
#
# Youngs Moduli (GPa) = 111.69000 58.26297 94.98386
#
# Poissons Ratio (x) = 0.28577 0.14627
# Poissons Ratio (y) = 0.54782 0.02967
# Poissons Ratio (z) = 0.17200 0.01820
#
# Static dielectric constant tensor:
#      x y z
#    x 0.000000 0.000000 0.000000 
#    y 0.000000 0.000000 0.000000 
#    z 0.000000 0.000000 0.000000 
# 
# From -- ./inp_files/283327.got.cif
#   From: 2010.05.17/outbox.cif.g08.bks.cpg/sg2_142_cif.got.tgz:283327.got - 2010.06.03 11:33:40.
