data_PCOD9108508
_publ_section_title
;
Structure prediction by ZEFSAII (Michael W. Deem and Ramdas Pophale) SiO2 
 PCOD9108508
Probable space group: P -1
;
_chemical_formula_sum "Si O2"
_cell_formula_units_Z 12
_cell_length_a 8.342814
_cell_length_b 10.386802
_cell_length_c 7.661893
_cell_angle_alpha 100.250124
_cell_angle_beta 99.159407
_cell_angle_gamma 131.447741
_cell_volume 453.884597
_symmetry_space_group_name_H-M "P -1"
_symmetry_group_IT_number 2
_symmetry_cell_setting 'triclinic'
loop_
_space_group_symop_operation_xyz
x,y,z
-x,-y,-z
loop_
_atom_site_type_symbol
_atom_site_label
_atom_site_fract_x
_atom_site_fract_y
_atom_site_fract_z
Si Si1 0.063754 0.161547 0.667935
Si Si2 0.631813 0.210915 0.790467
Si Si3 0.755535 0.211096 0.458965
Si Si4 0.039798 0.706656 0.850354
Si Si5 0.547241 0.546424 0.721672
Si Si6 0.275001 0.123424 0.962975
O O1 0.075740 0.104068 0.846862
O O2 0.314859 0.368489 0.732735
O O3 0.890214 0.174962 0.582079
O O4 0.000000 0.000000 0.500000
O O5 0.697993 0.280699 0.618834
O O6 0.845482 0.307145 0.976920
O O7 0.462775 0.211902 0.862029
O O8 0.900758 0.322592 0.336182
O O9 0.518105 0.009063 0.304555
O O10 0.776214 0.593784 0.812131
O O11 0.176349 0.923106 0.920024
O O12 0.500000 0.500000 0.500000
O O13 0.602952 0.728380 0.825596
#
# Coordination Sequence:
#
# PCOD9108508 Si02
#       6
#     2   2   2   2   2   2
#     4  12  22  44  71  98 130 176 231 280 333 401
#     4  10  22  40  70 100 136 180 222 270 338 409
#     4  10  20  40  68  99 134 173 225 270 336 398
#     4  11  22  45  70 101 138 175 225 277 338 404
#     4  12  25  43  66 100 137 173 229 286 333 397
#     4  11  23  43  68 103 134 179 224 276 340 400
#
# _framework density 26.438438000000001
#
# number of rings (size 3 to 8) (size 9 to 14) (size 15 to 20)
#    0.000    1.000    5.000    4.000    0.000    1.333 
#    3.000    4.167    0.000    0.000    0.000    0.000 
#    0.000    0.000    0.000    0.000    0.000    0.000 
#
# Total GULP energy -67261.283057 kJ/mol
# GULP energy per Si atom -5605.106921 kJ/mol
# Density = 2.637826 g / cm^3
# Si number density = 26.438438 Si / 1000 Ang^3
#
#
#
# Elastic Constant Matrix: (Units=GPa)
#
#
# Indices 1 2 3 4 5 6 
#
# 1 129.5275 22.7092 59.2774 24.4441 -25.0194 27.9816
# 2 22.7092 129.6270 21.7015 31.9250 -4.1417 12.4629
# 3 59.2774 21.7015 144.4637 -0.3631 -5.3236 -5.7931
# 4 24.4441 31.9250 -0.3631 33.0893 5.0441 -2.9529
# 5 -25.0194 -4.1417 -5.3236 5.0441 76.2916 5.4942
# 6 27.9816 12.4629 -5.7931 -2.9529 5.4942 39.4414
#
#
#
# Elastic Compliance Matrix: (Units=1/GPa)
#
#
# Indices 1 2 3 4 5 6 
#
# 1 0.026656 0.008549 -0.012955 -0.032448 0.012440 -0.027677
# 2 0.008549 0.014208 -0.006048 -0.022186 0.005620 -0.013887
# 3 -0.012955 -0.006048 0.013585 0.017816 -0.005905 0.015253
# 4 -0.032448 -0.022186 0.017816 0.082395 -0.019036 0.041468
# 5 0.012440 0.005620 -0.005905 -0.019036 0.019463 -0.015605
# 6 -0.027677 -0.013887 0.015253 0.041468 -0.015605 0.056896
#
#
# Mechanical properties :
#
#
# Convention : Reuss Voigt Hill
#
# Bulk Modulus (GPa) = 29.81371 67.88826 48.85098
# Shear Modulus (GPa) = 20.38404 49.75979 35.07191
#
# Velocity S-wave (km/s) = 2.77970 4.34302 3.64613
# Velocity P-wave (km/s) = 4.64795 7.13321 6.02022
#
# Compressibility (1/GPa) = 0.03354162
#
# Stress axis : x y z
#
# Youngs Moduli (GPa) = 37.51542 70.38364 73.60959
#
# Poissons Ratio (x) = -0.60170 0.95360
# Poissons Ratio (y) = -0.32072 0.44517
# Poissons Ratio (z) = 0.48600 0.42566
#
# Static dielectric constant tensor:
#      x y z
#    x 2.015740 -0.106490 0.004580 
#    y -0.106490 1.874670 0.005520 
#    z 0.004580 0.005520 2.028280 
# 
# From -- ./inp_files/157557.got.cif
#   From: 2010.05.17/outbox.cif.g08.bks.cpg/sg2_79_cif.got.tgz:157557.got - 2010.06.03 11:33:40.
