data_PCOD9108983
_publ_section_title
;
Structure prediction by ZEFSAII (Michael W. Deem and Ramdas Pophale) SiO2 
 PCOD9108983
Probable space group: P -1
;
_chemical_formula_sum "Si O2"
_cell_formula_units_Z 16
_cell_length_a 14.158703
_cell_length_b 8.538567
_cell_length_c 13.464556
_cell_angle_alpha 127.315897
_cell_angle_beta 106.034290
_cell_angle_gamma 36.627193
_cell_volume 692.364564
_symmetry_space_group_name_H-M "P -1"
_symmetry_group_IT_number 2
_symmetry_cell_setting 'triclinic'
loop_
_space_group_symop_operation_xyz
x,y,z
-x,-y,-z
loop_
_atom_site_type_symbol
_atom_site_label
_atom_site_fract_x
_atom_site_fract_y
_atom_site_fract_z
Si Si1 0.809748 0.044488 0.404454
Si Si2 0.482476 0.181414 0.657032
Si Si3 0.339032 0.906674 0.149207
Si Si4 0.858207 0.162928 0.274051
Si Si5 0.030250 0.225669 0.437272
Si Si6 0.504019 0.958031 0.099834
Si Si7 0.842396 0.144781 0.859954
Si Si8 0.551006 0.129466 0.346281
O O1 0.909410 0.926312 0.285163
O O2 0.717333 0.987070 0.360599
O O3 0.633608 0.476212 0.515941
O O4 0.920101 0.885158 0.476250
O O5 0.622022 0.075272 0.720862
O O6 0.329970 0.578539 0.725880
O O7 0.500000 0.000000 0.500000
O O8 0.413950 0.142500 0.703894
O O9 0.347699 0.083653 0.149072
O O10 0.169351 0.045250 0.159415
O O11 0.500000 0.500000 0.000000
O O12 0.864506 0.363901 0.411910
O O13 0.986773 0.000742 0.157173
O O14 0.000000 0.500000 0.500000
O O15 0.175463 0.889408 0.275205
O O16 0.516572 0.146965 0.228515
O O17 0.684307 0.536759 0.004924
O O18 0.500000 0.000000 0.000000
#
# Coordination Sequence:
#
# PCOD9108983 Si02
#       8
#     2   2   2   2   2   2   2   2
#     4  11  21  39  57  94 124 160 202 264 307 374
#     4  11  21  38  64  92 126 161 211 257 311 377
#     4   9  21  39  62  88 121 163 212 245 307 379
#     4  10  23  38  60  93 128 161 199 264 317 365
#     4  10  22  36  60  85 126 161 203 244 319 368
#     4  10  20  41  61  88 122 163 211 254 304 373
#     4   9  22  39  60  90 120 158 207 250 310 367
#     4  10  23  36  64  91 124 159 212 252 317 365
#
# _framework density 23.109214000000001
#
# number of rings (size 3 to 8) (size 9 to 14) (size 15 to 20)
#    0.750    1.250    1.250    1.875    3.500    2.000 
#    2.250    6.250    0.000    0.000    0.000    0.000 
#    0.000    0.000    0.000    0.000    0.000    0.000 
#
# Total GULP energy -89071.566087 kJ/mol
# GULP energy per Si atom -5566.972880 kJ/mol
# Density = 2.305662 g / cm^3
# Si number density = 23.109214 Si / 1000 Ang^3
#
#
#
# Elastic Constant Matrix: (Units=GPa)
#
#
# Indices 1 2 3 4 5 6 
#
# 1 67.4373 9.1181 4.9574 -1.2036 -11.2839 -9.0123
# 2 9.1181 50.2212 -6.0744 -12.9146 -10.1815 1.4304
# 3 4.9574 -6.0744 72.5268 -4.1641 -7.6769 -7.8597
# 4 -1.2036 -12.9146 -4.1641 26.4840 7.1625 -2.3869
# 5 -11.2839 -10.1815 -7.6769 7.1625 27.4909 1.0582
# 6 -9.0123 1.4304 -7.8597 -2.3869 1.0582 14.3343
#
#
#
# Elastic Compliance Matrix: (Units=1/GPa)
#
#
# Indices 1 2 3 4 5 6 
#
# 1 0.017622 -0.002463 0.000373 -0.001059 0.006282 0.010890
# 2 -0.002463 0.024861 0.003456 0.010753 0.006392 -0.000816
# 3 0.000373 0.003456 0.015696 0.003744 0.004503 0.008787
# 4 -0.001059 0.010753 0.003744 0.046440 -0.007838 0.008626
# 5 0.006282 0.006392 0.004503 -0.007838 0.044575 0.001185
# 6 0.010890 -0.000816 0.008787 0.008626 0.001185 0.082858
#
#
# Mechanical properties :
#
#
# Convention : Reuss Voigt Hill
#
# Bulk Modulus (GPa) = 16.41730 22.90972 19.66351
# Shear Modulus (GPa) = 20.03020 25.80747 22.91884
#
# Velocity S-wave (km/s) = 2.94728 3.34542 3.15264
# Velocity P-wave (km/s) = 4.32453 4.98575 4.66686
#
# Compressibility (1/GPa) = 0.06091136
#
# Stress axis : x y z
#
# Youngs Moduli (GPa) = 56.74837 40.22321 63.71136
#
# Poissons Ratio (x) = 0.09908 -0.02379
# Poissons Ratio (y) = 0.13978 -0.22019
# Poissons Ratio (z) = -0.02119 -0.13901
#
# Static dielectric constant tensor:
#      x y z
#    x 1.901590 -0.030480 -0.018740 
#    y -0.030480 1.943910 -0.013670 
#    z -0.018740 -0.013670 1.971060 
# 
# From -- ./inp_files/446329.got.cif
#   From: 2010.05.17/outbox.cif.g08.bks.cpg/sg2_224_cif.got.tgz:446329.got - 2010.06.03 11:33:40.
