data_PCOD9108182
_publ_section_title
;
Structure prediction by ZEFSAII (Michael W. Deem and Ramdas Pophale) SiO2 
 PCOD9108182
Probable space group: P -1
;
_chemical_formula_sum "Si O2"
_cell_formula_units_Z 16
_cell_length_a 9.399764
_cell_length_b 8.822853
_cell_length_c 12.889352
_cell_angle_alpha 114.810205
_cell_angle_beta 97.907972
_cell_angle_gamma 50.854557
_cell_volume 740.094020
_symmetry_space_group_name_H-M "P -1"
_symmetry_group_IT_number 2
_symmetry_cell_setting 'triclinic'
loop_
_space_group_symop_operation_xyz
x,y,z
-x,-y,-z
loop_
_atom_site_type_symbol
_atom_site_label
_atom_site_fract_x
_atom_site_fract_y
_atom_site_fract_z
Si Si1 0.494053 0.647236 0.959716
Si Si2 0.288350 0.715716 0.553022
Si Si3 0.684876 0.411725 0.256286
Si Si4 0.761441 0.670920 0.900472
Si Si5 0.612013 0.095040 0.547902
Si Si6 0.844958 0.614111 0.235949
Si Si7 0.536931 0.951746 0.142939
Si Si8 0.970870 0.687202 0.482747
O O1 0.377892 0.675594 0.858552
O O2 0.698383 0.543209 0.907427
O O3 0.500000 0.500000 0.000000
O O4 0.433703 0.855212 0.076615
O O5 0.500000 0.500000 0.500000
O O6 0.247784 0.736890 0.677851
O O7 0.299559 0.880937 0.539292
O O8 0.144870 0.682844 0.486408
O O9 0.520966 0.664005 0.348086
O O10 0.819033 0.443357 0.222501
O O11 0.977315 0.517293 0.858443
O O12 0.628159 0.793341 0.819922
O O13 0.683648 0.857035 0.033982
O O14 0.500000 0.000000 0.500000
O O15 0.795942 0.915756 0.580362
O O16 0.661539 0.826156 0.221018
O O17 0.902301 0.672585 0.360575
O O18 0.000000 0.500000 0.500000
#
# Coordination Sequence:
#
# PCOD9108182 Si02
#       8
#     2   2   2   2   2   2   2   2
#     4  10  20  40  67  90 133 167 217 271 324 393
#     4  10  23  42  63  90 131 168 222 275 327 393
#     4  11  22  42  64  96 127 178 214 270 340 386
#     4   9  22  41  67  95 129 170 219 268 324 403
#     4  11  23  44  65  92 129 176 223 275 328 400
#     4  12  22  39  71  94 132 169 219 265 343 382
#     4   9  21  43  65  97 130 169 217 264 329 397
#     4  12  24  43  63  96 134 174 224 277 328 403
#
# _framework density 21.618876
#
# number of rings (size 3 to 8) (size 9 to 14) (size 15 to 20)
#    0.750    0.750    3.750    1.500    3.500    2.000 
#    2.250    0.625    5.500    0.000    0.000    0.000 
#    0.000    0.000    0.000    0.000    0.000    0.000 
#
# Total GULP energy -89100.795982 kJ/mol
# GULP energy per Si atom -5568.799749 kJ/mol
# Density = 2.156967 g / cm^3
# Si number density = 21.618876 Si / 1000 Ang^3
#
#
#
# Elastic Constant Matrix: (Units=GPa)
#
#
# Indices 1 2 3 4 5 6 
#
# 1 170.9953 44.4467 30.9222 -10.9373 1.7249 18.4345
# 2 44.4467 108.0979 20.9833 -19.1407 -1.0967 21.8690
# 3 30.9222 20.9833 69.8893 -28.4178 23.5940 4.6355
# 4 -10.9373 -19.1407 -28.4178 37.5426 -0.9564 -6.2053
# 5 1.7249 -1.0967 23.5940 -0.9564 33.8313 -10.5104
# 6 18.4345 21.8690 4.6355 -6.2053 -10.5104 37.8767
#
#
#
# Elastic Compliance Matrix: (Units=1/GPa)
#
#
# Indices 1 2 3 4 5 6 
#
# 1 0.007140 -0.002236 -0.003837 -0.002187 0.001678 -0.001607
# 2 -0.002236 0.012072 -0.000131 0.004489 -0.000953 -0.005395
# 3 -0.003837 -0.000131 0.034087 0.023124 -0.024560 -0.005256
# 4 -0.002187 0.004489 0.023124 0.045231 -0.014929 -0.001090
# 5 0.001678 -0.000953 -0.024560 -0.014929 0.050602 0.014335
# 6 -0.001607 -0.005395 -0.005256 -0.001090 0.014335 0.034741
#
#
# Mechanical properties :
#
#
# Convention : Reuss Voigt Hill
#
# Bulk Modulus (GPa) = 24.45456 60.18744 42.32100
# Shear Modulus (GPa) = 23.81973 38.69214 31.25594
#
# Velocity S-wave (km/s) = 3.32294 4.23512 3.80645
# Velocity P-wave (km/s) = 5.10478 7.19831 6.23997
#
# Compressibility (1/GPa) = 0.04089218
#
# Stress axis : x y z
#
# Youngs Moduli (GPa) = 140.06474 82.83530 29.33628
#
# Poissons Ratio (x) = 0.18522 0.11256
# Poissons Ratio (y) = 0.31318 0.00383
# Poissons Ratio (z) = 0.53741 0.01082
#
# Static dielectric constant tensor:
#      x y z
#    x 1.817830 0.046630 -0.006730 
#    y 0.046630 1.903370 -0.018590 
#    z -0.006730 -0.018590 1.896180 
# 
# From -- ./inp_files/495457.got.cif
#   From: 2010.05.17/outbox.cif.g08.bks.cpg/sg2_248_cif.got.tgz:495457.got - 2010.06.03 11:33:40.
