data_PCOD9108427
_publ_section_title
;
Structure prediction by ZEFSAII (Michael W. Deem and Ramdas Pophale) SiO2 
 PCOD9108427
Probable space group: P -1
;
_chemical_formula_sum "Si O2"
_cell_formula_units_Z 16
_cell_length_a 11.158589
_cell_length_b 7.623254
_cell_length_c 9.979896
_cell_angle_alpha 80.181413
_cell_angle_beta 119.050232
_cell_angle_gamma 74.558531
_cell_volume 668.534965
_symmetry_space_group_name_H-M "P -1"
_symmetry_group_IT_number 2
_symmetry_cell_setting 'triclinic'
loop_
_space_group_symop_operation_xyz
x,y,z
-x,-y,-z
loop_
_atom_site_type_symbol
_atom_site_label
_atom_site_fract_x
_atom_site_fract_y
_atom_site_fract_z
Si Si1 0.792725 0.012048 0.269745
Si Si2 0.900631 0.341859 0.844449
Si Si3 0.061696 0.647642 0.445183
Si Si4 0.217971 0.253945 0.139246
Si Si5 0.421970 0.674730 0.089460
Si Si6 0.336853 0.834172 0.306901
Si Si7 0.367706 0.688385 0.634385
Si Si8 0.360478 0.201378 0.931434
O O1 0.704615 0.116264 0.341113
O O2 0.753725 0.831562 0.226244
O O3 0.725126 0.183318 0.094308
O O4 0.969564 0.880549 0.395369
O O5 0.944585 0.374240 0.714757
O O6 0.798449 0.550730 0.822523
O O7 0.811905 0.203744 0.804771
O O8 0.050442 0.263941 0.023793
O O9 0.235431 0.607701 0.576175
O O10 0.000000 0.500000 0.500000
O O11 0.305280 0.056023 0.291072
O O12 0.291823 0.230344 0.036452
O O13 0.423385 0.777772 0.219832
O O14 0.475302 0.454456 0.197572
O O15 0.566452 0.651163 0.082882
O O16 0.397022 0.718244 0.491238
O O17 0.500000 0.000000 0.000000
#
# Coordination Sequence:
#
# PCOD9108427 Si02
#       8
#     2   2   2   2   2   2   2   2
#     4  11  22  42  67  98 131 179 232 277 338 413
#     4  10  24  40  67 100 135 180 233 281 345 417
#     4  11  23  44  64  96 139 177 222 291 346 405
#     4  11  21  43  67 102 133 183 233 282 345 412
#     4  11  23  46  69  95 139 185 230 284 332 420
#     4  11  23  44  65  97 146 173 227 288 351 401
#     4  11  26  40  66 103 137 178 227 281 358 407
#     4  10  20  40  68  95 131 170 237 274 328 401
#
# _framework density 23.932928
#
# number of rings (size 3 to 8) (size 9 to 14) (size 15 to 20)
#    0.000    1.250    3.750    2.250    1.750    4.000 
#    2.250    0.625    0.000    0.000    0.000    0.000 
#    0.000    0.000    0.000    0.000    0.000    0.000 
#
# Total GULP energy -89260.304011 kJ/mol
# GULP energy per Si atom -5578.769001 kJ/mol
# Density = 2.387846 g / cm^3
# Si number density = 23.932928 Si / 1000 Ang^3
#
#
#
# Elastic Constant Matrix: (Units=GPa)
#
#
# Indices 1 2 3 4 5 6 
#
# 1 75.1665 32.1536 23.9852 -8.5642 -12.9675 1.7440
# 2 32.1536 112.8637 39.3804 0.8944 -8.7448 -32.5793
# 3 23.9852 39.3804 97.6790 -13.0247 -4.2002 -9.3434
# 4 -8.5642 0.8944 -13.0247 39.0473 -12.7641 3.3064
# 5 -12.9675 -8.7448 -4.2002 -12.7641 32.5880 4.1935
# 6 1.7440 -32.5793 -9.3434 3.3064 4.1935 36.8010
#
#
#
# Elastic Compliance Matrix: (Units=1/GPa)
#
#
# Indices 1 2 3 4 5 6 
#
# 1 0.019702 -0.007172 -0.001329 0.008172 0.010169 -0.009513
# 2 -0.007172 0.016465 -0.004362 -0.005662 -0.003103 0.014671
# 3 -0.001329 -0.004362 0.012950 0.004895 0.002039 -0.001183
# 4 0.008172 -0.005662 0.004895 0.035694 0.017549 -0.009364
# 5 0.010169 -0.003103 0.002039 0.017549 0.042207 -0.009098
# 6 -0.009513 0.014671 -0.001183 -0.009364 -0.009098 0.042189
#
#
# Mechanical properties :
#
#
# Convention : Reuss Voigt Hill
#
# Bulk Modulus (GPa) = 42.75390 52.97194 47.86292
# Shear Modulus (GPa) = 24.66330 34.36659 29.51494
#
# Velocity S-wave (km/s) = 3.21365 3.79351 3.51556
# Velocity P-wave (km/s) = 5.62787 6.43189 6.04326
#
# Compressibility (1/GPa) = 0.02338968
#
# Stress axis : x y z
#
# Youngs Moduli (GPa) = 50.75605 60.73595 77.22123
#
# Poissons Ratio (x) = 0.43560 0.10266
# Poissons Ratio (y) = 0.36402 0.33683
# Poissons Ratio (z) = 0.06748 0.26493
#
# Static dielectric constant tensor:
#      x y z
#    x 2.155830 0.069620 0.102400 
#    y 0.069620 1.962890 -0.025780 
#    z 0.102400 -0.025780 1.971990 
# 
# From -- ./inp_files/243104.got.cif
#   From: 2010.05.17/outbox.cif.g08.bks.cpg/sg2_122_cif.got.tgz:243104.got - 2010.06.03 11:33:40.
