data_PCOD9108007
_publ_section_title
;
Structure prediction by ZEFSAII (Michael W. Deem and Ramdas Pophale) SiO2 
 PCOD9108007
Probable space group: P -1
;
_chemical_formula_sum "Si O2"
_cell_formula_units_Z 16
_cell_length_a 15.157445
_cell_length_b 8.896002
_cell_length_c 9.198256
_cell_angle_alpha 83.375398
_cell_angle_beta 114.844786
_cell_angle_gamma 137.749716
_cell_volume 716.798387
_symmetry_space_group_name_H-M "P -1"
_symmetry_group_IT_number 2
_symmetry_cell_setting 'triclinic'
loop_
_space_group_symop_operation_xyz
x,y,z
-x,-y,-z
loop_
_atom_site_type_symbol
_atom_site_label
_atom_site_fract_x
_atom_site_fract_y
_atom_site_fract_z
Si Si1 0.443397 0.560437 0.345941
Si Si2 0.237094 0.496332 0.745336
Si Si3 0.482033 0.319159 0.929315
Si Si4 0.331449 0.854603 0.949664
Si Si5 0.996262 0.994806 0.241605
Si Si6 0.834614 0.966800 0.891044
Si Si7 0.174735 0.698966 0.152035
Si Si8 0.733015 0.457239 0.568300
O O1 0.500000 0.500000 0.500000
O O2 0.545530 0.709538 0.259207
O O3 0.294868 0.310087 0.197617
O O4 0.402376 0.654754 0.405816
O O5 0.214715 0.635612 0.782965
O O6 0.306960 0.598023 0.622589
O O7 0.095689 0.213547 0.682583
O O8 0.357574 0.566493 0.931839
O O9 0.349612 0.056503 0.930755
O O10 0.500000 0.500000 0.000000
O O11 0.276420 0.753857 0.084760
O O12 0.500000 0.000000 0.000000
O O13 0.037814 0.923567 0.151622
O O14 0.145445 0.260171 0.367447
O O15 0.899437 0.008024 0.090359
O O16 0.781000 0.073462 0.817001
O O17 0.196611 0.613230 0.312317
O O18 0.000000 0.500000 0.000000
#
# Coordination Sequence:
#
# PCOD9108007 Si02
#       8
#     2   2   2   2   2   2   2   2
#     4  11  23  42  64  95 128 172 224 274 329 398
#     4  11  22  41  61  91 131 173 211 269 333 387
#     4  11  22  40  65  91 126 171 219 268 324 398
#     4  10  24  41  62  93 131 177 217 264 334 395
#     4  10  20  40  66  94 128 168 224 271 335 392
#     4  10  21  38  68  96 122 171 220 277 329 396
#     4  12  23  42  67  98 128 172 228 272 333 399
#     4  11  24  39  65  96 133 171 221 279 328 395
#
# _framework density 22.321477999999999
#
# number of rings (size 3 to 8) (size 9 to 14) (size 15 to 20)
#    0.000    1.250    2.500    4.125    1.750    2.000 
#    0.000    7.500    0.000    0.000    0.000    0.000 
#    0.000    0.000    0.000    0.000    0.000    0.000 
#
# Total GULP energy -89333.108773 kJ/mol
# GULP energy per Si atom -5583.319298 kJ/mol
# Density = 2.227067 g / cm^3
# Si number density = 22.321478 Si / 1000 Ang^3
#
#
#
# Elastic Constant Matrix: (Units=GPa)
#
#
# Indices 1 2 3 4 5 6 
#
# 1 86.9675 13.6296 21.3499 -17.2166 -8.5737 -15.2659
# 2 13.6296 75.7439 9.5334 -20.1614 -13.9930 -12.1828
# 3 21.3499 9.5334 95.2887 -33.3160 -12.7295 -0.5872
# 4 -17.2166 -20.1614 -33.3160 31.7120 3.8642 -4.9145
# 5 -8.5737 -13.9930 -12.7295 3.8642 30.4912 2.2531
# 6 -15.2659 -12.1828 -0.5872 -4.9145 2.2531 36.8067
#
#
#
# Elastic Compliance Matrix: (Units=1/GPa)
#
#
# Indices 1 2 3 4 5 6 
#
# 1 0.014969 0.002184 0.000908 0.011314 0.003548 0.008240
# 2 0.002184 0.021229 0.006334 0.021788 0.009474 0.010363
# 3 0.000908 0.006334 0.019406 0.024842 0.007700 0.005628
# 4 0.011314 0.021788 0.024842 0.079629 0.011819 0.022210
# 5 0.003548 0.009474 0.007700 0.011819 0.039571 0.003886
# 6 0.008240 0.010363 0.005628 0.022210 0.003886 0.036834
#
#
# Mechanical properties :
#
#
# Convention : Reuss Voigt Hill
#
# Bulk Modulus (GPa) = 13.43054 38.55844 25.99449
# Shear Modulus (GPa) = 22.97760 34.03445 28.50603
#
# Velocity S-wave (km/s) = 3.21190 3.90903 3.57748
# Velocity P-wave (km/s) = 4.44803 6.13886 5.36053
#
# Compressibility (1/GPa) = 0.07445716
#
# Stress axis : x y z
#
# Youngs Moduli (GPa) = 66.80359 47.10614 51.53064
#
# Poissons Ratio (x) = -0.10290 -0.04680
# Poissons Ratio (y) = -0.14593 -0.32640
# Poissons Ratio (z) = -0.06067 -0.29837
#
# Static dielectric constant tensor:
#      x y z
#    x 2.603420 -0.280610 0.005180 
#    y -0.280610 2.029840 -0.004420 
#    z 0.005180 -0.004420 1.806190 
# 
# From -- ./inp_files/174956.got.cif
#   From: 2010.05.17/outbox.cif.g08.bks.cpg/sg2_88_cif.got.tgz:174956.got - 2010.06.03 11:33:40.
