data_PCOD9108608
_publ_section_title
;
Structure prediction by ZEFSAII (Michael W. Deem and Ramdas Pophale) SiO2 
 PCOD9108608
Probable space group: P -1
;
_chemical_formula_sum "Si O2"
_cell_formula_units_Z 14
_cell_length_a 7.170442
_cell_length_b 8.751095
_cell_length_c 14.514955
_cell_angle_alpha 108.447021
_cell_angle_beta 38.767952
_cell_angle_gamma 101.985498
_cell_volume 539.839821
_symmetry_space_group_name_H-M "P -1"
_symmetry_group_IT_number 2
_symmetry_cell_setting 'triclinic'
loop_
_space_group_symop_operation_xyz
x,y,z
-x,-y,-z
loop_
_atom_site_type_symbol
_atom_site_label
_atom_site_fract_x
_atom_site_fract_y
_atom_site_fract_z
Si Si1 0.018522 0.686794 0.498420
Si Si2 0.765967 0.284594 0.065541
Si Si3 0.216750 0.048549 0.051460
Si Si4 0.840157 0.689136 0.379543
Si Si5 0.709757 0.608545 0.882714
Si Si6 0.855979 0.021271 0.361852
Si Si7 0.656548 0.617931 0.248812
O O1 0.020718 0.831331 0.598991
O O2 0.355987 0.680893 0.325540
O O3 0.000000 0.500000 0.500000
O O4 0.780450 0.722996 0.515805
O O5 0.055936 0.311900 0.895703
O O6 0.774923 0.097603 0.051697
O O7 0.477139 0.327127 0.120994
O O8 0.729933 0.426707 0.179671
O O9 0.225876 0.232855 0.053744
O O10 0.942010 0.043308 0.227128
O O11 0.500000 0.000000 0.000000
O O12 0.604538 0.665287 0.384560
O O13 0.020750 0.515234 0.273942
O O14 0.996028 0.848321 0.313245
O O15 0.500000 0.500000 0.000000
O O16 0.500000 0.000000 0.500000
#
# Coordination Sequence:
#
# PCOD9108608 Si02
#       7
#     2   2   2   2   2   2   2
#     4  12  27  45  70 101 142 187 236 299 360 425
#     4  10  20  40  69  98 141 182 229 294 354 417
#     4  10  21  40  70 103 139 186 235 298 353 427
#     4  12  23  44  69 100 136 189 241 283 358 428
#     4  11  20  38  67 103 140 188 234 289 359 432
#     4  12  24  47  73 103 143 189 242 301 358 429
#     4  11  22  42  70 100 140 184 233 289 360 414
#
# _framework density 25.933616000000001
#
# number of rings (size 3 to 8) (size 9 to 14) (size 15 to 20)
#    0.000    0.857    5.714    2.143    2.000    0.571 
#    2.571    0.714    0.000    0.000    0.000    0.000 
#    0.000    0.000    0.000    0.000    0.000    0.000 
#
# Total GULP energy -78264.568185 kJ/mol
# GULP energy per Si atom -5590.326299 kJ/mol
# Density = 2.587459 g / cm^3
# Si number density = 25.933616 Si / 1000 Ang^3
#
#
#
# Elastic Constant Matrix: (Units=GPa)
#
#
# Indices 1 2 3 4 5 6 
#
# 1 79.8053 23.4312 12.0328 15.7138 12.2170 5.5760
# 2 23.4312 217.5438 37.9136 54.2195 20.6075 14.5469
# 3 12.0328 37.9136 80.1295 11.1502 -1.9114 16.8309
# 4 15.7138 54.2195 11.1502 58.1023 14.6195 8.5481
# 5 12.2170 20.6075 -1.9114 14.6195 49.1140 16.4339
# 6 5.5760 14.5469 16.8309 8.5481 16.4339 42.1069
#
#
#
# Elastic Compliance Matrix: (Units=1/GPa)
#
#
# Indices 1 2 3 4 5 6 
#
# 1 0.013767 -0.000339 -0.001759 -0.002447 -0.002821 0.000595
# 2 -0.000339 0.006439 -0.002371 -0.005189 -0.001271 0.000318
# 3 -0.001759 -0.002371 0.015446 -0.000392 0.004414 -0.006765
# 4 -0.002447 -0.005189 -0.000392 0.023951 -0.004017 -0.001021
# 5 -0.002821 -0.001271 0.004414 -0.004017 0.026465 -0.010465
# 6 0.000595 0.000318 -0.006765 -0.001021 -0.010465 0.030557
#
#
# Mechanical properties :
#
#
# Convention : Reuss Voigt Hill
#
# Bulk Modulus (GPa) = 37.43087 58.24821 47.83954
# Shear Modulus (GPa) = 37.18368 50.13804 43.66086
#
# Velocity S-wave (km/s) = 3.79067 4.40173 4.10757
# Velocity P-wave (km/s) = 5.79858 6.95290 6.40181
#
# Compressibility (1/GPa) = 0.02671591
#
# Stress axis : x y z
#
# Youngs Moduli (GPa) = 72.63533 155.30681 64.73993
#
# Poissons Ratio (x) = 0.05264 0.11386
# Poissons Ratio (y) = 0.02462 0.15348
# Poissons Ratio (z) = 0.12775 0.36818
#
# Static dielectric constant tensor:
#      x y z
#    x 2.122690 0.044890 0.021720 
#    y 0.044890 2.046480 0.020660 
#    z 0.021720 0.020660 2.042290 
# 
# From -- ./inp_files/377860.got.cif
#   From: 2010.05.17/outbox.cif.g08.bks.cpg/sg2_189_cif.got.tgz:377860.got - 2010.06.03 11:33:40.
