data_PCOD9108864
_publ_section_title
;
Structure prediction by ZEFSAII (Michael W. Deem and Ramdas Pophale) SiO2 
 PCOD9108864
Probable space group: P -1
;
_chemical_formula_sum "Si O2"
_cell_formula_units_Z 13
_cell_length_a 21.889980
_cell_length_b 20.577364
_cell_length_c 8.185929
_cell_angle_alpha 39.188354
_cell_angle_beta 40.871271
_cell_angle_gamma 13.013409
_cell_volume 524.625063
_symmetry_space_group_name_H-M "P -1"
_symmetry_group_IT_number 2
_symmetry_cell_setting 'triclinic'
loop_
_space_group_symop_operation_xyz
x,y,z
-x,-y,-z
loop_
_atom_site_type_symbol
_atom_site_label
_atom_site_fract_x
_atom_site_fract_y
_atom_site_fract_z
Si Si1 0.537294 0.513966 0.169737
Si Si2 0.833272 0.569306 0.536601
Si Si3 0.000000 0.000000 0.500000
Si Si4 0.528721 0.623100 0.633483
Si Si5 0.309672 0.052493 0.805948
Si Si6 0.044483 0.202666 0.308699
Si Si7 0.765114 0.661520 0.145049
O O1 0.777967 0.273901 0.280204
O O2 0.574325 0.369265 0.274055
O O3 0.542349 0.590736 0.861957
O O4 0.252670 0.797795 0.285398
O O5 0.756196 0.771127 0.311246
O O6 0.772355 0.593481 0.432488
O O7 0.138931 0.240616 0.618248
O O8 0.627963 0.723921 0.771081
O O9 0.829579 0.333708 0.514087
O O10 0.288192 0.952020 0.435963
O O11 0.201918 0.063505 0.095027
O O12 0.839184 0.509769 0.146718
O O13 0.000000 0.500000 0.000000
O O14 0.500000 0.000000 0.000000
#
# Coordination Sequence:
#
# PCOD9108864 Si02
#       7
#     2   2   1   2   2   2   2
#     4  10  22  44  70 101 132 176 210 256 332 398
#     4  10  21  38  59  84 115 163 206 268 317 383
#     4  10  20  40  74 104 126 166 218 254 316 404
#     4  11  24  43  67  95 135 173 219 264 319 399
#     4  10  21  37  60  84 117 157 216 256 325 374
#     4  12  24  40  63  97 127 173 223 275 317 384
#     4  12  24  40  61  88 123 166 217 272 328 379
#
# _framework density 24.779602000000001
#
# number of rings (size 3 to 8) (size 9 to 14) (size 15 to 20)
#    0.000    1.231    1.538    4.615    4.308    2.462 
#    0.000   15.385    0.000    0.000    0.000    0.000 
#    0.000    0.000    0.000    0.000    0.000    0.000 
#
# Total GULP energy -72471.871929 kJ/mol
# GULP energy per Si atom -5574.759379 kJ/mol
# Density = 2.472320 g / cm^3
# Si number density = 24.779602 Si / 1000 Ang^3
#
#
#
# Elastic Constant Matrix: (Units=GPa)
#
#
# Indices 1 2 3 4 5 6 
#
# 1 28.9326 16.2947 12.9251 1.4165 5.8952 -1.0603
# 2 16.2947 185.4041 41.3790 2.4093 0.1334 -31.8398
# 3 12.9251 41.3790 104.6225 5.4061 21.0886 -6.7606
# 4 1.4165 2.4093 5.4061 24.5022 -6.1335 5.8468
# 5 5.8952 0.1334 21.0886 -6.1335 27.2721 -5.7565
# 6 -1.0603 -31.8398 -6.7606 5.8468 -5.7565 23.5446
#
#
#
# Elastic Compliance Matrix: (Units=1/GPa)
#
#
# Indices 1 2 3 4 5 6 
#
# 1 0.039313 -0.004021 -0.001726 -0.002348 -0.008886 -0.005752
# 2 -0.004021 0.008555 -0.003132 -0.001451 0.005496 0.012193
# 3 -0.001726 -0.003132 0.013469 -0.004975 -0.011576 -0.002040
# 4 -0.002348 -0.001451 -0.004975 0.048306 0.012606 -0.012411
# 5 -0.008886 0.005496 -0.011576 0.012606 0.053216 0.013589
# 6 -0.005752 0.012193 -0.002040 -0.012411 0.013589 0.064521
#
#
# Mechanical properties :
#
#
# Convention : Reuss Voigt Hill
#
# Bulk Modulus (GPa) = 22.94625 51.12855 37.03740
# Shear Modulus (GPa) = 19.25578 31.62112 25.43845
#
# Velocity S-wave (km/s) = 2.79064 3.57612 3.20752
# Velocity P-wave (km/s) = 4.43439 6.14245 5.35693
#
# Compressibility (1/GPa) = 0.04358011
#
# Stress axis : x y z
#
# Youngs Moduli (GPa) = 25.43665 116.89449 74.24724
#
# Poissons Ratio (x) = 0.47003 0.12812
# Poissons Ratio (y) = 0.10228 0.23252
# Poissons Ratio (z) = 0.04389 0.36608
#
# Static dielectric constant tensor:
#      x y z
#    x 2.111460 0.047350 0.030170 
#    y 0.047350 1.898240 0.019560 
#    z 0.030170 0.019560 2.174780 
# 
# From -- ./inp_files/355429.got.cif
#   From: 2010.05.17/outbox.cif.g08.bks.cpg/sg2_178_cif.got.tgz:355429.got - 2010.06.03 11:33:40.
