data_PCOD9108262
_publ_section_title
;
Structure prediction by ZEFSAII (Michael W. Deem and Ramdas Pophale) SiO2 
 PCOD9108262
Probable space group: P -1
;
_chemical_formula_sum "Si O2"
_cell_formula_units_Z 12
_cell_length_a 15.084432
_cell_length_b 14.791948
_cell_length_c 9.476540
_cell_angle_alpha 148.181937
_cell_angle_beta 36.571089
_cell_angle_gamma 152.708236
_cell_volume 500.993276
_symmetry_space_group_name_H-M "P -1"
_symmetry_group_IT_number 2
_symmetry_cell_setting 'triclinic'
loop_
_space_group_symop_operation_xyz
x,y,z
-x,-y,-z
loop_
_atom_site_type_symbol
_atom_site_label
_atom_site_fract_x
_atom_site_fract_y
_atom_site_fract_z
Si Si1 0.455613 0.158146 0.323602
Si Si2 0.425273 0.728857 0.383153
Si Si3 0.278723 0.250805 0.449424
Si Si4 0.898536 0.605024 0.292043
Si Si5 0.045581 0.233159 0.256059
Si Si6 0.267317 0.967149 0.843356
O O1 0.422911 0.153125 0.524970
O O2 0.291331 0.135137 0.414756
O O3 0.668454 0.405779 0.358279
O O4 0.500000 0.000000 0.000000
O O5 0.269651 0.457447 0.228947
O O6 0.541400 0.831953 0.225782
O O7 0.308230 0.819319 0.672613
O O8 0.500000 0.500000 0.500000
O O9 0.121546 0.285319 0.673474
O O10 0.239828 0.099434 0.163861
O O11 0.987545 0.737738 0.501315
O O12 0.000000 0.500000 0.000000
O O13 0.904296 0.200381 0.271823
O O14 0.000000 0.000000 0.000000
#
# Coordination Sequence:
#
# PCOD9108262 Si02
#       6
#     2   2   2   2   2   2
#     4  10  20  40  67  95 136 172 227 281 343 409
#     4  10  24  41  70 103 130 184 224 280 348 415
#     4  10  21  41  67  97 135 181 229 281 339 414
#     4  10  23  41  65  95 137 180 224 284 344 404
#     4  11  23  43  67 101 139 172 230 291 338 406
#     4  11  22  42  71  98 138 180 229 279 347 412
#
# _framework density 23.952417000000001
#
# number of rings (size 3 to 8) (size 9 to 14) (size 15 to 20)
#    0.000    1.667    3.333    0.500    2.333    2.000 
#    0.000    0.833    0.000    0.000    0.000    0.000 
#    0.000    0.000    0.000    0.000    0.000    0.000 
#
# Total GULP energy -67085.845454 kJ/mol
# GULP energy per Si atom -5590.487121 kJ/mol
# Density = 2.389790 g / cm^3
# Si number density = 23.952417 Si / 1000 Ang^3
#
#
#
# Elastic Constant Matrix: (Units=GPa)
#
#
# Indices 1 2 3 4 5 6 
#
# 1 212.6019 19.4944 67.3088 12.6869 -6.5483 14.7185
# 2 19.4944 94.0232 13.4372 26.4010 8.7574 17.1253
# 3 67.3088 13.4372 128.4811 21.1977 1.8324 -1.2665
# 4 12.6869 26.4010 21.1977 28.3342 8.8377 2.8107
# 5 -6.5483 8.7574 1.8324 8.8377 33.3140 5.9630
# 6 14.7185 17.1253 -1.2665 2.8107 5.9630 39.8643
#
#
#
# Elastic Compliance Matrix: (Units=1/GPa)
#
#
# Indices 1 2 3 4 5 6 
#
# 1 0.005963 -0.000457 -0.003074 -0.000324 0.001973 -0.002375
# 2 -0.000457 0.015709 0.000976 -0.014813 0.000659 -0.005603
# 3 -0.003074 0.000976 0.010572 -0.007696 0.000323 0.001546
# 4 -0.000324 -0.014813 -0.007696 0.058328 -0.011920 0.003909
# 5 0.001973 0.000659 0.000323 -0.011920 0.034324 -0.005295
# 6 -0.002375 -0.005603 0.001546 0.003909 -0.005295 0.028935
#
#
# Mechanical properties :
#
#
# Convention : Reuss Voigt Hill
#
# Bulk Modulus (GPa) = 36.85501 70.62079 53.73790
# Shear Modulus (GPa) = 29.76407 42.62688 36.19548
#
# Velocity S-wave (km/s) = 3.52892 4.22316 3.89156
# Velocity P-wave (km/s) = 5.65903 7.30260 6.53271
#
# Compressibility (1/GPa) = 0.02713336
#
# Stress axis : x y z
#
# Youngs Moduli (GPa) = 167.68898 63.65603 94.58744
#
# Poissons Ratio (x) = 0.02911 0.29080
# Poissons Ratio (y) = 0.07668 -0.09230
# Poissons Ratio (z) = 0.51555 -0.06212
#
# Static dielectric constant tensor:
#      x y z
#    x 2.297310 0.210560 0.147960 
#    y 0.210560 2.157060 0.128150 
#    z 0.147960 0.128150 1.965570 
# 
# From -- ./inp_files/144674.got.cif
#   From: 2010.05.17/outbox.cif.g08.bks.cpg/sg2_73_cif.got.tgz:144674.got - 2010.06.03 11:33:40.
