data_PCOD9108520
_publ_section_title
;
Structure prediction by ZEFSAII (Michael W. Deem and Ramdas Pophale) SiO2 
 PCOD9108520
Probable space group: P -1
;
_chemical_formula_sum "Si O2"
_cell_formula_units_Z 14
_cell_length_a 5.896454
_cell_length_b 8.341912
_cell_length_c 13.810051
_cell_angle_alpha 86.607510
_cell_angle_beta 69.221655
_cell_angle_gamma 62.296753
_cell_volume 557.693139
_symmetry_space_group_name_H-M "P -1"
_symmetry_group_IT_number 2
_symmetry_cell_setting 'triclinic'
loop_
_space_group_symop_operation_xyz
x,y,z
-x,-y,-z
loop_
_atom_site_type_symbol
_atom_site_label
_atom_site_fract_x
_atom_site_fract_y
_atom_site_fract_z
Si Si1 0.168882 0.420708 0.770092
Si Si2 0.680144 0.431357 0.591869
Si Si3 0.673032 0.723281 0.711409
Si Si4 0.969087 0.851624 0.291490
Si Si5 0.527064 0.769579 0.096587
Si Si6 0.932740 0.137174 0.416024
Si Si7 0.319412 0.903471 0.926422
O O1 0.407736 0.442461 0.679583
O O2 0.237253 0.401019 0.874562
O O3 0.886913 0.576527 0.762562
O O4 0.195008 0.225608 0.743057
O O5 0.686379 0.614644 0.615222
O O6 0.925819 0.281718 0.626825
O O7 0.738156 0.337873 0.481157
O O8 0.796610 0.858144 0.663759
O O9 0.392008 0.815779 0.812218
O O10 0.239185 0.818460 0.191652
O O11 0.826913 0.052778 0.351029
O O12 0.583750 0.941992 0.090019
O O13 0.482394 0.754288 0.990313
O O14 0.000000 0.000000 0.500000
O O15 0.000000 0.000000 0.000000
#
# Coordination Sequence:
#
# PCOD9108520 Si02
#       7
#     2   2   2   2   2   2   2
#     4  10  22  41  65  98 141 184 218 277 344 403
#     4   9  21  38  64  97 143 175 221 277 336 411
#     4  11  23  43  67 101 142 176 223 287 343 404
#     4   9  18  39  65  93 137 181 227 273 325 400
#     4  10  21  42  65  97 136 177 228 281 331 407
#     4  10  20  40  69 101 136 182 229 278 337 404
#     4  11  24  41  70 103 132 179 231 281 339 404
#
# _framework density 25.103411000000001
#
# number of rings (size 3 to 8) (size 9 to 14) (size 15 to 20)
#    0.000    2.000    1.429    1.286    0.000    4.000 
#    2.571   11.429    0.000    0.000    0.000    0.000 
#    0.000    0.000    0.000    0.000    0.000    0.000 
#
# Total GULP energy -78321.861841 kJ/mol
# GULP energy per Si atom -5594.418703 kJ/mol
# Density = 2.504627 g / cm^3
# Si number density = 25.103411 Si / 1000 Ang^3
#
#
#
# Elastic Constant Matrix: (Units=GPa)
#
#
# Indices 1 2 3 4 5 6 
#
# 1 61.6148 37.1982 16.7977 -8.4077 13.7330 -0.8622
# 2 37.1982 89.2992 48.1254 -12.2695 -0.8327 -3.5695
# 3 16.7977 48.1254 119.4976 -3.4735 22.2639 -6.9535
# 4 -8.4077 -12.2695 -3.4735 42.2353 -6.0918 -1.9428
# 5 13.7330 -0.8327 22.2639 -6.0918 39.8394 -4.5217
# 6 -0.8622 -3.5695 -6.9535 -1.9428 -4.5217 40.7225
#
#
#
# Elastic Compliance Matrix: (Units=1/GPa)
#
#
# Indices 1 2 3 4 5 6 
#
# 1 0.025332 -0.012591 0.003506 0.000019 -0.011088 -0.001199
# 2 -0.012591 0.022037 -0.008861 0.004776 0.010661 0.001564
# 3 0.003506 -0.008861 0.013081 -0.002075 -0.008972 0.000436
# 4 0.000019 0.004776 -0.002075 0.025765 0.005407 0.001894
# 5 -0.011088 0.010661 -0.008972 0.005407 0.035367 0.003353
# 6 -0.001199 0.001564 0.000436 0.001894 0.003353 0.025205
#
#
# Mechanical properties :
#
#
# Convention : Reuss Voigt Hill
#
# Bulk Modulus (GPa) = 40.71907 52.73937 46.72922
# Shear Modulus (GPa) = 26.19653 35.77877 30.98765
#
# Velocity S-wave (km/s) = 3.23390 3.77935 3.51721
# Velocity P-wave (km/s) = 5.49544 6.33239 5.92870
#
# Compressibility (1/GPa) = 0.02455852
#
# Stress axis : x y z
#
# Youngs Moduli (GPa) = 39.47502 45.37847 76.44743
#
# Poissons Ratio (x) = 0.57135 -0.26805
# Poissons Ratio (y) = 0.49702 0.67744
# Poissons Ratio (z) = -0.13841 0.40212
#
# Static dielectric constant tensor:
#      x y z
#    x 1.987870 -0.069220 0.043200 
#    y -0.069220 2.019220 0.024560 
#    z 0.043200 0.024560 1.921280 
# 
# From -- ./inp_files/39653.got.cif
#   From: 2010.05.17/outbox.cif.g08.bks.cpg/sg2_20_cif.got.tgz:39653.got - 2010.06.03 11:33:40.
