data_PCOD9108132
_publ_section_title
;
Structure prediction by ZEFSAII (Michael W. Deem and Ramdas Pophale) SiO2 
 PCOD9108132
Probable space group: P -1
;
_chemical_formula_sum "Si O2"
_cell_formula_units_Z 15
_cell_length_a 9.690439
_cell_length_b 8.550476
_cell_length_c 11.571739
_cell_angle_alpha 47.716261
_cell_angle_beta 86.271569
_cell_angle_gamma 68.868920
_cell_volume 639.383174
_symmetry_space_group_name_H-M "P -1"
_symmetry_group_IT_number 2
_symmetry_cell_setting 'triclinic'
loop_
_space_group_symop_operation_xyz
x,y,z
-x,-y,-z
loop_
_atom_site_type_symbol
_atom_site_label
_atom_site_fract_x
_atom_site_fract_y
_atom_site_fract_z
Si Si1 0.361138 0.863362 0.531565
Si Si2 0.290523 0.355464 0.382907
Si Si3 0.377714 0.763782 0.850336
Si Si4 0.223777 0.536803 0.658462
Si Si5 0.000000 0.500000 0.500000
Si Si6 0.140958 0.649295 0.033468
Si Si7 0.498104 0.081170 0.827511
Si Si8 0.184972 0.276079 0.018125
O O1 0.534460 0.727993 0.541595
O O2 0.377964 0.791957 0.700823
O O3 0.236393 0.781005 0.533717
O O4 0.306072 0.139035 0.406699
O O5 0.227355 0.572000 0.189176
O O6 0.166274 0.405308 0.464626
O O7 0.428019 0.941035 0.823974
O O8 0.500000 0.500000 0.000000
O O9 0.213257 0.800218 0.888515
O O10 0.212304 0.433017 0.837321
O O11 0.085707 0.538787 0.590293
O O12 0.388961 0.351570 0.695704
O O13 0.959042 0.766761 0.993876
O O14 0.166303 0.429623 0.057504
O O15 0.675762 0.974621 0.841218
O O16 0.500000 0.000000 0.000000
#
# Coordination Sequence:
#
# PCOD9108132 Si02
#       8
#     2   2   2   2   1   2   2   2
#     4  11  24  45  74 100 130 194 243 276 340 423
#     4  11  25  44  70 102 141 182 233 284 346 422
#     4  12  19  38  71 103 132 176 235 292 338 408
#     4  11  23  45  69  96 139 186 228 284 349 416
#     4  12  26  46  64  98 152 182 214 292 354 418
#     4  11  21  38  70 103 135 171 228 294 341 402
#     4  10  21  37  63 100 135 176 218 282 346 409
#     4  10  20  40  67 102 134 169 229 292 340 402
#
# _framework density 23.460108999999999
#
# number of rings (size 3 to 8) (size 9 to 14) (size 15 to 20)
#    0.000    1.067    5.333    1.600    0.000    2.133 
#    0.000    6.667    0.000    0.000    0.000    0.000 
#    0.000    0.000    0.000    0.000    0.000    0.000 
#
# Total GULP energy -83652.815539 kJ/mol
# GULP energy per Si atom -5576.854369 kJ/mol
# Density = 2.340671 g / cm^3
# Si number density = 23.460109 Si / 1000 Ang^3
#
#
#
# Elastic Constant Matrix: (Units=GPa)
#
#
# Indices 1 2 3 4 5 6 
#
# 1 115.3617 9.8904 23.9794 5.5692 -14.8245 -21.0140
# 2 9.8904 26.3041 0.6868 15.1486 -4.9905 -8.1499
# 3 23.9794 0.6868 49.3944 13.9415 -6.5680 4.2347
# 4 5.5692 15.1486 13.9415 25.4046 1.6794 -5.4344
# 5 -14.8245 -4.9905 -6.5680 1.6794 27.1848 13.7956
# 6 -21.0140 -8.1499 4.2347 -5.4344 13.7956 35.5569
#
#
#
# Elastic Compliance Matrix: (Units=1/GPa)
#
#
# Indices 1 2 3 4 5 6 
#
# 1 0.012084 -0.006766 -0.009096 0.008337 -0.001742 0.008624
# 2 -0.006766 0.076550 0.022830 -0.059805 0.023306 -0.007354
# 3 -0.009096 0.022830 0.039677 -0.038802 0.020786 -0.018864
# 4 0.008337 -0.059805 -0.038802 0.102124 -0.034772 0.024940
# 5 -0.001742 0.023306 0.020786 -0.034772 0.061074 -0.027173
# 6 0.008624 -0.007354 -0.018864 0.024940 -0.027173 0.048136
#
#
# Mechanical properties :
#
#
# Convention : Reuss Voigt Hill
#
# Bulk Modulus (GPa) = 7.03014 28.90815 17.96914
# Shear Modulus (GPa) = 13.40034 28.06282 20.73158
#
# Velocity S-wave (km/s) = 2.39257 3.46235 2.97593
# Velocity P-wave (km/s) = 3.26123 5.32286 4.41410
#
# Compressibility (1/GPa) = 0.14224478
#
# Stress axis : x y z
#
# Youngs Moduli (GPa) = 82.75480 13.06342 25.20365
#
# Poissons Ratio (x) = 0.08839 0.22926
# Poissons Ratio (y) = 0.55992 -0.57539
# Poissons Ratio (z) = 0.75277 -0.29823
#
# Static dielectric constant tensor:
#      x y z
#    x 1.890690 -0.032160 -0.022800 
#    y -0.032160 1.937100 -0.019600 
#    z -0.022800 -0.019600 1.846680 
# 
# From -- ./inp_files/377649.got.cif
#   From: 2010.05.17/outbox.cif.g08.bks.cpg/sg2_189_cif.got.tgz:377649.got - 2010.06.03 11:33:40.
