data_PCOD9108571
_publ_section_title
;
Structure prediction by ZEFSAII (Michael W. Deem and Ramdas Pophale) SiO2 
 PCOD9108571
Probable space group: P -1
;
_chemical_formula_sum "Si O2"
_cell_formula_units_Z 14
_cell_length_a 8.923282
_cell_length_b 12.397264
_cell_length_c 11.385805
_cell_angle_alpha 108.736062
_cell_angle_beta 114.581792
_cell_angle_gamma 35.932106
_cell_volume 671.857675
_symmetry_space_group_name_H-M "P -1"
_symmetry_group_IT_number 2
_symmetry_cell_setting 'triclinic'
loop_
_space_group_symop_operation_xyz
x,y,z
-x,-y,-z
loop_
_atom_site_type_symbol
_atom_site_label
_atom_site_fract_x
_atom_site_fract_y
_atom_site_fract_z
Si Si1 0.620850 0.306888 0.982485
Si Si2 0.712104 0.750480 0.678926
Si Si3 0.793040 0.793278 0.489156
Si Si4 0.829693 0.631369 0.214093
Si Si5 0.649403 0.947159 0.149261
Si Si6 0.822202 0.019926 0.531253
Si Si7 0.047438 0.999278 0.824665
O O1 0.394082 0.336797 0.887521
O O2 0.500000 0.500000 0.000000
O O3 0.752691 0.195314 0.110385
O O4 0.861111 0.161020 0.916823
O O5 0.897808 0.697845 0.616687
O O6 0.479189 0.809534 0.555202
O O7 0.885401 0.582769 0.764255
O O8 0.560419 0.926489 0.768207
O O9 0.782762 0.702515 0.356435
O O10 0.500000 0.000000 0.500000
O O11 0.923547 0.834483 0.491574
O O12 0.828552 0.742755 0.170456
O O13 0.796215 0.987090 0.190516
O O14 0.500000 0.000000 0.000000
O O15 0.000000 0.000000 0.500000
O O16 0.862709 0.034489 0.683599
#
# Coordination Sequence:
#
# PCOD9108571 Si02
#       7
#     2   2   2   2   2   2   2
#     4  11  27  44  69 100 132 176 225 278 331 391
#     4  11  25  41  69 101 132 173 223 276 333 395
#     4  10  20  40  69  93 132 174 219 270 325 395
#     4  12  24  44  71 101 132 173 231 274 329 396
#     4  12  25  45  68  96 137 185 221 267 332 404
#     4  11  21  43  68  98 135 176 216 270 341 391
#     4  11  25  46  69  95 139 177 218 277 336 392
#
# _framework density 20.837748000000001
#
# number of rings (size 3 to 8) (size 9 to 14) (size 15 to 20)
#    0.000    0.857    5.714    2.143    4.000    1.714 
#    0.000    1.429    0.000    0.000    0.000    0.000 
#    0.000    0.000    0.000    0.000    0.000    0.000 
#
# Total GULP energy -78181.848426 kJ/mol
# GULP energy per Si atom -5584.417745 kJ/mol
# Density = 2.079032 g / cm^3
# Si number density = 20.837748 Si / 1000 Ang^3
#
#
#
# Elastic Constant Matrix: (Units=GPa)
#
#
# Indices 1 2 3 4 5 6 
#
# 1 89.9202 23.8901 18.0248 -10.1731 -4.0182 24.0027
# 2 23.8901 107.1969 16.6249 -24.4835 -1.1278 31.5174
# 3 18.0248 16.6249 99.7366 -11.1855 -0.7300 9.6174
# 4 -10.1731 -24.4835 -11.1855 33.7675 8.2518 -4.9696
# 5 -4.0182 -1.1278 -0.7300 8.2518 28.9939 -4.6985
# 6 24.0027 31.5174 9.6174 -4.9696 -4.6985 31.1332
#
#
#
# Elastic Compliance Matrix: (Units=1/GPa)
#
#
# Indices 1 2 3 4 5 6 
#
# 1 0.014487 0.001061 -0.001340 0.003189 -0.000745 -0.011433
# 2 0.001061 0.016372 -0.000152 0.010952 -0.004986 -0.016349
# 3 -0.001340 -0.000152 0.010806 0.003062 -0.001087 -0.001825
# 4 0.003189 0.010952 0.003062 0.041105 -0.012340 -0.009793
# 5 -0.000745 -0.004986 -0.001087 -0.012340 0.039285 0.009917
# 6 -0.011433 -0.016349 -0.001825 -0.009793 0.009917 0.057983
#
#
# Mechanical properties :
#
#
# Convention : Reuss Voigt Hill
#
# Bulk Modulus (GPa) = 24.50922 45.99261 35.25092
# Shear Modulus (GPa) = 25.70703 34.66650 30.18677
#
# Velocity S-wave (km/s) = 3.51618 4.08320 3.81025
# Velocity P-wave (km/s) = 5.31716 6.65956 6.02586
#
# Compressibility (1/GPa) = 0.04080097
#
# Stress axis : x y z
#
# Youngs Moduli (GPa) = 69.02738 61.08152 92.54516
#
# Poissons Ratio (x) = -0.06482 0.12405
# Poissons Ratio (y) = -0.07326 0.01411
# Poissons Ratio (z) = 0.09252 0.00931
#
# Static dielectric constant tensor:
#      x y z
#    x 1.819560 0.045820 -0.015590 
#    y 0.045820 1.771160 -0.017870 
#    z -0.015590 -0.017870 1.773060 
# 
# From -- ./inp_files/390782.got.cif
#   From: 2010.05.17/outbox.cif.g08.bks.cpg/sg2_196_cif.got.tgz:390782.got - 2010.06.03 11:33:40.
