data_PCOD9108105
_publ_section_title
;
Structure prediction by ZEFSAII (Michael W. Deem and Ramdas Pophale) SiO2 
 PCOD9108105
Probable space group: P -1
;
_chemical_formula_sum "Si O2"
_cell_formula_units_Z 16
_cell_length_a 12.508617
_cell_length_b 15.749529
_cell_length_c 9.245686
_cell_angle_alpha 65.721740
_cell_angle_beta 77.900393
_cell_angle_gamma 25.722135
_cell_volume 658.387993
_symmetry_space_group_name_H-M "P -1"
_symmetry_group_IT_number 2
_symmetry_cell_setting 'triclinic'
loop_
_space_group_symop_operation_xyz
x,y,z
-x,-y,-z
loop_
_atom_site_type_symbol
_atom_site_label
_atom_site_fract_x
_atom_site_fract_y
_atom_site_fract_z
Si Si1 0.428129 0.520766 0.850484
Si Si2 0.194701 0.791213 0.482375
Si Si3 0.512918 0.260612 0.927663
Si Si4 0.642051 0.975043 0.694572
Si Si5 0.041275 0.697094 0.533730
Si Si6 0.191907 0.989011 0.234473
Si Si7 0.918433 0.474407 0.945789
Si Si8 0.075535 0.342711 0.659348
O O1 0.448454 0.568213 0.668983
O O2 0.590725 0.300594 0.935292
O O3 0.500000 0.500000 0.000000
O O4 0.104039 0.759979 0.794625
O O5 0.084066 0.776687 0.470743
O O6 0.245335 0.835804 0.326584
O O7 0.000000 0.000000 0.500000
O O8 0.272414 0.469584 0.731046
O O9 0.747411 0.028544 0.935016
O O10 0.383937 0.310152 0.066269
O O11 0.763076 0.883013 0.563753
O O12 0.601241 0.115028 0.650724
O O13 0.399681 0.096559 0.721402
O O14 0.883236 0.757795 0.884543
O O15 0.033178 0.657877 0.405554
O O16 0.968997 0.434430 0.789126
O O17 0.000000 0.500000 0.000000
O O18 0.000000 0.500000 0.500000
#
# Coordination Sequence:
#
# PCOD9108105 Si02
#       8
#     2   2   2   2   2   2   2   2
#     4  10  21  41  63  95 138 168 226 280 323 403
#     4   9  18  40  67  95 130 179 219 271 340 394
#     4  10  22  43  64  92 134 185 214 273 339 402
#     4  11  21  43  68  92 138 179 220 277 345 413
#     4  10  20  40  66  98 137 169 227 284 329 397
#     4  11  20  41  71  94 131 184 226 263 346 400
#     4  11  23  45  67  91 134 182 225 274 348 408
#     4  12  25  41  66 105 132 173 233 284 339 403
#
# _framework density 24.301779
#
# number of rings (size 3 to 8) (size 9 to 14) (size 15 to 20)
#    0.000    1.500    5.000    3.750    0.000    2.500 
#    6.750    5.000    0.000    0.000    0.000    0.000 
#    0.000    0.000    0.000    0.000    0.000    0.000 
#
# Total GULP energy -89261.028086 kJ/mol
# GULP energy per Si atom -5578.814255 kJ/mol
# Density = 2.424647 g / cm^3
# Si number density = 24.301779 Si / 1000 Ang^3
#
#
#
# Elastic Constant Matrix: (Units=GPa)
#
#
# Indices 1 2 3 4 5 6 
#
# 1 119.2276 19.7933 45.1650 19.0228 11.5736 30.7782
# 2 19.7933 104.4897 27.9589 48.0669 -2.4299 11.3904
# 3 45.1650 27.9589 85.9890 40.9116 2.7448 7.6006
# 4 19.0228 48.0669 40.9116 49.5035 9.9239 2.6624
# 5 11.5736 -2.4299 2.7448 9.9239 32.1299 11.7348
# 6 30.7782 11.3904 7.6006 2.6624 11.7348 39.7972
#
#
#
# Elastic Compliance Matrix: (Units=1/GPa)
#
#
# Indices 1 2 3 4 5 6 
#
# 1 0.013061 -0.000885 -0.006936 0.002401 -0.001960 -0.008106
# 2 -0.000885 0.023661 0.008425 -0.032053 0.014924 -0.009953
# 3 -0.006936 0.008425 0.026512 -0.029494 0.011241 -0.003452
# 4 0.002401 -0.032053 -0.029494 0.080227 -0.031736 0.016941
# 5 -0.001960 0.014924 0.011241 -0.031736 0.047983 -0.016928
# 6 -0.008106 -0.009953 -0.003452 0.016941 -0.016928 0.038762
#
#
# Mechanical properties :
#
#
# Convention : Reuss Voigt Hill
#
# Bulk Modulus (GPa) = 15.51770 55.06010 35.28890
# Shear Modulus (GPa) = 19.96183 38.73873 29.35028
#
# Velocity S-wave (km/s) = 2.86914 3.99691 3.47903
# Velocity P-wave (km/s) = 4.16836 6.63373 5.53993
#
# Compressibility (1/GPa) = 0.06444255
#
# Stress axis : x y z
#
# Youngs Moduli (GPa) = 76.56132 42.26437 37.71909
#
# Poissons Ratio (x) = 0.03739 0.26162
# Poissons Ratio (y) = 0.06774 -0.31779
# Poissons Ratio (z) = 0.53103 -0.35609
#
# Static dielectric constant tensor:
#      x y z
#    x 2.076130 -0.096760 -0.028820 
#    y -0.096760 2.016060 -0.045220 
#    z -0.028820 -0.045220 2.066910 
# 
# From -- ./inp_files/272503.got.cif
#   From: 2010.05.17/outbox.cif.g08.bks.cpg/sg2_137_cif.got.tgz:272503.got - 2010.06.03 11:33:40.
