data_PCOD9108733
_publ_section_title
;
Structure prediction by ZEFSAII (Michael W. Deem and Ramdas Pophale) SiO2 
 PCOD9108733
Probable space group: P -1
;
_chemical_formula_sum "Si O2"
_cell_formula_units_Z 15
_cell_length_a 5.215197
_cell_length_b 16.601541
_cell_length_c 10.694107
_cell_angle_alpha 132.451781
_cell_angle_beta 114.406168
_cell_angle_gamma 65.539246
_cell_volume 609.402999
_symmetry_space_group_name_H-M "P -1"
_symmetry_group_IT_number 2
_symmetry_cell_setting 'triclinic'
loop_
_space_group_symop_operation_xyz
x,y,z
-x,-y,-z
loop_
_atom_site_type_symbol
_atom_site_label
_atom_site_fract_x
_atom_site_fract_y
_atom_site_fract_z
Si Si1 0.224369 0.619564 0.956761
Si Si2 0.055507 0.094264 0.200992
Si Si3 0.500000 0.500000 0.500000
Si Si4 0.642495 0.596418 0.373973
Si Si5 0.898553 0.325248 0.293867
Si Si6 0.236572 0.263071 0.821709
Si Si7 0.395654 0.010011 0.632384
Si Si8 0.199283 0.817196 0.509870
O O1 0.328389 0.486517 0.823574
O O2 0.088318 0.651965 0.825593
O O3 0.481331 0.687259 0.091267
O O4 0.993391 0.654658 0.054778
O O5 0.340072 0.042843 0.280438
O O6 0.049610 0.202119 0.228716
O O7 0.821783 0.137254 0.306473
O O8 0.000000 0.000000 0.000000
O O9 0.480437 0.546029 0.399657
O O10 0.575194 0.368839 0.322354
O O11 0.474507 0.720062 0.441725
O O12 0.949413 0.596242 0.502928
O O13 0.072275 0.238164 0.636529
O O14 0.306432 0.142055 0.777527
O O15 0.188966 0.923675 0.530359
O O16 0.500000 0.000000 0.500000
#
# Coordination Sequence:
#
# PCOD9108733 Si02
#       8
#     2   2   1   2   2   2   2   2
#     4  11  28  46  78 115 153 201 259 324 372 477
#     4  12  27  45  74 115 150 194 261 325 384 461
#     4  10  20  40  70  98 142 192 240 300 384 458
#     4  11  25  45  75 110 148 205 249 321 393 458
#     4  11  24  44  74 107 153 194 259 313 400 444
#     4  12  28  48  76 111 155 205 264 311 391 452
#     4  12  26  50  78 104 151 210 259 310 389 464
#     4  12  27  48  78 105 154 203 257 319 389 463
#
# _framework density 24.614255
#
# number of rings (size 3 to 8) (size 9 to 14) (size 15 to 20)
#    0.000    0.533    4.000    3.600   11.200    2.667 
#    0.000    0.000    0.000    0.000    0.000    0.000 
#    0.000    0.000    0.000    0.000    0.000    0.000 
#
# Total GULP energy -83764.647120 kJ/mol
# GULP energy per Si atom -5584.309808 kJ/mol
# Density = 2.455823 g / cm^3
# Si number density = 24.614255 Si / 1000 Ang^3
#
#
#
# Elastic Constant Matrix: (Units=GPa)
#
#
# Indices 1 2 3 4 5 6 
#
# 1 109.3912 -87.3543 36.8476 -5.7608 -39.8631 91.1377
# 2 -87.3543 356.9648 33.5432 28.1846 99.7802 -250.1099
# 3 36.8476 33.5432 153.9107 10.3471 -9.0887 2.5069
# 4 -5.7608 28.1846 10.3471 46.4505 -1.2380 -14.3919
# 5 -39.8631 99.7802 -9.0887 -1.2380 94.8381 -101.8041
# 6 91.1377 -250.1099 2.5069 -14.3919 -101.8041 278.7182
#
#
#
# Elastic Compliance Matrix: (Units=1/GPa)
#
#
# Indices 1 2 3 4 5 6 
#
# 1 0.014446 0.001452 -0.003724 0.000844 0.001002 -0.002977
# 2 0.001452 0.008622 -0.002261 -0.002571 -0.001705 0.006527
# 3 -0.003724 -0.002261 0.008016 -0.001036 0.000925 -0.000599
# 4 0.000844 -0.002571 -0.001036 0.023415 0.002963 -0.000282
# 5 0.001002 -0.001705 0.000925 0.002963 0.018173 0.004925
# 6 -0.002977 0.006527 -0.000599 -0.000282 0.004925 0.012208
#
#
# Mechanical properties :
#
#
# Convention : Reuss Voigt Hill
#
# Bulk Modulus (GPa) = 45.41799 65.14887 55.28343
# Shear Modulus (GPa) = 49.36569 126.48336 87.92452
#
# Velocity S-wave (km/s) = 4.48322 7.17620 5.98319
# Velocity P-wave (km/s) = 6.72986 9.75649 8.38093
#
# Compressibility (1/GPa) = 0.02201771
#
# Stress axis : x y z
#
# Youngs Moduli (GPa) = 69.22475 115.98407 124.75647
#
# Poissons Ratio (x) = -0.16841 0.46459
# Poissons Ratio (y) = -0.10052 0.28205
# Poissons Ratio (z) = 0.25779 0.26222
#
# Static dielectric constant tensor:
#      x y z
#    x 2.572390 0.232080 -0.060510 
#    y 0.232080 2.450370 -0.202750 
#    z -0.060510 -0.202750 2.053050 
# 
# From -- ./inp_files/369217.got.cif
#   From: 2010.05.17/outbox.cif.g08.bks.cpg/sg2_185_cif.got.tgz:369217.got - 2010.06.03 11:33:40.
