data_PCOD9108232
_publ_section_title
;
Structure prediction by ZEFSAII (Michael W. Deem and Ramdas Pophale) SiO2 
 PCOD9108232
Probable space group: P -1
;
_chemical_formula_sum "Si O2"
_cell_formula_units_Z 16
_cell_length_a 9.718480
_cell_length_b 7.972117
_cell_length_c 13.501213
_cell_angle_alpha 63.903677
_cell_angle_beta 86.867813
_cell_angle_gamma 48.910468
_cell_volume 664.169067
_symmetry_space_group_name_H-M "P -1"
_symmetry_group_IT_number 2
_symmetry_cell_setting 'triclinic'
loop_
_space_group_symop_operation_xyz
x,y,z
-x,-y,-z
loop_
_atom_site_type_symbol
_atom_site_label
_atom_site_fract_x
_atom_site_fract_y
_atom_site_fract_z
Si Si1 0.553918 0.046471 0.381715
Si Si2 0.098512 0.120701 0.675683
Si Si3 0.282407 0.576178 0.333136
Si Si4 0.674478 0.977845 0.757201
Si Si5 0.114937 0.072067 0.077353
Si Si6 0.317150 0.566166 0.568788
Si Si7 0.961252 0.876402 0.624822
Si Si8 0.271880 0.759568 0.949106
O O1 0.779561 0.853477 0.400588
O O2 0.457695 0.340792 0.321044
O O3 0.500000 0.000000 0.500000
O O4 0.450414 0.053210 0.289257
O O5 0.037661 0.989752 0.651139
O O6 0.226963 0.924814 0.811445
O O7 0.900583 0.390481 0.659810
O O8 0.179818 0.843029 0.209189
O O9 0.344458 0.514701 0.462930
O O10 0.772056 0.864803 0.890552
O O11 0.515388 0.302954 0.678124
O O12 0.861796 0.836816 0.716870
O O13 0.205049 0.939229 0.002028
O O14 0.880127 0.272567 0.033626
O O15 0.137798 0.634315 0.614005
O O16 0.223387 0.864086 0.496248
O O17 0.500000 0.500000 0.000000
#
# Coordination Sequence:
#
# PCOD9108232 Si02
#       8
#     2   2   2   2   2   2   2   2
#     4  12  27  37  59  91 134 172 200 238 307 367
#     4  10  23  42  60  89 123 163 205 249 314 367
#     4  10  21  41  60  86 128 168 200 247 300 367
#     4  12  23  39  57  96 125 160 206 255 297 362
#     4  10  22  38  67  94 115 154 212 260 304 361
#     4  10  21  32  60  86 125 161 202 250 295 356
#     4  10  22  36  60  90 118 163 212 251 299 360
#     4  10  20  40  67  94 114 148 210 269 311 352
#
# _framework density 24.090253000000001
#
# number of rings (size 3 to 8) (size 9 to 14) (size 15 to 20)
#    0.000    1.500    5.000    1.125    8.750    1.500 
#    0.000    0.625    0.000   10.500    0.000    0.000 
#    0.000    0.000    0.000    0.000    0.000    0.000 
#
# Total GULP energy -89171.100729 kJ/mol
# GULP energy per Si atom -5573.193796 kJ/mol
# Density = 2.403542 g / cm^3
# Si number density = 24.090253 Si / 1000 Ang^3
#
#
#
# Elastic Constant Matrix: (Units=GPa)
#
#
# Indices 1 2 3 4 5 6 
#
# 1 95.1218 24.9248 33.1022 13.1320 29.2922 -26.2906
# 2 24.9248 91.5375 30.8428 10.9223 11.3481 -32.1218
# 3 33.1022 30.8428 83.4201 5.8210 29.7981 -12.7404
# 4 13.1320 10.9223 5.8210 29.7712 -6.9629 7.6162
# 5 29.2922 11.3481 29.7981 -6.9629 42.7054 1.5424
# 6 -26.2906 -32.1218 -12.7404 7.6162 1.5424 49.5896
#
#
#
# Elastic Compliance Matrix: (Units=1/GPa)
#
#
# Indices 1 2 3 4 5 6 
#
# 1 0.026826 0.007258 0.002015 -0.027498 -0.027103 0.024507
# 2 0.007258 0.020196 -0.001328 -0.018502 -0.013151 0.019839
# 3 0.002015 -0.001328 0.019311 -0.009845 -0.016368 0.007190
# 4 -0.027498 -0.018502 -0.009845 0.075605 0.044494 -0.042088
# 5 -0.027103 -0.013151 -0.016368 0.044494 0.065476 -0.035963
# 6 0.024507 0.019839 0.007190 -0.042088 -0.035963 0.055439
#
#
# Mechanical properties :
#
#
# Convention : Reuss Voigt Hill
#
# Bulk Modulus (GPa) = 12.16234 49.75770 30.96002
# Shear Modulus (GPa) = 18.22352 36.49388 27.35870
#
# Velocity S-wave (km/s) = 2.75338 3.89637 3.37363
# Velocity P-wave (km/s) = 3.89458 6.39858 5.29668
#
# Compressibility (1/GPa) = 0.08222099
#
# Stress axis : x y z
#
# Youngs Moduli (GPa) = 37.27733 49.51583 51.78377
#
# Poissons Ratio (x) = -0.35937 -0.10433
# Poissons Ratio (y) = -0.27055 0.06878
# Poissons Ratio (z) = -0.07511 0.06577
#
# Static dielectric constant tensor:
#      x y z
#    x 2.237510 0.114810 0.043450 
#    y 0.114810 2.039520 0.028480 
#    z 0.043450 0.028480 1.943290 
# 
# From -- ./inp_files/492514.got.cif
#   From: 2010.05.17/outbox.cif.g08.bks.cpg/sg2_247_cif.got.tgz:492514.got - 2010.06.03 11:33:40.
