data_PCOD9108339
_publ_section_title
;
Structure prediction by ZEFSAII (Michael W. Deem and Ramdas Pophale) SiO2 
 PCOD9108339
Probable space group: P -1
;
_chemical_formula_sum "Si O2"
_cell_formula_units_Z 16
_cell_length_a 7.649945
_cell_length_b 14.114464
_cell_length_c 10.973242
_cell_angle_alpha 47.968594
_cell_angle_beta 98.973272
_cell_angle_gamma 125.511818
_cell_volume 661.071076
_symmetry_space_group_name_H-M "P -1"
_symmetry_group_IT_number 2
_symmetry_cell_setting 'triclinic'
loop_
_space_group_symop_operation_xyz
x,y,z
-x,-y,-z
loop_
_atom_site_type_symbol
_atom_site_label
_atom_site_fract_x
_atom_site_fract_y
_atom_site_fract_z
Si Si1 0.648759 0.107686 0.600248
Si Si2 0.952885 0.528185 0.606517
Si Si3 0.344074 0.340416 0.348343
Si Si4 0.676669 0.004501 0.100406
Si Si5 0.124310 0.361976 0.901605
Si Si6 0.571130 0.821802 0.695581
Si Si7 0.822339 0.530114 0.932333
Si Si8 0.553916 0.676616 0.354297
O O1 0.449603 0.036046 0.744430
O O2 0.582929 0.165630 0.426850
O O3 0.890791 0.272463 0.538933
O O4 0.673688 0.975681 0.665410
O O5 0.677501 0.398871 0.684079
O O6 0.000000 0.500000 0.500000
O O7 0.048350 0.468903 0.762066
O O8 0.606629 0.519005 0.206832
O O9 0.291423 0.206931 0.356816
O O10 0.184698 0.388751 0.259558
O O11 0.365187 0.283462 0.528806
O O12 0.697998 0.870417 0.167781
O O13 0.500000 0.000000 0.000000
O O14 0.934154 0.183299 0.975480
O O15 0.118256 0.345319 0.059736
O O16 0.419981 0.652415 0.905236
O O17 0.000000 0.500000 0.000000
O O18 0.500000 0.500000 0.500000
#
# Coordination Sequence:
#
# PCOD9108339 Si02
#       8
#     2   2   2   2   2   2   2   2
#     4  11  21  37  72 102 135 181 232 278 340 420
#     4  12  19  43  71  95 133 186 227 274 343 412
#     4  11  23  47  70  96 144 178 230 289 352 415
#     4  12  23  42  70 104 142 183 236 284 338 414
#     4  11  21  40  70  97 130 181 228 280 345 401
#     4  10  20  40  68 102 136 174 227 286 345 408
#     4  11  24  42  70 100 134 181 230 288 349 414
#     4  12  27  44  66 103 144 183 232 288 344 415
#
# _framework density 24.203147999999999
#
# number of rings (size 3 to 8) (size 9 to 14) (size 15 to 20)
#    0.000    0.750    7.500    2.250    1.750    1.000 
#    4.500    1.250    0.000    0.000    0.000    0.000 
#    0.000    0.000    0.000    0.000    0.000    0.000 
#
# Total GULP energy -89121.296093 kJ/mol
# GULP energy per Si atom -5570.081006 kJ/mol
# Density = 2.414806 g / cm^3
# Si number density = 24.203148 Si / 1000 Ang^3
#
#
#
# Elastic Constant Matrix: (Units=GPa)
#
#
# Indices 1 2 3 4 5 6 
#
# 1 47.6003 7.8074 15.4870 -3.1487 29.1981 3.4634
# 2 7.8074 144.7078 40.3574 -33.0185 16.3344 -9.4836
# 3 15.4870 40.3574 68.5147 -4.7415 26.2520 -1.0851
# 4 -3.1487 -33.0185 -4.7415 64.0600 -4.4994 10.5689
# 5 29.1981 16.3344 26.2520 -4.4994 27.1918 -0.3008
# 6 3.4634 -9.4836 -1.0851 10.5689 -0.3008 34.8551
#
#
#
# Elastic Compliance Matrix: (Units=1/GPa)
#
#
# Indices 1 2 3 4 5 6 
#
# 1 0.082464 0.001064 0.023507 -0.000192 -0.112004 -0.008081
# 2 0.001064 0.009435 -0.005003 0.004293 -0.001260 0.000993
# 3 0.023507 -0.005003 0.032863 -0.002413 -0.054390 -0.002412
# 4 -0.000192 0.004293 -0.002413 0.018587 0.002982 -0.004498
# 5 -0.112004 -0.001260 -0.054390 0.002982 0.210915 0.010009
# 6 -0.008081 0.000993 -0.002412 -0.004498 0.010009 0.031139
#
#
# Mechanical properties :
#
#
# Convention : Reuss Voigt Hill
#
# Bulk Modulus (GPa) = 6.10129 43.12516 24.61322
# Shear Modulus (GPa) = 12.47197 38.36611 25.41904
#
# Velocity S-wave (km/s) = 2.27249 3.98574 3.24425
# Velocity P-wave (km/s) = 3.06789 6.24805 4.92190
#
# Compressibility (1/GPa) = 0.16389985
#
# Stress axis : x y z
#
# Youngs Moduli (GPa) = 12.12645 105.98820 30.42905
#
# Poissons Ratio (x) = -0.11282 -0.71529
# Poissons Ratio (y) = -0.01291 0.15223
# Poissons Ratio (z) = -0.28505 0.53023
#
# Static dielectric constant tensor:
#      x y z
#    x 2.085440 -0.098930 -0.066780 
#    y -0.098930 1.927610 0.014900 
#    z -0.066780 0.014900 1.904760 
# 
# From -- ./inp_files/398436.got.cif
#   From: 2010.05.17/outbox.cif.g08.bks.cpg/sg2_200_cif.got.tgz:398436.got - 2010.06.03 11:33:40.
