data_PCOD9108117
_publ_section_title
;
Structure prediction by ZEFSAII (Michael W. Deem and Ramdas Pophale) SiO2 
 PCOD9108117
Probable space group: P -1
;
_chemical_formula_sum "Si O2"
_cell_formula_units_Z 14
_cell_length_a 13.698111
_cell_length_b 6.772356
_cell_length_c 8.562469
_cell_angle_alpha 123.964954
_cell_angle_beta 96.181407
_cell_angle_gamma 57.652127
_cell_volume 535.428435
_symmetry_space_group_name_H-M "P -1"
_symmetry_group_IT_number 2
_symmetry_cell_setting 'triclinic'
loop_
_space_group_symop_operation_xyz
x,y,z
-x,-y,-z
loop_
_atom_site_type_symbol
_atom_site_label
_atom_site_fract_x
_atom_site_fract_y
_atom_site_fract_z
Si Si1 0.011935 0.228026 0.003939
Si Si2 0.730655 0.196242 0.044625
Si Si3 0.827457 0.292704 0.784845
Si Si4 0.651675 0.781138 0.460885
Si Si5 0.396629 0.100713 0.113126
Si Si6 0.529087 0.178833 0.360786
Si Si7 0.891741 0.697997 0.447752
O O1 0.933644 0.521106 0.217303
O O2 0.944780 0.272081 0.850281
O O3 0.000000 0.000000 0.000000
O O4 0.153811 0.078728 0.971280
O O5 0.679635 0.473391 0.267465
O O6 0.771591 0.256656 0.917328
O O7 0.630895 0.137530 0.963884
O O8 0.719933 0.593855 0.827932
O O9 0.865412 0.013597 0.567257
O O10 0.777911 0.723136 0.513666
O O11 0.500000 0.000000 0.500000
O O12 0.650003 0.958522 0.372847
O O13 0.400657 0.205021 0.350632
O O14 0.462705 0.949630 0.873250
O O15 0.500000 0.500000 0.500000
O O16 0.000000 0.500000 0.500000
#
# Coordination Sequence:
#
# PCOD9108117 Si02
#       7
#     2   2   2   2   2   2   2
#     4  10  20  40  67 100 133 170 218 271 331 395
#     4  11  22  43  68  94 133 172 218 273 330 393
#     4  11  23  43  69 100 135 174 218 271 335 389
#     4  11  23  41  70  95 130 180 213 274 339 383
#     4  12  27  43  66  97 132 176 226 273 325 397
#     4  11  25  44  63  96 133 170 228 275 326 392
#     4  12  20  38  73 101 130 173 220 270 332 400
#
# _framework density 26.147288
#
# number of rings (size 3 to 8) (size 9 to 14) (size 15 to 20)
#    0.000    0.857    5.714    3.429    0.000    5.143 
#    2.571    0.714    0.000    0.000    0.000    0.000 
#    0.000    0.000    0.000    0.000    0.000    0.000 
#
# Total GULP energy -78209.677242 kJ/mol
# GULP energy per Si atom -5586.405517 kJ/mol
# Density = 2.608778 g / cm^3
# Si number density = 26.147288 Si / 1000 Ang^3
#
#
#
# Elastic Constant Matrix: (Units=GPa)
#
#
# Indices 1 2 3 4 5 6 
#
# 1 141.1166 54.0110 47.4067 -15.6616 -1.7906 -12.1305
# 2 54.0110 178.5902 52.5493 8.6557 8.7758 -28.5929
# 3 47.4067 52.5493 226.0614 17.0045 11.9851 -8.1830
# 4 -15.6616 8.6557 17.0045 36.7735 -9.2631 3.5501
# 5 -1.7906 8.7758 11.9851 -9.2631 42.9383 -2.9446
# 6 -12.1305 -28.5929 -8.1830 3.5501 -2.9446 36.1037
#
#
#
# Elastic Compliance Matrix: (Units=1/GPa)
#
#
# Indices 1 2 3 4 5 6 
#
# 1 0.009555 -0.002717 -0.001994 0.006339 0.002893 0.000219
# 2 -0.002717 0.007731 -0.000658 -0.003670 -0.001940 0.005263
# 3 -0.001994 -0.000658 0.005407 -0.003786 -0.002259 0.000222
# 4 0.006339 -0.003670 -0.003786 0.035291 0.009387 -0.004339
# 5 0.002893 -0.001940 -0.002259 0.009387 0.026473 0.000159
# 6 0.000219 0.005263 0.000222 -0.004339 0.000159 0.032430
#
#
# Mechanical properties :
#
#
# Convention : Reuss Voigt Hill
#
# Bulk Modulus (GPa) = 83.65226 94.85582 89.25404
# Shear Modulus (GPa) = 37.99078 49.28318 43.63698
#
# Velocity S-wave (km/s) = 3.81590 4.34617 4.08964
# Velocity P-wave (km/s) = 7.17474 7.84486 7.51727
#
# Compressibility (1/GPa) = 0.01195425
#
# Stress axis : x y z
#
# Youngs Moduli (GPa) = 104.65213 129.35686 184.93379
#
# Poissons Ratio (x) = 0.35150 0.36885
# Poissons Ratio (y) = 0.28437 0.12164
# Poissons Ratio (z) = 0.20873 0.08509
#
# Static dielectric constant tensor:
#      x y z
#    x 1.801860 -0.149780 -0.036830 
#    y -0.149780 1.810220 -0.059270 
#    z -0.036830 -0.059270 2.089450 
# 
# From -- ./inp_files/448371.got.cif
#   From: 2010.05.17/outbox.cif.g08.bks.cpg/sg2_225_cif.got.tgz:448371.got - 2010.06.03 11:33:40.
