data_PCOD9108311
_publ_section_title
;
Structure prediction by ZEFSAII (Michael W. Deem and Ramdas Pophale) SiO2 
 PCOD9108311
Probable space group: P -1
;
_chemical_formula_sum "Si O2"
_cell_formula_units_Z 16
_cell_length_a 21.615757
_cell_length_b 8.637606
_cell_length_c 8.474105
_cell_angle_alpha 108.566726
_cell_angle_beta 35.944344
_cell_angle_gamma 130.531824
_cell_volume 624.711851
_symmetry_space_group_name_H-M "P -1"
_symmetry_group_IT_number 2
_symmetry_cell_setting 'triclinic'
loop_
_space_group_symop_operation_xyz
x,y,z
-x,-y,-z
loop_
_atom_site_type_symbol
_atom_site_label
_atom_site_fract_x
_atom_site_fract_y
_atom_site_fract_z
Si Si1 0.330075 0.256797 0.269565
Si Si2 0.203431 0.388113 0.800619
Si Si3 0.742680 0.211474 0.260346
Si Si4 0.339369 0.911639 0.271826
Si Si5 0.661714 0.659407 0.064600
Si Si6 0.962204 0.575697 0.250327
Si Si7 0.942971 0.968057 0.783378
Si Si8 0.540408 0.274357 0.389814
O O1 0.251723 0.276992 0.574521
O O2 0.337563 0.070398 0.219520
O O3 0.500000 0.500000 0.000000
O O4 0.268851 0.240907 0.218362
O O5 0.221476 0.560258 0.701877
O O6 0.308298 0.583482 0.782851
O O7 0.058231 0.175703 0.129940
O O8 0.715197 0.090913 0.443987
O O9 0.582835 0.999751 0.446764
O O10 0.892390 0.305486 0.901044
O O11 0.200402 0.644615 0.419069
O O12 0.500000 0.000000 0.000000
O O13 0.586562 0.401916 0.166881
O O14 0.538234 0.662961 0.335431
O O15 0.769320 0.804267 0.039532
O O16 0.983592 0.786632 0.230626
O O17 0.000000 0.500000 0.000000
O O18 0.000000 0.000000 0.500000
#
# Coordination Sequence:
#
# PCOD9108311 Si02
#       8
#     2   2   2   2   2   2   2   2
#     4  12  23  42  70 105 139 177 233 288 352 414
#     4  11  24  41  71 107 139 184 234 285 345 419
#     4  11  22  42  69 100 138 182 230 287 346 414
#     4  11  26  44  66 101 138 178 229 292 346 418
#     4  10  22  39  68 100 133 183 229 283 342 409
#     4  10  23  46  70  94 135 187 230 287 354 410
#     4  11  25  47  69  99 141 189 235 285 350 422
#     4  10  20  40  67  98 139 181 226 281 345 403
#
# _framework density 25.611809999999998
#
# number of rings (size 3 to 8) (size 9 to 14) (size 15 to 20)
#    0.000    1.250    2.500    3.375    1.750    6.000 
#    2.250    5.000    0.000    0.000    0.000    0.000 
#    0.000    0.000    0.000    0.000    0.000    0.000 
#
# Total GULP energy -89290.394767 kJ/mol
# GULP energy per Si atom -5580.649673 kJ/mol
# Density = 2.555352 g / cm^3
# Si number density = 25.611810 Si / 1000 Ang^3
#
#
#
# Elastic Constant Matrix: (Units=GPa)
#
#
# Indices 1 2 3 4 5 6 
#
# 1 80.2917 37.0703 20.7169 -22.6699 12.2727 3.4688
# 2 37.0703 159.1158 62.0267 -47.9672 5.0327 -11.3842
# 3 20.7169 62.0267 132.4256 -28.0007 6.6308 -7.0961
# 4 -22.6699 -47.9672 -28.0007 58.4702 5.5589 2.6908
# 5 12.2727 5.0327 6.6308 5.5589 42.0841 -8.0895
# 6 3.4688 -11.3842 -7.0961 2.6908 -8.0895 36.9962
#
#
#
# Elastic Compliance Matrix: (Units=1/GPa)
#
#
# Indices 1 2 3 4 5 6 
#
# 1 0.016003 -0.002191 -0.000346 0.004966 -0.005748 -0.003859
# 2 -0.002191 0.009835 -0.002907 0.005768 -0.000426 0.002162
# 3 -0.000346 -0.002907 0.009507 0.002125 -0.001226 0.000539
# 4 0.004966 0.005768 0.002125 0.025426 -0.006114 -0.001469
# 5 -0.005748 -0.000426 -0.001226 -0.006114 0.027776 0.006691
# 6 -0.003859 0.002162 0.000539 -0.001469 0.006691 0.029730
#
#
# Mechanical properties :
#
#
# Convention : Reuss Voigt Hill
#
# Bulk Modulus (GPa) = 40.88931 67.94010 54.41471
# Shear Modulus (GPa) = 36.41179 44.31140 40.36159
#
# Velocity S-wave (km/s) = 3.77461 4.16398 3.97406
# Velocity P-wave (km/s) = 5.91579 7.05002 6.50766
#
# Compressibility (1/GPa) = 0.02445627
#
# Stress axis : x y z
#
# Youngs Moduli (GPa) = 62.48975 101.67380 105.18570
#
# Poissons Ratio (x) = 0.22272 0.03645
# Poissons Ratio (y) = 0.13689 0.30581
# Poissons Ratio (z) = 0.02165 0.29560
#
# Static dielectric constant tensor:
#      x y z
#    x 2.361350 0.075490 -0.071560 
#    y 0.075490 2.018660 -0.038530 
#    z -0.071560 -0.038530 2.080810 
# 
# From -- ./inp_files/352224.got.cif
#   From: 2010.05.17/outbox.cif.g08.bks.cpg/sg2_177_cif.got.tgz:352224.got - 2010.06.03 11:33:40.
