data_PCOD9108982
_publ_section_title
;
Structure prediction by ZEFSAII (Michael W. Deem and Ramdas Pophale) SiO2 
 PCOD9108982
Probable space group: P -1
;
_chemical_formula_sum "Si O2"
_cell_formula_units_Z 14
_cell_length_a 15.231591
_cell_length_b 16.597312
_cell_length_c 11.888448
_cell_angle_alpha 151.791389
_cell_angle_beta 152.214608
_cell_angle_gamma 31.554151
_cell_volume 625.344603
_symmetry_space_group_name_H-M "P -1"
_symmetry_group_IT_number 2
_symmetry_cell_setting 'triclinic'
loop_
_space_group_symop_operation_xyz
x,y,z
-x,-y,-z
loop_
_atom_site_type_symbol
_atom_site_label
_atom_site_fract_x
_atom_site_fract_y
_atom_site_fract_z
Si Si1 0.920197 0.605583 0.424685
Si Si2 0.747574 0.587022 0.589941
Si Si3 0.458751 0.905314 0.518107
Si Si4 0.160703 0.603298 0.324408
Si Si5 0.903507 0.971627 0.601215
Si Si6 0.240088 0.999458 0.175375
Si Si7 0.145671 0.666676 0.140773
O O1 0.807341 0.807487 0.579598
O O2 0.000000 0.500000 0.500000
O O3 0.112718 0.578607 0.530360
O O4 0.795352 0.501028 0.085633
O O5 0.571296 0.721362 0.484858
O O6 0.697976 0.507720 0.552172
O O7 0.908189 0.693204 0.922540
O O8 0.614650 0.995309 0.756424
O O9 0.300042 0.035269 0.583164
O O10 0.349858 0.865028 0.233174
O O11 0.244494 0.620704 0.318054
O O12 0.033440 0.800298 0.468046
O O13 0.000000 0.500000 0.000000
O O14 0.846371 0.152563 0.684643
O O15 0.039875 0.990335 0.883238
#
# Coordination Sequence:
#
# PCOD9108982 Si02
#       7
#     2   2   2   2   2   2   2
#     4  10  16  36  67  84 131 170 193 256 324 368
#     4   9  19  40  64  89 131 172 206 255 319 371
#     4  11  23  37  65  97 135 164 208 265 321 375
#     4  10  22  42  69  90 124 178 216 259 323 374
#     4  12  22  41  68  97 122 169 221 257 318 386
#     4  11  22  42  60 100 135 170 202 260 325 383
#     4   9  20  39  70  88 126 171 212 257 315 374
#
# _framework density 22.387657000000001
#
# number of rings (size 3 to 8) (size 9 to 14) (size 15 to 20)
#    0.857    0.857    4.286    1.714    0.000    0.000 
#    0.000   11.429    0.000    0.000    0.000    0.000 
#    0.000    0.000    0.000    0.000    0.000    0.000 
#
# Total GULP energy -78162.728168 kJ/mol
# GULP energy per Si atom -5583.052012 kJ/mol
# Density = 2.233670 g / cm^3
# Si number density = 22.387657 Si / 1000 Ang^3
#
#
#
# Elastic Constant Matrix: (Units=GPa)
#
#
# Indices 1 2 3 4 5 6 
#
# 1 130.7532 45.4423 32.1963 -12.7970 -19.6032 27.0931
# 2 45.4423 77.3409 33.3402 -7.3155 -12.6132 24.5561
# 3 32.1963 33.3402 43.7049 13.5811 -12.6344 5.1012
# 4 -12.7970 -7.3155 13.5811 31.3702 -0.6703 -7.1499
# 5 -19.6032 -12.6132 -12.6344 -0.6703 30.5091 -9.1779
# 6 27.0931 24.5561 5.1012 -7.1499 -9.1779 45.6230
#
#
#
# Elastic Compliance Matrix: (Units=1/GPa)
#
#
# Indices 1 2 3 4 5 6 
#
# 1 0.012375 -0.000233 -0.010402 0.008588 0.002467 -0.004218
# 2 -0.000233 0.028579 -0.025681 0.015297 -0.001739 -0.010325
# 3 -0.010402 -0.025681 0.063085 -0.035110 0.010955 0.009647
# 4 0.008588 0.015297 -0.035110 0.053796 -0.001926 -0.001365
# 5 0.002467 -0.001739 0.010955 -0.001926 0.039936 0.005978
# 6 -0.004218 -0.010325 0.009647 -0.001365 0.005978 0.029891
#
#
# Mechanical properties :
#
#
# Convention : Reuss Voigt Hill
#
# Bulk Modulus (GPa) = 31.83915 52.63961 42.23938
# Shear Modulus (GPa) = 16.08953 30.88849 23.48901
#
# Velocity S-wave (km/s) = 2.68373 3.71848 3.24264
# Velocity P-wave (km/s) = 4.88424 6.48073 5.73828
#
# Compressibility (1/GPa) = 0.03140788
#
# Stress axis : x y z
#
# Youngs Moduli (GPa) = 80.81021 34.99132 15.85163
#
# Poissons Ratio (x) = 0.00815 0.16488
# Poissons Ratio (y) = 0.01882 0.40708
# Poissons Ratio (z) = 0.84056 0.89860
#
# Static dielectric constant tensor:
#      x y z
#    x 1.888980 0.017490 -0.006990 
#    y 0.017490 1.832540 -0.034630 
#    z -0.006990 -0.034630 1.821110 
# 
# From -- ./inp_files/456861.got.cif
#   From: 2010.05.17/outbox.cif.g08.bks.cpg/sg2_229_cif.got.tgz:456861.got - 2010.06.03 11:33:40.
