data_PCOD9108487
_publ_section_title
;
Structure prediction by ZEFSAII (Michael W. Deem and Ramdas Pophale) SiO2 
 PCOD9108487
Probable space group: P -1
;
_chemical_formula_sum "Si O2"
_cell_formula_units_Z 15
_cell_length_a 11.694011
_cell_length_b 9.235678
_cell_length_c 16.551928
_cell_angle_alpha 113.220156
_cell_angle_beta 157.213711
_cell_angle_gamma 67.742762
_cell_volume 635.677152
_symmetry_space_group_name_H-M "P -1"
_symmetry_group_IT_number 2
_symmetry_cell_setting 'triclinic'
loop_
_space_group_symop_operation_xyz
x,y,z
-x,-y,-z
loop_
_atom_site_type_symbol
_atom_site_label
_atom_site_fract_x
_atom_site_fract_y
_atom_site_fract_z
Si Si1 0.745910 0.325358 0.425897
Si Si2 0.500000 0.000000 0.000000
Si Si3 0.321346 0.585422 0.977083
Si Si4 0.286877 0.857637 0.313862
Si Si5 0.821254 0.676151 0.551771
Si Si6 0.030240 0.288934 0.772190
Si Si7 0.238305 0.169055 0.610448
Si Si8 0.653105 0.923314 0.896759
O O1 0.818115 0.497103 0.478179
O O2 0.814722 0.329473 0.565840
O O3 0.968580 0.196316 0.501478
O O4 0.427723 0.259547 0.189289
O O5 0.416038 0.000054 0.044149
O O6 0.729342 0.846526 0.126742
O O7 0.045850 0.676314 0.772986
O O8 0.202854 0.450444 0.928190
O O9 0.500000 0.500000 0.000000
O O10 0.530546 0.699908 0.185771
O O11 0.490203 0.729444 0.371512
O O12 0.158911 0.776304 0.292322
O O13 0.500000 0.000000 0.500000
O O14 0.992434 0.928239 0.094540
O O15 0.907507 0.796257 0.564084
O O16 0.426797 0.007238 0.704817
#
# Coordination Sequence:
#
# PCOD9108487 Si02
#       8
#     2   1   2   2   2   2   2   2
#     4  11  24  44  67 109 135 178 231 296 356 411
#     4  10  20  40  68  98 132 180 226 290 350 408
#     4  11  22  44  70 106 141 177 231 290 355 413
#     4  11  27  48  69  99 136 195 238 281 345 423
#     4  11  27  45  69 102 147 186 231 285 350 420
#     4  10  23  42  69  99 138 181 234 287 346 417
#     4  12  24  43  72 109 140 184 224 300 351 416
#     4  11  25  43  70 102 138 181 240 288 353 408
#
# _framework density 23.596883999999999
#
# number of rings (size 3 to 8) (size 9 to 14) (size 15 to 20)
#    0.000    1.067    4.000    1.600    5.600    6.400 
#    2.400    0.000    0.000    0.000    0.000    0.000 
#    0.000    0.000    0.000    0.000    0.000    0.000 
#
# Total GULP energy -83718.376821 kJ/mol
# GULP energy per Si atom -5581.225121 kJ/mol
# Density = 2.354318 g / cm^3
# Si number density = 23.596884 Si / 1000 Ang^3
#
#
#
# Elastic Constant Matrix: (Units=GPa)
#
#
# Indices 1 2 3 4 5 6 
#
# 1 37.0318 8.6535 -9.6955 -1.6639 1.8979 13.1850
# 2 8.6535 76.0902 29.8774 -2.9013 -3.3659 18.3119
# 3 -9.6955 29.8774 95.7101 8.5260 5.9362 2.0029
# 4 -1.6639 -2.9013 8.5260 47.3322 7.3976 5.5753
# 5 1.8979 -3.3659 5.9362 7.3976 30.7111 -9.9700
# 6 13.1850 18.3119 2.0029 5.5753 -9.9700 38.1832
#
#
#
# Elastic Compliance Matrix: (Units=1/GPa)
#
#
# Indices 1 2 3 4 5 6 
#
# 1 0.034289 -0.002862 0.004900 0.003045 -0.008456 -0.013377
# 2 -0.002862 0.017749 -0.005939 0.002941 0.000088 -0.007619
# 3 0.004900 -0.005939 0.013171 -0.002094 -0.002999 -0.000012
# 4 0.003045 0.002941 -0.002094 0.023937 -0.007785 -0.007880
# 5 -0.008456 0.000088 -0.002999 -0.007785 0.040321 0.014700
# 6 -0.013377 -0.007619 -0.000012 -0.007880 0.014700 0.039452
#
#
# Mechanical properties :
#
#
# Convention : Reuss Voigt Hill
#
# Bulk Modulus (GPa) = 17.41928 29.61142 23.51535
# Shear Modulus (GPa) = 25.52898 35.24506 30.38702
#
# Velocity S-wave (km/s) = 3.29276 3.86895 3.59242
# Velocity P-wave (km/s) = 4.67487 5.70390 5.21483
#
# Compressibility (1/GPa) = 0.05740765
#
# Stress axis : x y z
#
# Youngs Moduli (GPa) = 29.16414 56.34049 75.92273
#
# Poissons Ratio (x) = 0.16126 -0.37204
# Poissons Ratio (y) = 0.08348 0.45088
# Poissons Ratio (z) = -0.14291 0.33459
#
# Static dielectric constant tensor:
#      x y z
#    x 1.875170 0.045620 -0.033680 
#    y 0.045620 1.951780 0.005930 
#    z -0.033680 0.005930 1.930070 
# 
# From -- ./inp_files/177913.got.cif
#   From: 2010.05.17/outbox.cif.g08.bks.cpg/sg2_89_cif.got.tgz:177913.got - 2010.06.03 11:33:40.
