data_PCOD9108561
_publ_section_title
;
Structure prediction by ZEFSAII (Michael W. Deem and Ramdas Pophale) SiO2 
 PCOD9108561
Probable space group: P -1
;
_chemical_formula_sum "Si O2"
_cell_formula_units_Z 12
_cell_length_a 9.301527
_cell_length_b 15.062046
_cell_length_c 8.410377
_cell_angle_alpha 39.813987
_cell_angle_beta 47.777846
_cell_angle_gamma 47.479010
_cell_volume 526.079531
_symmetry_space_group_name_H-M "P -1"
_symmetry_group_IT_number 2
_symmetry_cell_setting 'triclinic'
loop_
_space_group_symop_operation_xyz
x,y,z
-x,-y,-z
loop_
_atom_site_type_symbol
_atom_site_label
_atom_site_fract_x
_atom_site_fract_y
_atom_site_fract_z
Si Si1 0.022058 0.295473 0.480979
Si Si2 0.332827 0.428337 0.670802
Si Si3 0.171961 0.042493 0.215018
Si Si4 0.217734 0.896943 0.043496
Si Si5 0.835734 0.663126 0.360628
Si Si6 0.364723 0.129674 0.231780
O O1 0.185133 0.276977 0.527246
O O2 0.148814 0.181229 0.413256
O O3 0.903392 0.461224 0.284829
O O4 0.822305 0.255899 0.740833
O O5 0.500000 0.500000 0.500000
O O6 0.341189 0.371579 0.560100
O O7 0.366552 0.285522 0.947377
O O8 0.347956 0.029319 0.233962
O O9 0.233826 0.937137 0.160939
O O10 0.109090 0.211547 0.958014
O O11 0.000000 0.000000 0.500000
O O12 0.412076 0.920694 0.781875
O O13 0.000000 0.000000 0.000000
O O14 0.000000 0.500000 0.500000
#
# Coordination Sequence:
#
# PCOD9108561 Si02
#       6
#     2   2   2   2   2   2
#     4  11  21  42  65  94 130 171 216 266 329 391
#     4  10  20  40  69  92 128 170 219 271 324 382
#     4  11  22  42  66  98 129 174 219 269 328 390
#     4  12  24  42  64  92 136 172 216 271 325 395
#     4   9  21  40  67  93 132 170 212 272 324 385
#     4  11  24  41  66  96 130 173 218 272 327 386
#
# _framework density 22.810237999999998
#
# number of rings (size 3 to 8) (size 9 to 14) (size 15 to 20)
#    0.000    1.333    5.000    1.000    0.000    0.667 
#    0.000    2.500    0.000    0.000    0.000    0.000 
#    0.000    0.000    0.000    0.000    0.000    0.000 
#
# Total GULP energy -66821.377268 kJ/mol
# GULP energy per Si atom -5568.448106 kJ/mol
# Density = 2.275832 g / cm^3
# Si number density = 22.810238 Si / 1000 Ang^3
#
#
#
# Elastic Constant Matrix: (Units=GPa)
#
#
# Indices 1 2 3 4 5 6 
#
# 1 138.6315 19.7105 15.2055 7.7290 -28.3778 7.5991
# 2 19.7105 54.4454 1.9309 2.0903 0.4541 2.0792
# 3 15.2055 1.9309 76.7660 -5.9829 -20.7522 -1.1877
# 4 7.7290 2.0903 -5.9829 38.3383 -5.3523 1.7350
# 5 -28.3778 0.4541 -20.7522 -5.3523 31.6420 -7.6415
# 6 7.5991 2.0792 -1.1877 1.7350 -7.6415 46.7308
#
#
#
# Elastic Compliance Matrix: (Units=1/GPa)
#
#
# Indices 1 2 3 4 5 6 
#
# 1 0.009488 -0.003519 0.000587 -0.000391 0.008902 0.000099
# 2 -0.003519 0.019806 -0.001166 -0.001155 -0.004655 -0.001057
# 3 0.000587 -0.001166 0.016773 0.004248 0.012823 0.002322
# 4 -0.000391 -0.001155 0.004248 0.027885 0.007259 0.000375
# 5 0.008902 -0.004655 0.012823 0.007259 0.051021 0.007159
# 6 0.000099 -0.001057 0.002322 0.000375 0.007159 0.022646
#
#
# Mechanical properties :
#
#
# Convention : Reuss Voigt Hill
#
# Bulk Modulus (GPa) = 26.40548 38.17074 32.28811
# Shear Modulus (GPa) = 29.68462 38.87529 34.27996
#
# Velocity S-wave (km/s) = 3.61137 4.13279 3.88084
# Velocity P-wave (km/s) = 5.38429 6.28837 5.85381
#
# Compressibility (1/GPa) = 0.03787093
#
# Stress axis : x y z
#
# Youngs Moduli (GPa) = 105.39683 50.49041 59.61946
#
# Poissons Ratio (x) = 0.17766 -0.03498
# Poissons Ratio (y) = 0.37086 0.06952
# Poissons Ratio (z) = -0.06184 0.05887
#
# Static dielectric constant tensor:
#      x y z
#    x 1.914590 -0.027760 0.037250 
#    y -0.027760 1.944750 -0.081450 
#    z 0.037250 -0.081450 2.075110 
# 
# From -- ./inp_files/22221.got.cif
#   From: 2010.05.17/outbox.cif.g08.bks.cpg/sg2_12_cif.got.tgz:22221.got - 2010.06.03 11:33:40.
