data_PCOD9108415
_publ_section_title
;
Structure prediction by ZEFSAII (Michael W. Deem and Ramdas Pophale) SiO2 
 PCOD9108415
Probable space group: P -1
;
_chemical_formula_sum "Si O2"
_cell_formula_units_Z 14
_cell_length_a 9.602037
_cell_length_b 9.954806
_cell_length_c 11.552627
_cell_angle_alpha 62.124137
_cell_angle_beta 77.613186
_cell_angle_gamma 39.659140
_cell_volume 601.931180
_symmetry_space_group_name_H-M "P -1"
_symmetry_group_IT_number 2
_symmetry_cell_setting 'triclinic'
loop_
_space_group_symop_operation_xyz
x,y,z
-x,-y,-z
loop_
_atom_site_type_symbol
_atom_site_label
_atom_site_fract_x
_atom_site_fract_y
_atom_site_fract_z
Si Si1 0.120506 0.770325 0.495641
Si Si2 0.697541 0.859431 0.928416
Si Si3 0.405000 0.711167 0.280488
Si Si4 0.997866 0.351320 0.832802
Si Si5 0.174524 0.279929 0.469755
Si Si6 0.411478 0.514207 0.130963
Si Si7 0.423860 0.941878 0.751350
O O1 0.224701 0.759638 0.365196
O O2 0.345544 0.510249 0.618227
O O3 0.933050 0.795654 0.504038
O O4 0.000000 0.000000 0.500000
O O5 0.679323 0.046259 0.808450
O O6 0.628754 0.807447 0.856278
O O7 0.910037 0.665816 0.053492
O O8 0.500000 0.000000 0.000000
O O9 0.431903 0.619925 0.184910
O O10 0.849692 0.595415 0.688679
O O11 0.846078 0.329350 0.890188
O O12 0.205765 0.137178 0.796228
O O13 0.392597 0.084251 0.592886
O O14 0.000000 0.500000 0.500000
O O15 0.555222 0.241732 0.233578
O O16 0.500000 0.500000 0.000000
#
# Coordination Sequence:
#
# PCOD9108415 Si02
#       7
#     2   2   2   2   2   2   2
#     4  11  24  42  67  98 131 172 218 272 334 392
#     4  10  21  41  66  93 132 176 217 266 325 390
#     4  11  24  42  64  95 136 172 215 275 329 384
#     4  10  23  41  65  93 131 175 217 272 327 383
#     4  10  20  40  68  94 127 168 218 272 327 388
#     4  12  26  41  65  99 135 175 221 268 328 397
#     4  10  22  41  66  96 128 170 222 272 324 389
#
# _framework density 23.258472000000001
#
# number of rings (size 3 to 8) (size 9 to 14) (size 15 to 20)
#    0.000    1.429    0.000    6.857    0.000    8.000 
#    0.000    0.000    0.000    0.000    0.000    0.000 
#    0.000    0.000    0.000    0.000    0.000    0.000 
#
# Total GULP energy -78274.062397 kJ/mol
# GULP energy per Si atom -5591.004457 kJ/mol
# Density = 2.320553 g / cm^3
# Si number density = 23.258472 Si / 1000 Ang^3
#
#
#
# Elastic Constant Matrix: (Units=GPa)
#
#
# Indices 1 2 3 4 5 6 
#
# 1 85.0687 -2.8452 27.2952 3.4189 4.0211 -7.4977
# 2 -2.8452 80.5918 5.7764 8.3900 4.2714 -8.3538
# 3 27.2952 5.7764 116.0229 9.0796 -2.4718 -27.4158
# 4 3.4189 8.3900 9.0796 50.9561 -6.7373 3.2098
# 5 4.0211 4.2714 -2.4718 -6.7373 36.9824 -5.8634
# 6 -7.4977 -8.3538 -27.4158 3.2098 -5.8634 41.2866
#
#
#
# Elastic Compliance Matrix: (Units=1/GPa)
#
#
# Indices 1 2 3 4 5 6 
#
# 1 0.012883 0.000875 -0.002973 -0.000736 -0.001779 0.000347
# 2 0.000875 0.013084 -0.000040 -0.002597 -0.001646 0.002748
# 3 -0.002973 -0.000040 0.011254 -0.002014 0.001878 0.007349
# 4 -0.000736 -0.002597 -0.002014 0.021133 0.003599 -0.003128
# 5 -0.001779 -0.001646 0.001878 0.003599 0.028905 0.004416
# 6 0.000347 0.002748 0.007349 -0.003128 0.004416 0.030590
#
#
# Mechanical properties :
#
#
# Convention : Reuss Voigt Hill
#
# Bulk Modulus (GPa) = 30.35249 38.01512 34.18381
# Shear Modulus (GPa) = 37.56374 42.60882 40.08628
#
# Velocity S-wave (km/s) = 4.02314 4.28480 4.15603
# Velocity P-wave (km/s) = 5.88721 6.39214 6.14486
#
# Compressibility (1/GPa) = 0.03294622
#
# Stress axis : x y z
#
# Youngs Moduli (GPa) = 77.62460 76.42701 88.85412
#
# Poissons Ratio (x) = -0.06685 0.26412
# Poissons Ratio (y) = -0.06790 0.00353
# Poissons Ratio (z) = 0.23074 0.00304
#
# Static dielectric constant tensor:
#      x y z
#    x 1.731030 -0.086990 0.076340 
#    y -0.086990 1.855080 -0.012780 
#    z 0.076340 -0.012780 1.867200 
# 
# From -- ./inp_files/378831.got.cif
#   From: 2010.05.17/outbox.cif.g08.bks.cpg/sg2_190_cif.got.tgz:378831.got - 2010.06.03 11:33:40.
