data_PCOD9108766
_publ_section_title
;
Structure prediction by ZEFSAII (Michael W. Deem and Ramdas Pophale) SiO2 
 PCOD9108766
Probable space group: P -1
;
_chemical_formula_sum "Si O2"
_cell_formula_units_Z 12
_cell_length_a 8.383932
_cell_length_b 8.436016
_cell_length_c 10.910962
_cell_angle_alpha 67.124306
_cell_angle_beta 108.221804
_cell_angle_gamma 61.351602
_cell_volume 490.922000
_symmetry_space_group_name_H-M "P -1"
_symmetry_group_IT_number 2
_symmetry_cell_setting 'triclinic'
loop_
_space_group_symop_operation_xyz
x,y,z
-x,-y,-z
loop_
_atom_site_type_symbol
_atom_site_label
_atom_site_fract_x
_atom_site_fract_y
_atom_site_fract_z
Si Si1 0.226568 0.299225 0.043813
Si Si2 0.473505 0.693750 0.006281
Si Si3 0.855825 0.859247 0.381874
Si Si4 0.519119 0.172159 0.388650
Si Si5 0.321835 0.407136 0.513847
Si Si6 0.253322 0.879127 0.139838
O O1 0.286719 0.371784 0.920556
O O2 0.402599 0.237888 0.208920
O O3 0.756874 0.907266 0.928096
O O4 0.000000 0.500000 0.000000
O O5 0.273842 0.953820 0.819713
O O6 0.414262 0.693256 0.129079
O O7 0.500000 0.500000 0.000000
O O8 0.120880 0.657765 0.458006
O O9 0.755624 0.733960 0.419463
O O10 0.783801 0.006008 0.450005
O O11 0.356527 0.393439 0.377837
O O12 0.500000 0.000000 0.500000
O O13 0.587766 0.260507 0.660656
O O14 0.000000 0.000000 0.000000
#
# Coordination Sequence:
#
# PCOD9108766 Si02
#       6
#     2   2   2   2   2   2
#     4  11  23  40  73 102 134 188 227 291 358 418
#     4  11  24  45  66  99 146 183 237 291 349 419
#     4   9  20  39  71 101 131 177 236 290 356 406
#     4   9  17  37  64 104 133 162 234 285 353 413
#     4  10  20  40  71 108 131 181 229 302 352 424
#     4  12  25  44  65 104 147 184 235 283 356 431
#
# _framework density 24.443802000000002
#
# number of rings (size 3 to 8) (size 9 to 14) (size 15 to 20)
#    0.000    1.667    5.000    1.500    2.333    2.667 
#    3.000    1.667    0.000    0.000    0.000    0.000 
#    0.000    0.000    0.000    0.000    0.000    0.000 
#
# Total GULP energy -66809.020364 kJ/mol
# GULP energy per Si atom -5567.418364 kJ/mol
# Density = 2.438817 g / cm^3
# Si number density = 24.443802 Si / 1000 Ang^3
#
#
#
# Elastic Constant Matrix: (Units=GPa)
#
#
# Indices 1 2 3 4 5 6 
#
# 1 94.8891 32.2265 23.0203 -0.3661 18.6795 -13.8886
# 2 32.2265 129.7969 -2.3001 4.7994 16.0509 -22.1830
# 3 23.0203 -2.3001 44.8057 2.2618 13.3001 -8.4215
# 4 -0.3661 4.7994 2.2618 36.7622 -6.9637 0.9242
# 5 18.6795 16.0509 13.3001 -6.9637 35.4560 -3.9912
# 6 -13.8886 -22.1830 -8.4215 0.9242 -3.9912 54.3913
#
#
#
# Elastic Compliance Matrix: (Units=1/GPa)
#
#
# Indices 1 2 3 4 5 6 
#
# 1 0.013856 -0.002916 -0.006004 0.000184 -0.003562 0.001155
# 2 -0.002916 0.009768 0.004146 -0.002508 -0.004529 0.003592
# 3 -0.006004 0.004146 0.029651 -0.004470 -0.010256 0.004072
# 4 0.000184 -0.002508 -0.004470 0.029421 0.008318 -0.001557
# 5 -0.003562 -0.004529 -0.010256 0.008318 0.037416 -0.001740
# 6 0.001155 0.003592 0.004072 -0.001557 -0.001740 0.020674
#
#
# Mechanical properties :
#
#
# Convention : Reuss Voigt Hill
#
# Bulk Modulus (GPa) = 22.86833 41.70946 32.28889
# Shear Modulus (GPa) = 30.31941 39.75824 35.03883
#
# Velocity S-wave (km/s) = 3.52571 4.03738 3.79019
# Velocity P-wave (km/s) = 5.09411 6.23173 5.69141
#
# Compressibility (1/GPa) = 0.04372860
#
# Stress axis : x y z
#
# Youngs Moduli (GPa) = 72.16951 102.37115 33.72516
#
# Poissons Ratio (x) = 0.29848 0.20248
# Poissons Ratio (y) = 0.21042 -0.13981
# Poissons Ratio (z) = 0.43329 -0.42439
#
# Static dielectric constant tensor:
#      x y z
#    x 2.304170 -0.189970 0.053070 
#    y -0.189970 2.088050 -0.091240 
#    z 0.053070 -0.091240 2.066240 
# 
# From -- ./inp_files/374122.got.cif
#   From: 2010.05.17/outbox.cif.g08.bks.cpg/sg2_188_cif.got.tgz:374122.got - 2010.06.03 11:33:40.
