data_PCOD9108914
_publ_section_title
;
Structure prediction by ZEFSAII (Michael W. Deem and Ramdas Pophale) SiO2 
 PCOD9108914
Probable space group: P -1
;
_chemical_formula_sum "Si O2"
_cell_formula_units_Z 14
_cell_length_a 22.286140
_cell_length_b 5.109924
_cell_length_c 7.671474
_cell_angle_alpha 91.303409
_cell_angle_beta 44.167657
_cell_angle_gamma 102.008441
_cell_volume 585.045759
_symmetry_space_group_name_H-M "P -1"
_symmetry_group_IT_number 2
_symmetry_cell_setting 'triclinic'
loop_
_space_group_symop_operation_xyz
x,y,z
-x,-y,-z
loop_
_atom_site_type_symbol
_atom_site_label
_atom_site_fract_x
_atom_site_fract_y
_atom_site_fract_z
Si Si1 0.341988 0.897833 0.062488
Si Si2 0.579653 0.756157 0.782354
Si Si3 0.255909 0.469578 0.499663
Si Si4 0.428087 0.223836 0.585564
Si Si5 0.768507 0.835154 0.926207
Si Si6 0.946038 0.702793 0.045893
Si Si7 0.832614 0.403633 0.981442
O O1 0.296641 0.609588 0.236275
O O2 0.404740 0.033511 0.091928
O O3 0.404511 0.965546 0.762461
O O4 0.261452 0.035925 0.186528
O O5 0.674399 0.684362 0.582028
O O6 0.558272 0.850242 0.640404
O O7 0.500000 0.500000 0.000000
O O8 0.153041 0.320612 0.673650
O O9 0.239865 0.644151 0.706583
O O10 0.500000 0.500000 0.500000
O O11 0.331400 0.285673 0.790426
O O12 0.812275 0.592060 0.871491
O O13 0.825091 0.104350 0.918234
O O14 0.920726 0.593193 0.898141
O O15 0.000000 0.500000 0.000000
O O16 0.000000 0.000000 0.000000
#
# Coordination Sequence:
#
# PCOD9108914 Si02
#       7
#     2   2   2   2   2   2   2
#     4  10  24  37  67  95 136 186 235 285 348 404
#     4  12  22  42  65  97 142 180 244 283 339 417
#     4  10  24  38  68 100 135 181 234 284 349 411
#     4  10  20  41  58  96 138 187 230 296 335 402
#     4  10  21  40  64  96 133 181 232 277 346 408
#     4  10  22  40  72 109 136 176 234 287 355 427
#     4  10  21  40  71  96 132 177 229 277 354 408
#
# _framework density 23.929753999999999
#
# number of rings (size 3 to 8) (size 9 to 14) (size 15 to 20)
#    1.714    0.000    2.857    1.714    4.000    0.571 
#    0.000    1.429    0.000    5.143    0.000    0.000 
#    0.000    0.000    0.000    0.000    0.000    0.000 
#
# Total GULP energy -77997.059162 kJ/mol
# GULP energy per Si atom -5571.218512 kJ/mol
# Density = 2.387529 g / cm^3
# Si number density = 23.929754 Si / 1000 Ang^3
#
#
#
# Elastic Constant Matrix: (Units=GPa)
#
#
# Indices 1 2 3 4 5 6 
#
# 1 174.4082 51.7832 41.7928 -13.6766 11.2403 5.1189
# 2 51.7832 127.7488 31.1039 -24.6099 -13.5068 10.9718
# 3 41.7928 31.1039 69.9470 -14.3644 5.0782 0.6342
# 4 -13.6766 -24.6099 -14.3644 28.5470 -0.8202 -8.1944
# 5 11.2403 -13.5068 5.0782 -0.8202 57.5819 -6.5523
# 6 5.1189 10.9718 0.6342 -8.1944 -6.5523 50.7990
#
#
#
# Elastic Compliance Matrix: (Units=1/GPa)
#
#
# Indices 1 2 3 4 5 6 
#
# 1 0.007322 -0.002395 -0.003256 -0.000380 -0.001763 -0.000469
# 2 -0.002395 0.011148 -0.002272 0.007261 0.003325 -0.000538
# 3 -0.003256 -0.002272 0.018610 0.006217 -0.001288 0.001423
# 4 -0.000380 0.007261 0.006217 0.046078 0.002586 0.006159
# 5 -0.001763 0.003325 -0.001288 0.002586 0.018906 0.002331
# 6 -0.000469 -0.000538 0.001423 0.006159 0.002331 0.021125
#
#
# Mechanical properties :
#
#
# Convention : Reuss Voigt Hill
#
# Bulk Modulus (GPa) = 47.09179 69.05153 58.07166
# Shear Modulus (GPa) = 34.21983 43.88053 39.05018
#
# Velocity S-wave (km/s) = 3.78565 4.28684 4.04402
# Velocity P-wave (km/s) = 6.23138 7.30899 6.79159
#
# Compressibility (1/GPa) = 0.02123513
#
# Stress axis : x y z
#
# Youngs Moduli (GPa) = 136.56567 89.69941 53.73564
#
# Poissons Ratio (x) = 0.21480 0.17497
# Poissons Ratio (y) = 0.32703 0.12208
# Poissons Ratio (z) = 0.44466 0.20379
#
# Static dielectric constant tensor:
#      x y z
#    x 1.677670 -0.237670 0.062560 
#    y -0.237670 1.723100 0.085350 
#    z 0.062560 0.085350 1.925250 
# 
# From -- ./inp_files/339368.got.cif
#   From: 2010.05.17/outbox.cif.g08.bks.cpg/sg2_170_cif.got.tgz:339368.got - 2010.06.03 11:33:40.
