data_PCOD9108491
_publ_section_title
;
Structure prediction by ZEFSAII (Michael W. Deem and Ramdas Pophale) SiO2 
 PCOD9108491
Probable space group: P -1
;
_chemical_formula_sum "Si O2"
_cell_formula_units_Z 16
_cell_length_a 13.299105
_cell_length_b 7.539900
_cell_length_c 16.122359
_cell_angle_alpha 102.809294
_cell_angle_beta 28.308256
_cell_angle_gamma 117.709692
_cell_volume 607.126801
_symmetry_space_group_name_H-M "P -1"
_symmetry_group_IT_number 2
_symmetry_cell_setting 'triclinic'
loop_
_space_group_symop_operation_xyz
x,y,z
-x,-y,-z
loop_
_atom_site_type_symbol
_atom_site_label
_atom_site_fract_x
_atom_site_fract_y
_atom_site_fract_z
Si Si1 0.768383 0.437545 0.222273
Si Si2 0.836509 0.468050 0.926341
Si Si3 0.056781 0.358817 0.618699
Si Si4 0.819597 0.947636 0.401851
Si Si5 0.248021 0.365113 0.228807
Si Si6 0.617586 0.956653 0.828894
Si Si7 0.977419 0.930809 0.106645
Si Si8 0.490773 0.328078 0.789367
O O1 0.490299 0.216423 0.380810
O O2 0.784349 0.663053 0.228817
O O3 0.886174 0.423981 0.221035
O O4 0.000000 0.500000 0.000000
O O5 0.900629 0.445776 0.783086
O O6 0.617301 0.204602 0.079784
O O7 0.702366 0.591567 0.057293
O O8 0.082558 0.200436 0.647543
O O9 0.335707 0.564467 0.406685
O O10 0.887526 0.197866 0.647437
O O11 0.882718 0.998255 0.263263
O O12 0.976056 0.180413 0.362587
O O13 0.295809 0.203596 0.228671
O O14 0.311847 0.560637 0.265368
O O15 0.500000 0.500000 0.000000
O O16 0.500000 0.000000 0.000000
O O17 0.000000 0.000000 0.000000
O O18 0.286862 0.063060 0.913680
#
# Coordination Sequence:
#
# PCOD9108491 Si02
#       8
#     2   2   2   2   2   2   2   2
#     4  12  26  45  67  97 133 183 233 280 327 412
#     4  10  21  40  66  93 135 175 226 274 337 401
#     4  10  20  40  68  99 129 178 230 273 340 403
#     4  11  23  43  73  95 133 186 226 274 347 403
#     4  10  20  40  68  98 134 172 220 277 347 400
#     4   8  18  34  62  92 123 169 216 268 321 396
#     4  12  25  43  67  98 138 176 226 282 337 402
#     4  11  24  42  71 104 137 173 224 288 340 404
#
# _framework density 26.353638
#
# number of rings (size 3 to 8) (size 9 to 14) (size 15 to 20)
#    0.000    1.500    2.500    2.625    1.750    5.500 
#    2.250    1.250    0.000    8.250    0.000    0.000 
#    0.000    0.000    0.000    0.000    0.000    0.000 
#
# Total GULP energy -89343.003100 kJ/mol
# GULP energy per Si atom -5583.937694 kJ/mol
# Density = 2.629366 g / cm^3
# Si number density = 26.353638 Si / 1000 Ang^3
#
#
#
# Elastic Constant Matrix: (Units=GPa)
#
#
# Indices 1 2 3 4 5 6 
#
# 1 113.2018 65.8736 47.8432 -19.0236 -15.8966 5.5267
# 2 65.8736 57.6370 35.9830 -14.2767 -19.3595 7.1856
# 3 47.8432 35.9830 171.1609 -35.6763 -19.4009 16.1720
# 4 -19.0236 -14.2767 -35.6763 50.2250 16.2423 -10.3943
# 5 -15.8966 -19.3595 -19.4009 16.2423 49.5539 -8.2473
# 6 5.5267 7.1856 16.1720 -10.3943 -8.2473 51.7241
#
#
#
# Elastic Compliance Matrix: (Units=1/GPa)
#
#
# Indices 1 2 3 4 5 6 
#
# 1 0.027621 -0.031998 -0.001177 0.002351 -0.004605 0.001600
# 2 -0.031998 0.059338 -0.002184 -0.001210 0.012049 -0.002464
# 3 -0.001177 -0.002184 0.007601 0.004027 0.000242 -0.001100
# 4 0.002351 -0.001210 0.004027 0.025903 -0.006153 0.002882
# 5 -0.004605 0.012049 0.000242 -0.006153 0.025791 0.001618
# 6 0.001600 -0.002464 -0.001100 0.002882 0.001618 0.020686
#
#
# Mechanical properties :
#
#
# Convention : Reuss Voigt Hill
#
# Bulk Modulus (GPa) = 41.94142 71.26658 56.60400
# Shear Modulus (GPa) = 20.35773 43.12060 31.73917
#
# Velocity S-wave (km/s) = 2.78237 4.04942 3.47415
# Velocity P-wave (km/s) = 5.12558 6.99749 6.13337
#
# Compressibility (1/GPa) = 0.02384278
#
# Stress axis : x y z
#
# Youngs Moduli (GPa) = 36.20384 16.85252 131.55498
#
# Poissons Ratio (x) = 0.53924 0.15485
# Poissons Ratio (y) = 1.15844 0.28737
# Poissons Ratio (z) = 0.04262 0.03681
#
# Static dielectric constant tensor:
#      x y z
#    x 2.033590 0.041140 -0.009850 
#    y 0.041140 2.242040 -0.000680 
#    z -0.009850 -0.000680 2.044080 
# 
# From -- ./inp_files/572681.got.cif
#   From: 2010.05.17/outbox.cif.g08.bks.cpg/sg2_287_cif.got.tgz:572681.got - 2010.06.03 11:33:40.
