data_PCOD9108523
_publ_section_title
;
Structure prediction by ZEFSAII (Michael W. Deem and Ramdas Pophale) SiO2 
 PCOD9108523
Probable space group: P -1
;
_chemical_formula_sum "Si O2"
_cell_formula_units_Z 16
_cell_length_a 9.242939
_cell_length_b 19.657733
_cell_length_c 14.056592
_cell_angle_alpha 37.847942
_cell_angle_beta 38.644287
_cell_angle_gamma 67.108153
_cell_volume 786.972767
_symmetry_space_group_name_H-M "P -1"
_symmetry_group_IT_number 2
_symmetry_cell_setting 'triclinic'
loop_
_space_group_symop_operation_xyz
x,y,z
-x,-y,-z
loop_
_atom_site_type_symbol
_atom_site_label
_atom_site_fract_x
_atom_site_fract_y
_atom_site_fract_z
Si Si1 0.160165 0.400945 0.787297
Si Si2 0.805128 0.617286 0.593699
Si Si3 0.100414 0.873160 0.666849
Si Si4 0.848603 0.835196 0.435263
Si Si5 0.132622 0.677780 0.175802
Si Si6 0.735333 0.442289 0.004467
Si Si7 0.812356 0.840515 0.657658
Si Si8 0.319185 0.975141 0.718144
O O1 0.500000 0.500000 0.500000
O O2 0.031637 0.396786 0.754700
O O3 0.013719 0.450440 0.877650
O O4 0.058098 0.251014 0.039566
O O5 0.960690 0.777630 0.365828
O O6 0.806389 0.547423 0.767198
O O7 0.954336 0.602200 0.445825
O O8 0.466460 0.550211 0.824878
O O9 0.948026 0.821366 0.700586
O O10 0.433831 0.932219 0.432917
O O11 0.109243 0.005959 0.543586
O O12 0.930666 0.833268 0.503629
O O13 0.877981 0.973251 0.248663
O O14 0.502988 0.713362 0.740430
O O15 0.464066 0.732562 0.953417
O O16 0.154471 0.817890 0.003453
O O17 0.500000 0.000000 0.500000
#
# Coordination Sequence:
#
# PCOD9108523 Si02
#       8
#     2   2   2   2   2   2   2   2
#     4  12  23  36  58  85 115 146 190 240 276 327
#     4   9  21  34  59  79 114 149 195 223 269 354
#     4  10  19  34  51  93 109 140 181 237 290 314
#     4  10  16  36  59  78 104 156 182 217 284 339
#     4  11  20  36  57  91 105 147 192 233 280 327
#     4   9  19  40  53  74 117 153 184 225 282 327
#     4  10  19  32  64  80 112 142 188 239 272 340
#     4  11  16  34  63  80 117 144 180 240 281 334
#
# _framework density 20.331073
#
# number of rings (size 3 to 8) (size 9 to 14) (size 15 to 20)
#    0.750    1.000    6.250    0.000    1.750    2.000 
#    0.000    0.625    2.750    6.750    0.000    0.000 
#    0.000    0.000    0.000    0.000    0.000    0.000 
#
# Total GULP energy -89153.867340 kJ/mol
# GULP energy per Si atom -5572.116709 kJ/mol
# Density = 2.028480 g / cm^3
# Si number density = 20.331073 Si / 1000 Ang^3
#
#
#
# Elastic Constant Matrix: (Units=GPa)
#
#
# Indices 1 2 3 4 5 6 
#
# 1 96.9310 17.2918 8.0484 10.8330 -9.9269 8.3774
# 2 17.2918 66.2727 12.9514 15.0565 -0.8598 1.7963
# 3 8.0484 12.9514 51.7001 5.2016 -6.0368 -1.9660
# 4 10.8330 15.0565 5.2016 24.1113 1.9144 8.5999
# 5 -9.9269 -0.8598 -6.0368 1.9144 29.3895 -2.1284
# 6 8.3774 1.7963 -1.9660 8.5999 -2.1284 18.8926
#
#
#
# Elastic Compliance Matrix: (Units=1/GPa)
#
#
# Indices 1 2 3 4 5 6 
#
# 1 0.011747 -0.002132 -0.000697 -0.002899 0.003709 -0.003341
# 2 -0.002132 0.018763 -0.003010 -0.011617 0.000269 0.004166
# 3 -0.000697 -0.003010 0.021459 -0.004798 0.004799 0.005553
# 4 -0.002899 -0.011617 -0.004798 0.061338 -0.008253 -0.026960
# 5 0.003709 0.000269 0.004799 -0.008253 0.037301 0.006788
# 6 -0.003341 0.004166 0.005553 -0.026960 0.006788 0.067631
#
#
# Mechanical properties :
#
#
# Convention : Reuss Voigt Hill
#
# Bulk Modulus (GPa) = 24.81813 32.38744 28.60279
# Shear Modulus (GPa) = 20.54671 26.25285 23.39978
#
# Velocity S-wave (km/s) = 3.18245 3.59732 3.39623
# Velocity P-wave (km/s) = 5.07321 5.76358 5.42938
#
# Compressibility (1/GPa) = 0.04029312
#
# Stress axis : x y z
#
# Youngs Moduli (GPa) = 85.12508 53.29509 46.60009
#
# Poissons Ratio (x) = 0.11360 0.03248
# Poissons Ratio (y) = 0.18144 0.14026
# Poissons Ratio (z) = 0.05934 0.16041
#
# Static dielectric constant tensor:
#      x y z
#    x 1.730770 -0.007570 0.025550 
#    y -0.007570 1.793150 -0.018200 
#    z 0.025550 -0.018200 1.734500 
# 
# From -- ./inp_files/508437.got.cif
#   From: 2010.05.17/outbox.cif.g08.bks.cpg/sg2_255_cif.got.tgz:508437.got - 2010.06.03 11:33:40.
