data_PCOD9108000
_publ_section_title
;
Structure prediction by ZEFSAII (Michael W. Deem and Ramdas Pophale) SiO2 
 PCOD9108000
Probable space group: P -1
;
_chemical_formula_sum "Si O2"
_cell_formula_units_Z 11
_cell_length_a 13.678572
_cell_length_b 6.640175
_cell_length_c 7.740489
_cell_angle_alpha 53.214831
_cell_angle_beta 73.674472
_cell_angle_gamma 107.556400
_cell_volume 427.574594
_symmetry_space_group_name_H-M "P -1"
_symmetry_group_IT_number 2
_symmetry_cell_setting 'triclinic'
loop_
_space_group_symop_operation_xyz
x,y,z
-x,-y,-z
loop_
_atom_site_type_symbol
_atom_site_label
_atom_site_fract_x
_atom_site_fract_y
_atom_site_fract_z
Si Si1 0.486192 0.543672 0.284134
Si Si2 0.723496 0.441045 0.774731
Si Si3 0.703017 0.162570 0.279436
Si Si4 0.990901 0.915097 0.249239
Si Si5 0.745055 0.779681 0.923247
Si Si6 0.000000 0.500000 0.000000
O O1 0.500000 0.500000 0.500000
O O2 0.391786 0.632228 0.247106
O O3 0.626418 0.783395 0.007834
O O4 0.414101 0.187791 0.423312
O O5 0.691165 0.183178 0.066614
O O6 0.753781 0.713116 0.755263
O O7 0.853756 0.591866 0.527618
O O8 0.706473 0.453001 0.201767
O O9 0.841662 0.246879 0.195874
O O10 0.114679 0.935880 0.224827
O O11 0.008983 0.208539 0.185515
O O12 0.000000 0.000000 0.000000
#
# Coordination Sequence:
#
# PCOD9108000 Si02
#       6
#     2   2   2   2   2   1
#     4  12  22  39  63  91 129 161 207 263 313 373
#     4  10  22  40  64  86 127 164 213 256 311 382
#     4   9  22  38  64  87 121 165 211 241 322 371
#     4  11  21  40  66  95 125 165 215 261 317 371
#     4   9  22  38  61  90 121 169 203 255 311 378
#     4  10  20  40  66  94 124 172 198 270 316 372
#
# _framework density 25.726503999999998
#
# number of rings (size 3 to 8) (size 9 to 14) (size 15 to 20)
#    1.091    0.727    1.818    2.727    0.000    0.727 
#    0.000    2.727    0.000    0.000    0.000    0.000 
#    0.000    0.000    0.000    0.000    0.000    0.000 
#
# Total GULP energy -61258.206156 kJ/mol
# GULP energy per Si atom -5568.927832 kJ/mol
# Density = 2.566795 g / cm^3
# Si number density = 25.726504 Si / 1000 Ang^3
#
#
#
# Elastic Constant Matrix: (Units=GPa)
#
#
# Indices 1 2 3 4 5 6 
#
# 1 195.6191 31.5349 56.8400 -23.3509 -37.1444 28.0514
# 2 31.5349 38.8444 14.6203 -3.5789 -7.7461 8.0253
# 3 56.8400 14.6203 99.9260 -10.6061 -26.2061 6.8224
# 4 -23.3509 -3.5789 -10.6061 33.8720 4.4809 7.0359
# 5 -37.1444 -7.7461 -26.2061 4.4809 47.4130 -11.7548
# 6 28.0514 8.0253 6.8224 7.0359 -11.7548 41.2997
#
#
#
# Elastic Compliance Matrix: (Units=1/GPa)
#
#
# Indices 1 2 3 4 5 6 
#
# 1 0.008250 -0.003775 -0.002552 0.005048 0.002843 -0.004499
# 2 -0.003775 0.030260 -0.001988 0.000601 0.000069 -0.003070
# 3 -0.002552 -0.001988 0.013140 0.001219 0.005121 0.001199
# 4 0.005048 0.000601 0.001219 0.035714 -0.001169 -0.010163
# 5 0.002843 0.000069 0.005121 -0.001169 0.027574 0.005257
# 6 -0.004499 -0.003070 0.001199 -0.010163 0.005257 0.030895
#
#
# Mechanical properties :
#
#
# Convention : Reuss Voigt Hill
#
# Bulk Modulus (GPa) = 28.55548 60.04224 44.29886
# Shear Modulus (GPa) = 28.71302 39.94321 34.32812
#
# Velocity S-wave (km/s) = 3.34441 3.94459 3.65684
# Velocity P-wave (km/s) = 5.10267 6.64347 5.92338
#
# Compressibility (1/GPa) = 0.03501954
#
# Stress axis : x y z
#
# Youngs Moduli (GPa) = 121.21932 33.04646 76.10193
#
# Poissons Ratio (x) = 0.12476 0.19418
# Poissons Ratio (y) = 0.45764 0.15133
# Poissons Ratio (z) = 0.30929 0.06571
#
# Static dielectric constant tensor:
#      x y z
#    x 2.007090 -0.073450 0.033350 
#    y -0.073450 2.197460 -0.089500 
#    z 0.033350 -0.089500 2.054900 
# 
# From -- ./inp_files/146341.got.cif
#   From: 2010.05.17/outbox.cif.g08.bks.cpg/sg2_74_cif.got.tgz:146341.got - 2010.06.03 11:33:40.
