data_PCOD9108969
_publ_section_title
;
Structure prediction by ZEFSAII (Michael W. Deem and Ramdas Pophale) SiO2 
 PCOD9108969
Probable space group: P -1
;
_chemical_formula_sum "Si O2"
_cell_formula_units_Z 13
_cell_length_a 8.352730
_cell_length_b 19.075915
_cell_length_c 8.343358
_cell_angle_alpha 150.803558
_cell_angle_beta 56.131819
_cell_angle_gamma 127.563427
_cell_volume 512.958113
_symmetry_space_group_name_H-M "P -1"
_symmetry_group_IT_number 2
_symmetry_cell_setting 'triclinic'
loop_
_space_group_symop_operation_xyz
x,y,z
-x,-y,-z
loop_
_atom_site_type_symbol
_atom_site_label
_atom_site_fract_x
_atom_site_fract_y
_atom_site_fract_z
Si Si1 0.098831 0.550009 0.782484
Si Si2 0.000000 0.000000 0.000000
Si Si3 0.911184 0.164734 0.806391
Si Si4 0.283729 0.882805 0.841043
Si Si5 0.650777 0.897297 0.236775
Si Si6 0.262679 0.426548 0.132675
Si Si7 0.623466 0.367169 0.933949
O O1 0.187232 0.477138 0.443351
O O2 0.142358 0.490978 0.194162
O O3 0.162969 0.729551 0.067187
O O4 0.191509 0.528989 0.857778
O O5 0.865648 0.045376 0.025314
O O6 0.215768 0.099593 0.988255
O O7 0.816125 0.995585 0.467305
O O8 0.825357 0.183828 0.065393
O O9 0.150716 0.246447 0.820879
O O10 0.319392 0.757900 0.452507
O O11 0.500000 0.000000 0.000000
O O12 0.533679 0.734494 0.048315
O O13 0.500000 0.000000 0.500000
O O14 0.497856 0.455438 0.079634
#
# Coordination Sequence:
#
# PCOD9108969 Si02
#       7
#     2   1   2   2   2   2   2
#     4   9  20  41  64  85 117 166 216 255 312 366
#     4  12  26  38  62  88 134 168 206 250 312 390
#     4  10  20  41  61  86 129 160 203 260 311 375
#     4  12  25  38  58  96 131 166 209 250 322 384
#     4  12  21  41  62  97 127 166 204 263 321 374
#     4   9  21  39  66  83 117 168 214 255 316 361
#     4  12  22  38  64  91 127 161 210 261 308 378
#
# _framework density 25.343198999999998
#
# number of rings (size 3 to 8) (size 9 to 14) (size 15 to 20)
#    0.923    0.308    4.615    1.385    2.154    1.231 
#    0.000    1.538    0.000    0.000    0.000    0.000 
#    0.000    0.000    0.000    0.000    0.000    0.000 
#
# Total GULP energy -72410.942385 kJ/mol
# GULP energy per Si atom -5570.072491 kJ/mol
# Density = 2.528552 g / cm^3
# Si number density = 25.343199 Si / 1000 Ang^3
#
#
#
# Elastic Constant Matrix: (Units=GPa)
#
#
# Indices 1 2 3 4 5 6 
#
# 1 246.6573 5.8504 42.6404 -9.7746 -0.7783 14.2620
# 2 5.8504 87.7351 -1.0355 -15.9057 -9.1225 9.7591
# 3 42.6404 -1.0355 58.6592 -11.4616 9.0207 16.4344
# 4 -9.7746 -15.9057 -11.4616 42.4103 3.4717 -6.3308
# 5 -0.7783 -9.1225 9.0207 3.4717 31.9232 -0.2828
# 6 14.2620 9.7591 16.4344 -6.3308 -0.2828 33.2354
#
#
#
# Elastic Compliance Matrix: (Units=1/GPa)
#
#
# Indices 1 2 3 4 5 6 
#
# 1 0.004681 -0.000237 -0.003528 -0.000079 0.001050 -0.000201
# 2 -0.000237 0.012954 0.001945 0.004552 0.002618 -0.003775
# 3 -0.003528 0.001945 0.024743 0.005661 -0.007229 -0.010275
# 4 -0.000079 0.004552 0.005661 0.027222 -0.003252 0.001056
# 5 0.001050 0.002618 -0.007229 -0.003252 0.034513 0.002029
# 6 -0.000201 -0.003775 -0.010275 0.001056 0.002029 0.036583
#
#
# Mechanical properties :
#
#
# Convention : Reuss Voigt Hill
#
# Bulk Modulus (GPa) = 25.81341 54.21801 40.01571
# Shear Modulus (GPa) = 31.79689 44.55354 38.17522
#
# Velocity S-wave (km/s) = 3.54595 4.19741 3.88536
# Velocity P-wave (km/s) = 5.19352 6.70306 5.99598
#
# Compressibility (1/GPa) = 0.03873955
#
# Stress axis : x y z
#
# Youngs Moduli (GPa) = 213.60687 77.19659 40.41533
#
# Poissons Ratio (x) = 0.01826 0.14258
# Poissons Ratio (y) = 0.05054 -0.07861
# Poissons Ratio (z) = 0.75358 -0.15015
#
# Static dielectric constant tensor:
#      x y z
#    x 2.043420 0.012920 -0.004020 
#    y 0.012920 2.001310 0.004720 
#    z -0.004020 0.004720 1.968970 
# 
# From -- ./inp_files/196483.got.cif
#   From: 2010.05.17/outbox.cif.g08.bks.cpg/sg2_99_cif.got.tgz:196483.got - 2010.06.03 11:33:40.
