data_PCOD9108614
_publ_section_title
;
Structure prediction by ZEFSAII (Michael W. Deem and Ramdas Pophale) SiO2 
 PCOD9108614
Probable space group: P -1
;
_chemical_formula_sum "Si O2"
_cell_formula_units_Z 16
_cell_length_a 8.611319
_cell_length_b 8.344873
_cell_length_c 11.618406
_cell_angle_alpha 83.893265
_cell_angle_beta 100.803435
_cell_angle_gamma 117.442395
_cell_volume 727.630909
_symmetry_space_group_name_H-M "P -1"
_symmetry_group_IT_number 2
_symmetry_cell_setting 'triclinic'
loop_
_space_group_symop_operation_xyz
x,y,z
-x,-y,-z
loop_
_atom_site_type_symbol
_atom_site_label
_atom_site_fract_x
_atom_site_fract_y
_atom_site_fract_z
Si Si1 0.338316 0.490113 0.403128
Si Si2 0.255771 0.324866 0.807027
Si Si3 0.847661 0.517215 0.834897
Si Si4 0.046979 0.772546 0.050530
Si Si5 0.657339 0.972981 0.080487
Si Si6 0.768435 0.310238 0.239542
Si Si7 0.182389 0.685222 0.492148
Si Si8 0.078055 0.190773 0.554122
O O1 0.500000 0.500000 0.500000
O O2 0.309944 0.478629 0.263052
O O3 0.312831 0.662841 0.424182
O O4 0.174173 0.321879 0.450931
O O5 0.303948 0.539518 0.808652
O O6 0.214254 0.263058 0.672901
O O7 0.069785 0.227569 0.858231
O O8 0.373956 0.228534 0.875039
O O9 0.831818 0.326910 0.891424
O O10 0.022506 0.585554 0.771853
O O11 0.907042 0.647193 0.943682
O O12 0.179574 0.954607 0.993016
O O13 0.708436 0.121088 0.179224
O O14 0.500000 0.000000 0.000000
O O15 0.738196 0.268958 0.373472
O O16 0.000000 0.500000 0.500000
O O17 0.100826 0.809085 0.424268
O O18 0.000000 0.000000 0.500000
#
# Coordination Sequence:
#
# PCOD9108614 Si02
#       8
#     2   2   2   2   2   2   2   2
#     4  11  22  37  60  96 130 158 202 263 323 380
#     4  11  21  39  65  90 116 163 218 250 304 382
#     4   9  17  36  64  88 115 161 209 255 302 366
#     4   9  20  38  63  86 113 164 216 256 294 364
#     4  11  25  40  56  90 131 159 200 266 319 363
#     4  10  18  38  65  85 116 161 209 247 299 374
#     4  10  16  36  60  87 116 159 204 244 304 379
#     4  11  22  38  66  96 120 164 213 262 310 381
#
# _framework density 21.989170000000001
#
# number of rings (size 3 to 8) (size 9 to 14) (size 15 to 20)
#    0.000    1.750    5.000    2.625    1.750    1.500 
#    2.250    0.625    0.000    0.000    0.000    0.000 
#    0.000    0.000    0.000    0.000    0.000    0.000 
#
# Total GULP energy -89093.616547 kJ/mol
# GULP energy per Si atom -5568.351034 kJ/mol
# Density = 2.193912 g / cm^3
# Si number density = 21.989170 Si / 1000 Ang^3
#
#
#
# Elastic Constant Matrix: (Units=GPa)
#
#
# Indices 1 2 3 4 5 6 
#
# 1 45.0083 15.6948 10.6262 -1.8114 20.6178 -19.0936
# 2 15.6948 32.7241 6.5741 -1.9749 7.0294 -10.3039
# 3 10.6262 6.5741 113.1056 -7.3515 9.3676 0.4406
# 4 -1.8114 -1.9749 -7.3515 21.1056 -9.2892 -0.3219
# 5 20.6178 7.0294 9.3676 -9.2892 41.3902 -11.9436
# 6 -19.0936 -10.3039 0.4406 -0.3219 -11.9436 18.8428
#
#
#
# Elastic Compliance Matrix: (Units=1/GPa)
#
#
# Indices 1 2 3 4 5 6 
#
# 1 0.045458 -0.007996 -0.003174 -0.002293 -0.011066 0.034711
# 2 -0.007996 0.039122 -0.001572 0.003982 0.003003 0.015299
# 3 -0.003174 -0.001572 0.009501 0.002261 -0.001253 -0.005054
# 4 -0.002293 0.003982 0.002261 0.055278 0.015390 0.010500
# 5 -0.011066 0.003003 -0.001253 0.015390 0.036988 0.014166
# 6 0.034711 0.015299 -0.005054 0.010500 0.014166 0.105887
#
#
# Mechanical properties :
#
#
# Convention : Reuss Voigt Hill
#
# Bulk Modulus (GPa) = 14.57796 28.51425 21.54610
# Shear Modulus (GPa) = 14.68066 26.79724 20.73895
#
# Velocity S-wave (km/s) = 2.58666 3.49471 3.07440
# Velocity P-wave (km/s) = 3.94526 5.41106 4.73522
#
# Compressibility (1/GPa) = 0.06859670
#
# Stress axis : x y z
#
# Youngs Moduli (GPa) = 21.99831 25.56116 105.24872
#
# Poissons Ratio (x) = 0.20440 0.33403
# Poissons Ratio (y) = 0.17591 0.16547
# Poissons Ratio (z) = 0.06982 0.04019
#
# Static dielectric constant tensor:
#      x y z
#    x 1.803630 -0.317440 -0.257910 
#    y -0.317440 0.751470 -1.170360 
#    z -0.257910 -1.170360 0.615220 
# 
# From -- ./inp_files/382061.got.cif
#   From: 2010.05.17/outbox.cif.g08.bks.cpg/sg2_192_cif.got.tgz:382061.got - 2010.06.03 11:33:40.
