data_PCOD9108998
_publ_section_title
;
Structure prediction by ZEFSAII (Michael W. Deem and Ramdas Pophale) SiO2 
 PCOD9108998
Probable space group: P -1
;
_chemical_formula_sum "Si O2"
_cell_formula_units_Z 12
_cell_length_a 9.031752
_cell_length_b 10.360706
_cell_length_c 12.513904
_cell_angle_alpha 36.885830
_cell_angle_beta 49.266298
_cell_angle_gamma 44.946884
_cell_volume 486.103615
_symmetry_space_group_name_H-M "P -1"
_symmetry_group_IT_number 2
_symmetry_cell_setting 'triclinic'
loop_
_space_group_symop_operation_xyz
x,y,z
-x,-y,-z
loop_
_atom_site_type_symbol
_atom_site_label
_atom_site_fract_x
_atom_site_fract_y
_atom_site_fract_z
Si Si1 0.088183 0.139379 0.971907
Si Si2 0.769853 0.628310 0.080355
Si Si3 0.328287 0.831584 0.747754
Si Si4 0.229713 0.827443 0.545576
Si Si5 0.320777 0.264840 0.602019
Si Si6 0.641781 0.385223 0.814269
O O1 0.849105 0.226635 0.068852
O O2 0.176393 0.866031 0.078648
O O3 0.224287 0.154575 0.001574
O O4 0.141340 0.284694 0.758218
O O5 0.757942 0.434432 0.296692
O O6 0.569001 0.666884 0.074306
O O7 0.000000 0.500000 0.000000
O O8 0.257321 0.867575 0.632758
O O9 0.554278 0.605312 0.790925
O O10 0.331157 0.063868 0.645391
O O11 0.443117 0.831764 0.391255
O O12 0.000000 0.000000 0.500000
O O13 0.291964 0.501764 0.395346
#
# Coordination Sequence:
#
# PCOD9108998 Si02
#       6
#     2   2   2   2   2   2
#     4  12  23  38  71  95 127 179 218 262 331 390
#     4  10  20  41  61  89 136 165 209 278 321 375
#     4  10  22  46  65  92 143 170 210 276 323 382
#     4  10  22  39  71  97 123 178 219 263 335 380
#     4  10  24  43  64  99 136 168 221 272 315 396
#     4  10  23  41  65  93 132 177 214 270 330 373
#
# _framework density 24.686097
#
# number of rings (size 3 to 8) (size 9 to 14) (size 15 to 20)
#    0.000    2.000    3.333    3.000    2.333    6.667 
#    0.000    5.000    0.000    0.000    0.000    0.000 
#    0.000    0.000    0.000    0.000    0.000    0.000 
#
# Total GULP energy -67118.281622 kJ/mol
# GULP energy per Si atom -5593.190135 kJ/mol
# Density = 2.462991 g / cm^3
# Si number density = 24.686097 Si / 1000 Ang^3
#
#
#
# Elastic Constant Matrix: (Units=GPa)
#
#
# Indices 1 2 3 4 5 6 
#
# 1 72.0363 14.4226 27.7793 -2.0779 -14.6189 -5.5113
# 2 14.4226 82.1699 35.2547 12.4055 -1.2487 -4.9044
# 3 27.7793 35.2547 128.5351 29.9781 -21.1195 -17.8285
# 4 -2.0779 12.4055 29.9781 43.7437 -7.7419 -7.8583
# 5 -14.6189 -1.2487 -21.1195 -7.7419 39.3466 -7.0409
# 6 -5.5113 -4.9044 -17.8285 -7.8583 -7.0409 48.4632
#
#
#
# Elastic Compliance Matrix: (Units=1/GPa)
#
#
# Indices 1 2 3 4 5 6 
#
# 1 0.016998 -0.002259 -0.002878 0.004915 0.006082 0.002326
# 2 -0.002259 0.014329 -0.003466 -0.002470 -0.002893 -0.000903
# 3 -0.002878 -0.003466 0.011985 -0.005913 0.004709 0.003456
# 4 0.004915 -0.002470 -0.005913 0.029383 0.005004 0.003625
# 5 0.006082 -0.002893 0.004709 0.005004 0.032466 0.007659
# 6 0.002326 -0.000903 0.003456 0.003625 0.007659 0.023779
#
#
# Mechanical properties :
#
#
# Convention : Reuss Voigt Hill
#
# Bulk Modulus (GPa) = 38.30870 48.62828 43.46849
# Shear Modulus (GPa) = 32.28935 39.99635 36.14285
#
# Velocity S-wave (km/s) = 3.62055 4.02953 3.83050
# Velocity P-wave (km/s) = 5.74716 6.43358 6.10003
#
# Compressibility (1/GPa) = 0.02610373
#
# Stress axis : x y z
#
# Youngs Moduli (GPa) = 58.82946 69.78998 83.43851
#
# Poissons Ratio (x) = 0.15769 0.24016
# Poissons Ratio (y) = 0.13292 0.28923
# Poissons Ratio (z) = 0.16933 0.24192
#
# Static dielectric constant tensor:
#      x y z
#    x 2.039720 0.022610 0.021780 
#    y 0.022610 1.942570 0.017240 
#    z 0.021780 0.017240 1.971100 
# 
# From -- ./inp_files/422677.got.cif
#   From: 2010.05.17/outbox.cif.g08.bks.cpg/sg2_212_cif.got.tgz:422677.got - 2010.06.03 11:33:40.
