data_PCOD9108042
_publ_section_title
;
Structure prediction by ZEFSAII (Michael W. Deem and Ramdas Pophale) SiO2 
 PCOD9108042
Probable space group: P -1
;
_chemical_formula_sum "Si O2"
_cell_formula_units_Z 16
_cell_length_a 11.521641
_cell_length_b 14.569230
_cell_length_c 8.923392
_cell_angle_alpha 91.290397
_cell_angle_beta 127.233248
_cell_angle_gamma 45.933319
_cell_volume 615.110595
_symmetry_space_group_name_H-M "P -1"
_symmetry_group_IT_number 2
_symmetry_cell_setting 'triclinic'
loop_
_space_group_symop_operation_xyz
x,y,z
-x,-y,-z
loop_
_atom_site_type_symbol
_atom_site_label
_atom_site_fract_x
_atom_site_fract_y
_atom_site_fract_z
Si Si1 0.208002 0.174413 0.600017
Si Si2 0.304820 0.233910 0.130285
Si Si3 0.065439 0.726006 0.081319
Si Si4 0.115743 0.787409 0.432346
Si Si5 0.652273 0.480249 0.995021
Si Si6 0.310655 0.925965 0.326750
Si Si7 0.713876 0.674955 0.198989
Si Si8 0.778192 0.130916 0.049987
O O1 0.356138 0.185546 0.782275
O O2 0.030452 0.216617 0.591372
O O3 0.441437 0.975562 0.718790
O O4 0.968126 0.333059 0.296491
O O5 0.407969 0.225565 0.363234
O O6 0.269412 0.319429 0.964543
O O7 0.022033 0.328714 0.942338
O O8 0.180699 0.718469 0.312875
O O9 0.271903 0.619216 0.099024
O O10 0.773561 0.932626 0.809117
O O11 0.389954 0.678141 0.726301
O O12 0.892477 0.987966 0.239770
O O13 0.500000 0.500000 0.000000
O O14 0.297465 0.861291 0.177620
O O15 0.048556 0.048314 0.238991
O O16 0.519951 0.693155 0.098341
O O17 0.000000 0.500000 0.500000
#
# Coordination Sequence:
#
# PCOD9108042 Si02
#       8
#     2   2   2   2   2   2   2   2
#     4  11  21  43  68  98 133 172 227 279 325 393
#     4  12  23  43  72 101 129 180 229 274 335 397
#     4  11  21  39  67 100 129 174 225 275 327 398
#     4  10  20  40  66  95 132 175 224 270 331 393
#     4  10  23  36  62 100 130 166 220 281 326 381
#     4  10  23  41  69 100 131 175 224 277 327 406
#     4  12  27  45  66  99 137 177 221 281 338 397
#     4  10  23  44  66  93 139 178 215 273 344 396
#
# _framework density 26.011583999999999
#
# number of rings (size 3 to 8) (size 9 to 14) (size 15 to 20)
#    0.000    1.250    3.750    2.625    1.750    3.500 
#    6.750    0.625    0.000    0.000    0.000    0.000 
#    0.000    0.000    0.000    0.000    0.000    0.000 
#
# Total GULP energy -89516.060633 kJ/mol
# GULP energy per Si atom -5594.753790 kJ/mol
# Density = 2.595238 g / cm^3
# Si number density = 26.011584 Si / 1000 Ang^3
#
#
#
# Elastic Constant Matrix: (Units=GPa)
#
#
# Indices 1 2 3 4 5 6 
#
# 1 123.6697 4.1248 16.2595 10.0041 -4.2647 -13.6978
# 2 4.1248 29.6895 11.0652 12.1644 2.4675 -10.7258
# 3 16.2595 11.0652 163.2030 9.3676 -15.2799 0.1754
# 4 10.0041 12.1644 9.3676 33.0201 -0.3587 -2.2667
# 5 -4.2647 2.4675 -15.2799 -0.3587 30.8139 3.7100
# 6 -13.6978 -10.7258 0.1754 -2.2667 3.7100 37.1412
#
#
#
# Elastic Compliance Matrix: (Units=1/GPa)
#
#
# Indices 1 2 3 4 5 6 
#
# 1 0.008753 0.001413 -0.000792 -0.002708 0.000259 0.003449
# 2 0.001413 0.046666 -0.003053 -0.015886 -0.006893 0.013731
# 3 -0.000792 -0.003053 0.006797 -0.000634 0.003692 -0.001613
# 4 -0.002708 -0.015886 -0.000634 0.036914 0.001431 -0.003473
# 5 0.000259 -0.006893 0.003692 0.001431 0.035535 -0.005375
# 6 0.003449 0.013731 -0.001613 -0.003473 -0.005375 0.032494
#
#
# Mechanical properties :
#
#
# Convention : Reuss Voigt Hill
#
# Bulk Modulus (GPa) = 17.43612 42.16235 29.79923
# Shear Modulus (GPa) = 26.15876 39.20256 32.68066
#
# Velocity S-wave (km/s) = 3.17465 3.88638 3.54840
# Velocity P-wave (km/s) = 4.48950 6.03182 5.31688
#
# Compressibility (1/GPa) = 0.05735220
#
# Stress axis : x y z
#
# Youngs Moduli (GPa) = 114.24605 21.42903 147.12246
#
# Poissons Ratio (x) = -0.03028 0.11650
# Poissons Ratio (y) = -0.16145 0.44917
# Poissons Ratio (z) = 0.09047 0.06542
#
# Static dielectric constant tensor:
#      x y z
#    x 2.030420 0.004230 0.031150 
#    y 0.004230 2.156730 -0.025000 
#    z 0.031150 -0.025000 2.022640 
# 
# From -- ./inp_files/279420.got.cif
#   From: 2010.05.17/outbox.cif.g08.bks.cpg/sg2_140_cif.got.tgz:279420.got - 2010.06.03 11:33:40.
