data_PCOD9108939
_publ_section_title
;
Structure prediction by ZEFSAII (Michael W. Deem and Ramdas Pophale) SiO2 
 PCOD9108939
Probable space group: P -1
;
_chemical_formula_sum "Si O2"
_cell_formula_units_Z 16
_cell_length_a 13.706454
_cell_length_b 14.673940
_cell_length_c 9.650293
_cell_angle_alpha 139.443188
_cell_angle_beta 118.665870
_cell_angle_gamma 40.023155
_cell_volume 787.018506
_symmetry_space_group_name_H-M "P -1"
_symmetry_group_IT_number 2
_symmetry_cell_setting 'triclinic'
loop_
_space_group_symop_operation_xyz
x,y,z
-x,-y,-z
loop_
_atom_site_type_symbol
_atom_site_label
_atom_site_fract_x
_atom_site_fract_y
_atom_site_fract_z
Si Si1 0.636217 0.292330 0.278604
Si Si2 0.057074 0.577087 0.974788
Si Si3 0.123396 0.528360 0.290346
Si Si4 0.025140 0.899565 0.755729
Si Si5 0.399277 0.193485 0.743257
Si Si6 0.119676 0.832186 0.276231
Si Si7 0.473221 0.158109 0.069466
Si Si8 0.534315 0.542738 0.927808
O O1 0.500000 0.500000 0.500000
O O2 0.811538 0.188801 0.300287
O O3 0.607263 0.157453 0.150499
O O4 0.597122 0.348985 0.154298
O O5 0.212645 0.349720 0.784516
O O6 0.917649 0.598660 0.861709
O O7 0.067380 0.599758 0.174144
O O8 0.066413 0.720271 0.077281
O O9 0.042824 0.715320 0.549206
O O10 0.310029 0.377904 0.253932
O O11 0.890695 0.065469 0.749871
O O12 0.000000 0.000000 0.000000
O O13 0.500000 0.000000 0.500000
O O14 0.442769 0.136048 0.866621
O O15 0.439067 0.316325 0.869242
O O16 0.299012 0.663260 0.253296
O O17 0.000000 0.000000 0.500000
O O18 0.500000 0.000000 0.000000
O O19 0.500000 0.500000 0.000000
#
# Coordination Sequence:
#
# PCOD9108939 Si02
#       8
#     2   2   2   2   2   2   2   2
#     4  11  22  41  63  87 128 165 199 260 313 359
#     4   9  20  38  64  87 116 161 204 258 295 359
#     4  10  20  41  60  87 124 157 206 252 306 364
#     4  12  25  40  62  96 132 163 201 261 326 370
#     4   9  20  39  60  86 120 153 200 256 305 355
#     4  11  21  40  65  92 120 161 219 252 297 379
#     4  10  22  39  60  88 119 161 210 244 302 377
#     4  10  22  40  61  90 124 159 206 253 307 368
#
# _framework density 20.329891
#
# number of rings (size 3 to 8) (size 9 to 14) (size 15 to 20)
#    0.000    1.750    2.500    2.250    1.750    4.000 
#    6.750    0.625    0.000    0.000    0.000    0.000 
#    0.000    0.000    0.000    0.000    0.000    0.000 
#
# Total GULP energy -89319.015591 kJ/mol
# GULP energy per Si atom -5582.438474 kJ/mol
# Density = 2.028362 g / cm^3
# Si number density = 20.329891 Si / 1000 Ang^3
#
#
#
# Elastic Constant Matrix: (Units=GPa)
#
#
# Indices 1 2 3 4 5 6 
#
# 1 66.9105 23.3219 4.4690 -0.2807 2.9063 9.6998
# 2 23.3219 57.2409 21.4436 12.0729 9.9804 15.7897
# 3 4.4690 21.4436 102.0685 24.6185 -19.2607 6.5635
# 4 -0.2807 12.0729 24.6185 22.0174 -4.4098 -1.2750
# 5 2.9063 9.9804 -19.2607 -4.4098 26.4056 -3.0232
# 6 9.6998 15.7897 6.5635 -1.2750 -3.0232 41.6996
#
#
#
# Elastic Compliance Matrix: (Units=1/GPa)
#
#
# Indices 1 2 3 4 5 6 
#
# 1 0.017987 -0.008772 0.000294 0.005147 0.002343 -0.000581
# 2 -0.008772 0.033356 -0.005556 -0.016839 -0.019843 -0.011669
# 3 0.000294 -0.005556 0.016261 -0.012774 0.011789 -0.000060
# 4 0.005147 -0.016839 -0.012774 0.071502 0.009574 0.010070
# 5 0.002343 -0.019843 0.011789 0.009574 0.056398 0.009494
# 6 -0.000581 -0.011669 -0.000060 0.010070 0.009494 0.029540
#
#
# Mechanical properties :
#
#
# Convention : Reuss Voigt Hill
#
# Bulk Modulus (GPa) = 25.29426 36.07654 30.68540
# Shear Modulus (GPa) = 18.77636 29.82357 24.29996
#
# Velocity S-wave (km/s) = 3.04235 3.83427 3.46104
# Velocity P-wave (km/s) = 4.98097 6.11443 5.57658
#
# Compressibility (1/GPa) = 0.03953466
#
# Stress axis : x y z
#
# Youngs Moduli (GPa) = 55.59427 29.97989 61.49557
#
# Poissons Ratio (x) = 0.26299 -0.01805
# Poissons Ratio (y) = 0.48769 0.34167
# Poissons Ratio (z) = -0.01632 0.16657
#
# Static dielectric constant tensor:
#      x y z
#    x 1.391110 -0.116930 -0.002890 
#    y -0.116930 1.531640 0.077470 
#    z -0.002890 0.077470 1.680270 
# 
# From -- ./inp_files/314258.got.cif
#   From: 2010.05.17/outbox.cif.g08.bks.cpg/sg2_158_cif.got.tgz:314258.got - 2010.06.03 11:33:40.
