data_PCOD9108562
_publ_section_title
;
Structure prediction by ZEFSAII (Michael W. Deem and Ramdas Pophale) SiO2 
 PCOD9108562
Probable space group: P -1
;
_chemical_formula_sum "Si O2"
_cell_formula_units_Z 14
_cell_length_a 8.835058
_cell_length_b 11.223353
_cell_length_c 7.877976
_cell_angle_alpha 120.288469
_cell_angle_beta 77.770613
_cell_angle_gamma 92.510915
_cell_volume 657.391629
_symmetry_space_group_name_H-M "P -1"
_symmetry_group_IT_number 2
_symmetry_cell_setting 'triclinic'
loop_
_space_group_symop_operation_xyz
x,y,z
-x,-y,-z
loop_
_atom_site_type_symbol
_atom_site_label
_atom_site_fract_x
_atom_site_fract_y
_atom_site_fract_z
Si Si1 0.317654 0.840376 0.530846
Si Si2 0.861204 0.235492 0.171093
Si Si3 0.577927 0.635416 0.146750
Si Si4 0.981242 0.791822 0.545729
Si Si5 0.738113 0.007102 0.827006
Si Si6 0.120463 0.472743 0.799458
Si Si7 0.599819 0.889267 0.119339
O O1 0.288282 0.778138 0.681793
O O2 0.451881 0.742316 0.344399
O O3 0.151456 0.828956 0.470499
O O4 0.349206 0.998651 0.674722
O O5 0.863285 0.384856 0.199168
O O6 0.998596 0.203571 0.250753
O O7 0.851666 0.118902 0.948416
O O8 0.716050 0.585598 0.203521
O O9 0.640999 0.731988 0.052556
O O10 0.500000 0.500000 0.000000
O O11 0.838490 0.898744 0.609949
O O12 0.946473 0.641060 0.387157
O O13 0.586489 0.082779 0.833174
O O14 0.672929 0.927841 0.949440
O O15 0.000000 0.500000 0.000000
#
# Coordination Sequence:
#
# PCOD9108562 Si02
#       7
#     2   2   2   2   2   2   2
#     4   9  22  40  62  87 123 162 203 252 306 354
#     4   9  22  41  66  89 127 158 210 252 299 370
#     4  12  25  40  60  89 131 161 200 258 310 359
#     4  10  22  40  66  91 122 159 210 251 303 363
#     4  10  20  40  69  93 115 166 210 251 306 363
#     4  12  26  41  62  93 125 168 204 249 313 367
#     4  10  22  39  63  93 126 156 205 256 306 365
#
# _framework density 21.296285000000001
#
# number of rings (size 3 to 8) (size 9 to 14) (size 15 to 20)
#    0.857    0.857    0.000    3.857    2.000    1.714 
#    0.000    2.143    0.000    0.000    0.000    0.000 
#    0.000    0.000    0.000    0.000    0.000    0.000 
#
# Total GULP energy -78220.318145 kJ/mol
# GULP energy per Si atom -5587.165582 kJ/mol
# Density = 2.124781 g / cm^3
# Si number density = 21.296285 Si / 1000 Ang^3
#
#
#
# Elastic Constant Matrix: (Units=GPa)
#
#
# Indices 1 2 3 4 5 6 
#
# 1 88.5917 26.4678 11.3255 11.0716 1.3365 -2.2794
# 2 26.4678 105.3328 18.9207 20.7468 20.4683 5.7854
# 3 11.3255 18.9207 53.0784 22.6325 1.0612 19.6779
# 4 11.0716 20.7468 22.6325 28.4502 9.1644 8.7975
# 5 1.3365 20.4683 1.0612 9.1644 41.1805 12.7662
# 6 -2.2794 5.7854 19.6779 8.7975 12.7662 28.3639
#
#
#
# Elastic Compliance Matrix: (Units=1/GPa)
#
#
# Indices 1 2 3 4 5 6 
#
# 1 0.012740 -0.002587 -0.001949 -0.002763 0.000432 0.003566
# 2 -0.002587 0.012667 -0.003109 -0.004900 -0.006178 0.003666
# 3 -0.001949 -0.003109 0.041000 -0.026109 0.014552 -0.026419
# 4 -0.002763 -0.004900 -0.026109 0.063030 -0.012347 0.004898
# 5 0.000432 -0.006178 0.014552 -0.012347 0.036322 -0.021319
# 6 0.003566 0.003666 -0.026419 0.004898 -0.021319 0.061199
#
#
# Mechanical properties :
#
#
# Convention : Reuss Voigt Hill
#
# Bulk Modulus (GPa) = 19.56305 40.04790 29.80547
# Shear Modulus (GPa) = 19.28360 32.28484 25.78422
#
# Velocity S-wave (km/s) = 3.01240 3.89779 3.48334
# Velocity P-wave (km/s) = 4.61579 6.25323 5.49584
#
# Compressibility (1/GPa) = 0.05111679
#
# Stress axis : x y z
#
# Youngs Moduli (GPa) = 78.49124 78.94822 24.39012
#
# Poissons Ratio (x) = 0.20423 0.04753
# Poissons Ratio (y) = 0.20305 0.07584
# Poissons Ratio (z) = 0.15297 0.24548
#
# Static dielectric constant tensor:
#      x y z
#    x 1.773370 0.018470 0.003250 
#    y 0.018470 1.762250 -0.050950 
#    z 0.003250 -0.050950 1.750590 
# 
# From -- ./inp_files/190663.got.cif
#   From: 2010.05.17/outbox.cif.g08.bks.cpg/sg2_96_cif.got.tgz:190663.got - 2010.06.03 11:33:40.
