data_PCOD9108263
_publ_section_title
;
Structure prediction by ZEFSAII (Michael W. Deem and Ramdas Pophale) SiO2 
 PCOD9108263
Probable space group: P -1
;
_chemical_formula_sum "Si O2"
_cell_formula_units_Z 12
_cell_length_a 10.795162
_cell_length_b 12.363977
_cell_length_c 14.339393
_cell_angle_alpha 45.390501
_cell_angle_beta 27.751071
_cell_angle_gamma 35.495312
_cell_volume 516.265393
_symmetry_space_group_name_H-M "P -1"
_symmetry_group_IT_number 2
_symmetry_cell_setting 'triclinic'
loop_
_space_group_symop_operation_xyz
x,y,z
-x,-y,-z
loop_
_atom_site_type_symbol
_atom_site_label
_atom_site_fract_x
_atom_site_fract_y
_atom_site_fract_z
Si Si1 0.246646 0.064455 0.870075
Si Si2 0.132487 0.088876 0.721976
Si Si3 0.509103 0.476518 0.362814
Si Si4 0.660001 0.198424 0.587488
Si Si5 0.237938 0.367440 0.256486
Si Si6 0.450083 0.522974 0.171868
O O1 0.553500 0.853211 0.768103
O O2 0.095502 0.153284 0.815761
O O3 0.389763 0.162411 0.765339
O O4 0.995878 0.041841 0.108323
O O5 0.880648 0.268627 0.719479
O O6 0.500000 0.000000 0.500000
O O7 0.303216 0.699529 0.586904
O O8 0.634535 0.445698 0.192897
O O9 0.144342 0.531533 0.558953
O O10 0.537691 0.346140 0.663360
O O11 0.000000 0.000000 0.500000
O O12 0.341136 0.406221 0.262765
O O13 0.344273 0.447919 0.055968
#
# Coordination Sequence:
#
# PCOD9108263 Si02
#       6
#     2   2   2   2   2   2
#     4  10  21  40  64  98 135 174 218 274 337 386
#     4  10  21  38  67  99 132 167 219 280 337 396
#     4  11  23  43  69  93 133 184 225 270 336 393
#     4  11  24  44  68  94 138 184 226 275 323 400
#     4  10  20  40  67  95 137 167 215 288 335 393
#     4  10  22  40  65 100 130 172 223 275 342 399
#
# _framework density 23.243857999999999
#
# number of rings (size 3 to 8) (size 9 to 14) (size 15 to 20)
#    0.000    1.667    1.667    2.500    0.000    2.667 
#    0.000    8.333    0.000    0.000    0.000    0.000 
#    0.000    0.000    0.000    0.000    0.000    0.000 
#
# Total GULP energy -67239.186634 kJ/mol
# GULP energy per Si atom -5603.265553 kJ/mol
# Density = 2.319095 g / cm^3
# Si number density = 23.243858 Si / 1000 Ang^3
#
#
#
# Elastic Constant Matrix: (Units=GPa)
#
#
# Indices 1 2 3 4 5 6 
#
# 1 136.6456 75.5159 23.0271 -17.2349 20.0541 16.8016
# 2 75.5159 143.4878 37.8342 -10.0762 7.0385 6.4061
# 3 23.0271 37.8342 80.5829 -11.1350 6.5047 3.7763
# 4 -17.2349 -10.0762 -11.1350 25.1531 5.1592 -21.2450
# 5 20.0541 7.0385 6.5047 5.1592 35.5629 -2.0386
# 6 16.8016 6.4061 3.7763 -21.2450 -2.0386 51.8628
#
#
#
# Elastic Compliance Matrix: (Units=1/GPa)
#
#
# Indices 1 2 3 4 5 6 
#
# 1 0.012515 -0.005900 0.000848 0.007584 -0.007177 -0.000563
# 2 -0.005900 0.010852 -0.003812 -0.001576 0.002122 0.000286
# 3 0.000848 -0.003812 0.015337 0.008705 -0.003648 0.002502
# 4 0.007584 -0.001576 0.008705 0.073792 -0.014728 0.026753
# 5 -0.007177 0.002122 -0.003648 -0.014728 0.034416 -0.002352
# 6 -0.000563 0.000286 0.002502 0.026753 -0.002352 0.030113
#
#
# Mechanical properties :
#
#
# Convention : Reuss Voigt Hill
#
# Bulk Modulus (GPa) = 47.67451 70.38563 59.03007
# Shear Modulus (GPa) = 24.78373 37.47171 31.12772
#
# Velocity S-wave (km/s) = 3.26889 4.01947 3.66345
# Velocity P-wave (km/s) = 5.89937 7.20338 6.58374
#
# Compressibility (1/GPa) = 0.02097557
#
# Stress axis : x y z
#
# Youngs Moduli (GPa) = 79.90322 92.14932 65.20178
#
# Poissons Ratio (x) = 0.54371 -0.05526
# Poissons Ratio (y) = 0.47145 0.24852
# Poissons Ratio (z) = -0.06772 0.35123
#
# Static dielectric constant tensor:
#      x y z
#    x 1.846160 -0.037480 0.011210 
#    y -0.037480 1.912000 0.015080 
#    z 0.011210 0.015080 1.904780 
# 
# From -- ./inp_files/209616.got.cif
#   From: 2010.05.17/outbox.cif.g08.bks.cpg/sg2_105_cif.got.tgz:209616.got - 2010.06.03 11:33:40.
