data_PCOD9108247
_publ_section_title
;
Structure prediction by ZEFSAII (Michael W. Deem and Ramdas Pophale) SiO2 
 PCOD9108247
Probable space group: P -1
;
_chemical_formula_sum "Si O2"
_cell_formula_units_Z 14
_cell_length_a 12.729368
_cell_length_b 14.629725
_cell_length_c 22.027638
_cell_angle_alpha 151.077506
_cell_angle_beta 20.275335
_cell_angle_gamma 149.755079
_cell_volume 664.646660
_symmetry_space_group_name_H-M "P -1"
_symmetry_group_IT_number 2
_symmetry_cell_setting 'triclinic'
loop_
_space_group_symop_operation_xyz
x,y,z
-x,-y,-z
loop_
_atom_site_type_symbol
_atom_site_label
_atom_site_fract_x
_atom_site_fract_y
_atom_site_fract_z
Si Si1 0.184384 0.706512 0.792966
Si Si2 0.839547 0.967426 0.788940
Si Si3 0.087070 0.598952 0.444096
Si Si4 0.214089 0.135152 0.804192
Si Si5 0.176870 0.774210 0.705480
Si Si6 0.869968 0.884094 0.406194
Si Si7 0.079479 0.256042 0.577072
O O1 0.105430 0.810894 0.835525
O O2 0.088804 0.479236 0.694330
O O3 0.559550 0.761725 0.634624
O O4 0.993222 0.745994 0.977501
O O5 0.862940 0.744390 0.638354
O O6 0.047669 0.049269 0.782217
O O7 0.969186 0.088123 0.728868
O O8 0.500000 0.000000 0.000000
O O9 0.439624 0.735269 0.324622
O O10 0.000000 0.500000 0.500000
O O11 0.040716 0.420327 0.318399
O O12 0.212004 0.953723 0.744622
O O13 0.526700 0.744705 0.504012
O O14 0.027664 0.804998 0.331493
O O15 0.865693 0.101886 0.558056
#
# Coordination Sequence:
#
# PCOD9108247 Si02
#       7
#     2   2   2   2   2   2   2
#     4  10  22  40  67 101 132 176 223 274 338 398
#     4  12  25  43  71  98 135 177 225 278 337 398
#     4  12  25  46  70  96 136 180 224 275 334 399
#     4  12  25  45  67  99 139 174 223 283 329 399
#     4  11  23  43  70  95 132 179 224 271 332 404
#     4  10  20  40  67  94 130 181 214 273 341 389
#     4   9  20  41  65  97 140 167 219 283 334 398
#
# _framework density 21.063824
#
# number of rings (size 3 to 8) (size 9 to 14) (size 15 to 20)
#    0.000    1.143    2.857    3.429    0.000    4.000 
#    7.714    2.143    0.000    0.000    0.000    0.000 
#    0.000    0.000    0.000    0.000    0.000    0.000 
#
# Total GULP energy -78222.846731 kJ/mol
# GULP energy per Si atom -5587.346195 kJ/mol
# Density = 2.101588 g / cm^3
# Si number density = 21.063824 Si / 1000 Ang^3
#
#
#
# Elastic Constant Matrix: (Units=GPa)
#
#
# Indices 1 2 3 4 5 6 
#
# 1 106.6495 24.6670 29.2983 -10.3535 20.2087 -11.3485
# 2 24.6670 109.3490 20.0944 -1.9199 -5.9899 -5.9862
# 3 29.2983 20.0944 68.4217 3.4533 7.9642 -19.1208
# 4 -10.3535 -1.9199 3.4533 12.7304 -5.8146 4.8287
# 5 20.2087 -5.9899 7.9642 -5.8146 28.2463 -6.9198
# 6 -11.3485 -5.9862 -19.1208 4.8287 -6.9198 35.7021
#
#
#
# Elastic Compliance Matrix: (Units=1/GPa)
#
#
# Indices 1 2 3 4 5 6 
#
# 1 0.013423 -0.002402 -0.005097 0.009245 -0.007140 -0.001500
# 2 -0.002402 0.010550 -0.002783 0.002770 0.005355 0.000178
# 3 -0.005097 -0.002783 0.022025 -0.016531 -0.003811 0.011206
# 4 0.009245 0.002770 -0.016531 0.104586 0.016129 -0.016469
# 5 -0.007140 0.005355 -0.003811 0.016129 0.046898 0.003495
# 6 -0.001500 0.000178 0.011206 -0.016469 0.003495 0.036469
#
#
# Mechanical properties :
#
#
# Convention : Reuss Voigt Hill
#
# Bulk Modulus (GPa) = 39.31890 48.05999 43.68944
# Shear Modulus (GPa) = 19.01187 29.35981 24.18584
#
# Velocity S-wave (km/s) = 3.00756 3.73748 3.39221
# Velocity P-wave (km/s) = 5.54686 6.44134 6.01076
#
# Compressibility (1/GPa) = 0.02543306
#
# Stress axis : x y z
#
# Youngs Moduli (GPa) = 74.49769 94.78611 45.40376
#
# Poissons Ratio (x) = 0.22770 0.23142
# Poissons Ratio (y) = 0.17897 0.12636
# Poissons Ratio (z) = 0.37972 0.26380
#
# Static dielectric constant tensor:
#      x y z
#    x 1.766630 -0.029120 -0.002940 
#    y -0.029120 1.766260 -0.002490 
#    z -0.002940 -0.002490 1.759460 
# 
# From -- ./inp_files/184618.got.cif
#   From: 2010.05.17/outbox.cif.g08.bks.cpg/sg2_93_cif.got.tgz:184618.got - 2010.06.03 11:33:40.
