data_PCOD9108046
_publ_section_title
;
Structure prediction by ZEFSAII (Michael W. Deem and Ramdas Pophale) SiO2 
 PCOD9108046
Probable space group: P -1
;
_chemical_formula_sum "Si O2"
_cell_formula_units_Z 14
_cell_length_a 10.924917
_cell_length_b 12.457010
_cell_length_c 10.190990
_cell_angle_alpha 39.462910
_cell_angle_beta 91.015354
_cell_angle_gamma 119.025794
_cell_volume 590.862396
_symmetry_space_group_name_H-M "P -1"
_symmetry_group_IT_number 2
_symmetry_cell_setting 'triclinic'
loop_
_space_group_symop_operation_xyz
x,y,z
-x,-y,-z
loop_
_atom_site_type_symbol
_atom_site_label
_atom_site_fract_x
_atom_site_fract_y
_atom_site_fract_z
Si Si1 0.793167 0.784340 0.458567
Si Si2 0.004929 0.626219 0.257306
Si Si3 0.795466 0.730817 0.226649
Si Si4 0.432789 0.543655 0.739001
Si Si5 0.403970 0.988695 0.879623
Si Si6 0.883811 0.515438 0.798399
Si Si7 0.916147 0.758883 0.813166
O O1 0.705366 0.668968 0.422753
O O2 0.622843 0.647562 0.679559
O O3 0.895547 0.711479 0.547276
O O4 0.943851 0.083766 0.209316
O O5 0.981409 0.483502 0.263504
O O6 0.000000 0.500000 0.500000
O O7 0.844145 0.590453 0.317024
O O8 0.219673 0.897631 0.009317
O O9 0.683381 0.690475 0.143245
O O10 0.000000 0.000000 0.000000
O O11 0.495802 0.772932 0.438151
O O12 0.288711 0.430725 0.957781
O O13 0.500000 0.000000 0.000000
O O14 0.313777 0.756639 0.998219
O O15 0.916335 0.595592 0.874339
O O16 0.000000 0.000000 0.500000
#
# Coordination Sequence:
#
# PCOD9108046 Si02
#       7
#     2   2   2   2   2   2   2
#     4  11  22  44  69 104 135 176 237 281 343 410
#     4  10  20  40  66  95 135 178 220 274 351 395
#     4  12  22  39  67 102 132 174 223 286 346 408
#     4  12  25  42  70 103 140 177 229 291 342 405
#     4  10  22  42  65 105 140 172 226 283 349 411
#     4   9  22  42  68  96 140 180 229 283 336 417
#     4  10  24  46  68 100 137 188 236 272 343 413
#
# _framework density 23.694178999999998
#
# number of rings (size 3 to 8) (size 9 to 14) (size 15 to 20)
#    0.857    0.571    2.857    3.000    0.000    4.000 
#    0.000    7.143    0.000    0.000    0.000    0.000 
#    0.000    0.000    0.000    0.000    0.000    0.000 
#
# Total GULP energy -77943.191474 kJ/mol
# GULP energy per Si atom -5567.370820 kJ/mol
# Density = 2.364025 g / cm^3
# Si number density = 23.694179 Si / 1000 Ang^3
#
#
#
# Elastic Constant Matrix: (Units=GPa)
#
#
# Indices 1 2 3 4 5 6 
#
# 1 81.9255 34.3067 28.8031 2.7763 -7.3223 -10.3449
# 2 34.3067 164.9424 28.0060 9.9680 -6.9842 -19.5410
# 3 28.8031 28.0060 131.1669 8.9063 -13.9214 -12.7581
# 4 2.7763 9.9680 8.9063 41.0600 1.1083 -3.9644
# 5 -7.3223 -6.9842 -13.9214 1.1083 39.2973 7.3724
# 6 -10.3449 -19.5410 -12.7581 -3.9644 7.3724 38.2403
#
#
#
# Elastic Compliance Matrix: (Units=1/GPa)
#
#
# Indices 1 2 3 4 5 6 
#
# 1 0.014328 -0.002343 -0.002383 0.000252 0.001083 0.001701
# 2 -0.002343 0.007044 -0.000643 -0.001164 0.000132 0.002605
# 3 -0.002383 -0.000643 0.008766 -0.001518 0.002338 0.001343
# 4 0.000252 -0.001164 -0.001518 0.025182 -0.001768 0.001918
# 5 0.001083 0.000132 0.002338 -0.001768 0.027360 -0.004318
# 6 0.001701 0.002605 0.001343 0.001918 -0.004318 0.029421
#
#
# Mechanical properties :
#
#
# Convention : Reuss Voigt Hill
#
# Bulk Modulus (GPa) = 51.54614 62.25181 56.89897
# Shear Modulus (GPa) = 38.66757 42.84747 40.75752
#
# Velocity S-wave (km/s) = 4.04412 4.25709 4.15197
# Velocity P-wave (km/s) = 6.60367 7.10590 6.85938
#
# Compressibility (1/GPa) = 0.01940010
#
# Stress axis : x y z
#
# Youngs Moduli (GPa) = 69.79197 141.96787 114.07379
#
# Poissons Ratio (x) = 0.33269 0.27181
# Poissons Ratio (y) = 0.16355 0.07335
# Poissons Ratio (z) = 0.16629 0.09128
#
# Static dielectric constant tensor:
#      x y z
#    x 2.034720 0.060490 0.040500 
#    y 0.060490 2.044100 -0.016220 
#    z 0.040500 -0.016220 2.158710 
# 
# From -- ./inp_files/427530.got.cif
#   From: 2010.05.17/outbox.cif.g08.bks.cpg/sg2_214_cif.got.tgz:427530.got - 2010.06.03 11:33:40.
