data_PCOD9108629
_publ_section_title
;
Structure prediction by ZEFSAII (Michael W. Deem and Ramdas Pophale) SiO2 
 PCOD9108629
Probable space group: P -1
;
_chemical_formula_sum "Si O2"
_cell_formula_units_Z 16
_cell_length_a 9.136519
_cell_length_b 21.567298
_cell_length_c 9.173804
_cell_angle_alpha 55.004217
_cell_angle_beta 31.398701
_cell_angle_gamma 65.392230
_cell_volume 760.102090
_symmetry_space_group_name_H-M "P -1"
_symmetry_group_IT_number 2
_symmetry_cell_setting 'triclinic'
loop_
_space_group_symop_operation_xyz
x,y,z
-x,-y,-z
loop_
_atom_site_type_symbol
_atom_site_label
_atom_site_fract_x
_atom_site_fract_y
_atom_site_fract_z
Si Si1 0.306848 0.538686 0.254059
Si Si2 0.499623 0.154060 0.502656
Si Si3 0.253977 0.047106 0.617070
Si Si4 0.913988 0.747826 0.187323
Si Si5 0.897161 0.636287 0.597780
Si Si6 0.953265 0.588679 0.938469
Si Si7 0.558683 0.608854 0.497524
Si Si8 0.702540 0.005977 0.673120
O O1 0.414993 0.472582 0.343210
O O2 0.000000 0.500000 0.500000
O O3 0.186590 0.606587 0.346370
O O4 0.600020 0.581098 0.873014
O O5 0.353352 0.127178 0.508328
O O6 0.259120 0.182026 0.767871
O O7 0.627910 0.083593 0.558675
O O8 0.760552 0.223634 0.169153
O O9 0.500000 0.000000 0.500000
O O10 0.265430 0.047664 0.428962
O O11 0.000000 0.000000 0.000000
O O12 0.897224 0.715851 0.409731
O O13 0.761149 0.677269 0.315074
O O14 0.912455 0.629166 0.766881
O O15 0.236764 0.623417 0.741126
O O16 0.000000 0.500000 0.000000
O O17 0.678048 0.597875 0.251294
O O18 0.000000 0.000000 0.500000
O O19 0.500000 0.000000 0.000000
#
# Coordination Sequence:
#
# PCOD9108629 Si02
#       8
#     2   2   2   2   2   2   2   2
#     4  12  22  37  63  93 115 156 229 296 323 375
#     4  11  24  45  66  95 138 177 215 257 335 411
#     4  10  20  40  70 100 133 174 218 268 316 382
#     4  12  26  43  62  91 133 184 214 262 333 428
#     4  12  25  39  63  89 124 163 226 278 334 393
#     4  12  23  41  62  92 117 160 215 301 352 384
#     4  12  24  40  63  89 126 168 220 278 354 387
#     4  11  22  41  73 111 133 163 222 283 319 376
#
# _framework density 21.049804999999999
#
# number of rings (size 3 to 8) (size 9 to 14) (size 15 to 20)
#    0.000    0.500    3.750    6.750    1.750    0.000 
#    0.000    7.500    0.000    0.000    0.000    0.000 
#    0.000    0.000    0.000    0.000    0.000    0.000 
#
# Total GULP energy -89085.480650 kJ/mol
# GULP energy per Si atom -5567.842541 kJ/mol
# Density = 2.100189 g / cm^3
# Si number density = 21.049805 Si / 1000 Ang^3
#
#
#
# Elastic Constant Matrix: (Units=GPa)
#
#
# Indices 1 2 3 4 5 6 
#
# 1 103.9125 13.9236 29.8972 -5.1940 0.4667 -6.1129
# 2 13.9236 66.3302 7.9165 14.4565 4.9931 4.0911
# 3 29.8972 7.9165 104.6745 20.2794 -6.8527 2.9864
# 4 -5.1940 14.4565 20.2794 40.6652 -4.3937 -4.6175
# 5 0.4667 4.9931 -6.8527 -4.3937 39.8009 0.5151
# 6 -6.1129 4.0911 2.9864 -4.6175 0.5151 35.2973
#
#
#
# Elastic Compliance Matrix: (Units=1/GPa)
#
#
# Indices 1 2 3 4 5 6 
#
# 1 0.011734 -0.003307 -0.004195 0.005167 0.000081 0.003445
# 2 -0.003307 0.017838 0.001071 -0.008031 -0.002853 -0.003740
# 3 -0.004195 0.001071 0.012230 -0.007202 0.001262 -0.002846
# 4 0.005167 -0.008031 -0.007202 0.032807 0.003242 0.006679
# 5 0.000081 -0.002853 0.001262 0.003242 0.026054 0.000282
# 6 0.003445 -0.003740 -0.002846 0.006679 0.000282 0.030471
#
#
# Mechanical properties :
#
#
# Convention : Reuss Voigt Hill
#
# Bulk Modulus (GPa) = 34.55417 42.04352 38.29885
# Shear Modulus (GPa) = 32.54303 38.03133 35.28718
#
# Velocity S-wave (km/s) = 3.93619 4.25518 4.09879
# Velocity P-wave (km/s) = 6.09173 6.64521 6.37448
#
# Compressibility (1/GPa) = 0.02894007
#
# Stress axis : x y z
#
# Youngs Moduli (GPa) = 85.22068 56.05954 81.76668
#
# Poissons Ratio (x) = 0.18539 0.34304
# Poissons Ratio (y) = 0.28183 -0.08760
# Poissons Ratio (z) = 0.35753 -0.06006
#
# Static dielectric constant tensor:
#      x y z
#    x 1.889570 0.103980 0.085520 
#    y 0.103980 1.769910 0.020250 
#    z 0.085520 0.020250 1.860870 
# 
# From -- ./inp_files/226062.got.cif
#   From: 2010.05.17/outbox.cif.g08.bks.cpg/sg2_114_cif.got.tgz:226062.got - 2010.06.03 11:33:40.
