data_PCOD9108743
_publ_section_title
;
Structure prediction by ZEFSAII (Michael W. Deem and Ramdas Pophale) SiO2 
 PCOD9108743
Probable space group: P -1
;
_chemical_formula_sum "Si O2"
_cell_formula_units_Z 14
_cell_length_a 14.090296
_cell_length_b 5.647391
_cell_length_c 9.784542
_cell_angle_alpha 42.204698
_cell_angle_beta 87.535277
_cell_angle_gamma 81.702836
_cell_volume 515.170971
_symmetry_space_group_name_H-M "P -1"
_symmetry_group_IT_number 2
_symmetry_cell_setting 'triclinic'
loop_
_space_group_symop_operation_xyz
x,y,z
-x,-y,-z
loop_
_atom_site_type_symbol
_atom_site_label
_atom_site_fract_x
_atom_site_fract_y
_atom_site_fract_z
Si Si1 0.323989 0.401038 0.579409
Si Si2 0.437719 0.916484 0.184605
Si Si3 0.732950 0.835538 0.604562
Si Si4 0.071738 0.635400 0.616600
Si Si5 0.896746 0.318183 0.730505
Si Si6 0.534210 0.690079 0.739552
Si Si7 0.758105 0.780984 0.067941
O O1 0.406518 0.587779 0.417483
O O2 0.287382 0.194746 0.542067
O O3 0.283072 0.779233 0.494662
O O4 0.298217 0.151676 0.812327
O O5 0.493893 0.671755 0.164192
O O6 0.498524 0.131338 0.189665
O O7 0.336247 0.165220 0.045747
O O8 0.841292 0.640013 0.690919
O O9 0.650332 0.635021 0.757719
O O10 0.104921 0.632890 0.455975
O O11 0.008217 0.311944 0.763080
O O12 0.156860 0.552445 0.758378
O O13 0.000000 0.000000 0.500000
O O14 0.826552 0.038222 0.888775
O O15 0.500000 0.000000 0.500000
#
# Coordination Sequence:
#
# PCOD9108743 Si02
#       7
#     2   2   2   2   2   2   2
#     4  10  21  39  62  94 128 176 211 272 321 388
#     4  10  22  40  65 101 133 175 225 262 337 400
#     4  10  20  42  64  91 133 170 221 262 332 397
#     4  11  25  44  62  92 137 176 224 283 337 384
#     4  11  23  42  62  95 129 176 230 273 332 398
#     4  10  20  40  71 100 133 174 218 273 330 400
#     4  12  21  41  66  97 132 176 227 278 324 399
#
# _framework density 27.175445
#
# number of rings (size 3 to 8) (size 9 to 14) (size 15 to 20)
#    0.000    1.429    4.286    1.714    0.000    1.714 
#    7.714    0.000    0.000   20.571    0.000    0.000 
#    0.000    0.000    0.000    0.000    0.000    0.000 
#
# Total GULP energy -77949.719891 kJ/mol
# GULP energy per Si atom -5567.837135 kJ/mol
# Density = 2.711359 g / cm^3
# Si number density = 27.175445 Si / 1000 Ang^3
#
#
#
# Elastic Constant Matrix: (Units=GPa)
#
#
# Indices 1 2 3 4 5 6 
#
# 1 138.1479 13.1475 21.6326 -3.5545 17.2682 -1.7119
# 2 13.1475 189.8017 39.5280 14.9683 18.9786 -0.1978
# 3 21.6326 39.5280 93.2713 5.2178 17.1706 -10.8875
# 4 -3.5545 14.9683 5.2178 47.6312 -5.2134 -8.6908
# 5 17.2682 18.9786 17.1706 -5.2134 39.4235 -1.6073
# 6 -1.7119 -0.1978 -10.8875 -8.6908 -1.6073 50.3277
#
#
#
# Elastic Compliance Matrix: (Units=1/GPa)
#
#
# Indices 1 2 3 4 5 6 
#
# 1 0.007805 -0.000022 -0.001317 0.000423 -0.002780 -0.000035
# 2 -0.000022 0.006113 -0.002145 -0.002101 -0.002313 -0.000877
# 3 -0.001317 -0.002145 0.013023 -0.000843 -0.004073 0.002489
# 4 0.000423 -0.002101 -0.000843 0.022977 0.004392 0.003932
# 5 -0.002780 -0.002313 -0.004073 0.004392 0.030081 0.000734
# 6 -0.000035 -0.000877 0.002489 0.003932 0.000734 0.021106
#
#
# Mechanical properties :
#
#
# Convention : Reuss Voigt Hill
#
# Bulk Modulus (GPa) = 50.06486 63.31523 56.69005
# Shear Modulus (GPa) = 43.58071 50.60399 47.09235
#
# Velocity S-wave (km/s) = 4.00894 4.31991 4.16733
# Velocity P-wave (km/s) = 6.31598 6.94489 6.63789
#
# Compressibility (1/GPa) = 0.01997409
#
# Stress axis : x y z
#
# Youngs Moduli (GPa) = 128.12524 163.59035 76.78634
#
# Poissons Ratio (x) = 0.00356 0.10112
# Poissons Ratio (y) = 0.00279 0.16468
# Poissons Ratio (z) = 0.16873 0.35085
#
# Static dielectric constant tensor:
#      x y z
#    x 2.270440 -0.028070 0.009710 
#    y -0.028070 2.186770 -0.066310 
#    z 0.009710 -0.066310 2.407500 
# 
# From -- ./inp_files/322115.got.cif
#   From: 2010.05.17/outbox.cif.g08.bks.cpg/sg2_162_cif.got.tgz:322115.got - 2010.06.03 11:33:40.
