data_PCOD9108143
_publ_section_title
;
Structure prediction by ZEFSAII (Michael W. Deem and Ramdas Pophale) SiO2 
 PCOD9108143
Probable space group: P -1
;
_chemical_formula_sum "Si O2"
_cell_formula_units_Z 15
_cell_length_a 21.187424
_cell_length_b 12.181396
_cell_length_c 11.989503
_cell_angle_alpha 153.998607
_cell_angle_beta 28.563881
_cell_angle_gamma 147.669970
_cell_volume 625.395616
_symmetry_space_group_name_H-M "P -1"
_symmetry_group_IT_number 2
_symmetry_cell_setting 'triclinic'
loop_
_space_group_symop_operation_xyz
x,y,z
-x,-y,-z
loop_
_atom_site_type_symbol
_atom_site_label
_atom_site_fract_x
_atom_site_fract_y
_atom_site_fract_z
Si Si1 0.905698 0.172386 0.266516
Si Si2 0.057788 0.658985 0.394387
Si Si3 0.411018 0.840038 0.745080
Si Si4 0.273295 0.104643 0.365839
Si Si5 0.500000 0.500000 0.500000
Si Si6 0.858185 0.574458 0.285066
Si Si7 0.781617 0.686439 0.748372
Si Si8 0.656233 0.069919 0.417620
O O1 0.889486 0.319931 0.540771
O O2 0.758339 0.037777 0.328756
O O3 0.991415 0.355042 0.203685
O O4 0.000000 0.000000 0.000000
O O5 0.920143 0.750772 0.668174
O O6 0.186489 0.815233 0.268533
O O7 0.463977 0.658019 0.585993
O O8 0.267237 0.676338 0.769152
O O9 0.509668 0.946237 0.585532
O O10 0.382490 0.075299 0.076272
O O11 0.360961 0.264052 0.475312
O O12 0.162027 0.236707 0.609354
O O13 0.834862 0.704128 0.556036
O O14 0.000000 0.500000 0.000000
O O15 0.695861 0.382301 0.621097
O O16 0.694600 0.887978 0.096910
#
# Coordination Sequence:
#
# PCOD9108143 Si02
#       8
#     2   2   2   2   1   2   2   2
#     4  10  20  40  67 104 143 190 248 307 374 446
#     4  10  22  39  67 105 141 190 245 306 378 438
#     4  11  26  47  73 109 147 204 245 313 383 450
#     4  11  25  46  76 106 150 194 252 315 381 456
#     4  10  24  46  70 110 148 190 252 300 390 448
#     4  11  28  48  76 108 147 196 259 315 376 451
#     4  11  26  46  73 107 147 197 252 312 377 445
#     4  11  26  45  74 105 152 196 255 311 376 459
#
# _framework density 23.984819000000002
#
# number of rings (size 3 to 8) (size 9 to 14) (size 15 to 20)
#    0.000    1.333    1.333    2.000    7.467    5.333 
#    0.000    0.000    0.000    0.000    0.000    0.000 
#    0.000    0.000    0.000    0.000    0.000    0.000 
#
# Total GULP energy -83593.320919 kJ/mol
# GULP energy per Si atom -5572.888061 kJ/mol
# Density = 2.393023 g / cm^3
# Si number density = 23.984819 Si / 1000 Ang^3
#
#
#
# Elastic Constant Matrix: (Units=GPa)
#
#
# Indices 1 2 3 4 5 6 
#
# 1 134.7809 36.2499 48.1117 -14.6828 -5.2418 29.4821
# 2 36.2499 119.8043 52.9097 -14.4085 6.8409 16.0795
# 3 48.1117 52.9097 107.2241 -8.9328 2.1001 0.4272
# 4 -14.6828 -14.4085 -8.9328 29.6160 -4.4246 3.3259
# 5 -5.2418 6.8409 2.1001 -4.4246 23.1223 -6.5779
# 6 29.4821 16.0795 0.4272 3.3259 -6.5779 30.2425
#
#
#
# Elastic Compliance Matrix: (Units=1/GPa)
#
#
# Indices 1 2 3 4 5 6 
#
# 1 0.012975 0.001345 -0.005860 0.006952 0.000437 -0.013951
# 2 0.001345 0.013020 -0.006443 0.005453 -0.004696 -0.009764
# 3 -0.005860 -0.006443 0.014868 -0.002403 0.001474 0.009513
# 4 0.006952 0.005453 -0.002403 0.041271 0.004311 -0.013243
# 5 0.000437 -0.004696 0.001474 0.004311 0.048902 0.012212
# 6 -0.013951 -0.009764 0.009513 -0.013243 0.012212 0.055836
#
#
# Mechanical properties :
#
#
# Convention : Reuss Voigt Hill
#
# Bulk Modulus (GPa) = 52.77586 70.70575 61.74080
# Shear Modulus (GPa) = 23.24460 31.56536 27.40498
#
# Velocity S-wave (km/s) = 3.11648 3.63168 3.38390
# Velocity P-wave (km/s) = 5.91621 6.86505 6.40821
#
# Compressibility (1/GPa) = 0.01894806
#
# Stress axis : x y z
#
# Youngs Moduli (GPa) = 77.06945 76.80599 67.25886
#
# Poissons Ratio (x) = -0.10334 0.39412
# Poissons Ratio (y) = -0.10369 0.43336
# Poissons Ratio (z) = 0.45161 0.49487
#
# Static dielectric constant tensor:
#      x y z
#    x 2.032620 0.036460 0.007760 
#    y 0.036460 1.907320 0.001640 
#    z 0.007760 0.001640 2.010160 
# 
# From -- ./inp_files/464190.got.cif
#   From: 2010.05.17/outbox.cif.g08.bks.cpg/sg2_233_cif.got.tgz:464190.got - 2010.06.03 11:33:40.
