data_PCOD9108626
_publ_section_title
;
Structure prediction by ZEFSAII (Michael W. Deem and Ramdas Pophale) SiO2 
 PCOD9108626
Probable space group: P -1
;
_chemical_formula_sum "Si O2"
_cell_formula_units_Z 16
_cell_length_a 11.918005
_cell_length_b 5.170636
_cell_length_c 14.131301
_cell_angle_alpha 59.803295
_cell_angle_beta 63.702025
_cell_angle_gamma 85.182209
_cell_volume 663.835184
_symmetry_space_group_name_H-M "P -1"
_symmetry_group_IT_number 2
_symmetry_cell_setting 'triclinic'
loop_
_space_group_symop_operation_xyz
x,y,z
-x,-y,-z
loop_
_atom_site_type_symbol
_atom_site_label
_atom_site_fract_x
_atom_site_fract_y
_atom_site_fract_z
Si Si1 0.851063 0.496938 0.555348
Si Si2 0.582461 0.440405 0.683940
Si Si3 0.651254 0.748085 0.317692
Si Si4 0.570283 0.343425 0.922911
Si Si5 0.140699 0.465945 0.231294
Si Si6 0.325760 0.902030 0.560866
Si Si7 0.931936 0.055871 0.308857
Si Si8 0.056031 0.116506 0.857262
O O1 0.709675 0.298110 0.637873
O O2 0.844270 0.583238 0.653540
O O3 0.000000 0.500000 0.500000
O O4 0.859926 0.714344 0.419080
O O5 0.459207 0.244869 0.717990
O O6 0.562290 0.469206 0.797317
O O7 0.616883 0.789566 0.570787
O O8 0.619239 0.396583 0.430566
O O9 0.791220 0.772131 0.213021
O O10 0.657864 0.997262 0.352689
O O11 0.720256 0.392590 0.883180
O O12 0.500000 0.500000 0.000000
O O13 0.500000 0.000000 0.000000
O O14 0.038044 0.668507 0.193583
O O15 0.073280 0.132850 0.282323
O O16 0.173450 0.803016 0.620840
O O17 0.945997 0.133695 0.179469
O O18 0.000000 0.000000 0.000000
#
# Coordination Sequence:
#
# PCOD9108626 Si02
#       8
#     2   2   2   2   2   2   2   2
#     4  10  20  40  70 100 133 172 224 285 343 398
#     4  10  24  42  70 102 135 187 221 284 345 403
#     4  11  23  44  66 102 140 176 222 279 340 410
#     4  11  29  49  68  99 136 183 234 282 333 404
#     4  11  23  43  70  97 130 177 227 279 342 400
#     4  10  22  42  68 103 138 171 222 276 344 408
#     4  10  21  40  65  99 133 169 218 284 335 401
#     4  11  25  41  65  98 133 182 227 275 334 407
#
# _framework density 24.102367999999998
#
# number of rings (size 3 to 8) (size 9 to 14) (size 15 to 20)
#    0.000    1.500    2.500    1.125    3.500    2.500 
#    2.250    1.250    0.000    0.000    0.000    0.000 
#    0.000    0.000    0.000    0.000    0.000    0.000 
#
# Total GULP energy -89091.866905 kJ/mol
# GULP energy per Si atom -5568.241682 kJ/mol
# Density = 2.404751 g / cm^3
# Si number density = 24.102368 Si / 1000 Ang^3
#
#
#
# Elastic Constant Matrix: (Units=GPa)
#
#
# Indices 1 2 3 4 5 6 
#
# 1 167.9631 32.2394 63.2363 8.9773 -45.1788 24.6535
# 2 32.2394 92.1686 44.6330 6.8970 -19.2213 10.7103
# 3 63.2363 44.6330 158.0292 23.3822 -23.1350 16.7834
# 4 8.9773 6.8970 23.3822 25.5263 3.4951 -8.0458
# 5 -45.1788 -19.2213 -23.1350 3.4951 53.0943 -1.2927
# 6 24.6535 10.7103 16.7834 -8.0458 -1.2927 34.9891
#
#
#
# Elastic Compliance Matrix: (Units=1/GPa)
#
#
# Indices 1 2 3 4 5 6 
#
# 1 0.010039 0.000108 -0.001116 -0.006091 0.008309 -0.007665
# 2 0.000108 0.013478 -0.002402 -0.003178 0.004046 -0.003631
# 3 -0.001116 -0.002402 0.010018 -0.010304 0.003090 -0.005539
# 4 -0.006091 -0.003178 -0.010304 0.061044 -0.014265 0.023718
# 5 0.008309 0.004046 0.003090 -0.014265 0.029393 -0.010770
# 6 -0.007665 -0.003631 -0.005539 0.023718 -0.010770 0.042806
#
#
# Mechanical properties :
#
#
# Convention : Reuss Voigt Hill
#
# Bulk Modulus (GPa) = 37.43012 77.59759 57.51385
# Shear Modulus (GPa) = 27.39697 41.25876 34.32786
#
# Velocity S-wave (km/s) = 3.37514 4.14190 3.77802
# Velocity P-wave (km/s) = 5.54546 7.42554 6.55327
#
# Compressibility (1/GPa) = 0.02671645
#
# Stress axis : x y z
#
# Youngs Moduli (GPa) = 99.61435 74.19227 99.81977
#
# Poissons Ratio (x) = -0.00804 0.11138
# Poissons Ratio (y) = -0.01079 0.23976
# Poissons Ratio (z) = 0.11115 0.17820
#
# Static dielectric constant tensor:
#      x y z
#    x 2.019070 -0.118200 0.069320 
#    y -0.118200 2.146750 -0.085640 
#    z 0.069320 -0.085640 1.872770 
# 
# From -- ./inp_files/510721.got.cif
#   From: 2010.05.17/outbox.cif.g08.bks.cpg/sg2_256_cif.got.tgz:510721.got - 2010.06.03 11:33:40.
