data_PCOD9108974
_publ_section_title
;
Structure prediction by ZEFSAII (Michael W. Deem and Ramdas Pophale) SiO2 
 PCOD9108974
Probable space group: P -1
;
_chemical_formula_sum "Si O2"
_cell_formula_units_Z 16
_cell_length_a 17.275723
_cell_length_b 6.902942
_cell_length_c 7.635761
_cell_angle_alpha 97.539734
_cell_angle_beta 49.533146
_cell_angle_gamma 92.843528
_cell_volume 686.007030
_symmetry_space_group_name_H-M "P -1"
_symmetry_group_IT_number 2
_symmetry_cell_setting 'triclinic'
loop_
_space_group_symop_operation_xyz
x,y,z
-x,-y,-z
loop_
_atom_site_type_symbol
_atom_site_label
_atom_site_fract_x
_atom_site_fract_y
_atom_site_fract_z
Si Si1 0.049713 0.704146 0.486076
Si Si2 0.646032 0.754116 0.725811
Si Si3 0.053121 0.910737 0.151921
Si Si4 0.154253 0.127289 0.742513
Si Si5 0.471206 0.286887 0.456715
Si Si6 0.349407 0.949529 0.957761
Si Si7 0.749514 0.737662 0.058804
Si Si8 0.742277 0.403665 0.746790
O O1 0.084690 0.776447 0.252464
O O2 0.145461 0.681033 0.473090
O O3 0.000000 0.500000 0.500000
O O4 0.976232 0.874931 0.695753
O O5 0.562291 0.731787 0.698541
O O6 0.685896 0.537630 0.700777
O O7 0.743985 0.868581 0.523421
O O8 0.606820 0.881410 0.963824
O O9 0.128650 0.942220 0.881703
O O10 0.946627 0.835810 0.219866
O O11 0.181105 0.280979 0.873969
O O12 0.500000 0.500000 0.500000
O O13 0.569677 0.141177 0.310445
O O14 0.367550 0.250444 0.705168
O O15 0.250867 0.059257 0.025430
O O16 0.319836 0.768880 0.100883
O O17 0.763980 0.559225 0.886407
#
# Coordination Sequence:
#
# PCOD9108974 Si02
#       8
#     2   2   2   2   2   2   2   2
#     4  11  22  39  63  90 121 165 203 253 309 367
#     4  10  24  42  63  90 127 163 209 254 304 372
#     4  10  22  40  62  90 125 159 208 252 303 370
#     4  10  20  41  61  87 127 160 200 261 302 354
#     4  11  22  44  63  93 126 159 205 263 310 363
#     4  11  22  42  65  90 121 170 206 249 313 369
#     4  10  22  41  63  90 125 160 206 257 307 367
#     4  11  22  40  63  91 122 165 208 252 304 373
#
# _framework density 23.323374999999999
#
# number of rings (size 3 to 8) (size 9 to 14) (size 15 to 20)
#    0.000    1.500    1.250    3.750    0.000    4.500 
#    9.000   16.250    0.000    0.000    0.000    0.000 
#    0.000    0.000    0.000    0.000    0.000    0.000 
#
# Total GULP energy -89394.943994 kJ/mol
# GULP energy per Si atom -5587.184000 kJ/mol
# Density = 2.327029 g / cm^3
# Si number density = 23.323375 Si / 1000 Ang^3
#
#
#
# Elastic Constant Matrix: (Units=GPa)
#
#
# Indices 1 2 3 4 5 6 
#
# 1 76.1716 29.4705 0.0496 10.2931 3.7033 8.6851
# 2 29.4705 112.9744 27.4090 -8.1631 -9.5824 -10.3190
# 3 0.0496 27.4090 54.8035 -0.0616 1.5889 -5.9279
# 4 10.2931 -8.1631 -0.0616 36.3088 5.2598 -3.6701
# 5 3.7033 -9.5824 1.5889 5.2598 33.7160 4.2411
# 6 8.6851 -10.3190 -5.9279 -3.6701 4.2411 34.5783
#
#
#
# Elastic Compliance Matrix: (Units=1/GPa)
#
#
# Indices 1 2 3 4 5 6 
#
# 1 0.017297 -0.006350 0.002533 -0.006672 -0.001995 -0.006269
# 2 -0.006350 0.013030 -0.006116 0.004685 0.003390 0.004517
# 3 0.002533 -0.006116 0.021544 -0.001479 -0.002982 0.001441
# 4 -0.006672 0.004685 -0.001479 0.031681 -0.003642 0.006630
# 5 -0.001995 0.003390 -0.002982 -0.003642 0.031967 -0.003306
# 6 -0.006269 0.004517 0.001441 0.006630 -0.003306 0.033198
#
#
# Mechanical properties :
#
#
# Convention : Reuss Voigt Hill
#
# Bulk Modulus (GPa) = 31.24562 39.75641 35.50102
# Shear Modulus (GPa) = 27.89358 33.38866 30.64112
#
# Velocity S-wave (km/s) = 3.46200 3.78769 3.62850
# Velocity P-wave (km/s) = 5.42277 6.01760 5.72791
#
# Compressibility (1/GPa) = 0.03200448
#
# Stress axis : x y z
#
# Youngs Moduli (GPa) = 57.81418 76.74334 46.41655
#
# Poissons Ratio (x) = 0.48734 -0.11755
# Poissons Ratio (y) = 0.36714 0.28387
# Poissons Ratio (z) = -0.14642 0.46934
#
# Static dielectric constant tensor:
#      x y z
#    x 1.917320 -0.009920 -0.000400 
#    y -0.009920 1.880980 -0.050270 
#    z -0.000400 -0.050270 1.916110 
# 
# From -- ./inp_files/38239.got.cif
#   From: 2010.05.17/outbox.cif.g08.bks.cpg/sg2_20_cif.got.tgz:38239.got - 2010.06.03 11:33:40.
