data_PCOD9108168
_publ_section_title
;
Structure prediction by ZEFSAII (Michael W. Deem and Ramdas Pophale) SiO2 
 PCOD9108168
Probable space group: P -1
;
_chemical_formula_sum "Si O2"
_cell_formula_units_Z 12
_cell_length_a 12.370102
_cell_length_b 9.910069
_cell_length_c 12.805400
_cell_angle_alpha 134.245489
_cell_angle_beta 36.669728
_cell_angle_gamma 145.065975
_cell_volume 533.117791
_symmetry_space_group_name_H-M "P -1"
_symmetry_group_IT_number 2
_symmetry_cell_setting 'triclinic'
loop_
_space_group_symop_operation_xyz
x,y,z
-x,-y,-z
loop_
_atom_site_type_symbol
_atom_site_label
_atom_site_fract_x
_atom_site_fract_y
_atom_site_fract_z
Si Si1 0.655817 0.548250 0.250721
Si Si2 0.044409 0.964737 0.827194
Si Si3 0.799870 0.607631 0.410711
Si Si4 0.289015 0.768209 0.096241
Si Si5 0.686154 0.135301 0.340768
Si Si6 0.573240 0.755266 0.047720
O O1 0.740839 0.607730 0.335791
O O2 0.377745 0.372068 0.375933
O O3 0.743254 0.786545 0.249209
O O4 0.772803 0.443630 0.047685
O O5 0.091445 0.777115 0.714323
O O6 0.831195 0.882283 0.876093
O O7 0.000000 0.000000 0.000000
O O8 0.720527 0.349366 0.368847
O O9 0.075190 0.766587 0.289772
O O10 0.397341 0.734675 0.093955
O O11 0.500000 0.000000 0.000000
O O12 0.500000 0.000000 0.500000
O O13 0.612191 0.930076 0.203854
O O14 0.500000 0.500000 0.000000
#
# Coordination Sequence:
#
# PCOD9108168 Si02
#       6
#     2   2   2   2   2   2
#     4  11  23  43  68  93 128 176 222 264 319 391
#     4  10  20  40  67  89 125 174 219 257 315 393
#     4  11  24  42  68  96 126 173 227 261 316 403
#     4  12  24  42  64  95 136 168 209 273 336 379
#     4  11  21  41  66  92 125 171 222 261 312 391
#     4  11  23  39  63  96 129 164 212 269 331 376
#
# _framework density 22.509097000000001
#
# number of rings (size 3 to 8) (size 9 to 14) (size 15 to 20)
#    0.000    1.000    1.667    7.500    0.000    0.667 
#    3.000    1.667    0.000    0.000    0.000    0.000 
#    0.000    0.000    0.000    0.000    0.000    0.000 
#
# Total GULP energy -66895.261503 kJ/mol
# GULP energy per Si atom -5574.605125 kJ/mol
# Density = 2.245787 g / cm^3
# Si number density = 22.509097 Si / 1000 Ang^3
#
#
#
# Elastic Constant Matrix: (Units=GPa)
#
#
# Indices 1 2 3 4 5 6 
#
# 1 113.4828 6.2045 32.7452 -24.9675 -13.8011 -16.1035
# 2 6.2045 83.8151 5.0778 -23.5413 8.7875 -21.8375
# 3 32.7452 5.0778 75.2342 -35.8875 -19.8622 1.1962
# 4 -24.9675 -23.5413 -35.8875 35.3149 3.1344 0.0866
# 5 -13.8011 8.7875 -19.8622 3.1344 40.6045 -10.8185
# 6 -16.1035 -21.8375 1.1962 0.0866 -10.8185 35.8011
#
#
#
# Elastic Compliance Matrix: (Units=1/GPa)
#
#
# Indices 1 2 3 4 5 6 
#
# 1 0.013448 0.005231 0.002374 0.014811 0.006403 0.011059
# 2 0.005231 0.023735 0.012048 0.031287 0.004868 0.017823
# 3 0.002374 0.012048 0.037809 0.046657 0.016279 0.011959
# 4 0.014811 0.031287 0.046657 0.105116 0.021043 0.030292
# 5 0.006403 0.004868 0.016279 0.021043 0.036422 0.016261
# 6 0.011059 0.017823 0.011959 0.030292 0.016261 0.048219
#
#
# Mechanical properties :
#
#
# Convention : Reuss Voigt Hill
#
# Bulk Modulus (GPa) = 8.74920 40.06521 24.40721
# Shear Modulus (GPa) = 18.97214 37.57775 28.27495
#
# Velocity S-wave (km/s) = 2.90636 4.09032 3.54807
# Velocity P-wave (km/s) = 3.89333 6.33607 5.25851
#
# Compressibility (1/GPa) = 0.11429613
#
# Stress axis : x y z
#
# Youngs Moduli (GPa) = 74.36237 42.13169 26.44850
#
# Poissons Ratio (x) = -0.22038 -0.06278
# Poissons Ratio (y) = -0.38898 -0.31864
# Poissons Ratio (z) = -0.17650 -0.50759
#
# Static dielectric constant tensor:
#      x y z
#    x 2.010050 0.082500 -0.013060 
#    y 0.082500 1.861960 -0.002480 
#    z -0.013060 -0.002480 1.917480 
# 
# From -- ./inp_files/166785.got.cif
#   From: 2010.05.17/outbox.cif.g08.bks.cpg/sg2_84_cif.got.tgz:166785.got - 2010.06.03 11:33:40.
