data_PCOD9108447
_publ_section_title
;
Structure prediction by ZEFSAII (Michael W. Deem and Ramdas Pophale) SiO2 
 PCOD9108447
Probable space group: P -1
;
_chemical_formula_sum "Si O2"
_cell_formula_units_Z 14
_cell_length_a 15.239271
_cell_length_b 14.556549
_cell_length_c 8.464873
_cell_angle_alpha 98.005096
_cell_angle_beta 82.714098
_cell_angle_gamma 161.051293
_cell_volume 603.741789
_symmetry_space_group_name_H-M "P -1"
_symmetry_group_IT_number 2
_symmetry_cell_setting 'triclinic'
loop_
_space_group_symop_operation_xyz
x,y,z
-x,-y,-z
loop_
_atom_site_type_symbol
_atom_site_label
_atom_site_fract_x
_atom_site_fract_y
_atom_site_fract_z
Si Si1 0.497992 0.273699 0.747594
Si Si2 0.244523 0.739859 0.382154
Si Si3 0.278166 0.190709 0.324368
Si Si4 0.204204 0.322977 0.483895
Si Si5 0.996485 0.315558 0.168770
Si Si6 0.745254 0.813291 0.014598
Si Si7 0.244213 0.807268 0.068662
O O1 0.659983 0.461511 0.597815
O O2 0.757059 0.513779 0.862744
O O3 0.258887 0.960230 0.723817
O O4 0.314515 0.177072 0.826954
O O5 0.257095 0.828243 0.259779
O O6 0.000000 0.500000 0.500000
O O7 0.177351 0.578671 0.262515
O O8 0.500000 0.000000 0.500000
O O9 0.197025 0.219841 0.360719
O O10 0.587107 0.490791 0.378102
O O11 0.246756 0.125239 0.138691
O O12 0.086547 0.950167 0.437282
O O13 0.833738 0.180029 0.013458
O O14 0.500000 0.500000 0.000000
O O15 0.000000 0.000000 0.000000
O O16 0.000000 0.500000 0.000000
O O17 0.500000 0.000000 0.000000
#
# Coordination Sequence:
#
# PCOD9108447 Si02
#       7
#     2   2   2   2   2   2   2
#     4  12  24  41  64  94 135 177 219 278 344 379
#     4  11  22  41  71 103 129 168 221 268 313 396
#     4  10  21  38  60  89 119 159 230 274 318 379
#     4  10  21  37  62  87 121 169 210 274 331 388
#     4  11  24  42  65 100 136 177 215 267 341 405
#     4  12  24  40  63  93 123 169 230 282 314 383
#     4  10  20  40  68  96 131 172 215 254 312 406
#
# _framework density 23.188721000000001
#
# number of rings (size 3 to 8) (size 9 to 14) (size 15 to 20)
#    0.000    1.143    1.429    6.857    4.000    0.000 
#    0.000    5.714    0.000    1.714    0.000    0.000 
#    0.000    0.000    0.000    0.000    0.000    0.000 
#
# Total GULP energy -78122.367361 kJ/mol
# GULP energy per Si atom -5580.169097 kJ/mol
# Density = 2.313594 g / cm^3
# Si number density = 23.188721 Si / 1000 Ang^3
#
#
#
# Elastic Constant Matrix: (Units=GPa)
#
#
# Indices 1 2 3 4 5 6 
#
# 1 52.4547 30.0601 15.9521 4.4269 13.9736 15.2301
# 2 30.0601 175.5719 30.5496 -3.6634 12.1513 20.7599
# 3 15.9521 30.5496 113.1850 0.1006 24.7315 4.1625
# 4 4.4269 -3.6634 0.1006 37.4596 4.1578 5.5640
# 5 13.9736 12.1513 24.7315 4.1578 25.7883 -1.3273
# 6 15.2301 20.7599 4.1625 5.5640 -1.3273 47.8147
#
#
#
# Elastic Compliance Matrix: (Units=1/GPa)
#
#
# Indices 1 2 3 4 5 6 
#
# 1 0.026420 -0.002758 0.000253 -0.000774 -0.013521 -0.007525
# 2 -0.002758 0.006710 -0.001149 0.001401 -0.000901 -0.002123
# 3 0.000253 -0.001149 0.011527 0.001188 -0.010894 -0.001026
# 4 -0.000774 0.001401 0.001188 0.028182 -0.006125 -0.003914
# 5 -0.013521 -0.000901 -0.010894 -0.006125 0.058374 0.007979
# 6 -0.007525 -0.002123 -0.001026 -0.003914 0.007979 0.024999
#
#
# Mechanical properties :
#
#
# Convention : Reuss Voigt Hill
#
# Bulk Modulus (GPa) = 26.77470 54.92616 40.85043
# Shear Modulus (GPa) = 28.41393 39.85583 34.13488
#
# Velocity S-wave (km/s) = 3.50427 4.15029 3.84089
# Velocity P-wave (km/s) = 5.28628 6.83407 6.10939
#
# Compressibility (1/GPa) = 0.03734869
#
# Stress axis : x y z
#
# Youngs Moduli (GPa) = 37.85033 149.02341 86.75506
#
# Poissons Ratio (x) = 0.41100 -0.02192
# Poissons Ratio (y) = 0.10439 0.09967
# Poissons Ratio (z) = -0.00956 0.17120
#
# Static dielectric constant tensor:
#      x y z
#    x 2.022170 -0.030960 0.077270 
#    y -0.030960 1.817240 -0.003010 
#    z 0.077270 -0.003010 1.938890 
# 
# From -- ./inp_files/313368.got.cif
#   From: 2010.05.17/outbox.cif.g08.bks.cpg/sg2_157_cif.got.tgz:313368.got - 2010.06.03 11:33:40.
