data_PCOD9108259
_publ_section_title
;
Structure prediction by ZEFSAII (Michael W. Deem and Ramdas Pophale) SiO2 
 PCOD9108259
Probable space group: P -1
;
_chemical_formula_sum "Si O2"
_cell_formula_units_Z 16
_cell_length_a 17.141128
_cell_length_b 14.005517
_cell_length_c 9.423860
_cell_angle_alpha 119.464381
_cell_angle_beta 111.260907
_cell_angle_gamma 24.834100
_cell_volume 805.283781
_symmetry_space_group_name_H-M "P -1"
_symmetry_group_IT_number 2
_symmetry_cell_setting 'triclinic'
loop_
_space_group_symop_operation_xyz
x,y,z
-x,-y,-z
loop_
_atom_site_type_symbol
_atom_site_label
_atom_site_fract_x
_atom_site_fract_y
_atom_site_fract_z
Si Si1 0.967083 0.527609 0.170784
Si Si2 0.796733 0.958299 0.032825
Si Si3 0.008095 0.917736 0.082173
Si Si4 0.601444 0.653893 0.981999
Si Si5 0.593237 0.710434 0.695590
Si Si6 0.560741 0.916835 0.313215
Si Si7 0.034697 0.868718 0.545525
Si Si8 0.810590 0.936890 0.358740
O O1 0.772144 0.705477 0.239474
O O2 0.948966 0.675702 0.311576
O O3 0.000000 0.500000 0.000000
O O4 0.128050 0.250417 0.115163
O O5 0.853891 0.908207 0.199478
O O6 0.889291 0.947504 0.001981
O O7 0.571894 0.225033 0.063558
O O8 0.209354 0.634891 0.066183
O O9 0.929343 0.096711 0.273249
O O10 0.000000 0.000000 0.000000
O O11 0.605026 0.712810 0.875463
O O12 0.554571 0.797692 0.176407
O O13 0.780290 0.422378 0.572056
O O14 0.575156 0.844808 0.696420
O O15 0.403281 0.862457 0.641019
O O16 0.500000 0.000000 0.500000
O O17 0.857351 0.991794 0.515727
O O18 0.000000 0.000000 0.500000
#
# Coordination Sequence:
#
# PCOD9108259 Si02
#       8
#     2   2   2   2   2   2   2   2
#     4   9  19  38  68  98 135 175 222 281 337 406
#     4  10  20  40  67  95 129 173 225 284 330 405
#     4  12  27  45  63  93 139 183 225 281 343 415
#     4  11  23  43  70  97 129 184 233 276 350 411
#     4  10  23  40  68 100 129 175 228 285 334 409
#     4  11  24  42  67 103 148 177 222 292 354 405
#     4  12  23  40  68  93 128 177 227 278 336 402
#     4   9  20  38  63 102 128 161 224 287 329 391
#
# _framework density 19.868773000000001
#
# number of rings (size 3 to 8) (size 9 to 14) (size 15 to 20)
#    0.000    1.500    3.750    1.125    5.250    2.000 
#    4.500    0.625    0.000    0.000    0.000    0.000 
#    0.000    0.000    0.000    0.000    0.000    0.000 
#
# Total GULP energy -89154.466080 kJ/mol
# GULP energy per Si atom -5572.154130 kJ/mol
# Density = 1.982355 g / cm^3
# Si number density = 19.868773 Si / 1000 Ang^3
#
#
#
# Elastic Constant Matrix: (Units=GPa)
#
#
# Indices 1 2 3 4 5 6 
#
# 1 87.4384 13.4689 1.3054 -4.1572 -3.1308 11.5666
# 2 13.4689 49.6905 15.7002 8.0691 -12.8268 1.9809
# 3 1.3054 15.7002 62.8640 10.2277 -7.8733 2.7672
# 4 -4.1572 8.0691 10.2277 18.8344 8.1023 -3.5851
# 5 -3.1308 -12.8268 -7.8733 8.1023 34.7072 1.7563
# 6 11.5666 1.9809 2.7672 -3.5851 1.7563 22.7295
#
#
#
# Elastic Compliance Matrix: (Units=1/GPa)
#
#
# Indices 1 2 3 4 5 6 
#
# 1 0.012978 -0.004268 0.000288 0.003891 -0.000967 -0.005579
# 2 -0.004268 0.029008 -0.001974 -0.019415 0.014638 -0.004309
# 3 0.000288 -0.001974 0.019811 -0.013977 0.007314 -0.005156
# 4 0.003891 -0.019415 -0.013977 0.086559 -0.031086 0.017468
# 5 -0.000967 0.014638 0.007314 -0.031086 0.043554 -0.009943
# 6 -0.005579 -0.004309 -0.005156 0.017468 -0.009943 0.051362
#
#
# Mechanical properties :
#
#
# Convention : Reuss Voigt Hill
#
# Bulk Modulus (GPa) = 20.04443 28.99354 24.51899
# Shear Modulus (GPa) = 18.39512 26.55545 22.47528
#
# Velocity S-wave (km/s) = 3.04605 3.65984 3.36696
# Velocity P-wave (km/s) = 4.74147 5.69942 5.24237
#
# Compressibility (1/GPa) = 0.04988917
#
# Stress axis : x y z
#
# Youngs Moduli (GPa) = 77.05297 34.47270 50.47577
#
# Poissons Ratio (x) = 0.14712 -0.01453
# Poissons Ratio (y) = 0.32885 0.09966
# Poissons Ratio (z) = -0.02218 0.06806
#
# Static dielectric constant tensor:
#      x y z
#    x 1.537230 -0.033830 -0.067400 
#    y -0.033830 1.700430 0.023790 
#    z -0.067400 0.023790 1.654420 
# 
# From -- ./inp_files/308088.got.cif
#   From: 2010.05.17/outbox.cif.g08.bks.cpg/sg2_155_cif.got.tgz:308088.got - 2010.06.03 11:33:40.
