data_PCOD9108422
_publ_section_title
;
Structure prediction by ZEFSAII (Michael W. Deem and Ramdas Pophale) SiO2 
 PCOD9108422
Probable space group: P -1
;
_chemical_formula_sum "Si O2"
_cell_formula_units_Z 16
_cell_length_a 12.688014
_cell_length_b 13.966960
_cell_length_c 9.080496
_cell_angle_alpha 126.569472
_cell_angle_beta 117.167876
_cell_angle_gamma 106.806978
_cell_volume 711.717246
_symmetry_space_group_name_H-M "P -1"
_symmetry_group_IT_number 2
_symmetry_cell_setting 'triclinic'
loop_
_space_group_symop_operation_xyz
x,y,z
-x,-y,-z
loop_
_atom_site_type_symbol
_atom_site_label
_atom_site_fract_x
_atom_site_fract_y
_atom_site_fract_z
Si Si1 0.420819 0.038881 0.878635
Si Si2 0.116174 0.878281 0.754142
Si Si3 0.828867 0.312924 0.822415
Si Si4 0.363217 0.575339 0.749152
Si Si5 0.717005 0.467829 0.009941
Si Si6 0.968433 0.012097 0.723980
Si Si7 0.701036 0.679388 0.001813
Si Si8 0.924839 0.208886 0.044171
O O1 0.282754 0.013289 0.864990
O O2 0.294102 0.876029 0.524612
O O3 0.500000 0.000000 0.000000
O O4 0.582623 0.249577 0.106763
O O5 0.941845 0.667767 0.375753
O O6 0.181105 0.867591 0.936687
O O7 0.036424 0.948297 0.796289
O O8 0.702726 0.323764 0.808498
O O9 0.000000 0.500000 0.000000
O O10 0.900048 0.297059 0.996259
O O11 0.385968 0.587725 0.952054
O O12 0.146307 0.377561 0.387963
O O13 0.504748 0.594254 0.779564
O O14 0.662467 0.519495 0.898485
O O15 0.155892 0.212107 0.944720
O O16 0.875474 0.045031 0.785413
O O17 0.822025 0.847827 0.357180
#
# Coordination Sequence:
#
# PCOD9108422 Si02
#       8
#     2   2   2   2   2   2   2   2
#     4  12  26  45  67  95 135 169 216 269 331 375
#     4  10  22  44  66  95 131 175 212 269 324 384
#     4  12  24  45  70  95 127 177 224 254 318 406
#     4  11  24  42  63 101 134 167 212 280 325 369
#     4  10  23  40  68  95 132 175 217 263 325 383
#     4  10  20  40  68  95 126 177 220 257 326 389
#     4  10  20  40  68  95 132 169 217 272 321 377
#     4  11  25  40  70  97 131 170 220 264 319 393
#
# _framework density 22.480839
#
# number of rings (size 3 to 8) (size 9 to 14) (size 15 to 20)
#    0.000    1.250    2.500    3.000    3.500    2.000 
#    4.500    0.000    0.000    0.000    0.000    0.000 
#    0.000    0.000    0.000    0.000    0.000    0.000 
#
# Total GULP energy -89568.134748 kJ/mol
# GULP energy per Si atom -5598.008422 kJ/mol
# Density = 2.242967 g / cm^3
# Si number density = 22.480839 Si / 1000 Ang^3
#
#
#
# Elastic Constant Matrix: (Units=GPa)
#
#
# Indices 1 2 3 4 5 6 
#
# 1 54.1927 -0.6836 7.1780 1.2216 -14.6613 -12.1491
# 2 -0.6836 113.6587 14.2294 -9.3541 -7.0463 -17.7794
# 3 7.1780 14.2294 34.2803 -4.1511 -5.4329 -3.8284
# 4 1.2216 -9.3541 -4.1511 22.6017 -3.1674 2.5831
# 5 -14.6613 -7.0463 -5.4329 -3.1674 25.8856 2.5563
# 6 -12.1491 -17.7794 -3.8284 2.5831 2.5563 35.9083
#
#
#
# Elastic Compliance Matrix: (Units=1/GPa)
#
#
# Indices 1 2 3 4 5 6 
#
# 1 0.024272 0.002648 -0.003192 0.000076 0.012993 0.008253
# 2 0.002648 0.010570 -0.003361 0.003514 0.003582 0.005263
# 3 -0.003192 -0.003361 0.032656 0.005451 0.004798 0.000004
# 4 0.000076 0.003514 0.005451 0.048037 0.008189 -0.001692
# 5 0.012993 0.003582 0.004798 0.008189 0.048715 0.002624
# 6 0.008253 0.005263 0.000004 -0.001692 0.002624 0.033182
#
#
# Mechanical properties :
#
#
# Convention : Reuss Voigt Hill
#
# Bulk Modulus (GPa) = 16.75350 27.06437 21.90894
# Shear Modulus (GPa) = 22.20871 28.97296 25.59084
#
# Velocity S-wave (km/s) = 3.14649 3.59386 3.37759
# Velocity P-wave (km/s) = 4.54632 5.41166 4.99776
#
# Compressibility (1/GPa) = 0.05968901
#
# Stress axis : x y z
#
# Youngs Moduli (GPa) = 41.19918 94.61130 30.62263
#
# Poissons Ratio (x) = -0.25055 0.09774
# Poissons Ratio (y) = -0.10910 0.10292
# Poissons Ratio (z) = 0.13149 0.31797
#
# Static dielectric constant tensor:
#      x y z
#    x 1.817550 0.011980 0.005720 
#    y 0.011980 1.816230 -0.020040 
#    z 0.005720 -0.020040 1.804240 
# 
# From -- ./inp_files/185714.got.cif
#   From: 2010.05.17/outbox.cif.g08.bks.cpg/sg2_93_cif.got.tgz:185714.got - 2010.06.03 11:33:40.
