data_PCOD9108717
_publ_section_title
;
Structure prediction by ZEFSAII (Michael W. Deem and Ramdas Pophale) SiO2 
 PCOD9108717
Probable space group: P -1
;
_chemical_formula_sum "Si O2"
_cell_formula_units_Z 16
_cell_length_a 9.307644
_cell_length_b 20.139133
_cell_length_c 8.345448
_cell_angle_alpha 118.519378
_cell_angle_beta 32.212135
_cell_angle_gamma 120.748976
_cell_volume 713.201522
_symmetry_space_group_name_H-M "P -1"
_symmetry_group_IT_number 2
_symmetry_cell_setting 'triclinic'
loop_
_space_group_symop_operation_xyz
x,y,z
-x,-y,-z
loop_
_atom_site_type_symbol
_atom_site_label
_atom_site_fract_x
_atom_site_fract_y
_atom_site_fract_z
Si Si1 0.924483 0.576990 0.094223
Si Si2 0.263122 0.993665 0.845418
Si Si3 0.712799 0.644498 0.776483
Si Si4 0.478590 0.331448 0.345827
Si Si5 0.382108 0.840041 0.714362
Si Si6 0.120921 0.531970 0.256252
Si Si7 0.288500 0.052266 0.221445
Si Si8 0.774701 0.742505 0.159707
O O1 0.189691 0.647732 0.949987
O O2 0.896337 0.550685 0.908549
O O3 0.000000 0.500000 0.000000
O O4 0.636116 0.590389 0.441886
O O5 0.275386 0.912968 0.828022
O O6 0.500000 0.000000 0.500000
O O7 0.286238 0.057117 0.038074
O O8 0.000000 0.000000 0.000000
O O9 0.650941 0.695664 0.739162
O O10 0.942259 0.596202 0.455883
O O11 0.432924 0.580068 0.000825
O O12 0.776212 0.691903 0.938376
O O13 0.368070 0.293730 0.578720
O O14 0.579422 0.869862 0.716433
O O15 0.587436 0.804646 0.368080
O O16 0.093911 0.779112 0.944546
O O17 0.000000 0.500000 0.500000
O O18 0.000000 0.000000 0.500000
O O19 0.500000 0.000000 0.000000
#
# Coordination Sequence:
#
# PCOD9108717 Si02
#       8
#     2   2   2   2   2   2   2   2
#     4  12  21  39  65  91 124 157 217 291 344 398
#     4  11  22  41  71 108 138 165 213 282 337 375
#     4  12  24  43  62  89 132 170 218 282 323 397
#     4  12  24  43  64  92 127 173 222 279 341 394
#     4  11  24  46  68  96 137 181 220 261 322 410
#     4  12  23  38  63  95 122 161 217 279 357 401
#     4  10  20  40  70  97 135 171 209 267 328 381
#     4  12  26  45  65  92 137 185 225 262 327 402
#
# _framework density 22.434052000000001
#
# number of rings (size 3 to 8) (size 9 to 14) (size 15 to 20)
#    0.000    0.500    2.500    8.250    0.000    0.000 
#    6.750    0.000    0.000    0.000    0.000    0.000 
#    0.000    0.000    0.000    0.000    0.000    0.000 
#
# Total GULP energy -89179.731238 kJ/mol
# GULP energy per Si atom -5573.733202 kJ/mol
# Density = 2.238299 g / cm^3
# Si number density = 22.434052 Si / 1000 Ang^3
#
#
#
# Elastic Constant Matrix: (Units=GPa)
#
#
# Indices 1 2 3 4 5 6 
#
# 1 134.8737 48.1331 34.6471 -12.0864 15.6419 19.5586
# 2 48.1331 51.0774 27.6598 -0.4009 -2.2627 15.2036
# 3 34.6471 27.6598 144.8127 -14.7306 -14.5631 23.7439
# 4 -12.0864 -0.4009 -14.7306 45.3788 -2.4086 -7.0177
# 5 15.6419 -2.2627 -14.5631 -2.4086 50.1833 -1.5939
# 6 19.5586 15.2036 23.7439 -7.0177 -1.5939 27.8924
#
#
#
# Elastic Compliance Matrix: (Units=1/GPa)
#
#
# Indices 1 2 3 4 5 6 
#
# 1 0.012588 -0.011089 -0.000822 0.002478 -0.004598 -0.001722
# 2 -0.011089 0.034409 -0.002398 -0.004762 0.003768 -0.009922
# 3 -0.000822 -0.002398 0.008849 0.002001 0.002653 -0.004995
# 4 0.002478 -0.004762 0.002001 0.024171 0.000922 0.005289
# 5 -0.004598 0.003768 0.002653 0.000922 0.022358 0.000421
# 6 -0.001722 -0.009922 -0.004995 0.005289 0.000421 0.048075
#
#
# Mechanical properties :
#
#
# Convention : Reuss Voigt Hill
#
# Bulk Modulus (GPa) = 36.72460 61.29376 49.00918
# Shear Modulus (GPa) = 26.57556 39.37916 32.97736
#
# Velocity S-wave (km/s) = 3.44555 4.19421 3.83818
# Velocity P-wave (km/s) = 5.67755 7.12996 6.44480
#
# Compressibility (1/GPa) = 0.02722971
#
# Stress axis : x y z
#
# Youngs Moduli (GPa) = 79.44242 29.06207 113.00147
#
# Poissons Ratio (x) = 0.32226 0.09284
# Poissons Ratio (y) = 0.88092 0.27097
# Poissons Ratio (z) = 0.06527 0.06969
#
# Static dielectric constant tensor:
#      x y z
#    x 1.702790 -0.068660 -0.070380 
#    y -0.068660 1.890790 0.031880 
#    z -0.070380 0.031880 1.746410 
# 
# From -- ./inp_files/223743.got.cif
#   From: 2010.05.17/outbox.cif.g08.bks.cpg/sg2_112_cif.got.tgz:223743.got - 2010.06.03 11:33:40.
