data_PCOD9108043
_publ_section_title
;
Structure prediction by ZEFSAII (Michael W. Deem and Ramdas Pophale) SiO2 
 PCOD9108043
Probable space group: P -1
;
_chemical_formula_sum "Si O2"
_cell_formula_units_Z 12
_cell_length_a 11.085470
_cell_length_b 14.693837
_cell_length_c 12.261623
_cell_angle_alpha 32.947874
_cell_angle_beta 36.335062
_cell_angle_gamma 28.342204
_cell_volume 498.030464
_symmetry_space_group_name_H-M "P -1"
_symmetry_group_IT_number 2
_symmetry_cell_setting 'triclinic'
loop_
_space_group_symop_operation_xyz
x,y,z
-x,-y,-z
loop_
_atom_site_type_symbol
_atom_site_label
_atom_site_fract_x
_atom_site_fract_y
_atom_site_fract_z
Si Si1 0.607806 0.565120 0.263121
Si Si2 0.141511 0.228171 0.123328
Si Si3 0.165445 0.154678 0.651373
Si Si4 0.886192 0.991123 0.821860
Si Si5 0.235181 0.713625 0.025851
Si Si6 0.694935 0.947170 0.580671
O O1 0.500000 0.500000 0.500000
O O2 0.825807 0.370820 0.221770
O O3 0.343907 0.778500 0.189383
O O4 0.779035 0.630949 0.119094
O O5 0.233160 0.039494 0.163852
O O6 0.267381 0.151055 0.229491
O O7 0.184264 0.206341 0.460934
O O8 0.881998 0.310133 0.757034
O O9 0.392388 0.123687 0.588565
O O10 0.240489 0.914280 0.836170
O O11 0.126864 0.980088 0.618018
O O12 0.008669 0.805401 0.007739
O O13 0.500000 0.500000 0.000000
#
# Coordination Sequence:
#
# PCOD9108043 Si02
#       6
#     2   2   2   2   2   2
#     4  11  24  42  64  99 134 180 219 263 341 398
#     4  11  24  42  67  98 139 171 222 275 335 403
#     4   9  21  41  64  91 135 170 226 279 322 398
#     4  11  23  42  65  99 137 170 220 281 331 394
#     4  10  22  42  66  94 128 178 229 273 336 390
#     4  10  20  40  66  95 132 182 214 273 341 386
#
# _framework density 24.094912000000001
#
# number of rings (size 3 to 8) (size 9 to 14) (size 15 to 20)
#    0.000    1.667    1.667    2.000    0.000    6.667 
#    0.000    7.500    0.000    0.000    0.000    0.000 
#    0.000    0.000    0.000    0.000    0.000    0.000 
#
# Total GULP energy -67035.650171 kJ/mol
# GULP energy per Si atom -5586.304181 kJ/mol
# Density = 2.404007 g / cm^3
# Si number density = 24.094912 Si / 1000 Ang^3
#
#
#
# Elastic Constant Matrix: (Units=GPa)
#
#
# Indices 1 2 3 4 5 6 
#
# 1 120.8842 33.4877 38.2853 7.2740 8.3357 -6.4360
# 2 33.4877 110.5907 0.1588 25.8933 10.6522 -8.1198
# 3 38.2853 0.1588 97.6511 30.2045 -3.9974 1.6132
# 4 7.2740 25.8933 30.2045 31.3698 -9.8852 -1.3422
# 5 8.3357 10.6522 -3.9974 -9.8852 38.7909 -1.6557
# 6 -6.4360 -8.1198 1.6132 -1.3422 -1.6557 16.2222
#
#
#
# Elastic Compliance Matrix: (Units=1/GPa)
#
#
# Indices 1 2 3 4 5 6 
#
# 1 0.011808 -0.005668 -0.007652 0.009729 0.000859 0.003501
# 2 -0.005668 0.017724 0.009600 -0.025278 -0.008988 0.002659
# 3 -0.007652 0.009600 0.022211 -0.029713 -0.006427 -0.003554
# 4 0.009729 -0.025278 -0.029713 0.086848 0.024083 0.003806
# 5 0.000859 -0.008988 -0.006427 0.024083 0.033619 0.001905
# 6 0.003501 0.002659 -0.003554 0.003806 0.001905 0.065227
#
#
# Mechanical properties :
#
#
# Convention : Reuss Voigt Hill
#
# Bulk Modulus (GPa) = 22.57150 52.55438 37.56294
# Shear Modulus (GPa) = 19.25700 34.42287 26.83994
#
# Velocity S-wave (km/s) = 2.83011 3.78383 3.34117
# Velocity P-wave (km/s) = 4.47967 6.39911 5.52340
#
# Compressibility (1/GPa) = 0.04430365
#
# Stress axis : x y z
#
# Youngs Moduli (GPa) = 84.68963 56.41929 45.02199
#
# Poissons Ratio (x) = 0.31979 0.34452
# Poissons Ratio (y) = 0.48003 -0.43223
# Poissons Ratio (z) = 0.64806 -0.54164
#
# Static dielectric constant tensor:
#      x y z
#    x 1.948830 0.013240 0.010920 
#    y 0.013240 1.985350 -0.029260 
#    z 0.010920 -0.029260 1.996820 
# 
# From -- ./inp_files/429485.got.cif
#   From: 2010.05.17/outbox.cif.g08.bks.cpg/sg2_215_cif.got.tgz:429485.got - 2010.06.03 11:33:40.
