data_PCOD9108388
_publ_section_title
;
Structure prediction by ZEFSAII (Michael W. Deem and Ramdas Pophale) SiO2 
 PCOD9108388
Probable space group: P -1
;
_chemical_formula_sum "Si O2"
_cell_formula_units_Z 12
_cell_length_a 9.156872
_cell_length_b 8.898774
_cell_length_c 12.621338
_cell_angle_alpha 52.324313
_cell_angle_beta 72.758142
_cell_angle_gamma 51.011676
_cell_volume 626.174912
_symmetry_space_group_name_H-M "P -1"
_symmetry_group_IT_number 2
_symmetry_cell_setting 'triclinic'
loop_
_space_group_symop_operation_xyz
x,y,z
-x,-y,-z
loop_
_atom_site_type_symbol
_atom_site_label
_atom_site_fract_x
_atom_site_fract_y
_atom_site_fract_z
Si Si1 0.964679 0.802216 0.595407
Si Si2 0.879263 0.127878 0.866618
Si Si3 0.964863 0.315102 0.130579
Si Si4 0.531874 0.502726 0.119145
Si Si5 0.359285 0.978716 0.606802
Si Si6 0.086531 0.357380 0.650867
O O1 0.937903 0.774254 0.736563
O O2 0.105161 0.526304 0.649459
O O3 0.808992 0.910192 0.489971
O O4 0.000000 0.000000 0.500000
O O5 0.658275 0.271558 0.884291
O O6 0.946277 0.291664 0.747799
O O7 0.945926 0.921548 0.856394
O O8 0.000000 0.000000 0.000000
O O9 0.735476 0.452053 0.119641
O O10 0.000000 0.500000 0.000000
O O11 0.553551 0.284236 0.265653
O O12 0.500000 0.500000 0.000000
O O13 0.500000 0.000000 0.500000
O O14 0.283837 0.122682 0.671029
O O15 0.000000 0.500000 0.500000
#
# Coordination Sequence:
#
# PCOD9108388 Si02
#       6
#     2   2   2   2   2   2
#     4  11  22  43  65  95 141 168 214 288 337 378
#     4  12  23  45  70  95 131 180 227 274 326 407
#     4  12  26  44  67 101 140 172 218 290 340 381
#     4  12  24  43  71  98 131 180 234 266 328 413
#     4  11  23  42  69  99 130 179 230 267 326 413
#     4  10  20  40  68  92 126 178 218 264 330 393
#
# _framework density 19.163975000000001
#
# number of rings (size 3 to 8) (size 9 to 14) (size 15 to 20)
#    0.000    0.667    5.000    4.000    2.333    0.667 
#    3.000    1.667    0.000    0.000    0.000    0.000 
#    0.000    0.000    0.000    0.000    0.000    0.000 
#
# Total GULP energy -66824.183581 kJ/mol
# GULP energy per Si atom -5568.681965 kJ/mol
# Density = 1.912036 g / cm^3
# Si number density = 19.163975 Si / 1000 Ang^3
#
#
#
# Elastic Constant Matrix: (Units=GPa)
#
#
# Indices 1 2 3 4 5 6 
#
# 1 74.6799 66.7307 27.8548 -4.4345 -25.5884 3.4703
# 2 66.7307 161.3227 27.7154 2.7389 -3.6934 4.3849
# 3 27.8548 27.7154 149.9686 -1.9754 -11.8039 11.5182
# 4 -4.4345 2.7389 -1.9754 31.7894 4.4319 3.4069
# 5 -25.5884 -3.6934 -11.8039 4.4319 47.7529 2.9498
# 6 3.4703 4.3849 11.5182 3.4069 2.9498 41.3306
#
#
#
# Elastic Compliance Matrix: (Units=1/GPa)
#
#
# Indices 1 2 3 4 5 6 
#
# 1 0.029745 -0.011624 -0.002052 0.003235 0.014355 -0.001984
# 2 -0.011624 0.010965 -0.000345 -0.001894 -0.005318 0.000445
# 3 -0.002052 -0.000345 0.007325 0.000296 0.000775 -0.001912
# 4 0.003235 -0.001894 0.000296 0.032551 -0.001191 -0.002751
# 5 0.014355 -0.005318 0.000775 -0.001191 0.028698 -0.002807
# 6 -0.001984 0.000445 -0.001912 -0.002751 -0.002807 0.025275
#
#
# Mechanical properties :
#
#
# Convention : Reuss Voigt Hill
#
# Bulk Modulus (GPa) = 50.01703 70.06369 60.04036
# Shear Modulus (GPa) = 29.53979 41.75261 35.64620
#
# Velocity S-wave (km/s) = 3.93036 4.67272 4.31752
# Velocity P-wave (km/s) = 6.83762 8.10875 7.50017
#
# Compressibility (1/GPa) = 0.01999319
#
# Stress axis : x y z
#
# Youngs Moduli (GPa) = 33.61870 91.20293 136.52502
#
# Poissons Ratio (x) = 1.06014 0.28012
# Poissons Ratio (y) = 0.39078 0.04710
# Poissons Ratio (z) = 0.06898 0.03146
#
# Static dielectric constant tensor:
#      x y z
#    x 1.606990 0.019110 0.002810 
#    y 0.019110 1.643450 0.048660 
#    z 0.002810 0.048660 1.589630 
# 
# From -- ./inp_files/156381.got.cif
#   From: 2010.05.17/outbox.cif.g08.bks.cpg/sg2_79_cif.got.tgz:156381.got - 2010.06.03 11:33:40.
