data_PCOD9108236
_publ_section_title
;
Structure prediction by ZEFSAII (Michael W. Deem and Ramdas Pophale) SiO2 
 PCOD9108236
Probable space group: P -1
;
_chemical_formula_sum "Si O2"
_cell_formula_units_Z 14
_cell_length_a 9.134393
_cell_length_b 9.868536
_cell_length_c 11.990399
_cell_angle_alpha 134.121874
_cell_angle_beta 114.915673
_cell_angle_gamma 46.950105
_cell_volume 563.989510
_symmetry_space_group_name_H-M "P -1"
_symmetry_group_IT_number 2
_symmetry_cell_setting 'triclinic'
loop_
_space_group_symop_operation_xyz
x,y,z
-x,-y,-z
loop_
_atom_site_type_symbol
_atom_site_label
_atom_site_fract_x
_atom_site_fract_y
_atom_site_fract_z
Si Si1 0.402005 0.865028 0.401990
Si Si2 0.174939 0.830258 0.619539
Si Si3 0.138414 0.217351 0.702500
Si Si4 0.243131 0.298307 0.988332
Si Si5 0.929126 0.755154 0.900115
Si Si6 0.423572 0.482102 0.308301
Si Si7 0.141360 0.970754 0.181741
O O1 0.503350 0.623853 0.363564
O O2 0.500000 0.000000 0.500000
O O3 0.213632 0.047545 0.524548
O O4 0.335109 0.836995 0.245006
O O5 0.241441 0.652016 0.434648
O O6 0.394557 0.727102 0.681372
O O7 0.041928 0.848456 0.689330
O O8 0.067983 0.095760 0.692362
O O9 0.025324 0.480120 0.769507
O O10 0.309806 0.187480 0.823809
O O11 0.346335 0.406396 0.139050
O O12 0.238632 0.151735 0.004122
O O13 0.000000 0.500000 0.000000
O O14 0.847534 0.889330 0.834922
O O15 0.087219 0.802844 0.019371
#
# Coordination Sequence:
#
# PCOD9108236 Si02
#       7
#     2   2   2   2   2   2   2
#     4  11  26  44  64  97 133 173 216 269 326 389
#     4  10  23  42  67  98 129 174 219 265 326 383
#     4  10  22  41  67  97 126 171 220 261 325 381
#     4  10  20  40  67  94 126 168 215 262 317 384
#     4  10  23  41  67 101 128 168 218 270 319 388
#     4  10  24  43  66  96 137 167 218 274 317 385
#     4  11  24  44  68  94 135 174 214 265 332 387
#
# _framework density 24.823156999999998
#
# number of rings (size 3 to 8) (size 9 to 14) (size 15 to 20)
#    0.000    1.714    1.429    1.714    8.000    5.714 
#    5.143    1.429    0.000    0.000    0.000    0.000 
#    0.000    0.000    0.000    0.000    0.000    0.000 
#
# Total GULP energy -78170.493058 kJ/mol
# GULP energy per Si atom -5583.606647 kJ/mol
# Density = 2.476666 g / cm^3
# Si number density = 24.823157 Si / 1000 Ang^3
#
#
#
# Elastic Constant Matrix: (Units=GPa)
#
#
# Indices 1 2 3 4 5 6 
#
# 1 61.0063 34.8533 -4.3946 2.7595 10.8068 27.3606
# 2 34.8533 143.7088 49.6372 4.5821 5.8454 28.7120
# 3 -4.3946 49.6372 120.7065 -10.2109 21.9982 9.1906
# 4 2.7595 4.5821 -10.2109 40.3968 5.4100 3.3084
# 5 10.8068 5.8454 21.9982 5.4100 36.7625 -1.9762
# 6 27.3606 28.7120 9.1906 3.3084 -1.9762 42.1713
#
#
#
# Elastic Compliance Matrix: (Units=1/GPa)
#
#
# Indices 1 2 3 4 5 6 
#
# 1 0.031485 -0.006198 0.008193 0.004164 -0.014808 -0.019014
# 2 -0.006198 0.010555 -0.005303 -0.002460 0.003590 -0.001648
# 3 0.008193 -0.005303 0.013616 0.005389 -0.010807 -0.005602
# 4 0.004164 -0.002460 0.005389 0.027623 -0.008379 -0.004761
# 5 -0.014808 0.003590 -0.010807 -0.008379 0.039329 0.012018
# 6 -0.019014 -0.001648 -0.005602 -0.004761 0.012018 0.039329
#
#
# Mechanical properties :
#
#
# Convention : Reuss Voigt Hill
#
# Bulk Modulus (GPa) = 20.39102 53.95705 37.17404
# Shear Modulus (GPa) = 27.04188 40.22118 33.63153
#
# Velocity S-wave (km/s) = 3.30416 4.02967 3.68482
# Velocity P-wave (km/s) = 4.77378 6.59051 5.75429
#
# Compressibility (1/GPa) = 0.04904119
#
# Stress axis : x y z
#
# Youngs Moduli (GPa) = 31.76117 94.74201 73.44569
#
# Poissons Ratio (x) = 0.58717 -0.60177
# Poissons Ratio (y) = 0.19684 0.38948
# Poissons Ratio (z) = -0.26023 0.50241
#
# Static dielectric constant tensor:
#      x y z
#    x 2.129400 -0.055980 0.003260 
#    y -0.055980 1.945170 -0.010970 
#    z 0.003260 -0.010970 2.071010 
# 
# From -- ./inp_files/383610.got.cif
#   From: 2010.05.17/outbox.cif.g08.bks.cpg/sg2_192_cif.got.tgz:383610.got - 2010.06.03 11:33:40.
