data_PCOD9108029
_publ_section_title
;
Structure prediction by ZEFSAII (Michael W. Deem and Ramdas Pophale) SiO2 
 PCOD9108029
Probable space group: P -1
;
_chemical_formula_sum "Si O2"
_cell_formula_units_Z 14
_cell_length_a 9.019253
_cell_length_b 8.986684
_cell_length_c 9.146033
_cell_angle_alpha 91.226303
_cell_angle_beta 86.393493
_cell_angle_gamma 128.213205
_cell_volume 581.163394
_symmetry_space_group_name_H-M "P -1"
_symmetry_group_IT_number 2
_symmetry_cell_setting 'triclinic'
loop_
_space_group_symop_operation_xyz
x,y,z
-x,-y,-z
loop_
_atom_site_type_symbol
_atom_site_label
_atom_site_fract_x
_atom_site_fract_y
_atom_site_fract_z
Si Si1 0.632044 0.148540 0.211362
Si Si2 0.448626 0.326782 0.188853
Si Si3 0.792016 0.734633 0.068337
Si Si4 0.113429 0.711915 0.061584
Si Si5 0.802681 0.976534 0.332518
Si Si6 0.064644 0.456945 0.639557
Si Si7 0.793602 0.720442 0.557041
O O1 0.462868 0.162200 0.227737
O O2 0.648222 0.004556 0.296415
O O3 0.797979 0.347516 0.280649
O O4 0.694207 0.163726 0.038859
O O5 0.646455 0.512272 0.118969
O O6 0.380826 0.393607 0.324112
O O7 0.297121 0.248436 0.068371
O O8 0.991393 0.780597 0.030161
O O9 0.807788 0.862481 0.198624
O O10 0.100051 0.688421 0.237848
O O11 0.000000 0.500000 0.000000
O O12 0.014241 0.169187 0.355610
O O13 0.768150 0.862082 0.479935
O O14 0.178827 0.385323 0.571446
O O15 0.000000 0.500000 0.500000
#
# Coordination Sequence:
#
# PCOD9108029 Si02
#       7
#     2   2   2   2   2   2   2
#     4  11  23  41  67  95 132 167 220 263 322 375
#     4  11  25  42  67  96 128 172 214 267 319 386
#     4  11  23  43  67  96 128 170 220 262 320 376
#     4  10  20  40  66  95 123 166 220 263 297 386
#     4  11  24  44  65  96 131 172 214 266 319 386
#     4  11  21  39  66  98 124 170 217 261 306 386
#     4  11  24  43  66  97 133 168 215 261 329 382
#
# _framework density 24.089614000000001
#
# number of rings (size 3 to 8) (size 9 to 14) (size 15 to 20)
#    0.000    1.143    5.714    0.857    2.000    5.714 
#    0.000    0.000    0.000    0.000    0.000    0.000 
#    0.000    0.000    0.000    0.000    0.000    0.000 
#
# Total GULP energy -78317.423672 kJ/mol
# GULP energy per Si atom -5594.101691 kJ/mol
# Density = 2.403478 g / cm^3
# Si number density = 24.089614 Si / 1000 Ang^3
#
#
#
# Elastic Constant Matrix: (Units=GPa)
#
#
# Indices 1 2 3 4 5 6 
#
# 1 106.3384 35.9429 62.1772 -10.6449 9.9653 -40.3121
# 2 35.9429 54.5304 11.8229 10.3470 2.7822 -11.1933
# 3 62.1772 11.8229 136.0195 0.9843 -0.6649 -4.7741
# 4 -10.6449 10.3470 0.9843 33.5119 -11.7255 0.4242
# 5 9.9653 2.7822 -0.6649 -11.7255 44.5465 -6.5012
# 6 -40.3121 -11.1933 -4.7741 0.4242 -6.5012 42.0865
#
#
#
# Elastic Compliance Matrix: (Units=1/GPa)
#
#
# Indices 1 2 3 4 5 6 
#
# 1 0.036256 -0.018513 -0.014093 0.017872 0.001667 0.028283
# 2 -0.018513 0.030757 0.005567 -0.016622 -0.003426 -0.009282
# 3 -0.014093 0.005567 0.012987 -0.006533 -0.000256 -0.010519
# 4 0.017872 -0.016622 -0.006533 0.044361 0.010537 0.013137
# 5 0.001667 -0.003426 -0.000256 0.010537 0.025719 0.004523
# 6 0.028283 -0.009282 -0.010519 0.013137 0.004523 0.047755
#
#
# Mechanical properties :
#
#
# Convention : Reuss Voigt Hill
#
# Bulk Modulus (GPa) = 38.57594 57.41938 47.99766
# Shear Modulus (GPa) = 19.18983 36.49199 27.84091
#
# Velocity S-wave (km/s) = 2.82548 3.89632 3.40328
# Velocity P-wave (km/s) = 5.16650 6.64298 5.95071
#
# Compressibility (1/GPa) = 0.02592290
#
# Stress axis : x y z
#
# Youngs Moduli (GPa) = 27.58158 32.51256 77.00064
#
# Poissons Ratio (x) = 0.60190 1.08515
# Poissons Ratio (y) = 0.51061 -0.42865
# Poissons Ratio (z) = 0.38870 -0.18099
#
# Static dielectric constant tensor:
#      x y z
#    x 1.925700 0.010230 0.020240 
#    y 0.010230 1.971230 -0.018660 
#    z 0.020240 -0.018660 1.903360 
# 
# From -- ./inp_files/159206.got.cif
#   From: 2010.05.17/outbox.cif.g08.bks.cpg/sg2_80_cif.got.tgz:159206.got - 2010.06.03 11:33:40.
