data_PCOD9108534
_publ_section_title
;
Structure prediction by ZEFSAII (Michael W. Deem and Ramdas Pophale) SiO2 
 PCOD9108534
Probable space group: P -1
;
_chemical_formula_sum "Si O2"
_cell_formula_units_Z 16
_cell_length_a 16.492198
_cell_length_b 12.172181
_cell_length_c 7.321744
_cell_angle_alpha 50.420379
_cell_angle_beta 130.653752
_cell_angle_gamma 146.332776
_cell_volume 602.214390
_symmetry_space_group_name_H-M "P -1"
_symmetry_group_IT_number 2
_symmetry_cell_setting 'triclinic'
loop_
_space_group_symop_operation_xyz
x,y,z
-x,-y,-z
loop_
_atom_site_type_symbol
_atom_site_label
_atom_site_fract_x
_atom_site_fract_y
_atom_site_fract_z
Si Si1 0.164341 0.000222 0.347142
Si Si2 0.954890 0.122988 0.336217
Si Si3 0.395097 0.571129 0.769530
Si Si4 0.737069 0.840884 0.045677
Si Si5 0.360006 0.452510 0.262963
Si Si6 0.339898 0.832936 0.269031
Si Si7 0.813000 0.451629 0.966810
Si Si8 0.689928 0.143917 0.399209
O O1 0.277097 0.971874 0.534095
O O2 0.036674 0.836361 0.479490
O O3 0.217502 0.040044 0.826934
O O4 0.136011 0.010332 0.082034
O O5 0.045262 0.324726 0.136799
O O6 0.000000 0.000000 0.500000
O O7 0.574989 0.721995 0.839824
O O8 0.348251 0.680660 0.522758
O O9 0.288976 0.865066 0.343643
O O10 0.291640 0.353363 0.753721
O O11 0.768809 0.790331 0.694236
O O12 0.500000 0.500000 0.500000
O O13 0.315937 0.547785 0.215012
O O14 0.385162 0.535442 0.008619
O O15 0.229788 0.713380 0.063371
O O16 0.513534 0.028882 0.250895
O O17 0.804647 0.368431 0.240684
#
# Coordination Sequence:
#
# PCOD9108534 Si02
#       8
#     2   2   2   2   2   2   2   2
#     4  11  24  44  68  97 134 181 227 276 337 402
#     4  12  26  45  67 100 139 180 227 280 340 406
#     4  10  20  40  69 105 133 174 221 285 341 398
#     4  10  23  40  69 102 138 169 225 283 341 399
#     4  11  22  39  70 105 136 171 224 289 345 401
#     4  11  23  43  71 100 139 174 225 280 345 405
#     4  12  26  44  69 101 139 182 226 282 341 405
#     4  11  25  46  68 102 138 178 228 283 346 400
#
# _framework density 26.568611000000001
#
# number of rings (size 3 to 8) (size 9 to 14) (size 15 to 20)
#    0.000    1.000    3.750    2.625    3.500    3.000 
#    0.000    1.250    0.000    0.000    0.000    0.000 
#    0.000    0.000    0.000    0.000    0.000    0.000 
#
# Total GULP energy -89570.458855 kJ/mol
# GULP energy per Si atom -5598.153678 kJ/mol
# Density = 2.650814 g / cm^3
# Si number density = 26.568611 Si / 1000 Ang^3
#
#
#
# Elastic Constant Matrix: (Units=GPa)
#
#
# Indices 1 2 3 4 5 6 
#
# 1 104.3987 28.6349 27.9705 -11.8908 -25.5458 -11.4161
# 2 28.6349 78.6295 19.1817 -14.5193 -10.2501 -15.1542
# 3 27.9705 19.1817 146.4110 -36.0474 -19.7881 4.0145
# 4 -11.8908 -14.5193 -36.0474 46.0710 1.3922 -2.9983
# 5 -25.5458 -10.2501 -19.7881 1.3922 43.4631 1.5450
# 6 -11.4161 -15.1542 4.0145 -2.9983 1.5450 34.0431
#
#
#
# Elastic Compliance Matrix: (Units=1/GPa)
#
#
# Indices 1 2 3 4 5 6 
#
# 1 0.012589 -0.002661 -0.000872 0.001737 0.006212 0.003011
# 2 -0.002661 0.016112 -0.000480 0.004398 0.001640 0.006649
# 3 -0.000872 -0.000480 0.009181 0.006629 0.003383 -0.001158
# 4 0.001737 0.004398 0.006629 0.028874 0.004005 0.004120
# 5 0.006212 0.001640 0.003383 0.004005 0.028405 0.001478
# 6 0.003011 0.006649 -0.001158 0.004120 0.001478 0.033776
#
#
# Mechanical properties :
#
#
# Convention : Reuss Voigt Hill
#
# Bulk Modulus (GPa) = 33.49525 53.44594 43.47060
# Shear Modulus (GPa) = 34.03310 41.62556 37.82933
#
# Velocity S-wave (km/s) = 3.58292 3.96248 3.77747
# Velocity P-wave (km/s) = 5.45444 6.41052 5.95171
#
# Compressibility (1/GPa) = 0.02985498
#
# Stress axis : x y z
#
# Youngs Moduli (GPa) = 79.43236 62.06729 108.92372
#
# Poissons Ratio (x) = 0.16518 0.09496
# Poissons Ratio (y) = 0.21139 0.05232
# Poissons Ratio (z) = 0.06925 0.02981
#
# Static dielectric constant tensor:
#      x y z
#    x 2.152590 0.049990 -0.020680 
#    y 0.049990 2.069920 -0.012630 
#    z -0.020680 -0.012630 2.097130 
# 
# From -- ./inp_files/334130.got.cif
#   From: 2010.05.17/outbox.cif.g08.bks.cpg/sg2_168_cif.got.tgz:334130.got - 2010.06.03 11:33:40.
