data_PCOD9108602
_publ_section_title
;
Structure prediction by ZEFSAII (Michael W. Deem and Ramdas Pophale) SiO2 
 PCOD9108602
Probable space group: P -1
;
_chemical_formula_sum "Si O2"
_cell_formula_units_Z 16
_cell_length_a 11.880750
_cell_length_b 8.940633
_cell_length_c 19.425743
_cell_angle_alpha 39.401502
_cell_angle_beta 42.794705
_cell_angle_gamma 73.298970
_cell_volume 677.375193
_symmetry_space_group_name_H-M "P -1"
_symmetry_group_IT_number 2
_symmetry_cell_setting 'triclinic'
loop_
_space_group_symop_operation_xyz
x,y,z
-x,-y,-z
loop_
_atom_site_type_symbol
_atom_site_label
_atom_site_fract_x
_atom_site_fract_y
_atom_site_fract_z
Si Si1 0.238183 0.117608 0.959945
Si Si2 0.219530 0.474525 0.574564
Si Si3 0.824087 0.246834 0.018299
Si Si4 0.647576 0.599257 0.964235
Si Si5 0.059977 0.718740 0.459851
Si Si6 0.576049 0.336232 0.835970
Si Si7 0.184291 0.622661 0.814406
Si Si8 0.443173 0.202697 0.576228
O O1 0.476454 0.288965 0.822456
O O2 0.227021 0.387501 0.868868
O O3 0.194655 0.935290 0.974504
O O4 0.032097 0.842272 0.196914
O O5 0.209072 0.699454 0.451876
O O6 0.371684 0.393550 0.511860
O O7 0.325633 0.609079 0.555518
O O8 0.724799 0.002350 0.212321
O O9 0.691041 0.363883 0.032099
O O10 0.061308 0.564825 0.819380
O O11 0.843994 0.955719 0.731529
O O12 0.500000 0.500000 0.000000
O O13 0.539820 0.594222 0.084140
O O14 0.000000 0.500000 0.500000
O O15 0.832218 0.578230 0.646695
O O16 0.500000 0.000000 0.000000
O O17 0.387058 0.959859 0.630147
O O18 0.000000 0.500000 0.000000
#
# Coordination Sequence:
#
# PCOD9108602 Si02
#       8
#     2   2   2   2   2   2   2   2
#     4  12  23  43  71 102 141 186 240 300 366 441
#     4  11  23  42  71 104 147 181 242 292 377 431
#     4  11  24  43  70  99 143 188 243 297 371 432
#     4  12  27  48  72 107 150 196 249 309 367 441
#     4  12  27  45  76 110 149 195 247 301 365 444
#     4  12  24  45  74 105 144 197 246 300 373 432
#     4  10  20  40  69  98 133 185 232 289 367 431
#     4  10  23  42  72 103 140 191 232 300 372 440
#
# _framework density 23.620585999999999
#
# number of rings (size 3 to 8) (size 9 to 14) (size 15 to 20)
#    0.000    0.750    5.000    3.375    3.500    0.500 
#    4.500    0.625    0.000    0.000    0.000    0.000 
#    0.000    0.000    0.000    0.000    0.000    0.000 
#
# Total GULP energy -89424.593686 kJ/mol
# GULP energy per Si atom -5589.037105 kJ/mol
# Density = 2.356682 g / cm^3
# Si number density = 23.620586 Si / 1000 Ang^3
#
#
#
# Elastic Constant Matrix: (Units=GPa)
#
#
# Indices 1 2 3 4 5 6 
#
# 1 136.2182 59.8586 18.1924 1.1650 -20.3077 -6.1268
# 2 59.8586 184.3808 30.0614 -16.2661 -5.8275 9.0190
# 3 18.1924 30.0614 79.0425 -9.9729 -8.7130 -2.9718
# 4 1.1650 -16.2661 -9.9729 30.0819 11.4478 -7.2997
# 5 -20.3077 -5.8275 -8.7130 11.4478 31.8160 -5.2655
# 6 -6.1268 9.0190 -2.9718 -7.2997 -5.2655 44.8411
#
#
#
# Elastic Compliance Matrix: (Units=1/GPa)
#
#
# Indices 1 2 3 4 5 6 
#
# 1 0.010307 -0.003530 -0.000710 -0.005023 0.007906 0.002182
# 2 -0.003530 0.007225 -0.001822 0.004252 -0.003248 -0.001746
# 3 -0.000710 -0.001822 0.014261 0.003416 0.002226 0.002032
# 4 -0.005023 0.004252 0.003416 0.044190 -0.016744 0.003913
# 5 0.007906 -0.003248 0.002226 -0.016744 0.043217 0.004230
# 6 0.002182 -0.001746 0.002032 0.003913 0.004230 0.024218
#
#
# Mechanical properties :
#
#
# Convention : Reuss Voigt Hill
#
# Bulk Modulus (GPa) = 50.84569 68.42957 59.63763
# Shear Modulus (GPa) = 30.84547 40.78305 35.81426
#
# Velocity S-wave (km/s) = 3.61761 4.15973 3.89811
# Velocity P-wave (km/s) = 6.24677 7.21834 6.75006
#
# Compressibility (1/GPa) = 0.01966735
#
# Stress axis : x y z
#
# Youngs Moduli (GPa) = 97.02040 138.41584 70.12330
#
# Poissons Ratio (x) = 0.48866 0.04977
# Poissons Ratio (y) = 0.34252 0.12779
# Poissons Ratio (z) = 0.06886 0.25224
#
# Static dielectric constant tensor:
#      x y z
#    x 1.873460 0.129910 -0.128080 
#    y 0.129910 1.645790 0.165820 
#    z -0.128080 0.165820 1.883150 
# 
# From -- ./inp_files/593956.got.cif
#   From: 2010.05.17/outbox.cif.g08.bks.cpg/sg2_297_cif.got.tgz:593956.got - 2010.06.03 11:33:40.
