data_PCOD9108833
_publ_section_title
;
Structure prediction by ZEFSAII (Michael W. Deem and Ramdas Pophale) SiO2 
 PCOD9108833
Probable space group: P -1
;
_chemical_formula_sum "Si O2"
_cell_formula_units_Z 11
_cell_length_a 12.572696
_cell_length_b 8.935092
_cell_length_c 8.004528
_cell_angle_alpha 104.374916
_cell_angle_beta 121.017167
_cell_angle_gamma 35.225934
_cell_volume 416.506141
_symmetry_space_group_name_H-M "P -1"
_symmetry_group_IT_number 2
_symmetry_cell_setting 'triclinic'
loop_
_space_group_symop_operation_xyz
x,y,z
-x,-y,-z
loop_
_atom_site_type_symbol
_atom_site_label
_atom_site_fract_x
_atom_site_fract_y
_atom_site_fract_z
Si Si1 0.245620 0.265202 0.429957
Si Si2 0.449676 0.194595 0.887753
Si Si3 0.725355 0.107251 0.596431
Si Si4 0.075485 0.182975 0.879695
Si Si5 0.000000 0.000000 0.500000
Si Si6 0.691076 0.439354 0.842656
O O1 0.270155 0.330514 0.643036
O O2 0.078614 0.525311 0.246001
O O3 0.500000 0.000000 0.500000
O O4 0.173778 0.163778 0.368031
O O5 0.368714 0.425886 0.991651
O O6 0.500000 0.000000 0.000000
O O7 0.684451 0.994440 0.937348
O O8 0.678559 0.267712 0.760993
O O9 0.490009 0.317571 0.372694
O O10 0.868189 0.061452 0.572079
O O11 0.927063 0.261326 0.926295
O O12 0.104484 0.026180 0.714555
#
# Coordination Sequence:
#
# PCOD9108833 Si02
#       6
#     2   2   2   2   1   2
#     4  12  25  44  71 105 139 176 226 290 339 403
#     4  12  24  43  69 104 137 177 230 279 340 409
#     4  10  20  41  69  98 138 180 228 274 346 398
#     4  11  24  44  72 100 136 183 225 281 348 396
#     4  10  20  40  72  98 130 190 222 270 346 406
#     4  10  21  43  71  95 138 185 225 279 334 414
#
# _framework density 26.410174999999999
#
# number of rings (size 3 to 8) (size 9 to 14) (size 15 to 20)
#    0.000    1.091    5.455    0.000    0.000    5.818 
#    0.000    5.455    0.000   12.000    0.000    0.000 
#    0.000    0.000    0.000    0.000    0.000    0.000 
#
# Total GULP energy -61518.896292 kJ/mol
# GULP energy per Si atom -5592.626936 kJ/mol
# Density = 2.635006 g / cm^3
# Si number density = 26.410175 Si / 1000 Ang^3
#
#
#
# Elastic Constant Matrix: (Units=GPa)
#
#
# Indices 1 2 3 4 5 6 
#
# 1 83.9604 20.0840 17.0125 3.5529 22.4339 -15.3318
# 2 20.0840 91.8941 71.5663 31.2778 1.2335 -14.7496
# 3 17.0125 71.5663 155.1915 33.1064 15.4553 9.0777
# 4 3.5529 31.2778 33.1064 52.4959 4.8198 -3.9722
# 5 22.4339 1.2335 15.4553 4.8198 31.7046 2.7764
# 6 -15.3318 -14.7496 9.0777 -3.9722 2.7764 31.7746
#
#
#
# Elastic Compliance Matrix: (Units=1/GPa)
#
#
# Indices 1 2 3 4 5 6 
#
# 1 0.017781 -0.002930 -0.000340 0.002662 -0.013480 0.008828
# 2 -0.002930 0.023740 -0.010385 -0.007136 0.006322 0.011129
# 3 -0.000340 -0.010385 0.012633 -0.001985 -0.004472 -0.008451
# 4 0.002662 -0.007136 -0.001985 0.024952 -0.004612 0.002062
# 5 -0.013480 0.006322 -0.004472 -0.004612 0.044305 -0.006740
# 6 0.008828 0.011129 -0.008451 0.002062 -0.006740 0.044158
#
#
# Mechanical properties :
#
#
# Convention : Reuss Voigt Hill
#
# Bulk Modulus (GPa) = 37.25055 60.93017 49.09036
# Shear Modulus (GPa) = 24.53059 38.02056 31.27557
#
# Velocity S-wave (km/s) = 3.05098 3.79835 3.44499
# Velocity P-wave (km/s) = 5.15233 6.50825 5.86958
#
# Compressibility (1/GPa) = 0.02684524
#
# Stress axis : x y z
#
# Youngs Moduli (GPa) = 56.23938 42.12258 79.15673
#
# Poissons Ratio (x) = 0.12340 0.02692
# Poissons Ratio (y) = 0.16476 0.82204
# Poissons Ratio (z) = 0.01912 0.43744
#
# Static dielectric constant tensor:
#      x y z
#    x 2.031770 0.029650 -0.039760 
#    y 0.029650 2.088490 0.004300 
#    z -0.039760 0.004300 2.041620 
# 
# From -- ./inp_files/234017.got.cif
#   From: 2010.05.17/outbox.cif.g08.bks.cpg/sg2_118_cif.got.tgz:234017.got - 2010.06.03 11:33:40.
