data_PCOD9108709
_publ_section_title
;
Structure prediction by ZEFSAII (Michael W. Deem and Ramdas Pophale) SiO2 
 PCOD9108709
Probable space group: P -1
;
_chemical_formula_sum "Si O2"
_cell_formula_units_Z 13
_cell_length_a 7.746631
_cell_length_b 11.543578
_cell_length_c 13.294421
_cell_angle_alpha 54.876574
_cell_angle_beta 27.141073
_cell_angle_gamma 60.635679
_cell_volume 442.832044
_symmetry_space_group_name_H-M "P -1"
_symmetry_group_IT_number 2
_symmetry_cell_setting 'triclinic'
loop_
_space_group_symop_operation_xyz
x,y,z
-x,-y,-z
loop_
_atom_site_type_symbol
_atom_site_label
_atom_site_fract_x
_atom_site_fract_y
_atom_site_fract_z
Si Si1 0.662604 0.995751 0.547641
Si Si2 0.766019 0.694503 0.571041
Si Si3 0.500000 0.000000 0.000000
Si Si4 0.389111 0.287856 0.804528
Si Si5 0.792676 0.565611 0.965236
Si Si6 0.600063 0.687203 0.442905
Si Si7 0.452465 0.145724 0.110254
O O1 0.515796 0.151851 0.556600
O O2 0.120218 0.041301 0.275549
O O3 0.601081 0.853830 0.584043
O O4 0.549359 0.926927 0.747505
O O5 0.807226 0.642822 0.459556
O O6 0.151462 0.687995 0.438829
O O7 0.458137 0.579393 0.835268
O O8 0.672265 0.875301 0.051124
O O9 0.737701 0.124401 0.883939
O O10 0.252193 0.306731 0.750987
O O11 0.216437 0.373177 0.945175
O O12 0.615761 0.691671 0.929983
O O13 0.221200 0.584240 0.693989
#
# Coordination Sequence:
#
# PCOD9108709 Si02
#       7
#     2   2   1   2   2   2   2
#     4  10  18  36  60  90 121 162 214 259 310 373
#     4  12  23  41  67  97 132 167 216 267 318 387
#     4  10  16  36  62  86 122 158 206 264 306 366
#     4  11  23  43  69  92 129 172 217 263 324 381
#     4  10  24  41  65  96 133 172 209 266 325 383
#     4  11  24  44  67  94 130 174 213 266 323 378
#     4   9  17  33  62  85 116 167 206 247 319 366
#
# _framework density 29.356504999999999
#
# number of rings (size 3 to 8) (size 9 to 14) (size 15 to 20)
#    0.000    1.538    3.077    3.231    0.000    3.077 
#    0.000    5.385    0.000    0.000    0.000    0.000 
#    0.000    0.000    0.000    0.000    0.000    0.000 
#
# Total GULP energy -72584.821512 kJ/mol
# GULP energy per Si atom -5583.447809 kJ/mol
# Density = 2.928969 g / cm^3
# Si number density = 29.356505 Si / 1000 Ang^3
#
#
#
# Elastic Constant Matrix: (Units=GPa)
#
#
# Indices 1 2 3 4 5 6 
#
# 1 112.8917 17.9496 44.0955 12.9855 38.5654 35.0887
# 2 17.9496 149.3048 21.4314 -23.3464 4.9089 21.0109
# 3 44.0955 21.4314 94.7239 -17.7774 11.2805 6.7866
# 4 12.9855 -23.3464 -17.7774 71.4942 10.8188 11.4927
# 5 38.5654 4.9089 11.2805 10.8188 71.7295 16.0361
# 6 35.0887 21.0109 6.7866 11.4927 16.0361 36.6544
#
#
#
# Elastic Compliance Matrix: (Units=1/GPa)
#
#
# Indices 1 2 3 4 5 6 
#
# 1 0.017567 0.000614 -0.007124 -0.001890 -0.005177 -0.012992
# 2 0.000614 0.008147 -0.001102 0.003237 0.000171 -0.006143
# 3 -0.007124 -0.001102 0.014597 0.003981 0.000252 0.003390
# 4 -0.001890 0.003237 0.003981 0.017480 -0.001183 -0.005746
# 5 -0.005177 0.000171 0.000252 -0.001183 0.017395 -0.002428
# 6 -0.012992 -0.006143 0.003390 -0.005746 -0.002428 0.045476
#
#
# Mechanical properties :
#
#
# Convention : Reuss Voigt Hill
#
# Bulk Modulus (GPa) = 39.86145 58.20816 49.03480
# Shear Modulus (GPa) = 34.66242 54.20522 44.43382
#
# Velocity S-wave (km/s) = 3.43992 4.30169 3.89471
# Velocity P-wave (km/s) = 5.42082 6.67411 6.07985
#
# Compressibility (1/GPa) = 0.02508690
#
# Stress axis : x y z
#
# Youngs Moduli (GPa) = 56.92412 122.74396 68.50820
#
# Poissons Ratio (x) = -0.07532 0.48805
# Poissons Ratio (y) = -0.03493 0.07548
# Poissons Ratio (z) = 0.40553 0.13523
#
# Static dielectric constant tensor:
#      x y z
#    x 2.434610 -0.143900 -0.069190 
#    y -0.143900 2.477470 0.143390 
#    z -0.069190 0.143390 2.304390 
# 
# From -- ./inp_files/496270.got.cif
#   From: 2010.05.17/outbox.cif.g08.bks.cpg/sg2_249_cif.got.tgz:496270.got - 2010.06.03 11:33:40.
