data_PCOD9108785
_publ_section_title
;
Structure prediction by ZEFSAII (Michael W. Deem and Ramdas Pophale) SiO2 
 PCOD9108785
Probable space group: P -1
;
_chemical_formula_sum "Si O2"
_cell_formula_units_Z 16
_cell_length_a 20.445171
_cell_length_b 17.611329
_cell_length_c 11.290860
_cell_angle_alpha 154.156367
_cell_angle_beta 28.718326
_cell_angle_gamma 159.101102
_cell_volume 614.797111
_symmetry_space_group_name_H-M "P -1"
_symmetry_group_IT_number 2
_symmetry_cell_setting 'triclinic'
loop_
_space_group_symop_operation_xyz
x,y,z
-x,-y,-z
loop_
_atom_site_type_symbol
_atom_site_label
_atom_site_fract_x
_atom_site_fract_y
_atom_site_fract_z
Si Si1 0.185140 0.270578 0.954879
Si Si2 0.873121 0.789841 0.501979
Si Si3 0.141411 0.867317 0.383814
Si Si4 0.159025 0.558588 0.587725
Si Si5 0.430566 0.982508 0.394308
Si Si6 0.096936 0.761555 0.769352
Si Si7 0.550692 0.729134 0.916495
Si Si8 0.540186 0.252285 0.170588
O O1 0.396367 0.467168 0.848296
O O2 0.144235 0.032611 0.703696
O O3 0.159510 0.387957 0.263910
O O4 0.060731 0.233310 0.991599
O O5 0.743404 0.836610 0.819053
O O6 0.709524 0.513271 0.325044
O O7 0.011933 0.818117 0.411063
O O8 0.000000 0.000000 0.500000
O O9 0.010838 0.604672 0.280049
O O10 0.356809 0.033864 0.231580
O O11 0.139029 0.720293 0.773620
O O12 0.370979 0.750841 0.572305
O O13 0.271113 0.947829 0.664350
O O14 0.472254 0.854613 0.236607
O O15 0.370547 0.836047 0.162723
O O16 0.000000 0.500000 0.500000
O O17 0.551234 0.727461 0.770120
#
# Coordination Sequence:
#
# PCOD9108785 Si02
#       8
#     2   2   2   2   2   2   2   2
#     4  11  23  43  72  99 132 180 234 281 338 403
#     4  12  22  40  70 104 134 179 232 277 339 407
#     4  12  26  44  68 103 145 180 222 282 358 403
#     4  11  24  44  65 100 144 182 220 287 343 411
#     4  10  22  41  71  95 132 176 231 283 336 398
#     4  10  20  42  69  98 126 179 235 272 335 405
#     4  10  20  40  71  97 133 167 232 293 321 393
#     4  10  22  44  65 103 137 175 224 293 336 397
#
# _framework density 26.024844000000002
#
# number of rings (size 3 to 8) (size 9 to 14) (size 15 to 20)
#    0.750    0.500    5.000    1.875    1.750    0.500 
#   13.500    1.875    0.000    0.000    0.000    0.000 
#    0.000    0.000    0.000    0.000    0.000    0.000 
#
# Total GULP energy -89488.750796 kJ/mol
# GULP energy per Si atom -5593.046925 kJ/mol
# Density = 2.596561 g / cm^3
# Si number density = 26.024844 Si / 1000 Ang^3
#
#
#
# Elastic Constant Matrix: (Units=GPa)
#
#
# Indices 1 2 3 4 5 6 
#
# 1 54.1183 45.7238 18.0233 -9.6403 5.9235 4.7854
# 2 45.7238 208.8867 35.6739 -25.8837 3.9196 -8.6330
# 3 18.0233 35.6739 109.8318 -12.1114 13.7713 -4.9290
# 4 -9.6403 -25.8837 -12.1114 40.2480 12.4755 -1.5247
# 5 5.9235 3.9196 13.7713 12.4755 26.1812 -0.8772
# 6 4.7854 -8.6330 -4.9290 -1.5247 -0.8772 45.9466
#
#
#
# Elastic Compliance Matrix: (Units=1/GPa)
#
#
# Indices 1 2 3 4 5 6 
#
# 1 0.024654 -0.004648 -0.001432 0.004302 -0.006298 -0.003572
# 2 -0.004648 0.006413 -0.000783 0.003128 -0.000931 0.001691
# 3 -0.001432 -0.000783 0.011169 0.004966 -0.007759 0.001217
# 4 0.004302 0.003128 0.004966 0.035995 -0.021157 0.001463
# 5 -0.006298 -0.000931 -0.007759 -0.021157 0.053921 -0.000024
# 6 -0.003572 0.001691 0.001217 0.001463 -0.000024 0.022633
#
#
# Mechanical properties :
#
#
# Convention : Reuss Voigt Hill
#
# Bulk Modulus (GPa) = 35.07558 63.51985 49.29771
# Shear Modulus (GPa) = 28.08734 40.70288 34.39511
#
# Velocity S-wave (km/s) = 3.28876 3.95904 3.63936
# Velocity P-wave (km/s) = 5.28472 6.73491 6.05340
#
# Compressibility (1/GPa) = 0.02850987
#
# Stress axis : x y z
#
# Youngs Moduli (GPa) = 40.56155 155.92260 89.53209
#
# Poissons Ratio (x) = 0.72479 0.12822
# Poissons Ratio (y) = 0.18855 0.07009
# Poissons Ratio (z) = 0.05809 0.12206
#
# Static dielectric constant tensor:
#      x y z
#    x 2.094520 0.075850 0.069700 
#    y 0.075850 2.037250 0.132220 
#    z 0.069700 0.132220 2.260190 
# 
# From -- ./inp_files/472464.got.cif
#   From: 2010.05.17/outbox.cif.g08.bks.cpg/sg2_237_cif.got.tgz:472464.got - 2010.06.03 11:33:40.
