data_PCOD9108032
_publ_section_title
;
Structure prediction by ZEFSAII (Michael W. Deem and Ramdas Pophale) SiO2 
 PCOD9108032
Probable space group: P -1
;
_chemical_formula_sum "Si O2"
_cell_formula_units_Z 14
_cell_length_a 12.130672
_cell_length_b 10.957031
_cell_length_c 7.802645
_cell_angle_alpha 40.087891
_cell_angle_beta 83.479734
_cell_angle_gamma 62.433307
_cell_volume 536.927350
_symmetry_space_group_name_H-M "P -1"
_symmetry_group_IT_number 2
_symmetry_cell_setting 'triclinic'
loop_
_space_group_symop_operation_xyz
x,y,z
-x,-y,-z
loop_
_atom_site_type_symbol
_atom_site_label
_atom_site_fract_x
_atom_site_fract_y
_atom_site_fract_z
Si Si1 0.481629 0.722505 0.918097
Si Si2 0.504260 0.099138 0.648851
Si Si3 0.043270 0.674225 0.818360
Si Si4 0.830063 0.994678 0.285180
Si Si5 0.106704 0.752762 0.362243
Si Si6 0.187387 0.423707 0.395121
Si Si7 0.622885 0.309424 0.558965
O O1 0.482862 0.821253 0.627657
O O2 0.519234 0.859806 0.888985
O O3 0.328607 0.798462 0.900049
O O4 0.586979 0.452102 0.233783
O O5 0.349152 0.295445 0.521880
O O6 0.609882 0.099725 0.751941
O O7 0.101482 0.073708 0.462009
O O8 0.126605 0.605912 0.050992
O O9 0.127646 0.639255 0.671404
O O10 0.000000 0.500000 0.000000
O O11 0.830935 0.778103 0.439631
O O12 0.948756 0.980676 0.170769
O O13 0.118144 0.570807 0.420264
O O14 0.231816 0.773127 0.308277
O O15 0.500000 0.500000 0.500000
#
# Coordination Sequence:
#
# PCOD9108032 Si02
#       7
#     2   2   2   2   2   2   2
#     4  10  22  43  70  93 133 170 224 283 321 397
#     4  10  22  41  68  96 127 175 227 265 339 387
#     4   8  17  30  57  90 121 162 215 259 327 386
#     4   8  19  36  58  93 125 164 216 272 327 382
#     4  10  20  36  62  92 132 167 219 270 327 395
#     4  10  16  35  62  92 124 171 218 266 325 393
#     4  12  24  42  64  97 136 177 218 268 333 403
#
# _framework density 26.074293000000001
#
# number of rings (size 3 to 8) (size 9 to 14) (size 15 to 20)
#    0.857    1.429    1.429    1.714    0.000    1.714 
#    0.000    2.857    0.000    0.000    0.000    0.000 
#    0.000    0.000    0.000    0.000    0.000    0.000 
#
# Total GULP energy -78333.248167 kJ/mol
# GULP energy per Si atom -5595.232012 kJ/mol
# Density = 2.601495 g / cm^3
# Si number density = 26.074293 Si / 1000 Ang^3
#
#
#
# Elastic Constant Matrix: (Units=GPa)
#
#
# Indices 1 2 3 4 5 6 
#
# 1 138.5404 24.8720 28.3891 -7.4834 17.2051 -9.1703
# 2 24.8720 91.4670 17.3344 7.7408 0.0970 8.7852
# 3 28.3891 17.3344 68.3055 -0.4274 19.1352 2.4492
# 4 -7.4834 7.7408 -0.4274 39.0383 0.8034 -3.9809
# 5 17.2051 0.0970 19.1352 0.8034 33.0613 -5.2830
# 6 -9.1703 8.7852 2.4492 -3.9809 -5.2830 50.1388
#
#
#
# Elastic Compliance Matrix: (Units=1/GPa)
#
#
# Indices 1 2 3 4 5 6 
#
# 1 0.008729 -0.002334 -0.002261 0.002376 -0.002967 0.001992
# 2 -0.002334 0.012627 -0.002872 -0.003289 0.002521 -0.002495
# 3 -0.002261 -0.002872 0.019257 0.000364 -0.010274 -0.001905
# 4 0.002376 -0.003289 0.000364 0.027064 -0.001620 0.002971
# 5 -0.002967 0.002521 -0.010274 -0.001620 0.038316 0.003426
# 6 0.001992 -0.002495 -0.001905 0.002971 0.003426 0.021436
#
#
# Mechanical properties :
#
#
# Convention : Reuss Voigt Hill
#
# Bulk Modulus (GPa) = 38.94186 48.83378 43.88782
# Shear Modulus (GPa) = 33.12930 39.62885 36.37908
#
# Velocity S-wave (km/s) = 3.56838 3.90275 3.73930
# Velocity P-wave (km/s) = 5.65200 6.25124 5.95916
#
# Compressibility (1/GPa) = 0.02567931
#
# Stress axis : x y z
#
# Youngs Moduli (GPa) = 114.55906 79.19422 51.92831
#
# Poissons Ratio (x) = 0.18487 0.11741
# Poissons Ratio (y) = 0.26742 0.14912
# Poissons Ratio (z) = 0.25903 0.22742
#
# Static dielectric constant tensor:
#      x y z
#    x 2.003410 0.025540 -0.001560 
#    y 0.025540 2.054310 0.068280 
#    z -0.001560 0.068280 2.208180 
# 
# From -- ./inp_files/256330.got.cif
#   From: 2010.05.17/outbox.cif.g08.bks.cpg/sg2_129_cif.got.tgz:256330.got - 2010.06.03 11:33:40.
