data_PCOD9108145
_publ_section_title
;
Structure prediction by ZEFSAII (Michael W. Deem and Ramdas Pophale) SiO2 
 PCOD9108145
Probable space group: P -1
;
_chemical_formula_sum "Si O2"
_cell_formula_units_Z 16
_cell_length_a 22.983312
_cell_length_b 5.270726
_cell_length_c 5.233959
_cell_angle_alpha 91.161483
_cell_angle_beta 71.794725
_cell_angle_gamma 97.953937
_cell_volume 596.325476
_symmetry_space_group_name_H-M "P -1"
_symmetry_group_IT_number 2
_symmetry_cell_setting 'triclinic'
loop_
_space_group_symop_operation_xyz
x,y,z
-x,-y,-z
loop_
_atom_site_type_symbol
_atom_site_label
_atom_site_fract_x
_atom_site_fract_y
_atom_site_fract_z
Si Si1 0.811064 0.848763 0.222454
Si Si2 0.400503 0.862895 0.647528
Si Si3 0.962469 0.161982 0.241544
Si Si4 0.371042 0.459566 0.300103
Si Si5 0.490430 0.225078 0.219074
Si Si6 0.088567 0.261271 0.282457
Si Si7 0.843727 0.366064 0.434766
Si Si8 0.310276 0.195266 0.893599
O O1 0.806545 0.574166 0.360050
O O2 0.761507 0.858735 0.067603
O O3 0.807818 0.084204 0.425287
O O4 0.877090 0.866265 0.993568
O O5 0.377559 0.745754 0.405435
O O6 0.442595 0.689765 0.742862
O O7 0.449351 0.108359 0.515513
O O8 0.343694 0.944545 0.880250
O O9 0.912532 0.341876 0.225404
O O10 0.021362 0.322397 0.301689
O O11 0.925090 0.954094 0.481840
O O12 0.000000 0.000000 0.000000
O O13 0.442032 0.399610 0.175490
O O14 0.338004 0.309429 0.587391
O O15 0.330750 0.376320 0.107024
O O16 0.500000 0.000000 0.000000
O O17 0.135268 0.508372 0.318758
#
# Coordination Sequence:
#
# PCOD9108145 Si02
#       8
#     2   2   2   2   2   2   2   2
#     4  12  30  48  74 104 147 195 252 306 365 447
#     4  10  23  42  69 102 144 188 234 305 368 443
#     4  11  23  47  75 111 150 183 241 304 377 455
#     4  11  25  45  72 104 140 191 242 301 378 431
#     4  10  20  40  67 106 144 179 239 300 368 449
#     4  11  25  45  77 110 144 195 234 308 378 446
#     4  12  26  50  71 109 143 189 244 303 370 441
#     4  11  28  47  68 104 139 191 253 300 361 443
#
# _framework density 26.830984000000001
#
# number of rings (size 3 to 8) (size 9 to 14) (size 15 to 20)
#    0.000    1.000    3.750    0.750    7.000    2.500 
#    0.000    0.000    0.000    0.000    0.000    0.000 
#    0.000    0.000    0.000    0.000    0.000    0.000 
#
# Total GULP energy -89531.176640 kJ/mol
# GULP energy per Si atom -5595.698540 kJ/mol
# Density = 2.676992 g / cm^3
# Si number density = 26.830984 Si / 1000 Ang^3
#
#
#
# Elastic Constant Matrix: (Units=GPa)
#
#
# Indices 1 2 3 4 5 6 
#
# 1 156.2960 34.0342 13.6877 19.2293 33.0406 0.1689
# 2 34.0342 99.4340 28.0948 30.6405 13.4104 -14.5240
# 3 13.6877 28.0948 85.4857 23.1624 16.4894 -1.6131
# 4 19.2293 30.6405 23.1624 51.1077 8.8113 8.9175
# 5 33.0406 13.4104 16.4894 8.8113 47.8686 7.4298
# 6 0.1689 -14.5240 -1.6131 8.9175 7.4298 31.1131
#
#
#
# Elastic Compliance Matrix: (Units=1/GPa)
#
#
# Indices 1 2 3 4 5 6 
#
# 1 0.007971 -0.001587 0.000701 -0.001645 -0.005144 0.000952
# 2 -0.001587 0.015986 -0.001657 -0.009653 -0.002712 0.010799
# 3 0.000701 -0.001657 0.014536 -0.005555 -0.004411 0.002622
# 4 -0.001645 -0.009653 -0.005555 0.030550 0.002317 -0.014094
# 5 -0.005144 -0.002712 -0.004411 0.002317 0.027649 -0.008733
# 6 0.000952 0.010799 0.002622 -0.014094 -0.008733 0.043438
#
#
# Mechanical properties :
#
#
# Convention : Reuss Voigt Hill
#
# Bulk Modulus (GPa) = 29.93448 54.76100 42.34774
# Shear Modulus (GPa) = 31.97932 43.71115 37.84523
#
# Velocity S-wave (km/s) = 3.45611 4.04063 3.75974
# Velocity P-wave (km/s) = 5.20645 6.49791 5.88770
#
# Compressibility (1/GPa) = 0.03340630
#
# Stress axis : x y z
#
# Youngs Moduli (GPa) = 125.45527 62.55516 68.79606
#
# Poissons Ratio (x) = 0.09926 -0.04823
# Poissons Ratio (y) = 0.19906 0.11403
# Poissons Ratio (z) = -0.08795 0.10368
#
# Static dielectric constant tensor:
#      x y z
#    x 2.124400 0.002380 0.057420 
#    y 0.002380 2.274100 -0.072510 
#    z 0.057420 -0.072510 2.143670 
# 
# From -- ./inp_files/14395.got.cif
#   From: 2010.05.17/outbox.cif.g08.bks.cpg/sg2_8_cif.got.tgz:14395.got - 2010.06.03 11:33:40.
