data_PCOD9108781
_publ_section_title
;
Structure prediction by ZEFSAII (Michael W. Deem and Ramdas Pophale) SiO2 
 PCOD9108781
Probable space group: P -1
;
_chemical_formula_sum "Si O2"
_cell_formula_units_Z 14
_cell_length_a 14.605783
_cell_length_b 5.414811
_cell_length_c 8.726414
_cell_angle_alpha 80.949405
_cell_angle_beta 107.340744
_cell_angle_gamma 64.914407
_cell_volume 563.608586
_symmetry_space_group_name_H-M "P -1"
_symmetry_group_IT_number 2
_symmetry_cell_setting 'triclinic'
loop_
_space_group_symop_operation_xyz
x,y,z
-x,-y,-z
loop_
_atom_site_type_symbol
_atom_site_label
_atom_site_fract_x
_atom_site_fract_y
_atom_site_fract_z
Si Si1 0.690789 0.115224 0.168399
Si Si2 0.994378 0.760243 0.872429
Si Si3 0.272604 0.357707 0.393349
Si Si4 0.555224 0.164827 0.600825
Si Si5 0.897205 0.711482 0.529850
Si Si6 0.590387 0.719383 0.226962
Si Si7 0.195594 0.769967 0.055181
O O1 0.623294 0.446176 0.162266
O O2 0.744979 0.108086 0.033129
O O3 0.794284 0.936733 0.354027
O O4 0.616755 0.960299 0.151680
O O5 0.943491 0.830809 0.671138
O O6 0.122120 0.679773 0.923564
O O7 0.000000 0.500000 0.000000
O O8 0.902374 0.018451 0.902760
O O9 0.149484 0.459048 0.376741
O O10 0.332895 0.385809 0.570361
O O11 0.322299 0.028123 0.387569
O O12 0.280555 0.522195 0.233707
O O13 0.500000 0.500000 0.500000
O O14 0.530109 0.152011 0.767867
O O15 0.500000 0.000000 0.500000
O O16 0.000000 0.500000 0.500000
#
# Coordination Sequence:
#
# PCOD9108781 Si02
#       7
#     2   2   2   2   2   2   2
#     4  11  25  41  65  96 134 172 217 273 333 387
#     4  11  23  41  62  87 134 178 230 267 323 392
#     4  10  22  41  65  98 125 173 223 267 333 396
#     4  10  20  40  71  97 129 167 220 277 327 395
#     4  11  23  39  66  94 129 174 221 273 327 387
#     4  10  22  43  66  97 127 168 222 275 329 387
#     4  11  25  40  62  94 131 181 220 271 330 395
#
# _framework density 24.839932999999998
#
# number of rings (size 3 to 8) (size 9 to 14) (size 15 to 20)
#    0.000    1.429    1.429    4.286    8.000    1.714 
#    0.000    1.429    0.000    0.000    0.000    0.000 
#    0.000    0.000    0.000    0.000    0.000    0.000 
#
# Total GULP energy -78260.712815 kJ/mol
# GULP energy per Si atom -5590.050915 kJ/mol
# Density = 2.478340 g / cm^3
# Si number density = 24.839933 Si / 1000 Ang^3
#
#
#
# Elastic Constant Matrix: (Units=GPa)
#
#
# Indices 1 2 3 4 5 6 
#
# 1 135.0751 37.9371 41.7612 7.1645 -38.0580 0.0319
# 2 37.9371 137.8596 28.6454 -5.4594 -25.1190 -4.3843
# 3 41.7612 28.6454 133.0757 -3.6666 -25.6041 5.3439
# 4 7.1645 -5.4594 -3.6666 31.1534 0.1839 -15.3254
# 5 -38.0580 -25.1190 -25.6041 0.1839 48.4387 3.8288
# 6 0.0319 -4.3843 5.3439 -15.3254 3.8288 37.8345
#
#
#
# Elastic Compliance Matrix: (Units=1/GPa)
#
#
# Indices 1 2 3 4 5 6 
#
# 1 0.010464 -0.001536 -0.001678 -0.004025 0.006732 -0.002262
# 2 -0.001536 0.008491 -0.000853 0.002674 0.002584 0.001927
# 3 -0.001678 -0.000853 0.008884 0.000559 0.003047 -0.001434
# 4 -0.004025 0.002674 0.000559 0.042266 -0.003038 0.017662
# 5 0.006732 0.002584 0.003047 -0.003038 0.029238 -0.004326
# 6 -0.002262 0.001927 -0.001434 0.017662 -0.004326 0.034451
#
#
# Mechanical properties :
#
#
# Convention : Reuss Voigt Hill
#
# Bulk Modulus (GPa) = 50.74299 69.18862 59.96580
# Shear Modulus (GPa) = 33.67106 43.32976 38.50041
#
# Velocity S-wave (km/s) = 3.68574 4.18108 3.94120
# Velocity P-wave (km/s) = 6.21170 7.15702 6.70105
#
# Compressibility (1/GPa) = 0.01970715
#
# Stress axis : x y z
#
# Youngs Moduli (GPa) = 95.56267 117.76569 112.56465
#
# Poissons Ratio (x) = 0.18084 0.18889
# Poissons Ratio (y) = 0.14675 0.09597
# Poissons Ratio (z) = 0.16036 0.10040
#
# Static dielectric constant tensor:
#      x y z
#    x 2.203800 0.246620 0.241980 
#    y 0.246620 2.641670 0.313160 
#    z 0.241980 0.313160 2.214190 
# 
# From -- ./inp_files/36854.got.cif
#   From: 2010.05.17/outbox.cif.g08.bks.cpg/sg2_19_cif.got.tgz:36854.got - 2010.06.03 11:33:40.
