data_PCOD9108116
_publ_section_title
;
Structure prediction by ZEFSAII (Michael W. Deem and Ramdas Pophale) SiO2 
 PCOD9108116
Probable space group: P -1
;
_chemical_formula_sum "Si O2"
_cell_formula_units_Z 14
_cell_length_a 6.629357
_cell_length_b 7.261591
_cell_length_c 13.719262
_cell_angle_alpha 73.819345
_cell_angle_beta 112.441617
_cell_angle_gamma 105.551321
_cell_volume 576.432929
_symmetry_space_group_name_H-M "P -1"
_symmetry_group_IT_number 2
_symmetry_cell_setting 'triclinic'
loop_
_space_group_symop_operation_xyz
x,y,z
-x,-y,-z
loop_
_atom_site_type_symbol
_atom_site_label
_atom_site_fract_x
_atom_site_fract_y
_atom_site_fract_z
Si Si1 0.478834 0.954439 0.362759
Si Si2 0.156431 0.320227 0.845375
Si Si3 0.334648 0.338090 0.436036
Si Si4 0.772281 0.581622 0.943085
Si Si5 0.150159 0.700238 0.681806
Si Si6 0.031661 0.074298 0.211181
Si Si7 0.353713 0.634879 0.228199
O O1 0.571894 0.850165 0.486552
O O2 0.911038 0.203004 0.241999
O O3 0.490953 0.810495 0.291630
O O4 0.643508 0.156125 0.345009
O O5 0.894377 0.317707 0.821306
O O6 0.195782 0.486281 0.745023
O O7 0.148768 0.101667 0.839159
O O8 0.280493 0.377653 0.961389
O O9 0.500000 0.500000 0.500000
O O10 0.346053 0.434664 0.317049
O O11 0.075641 0.314558 0.419919
O O12 0.614274 0.423568 0.869275
O O13 0.835970 0.787759 0.867927
O O14 0.000000 0.500000 0.000000
O O15 0.776679 0.016263 0.683961
#
# Coordination Sequence:
#
# PCOD9108116 Si02
#       7
#     2   2   2   2   2   2   2
#     4  10  22  36  59  90 120 153 201 239 290 352
#     4   9  19  35  61  85 118 152 200 238 289 353
#     4   9  17  36  63  84 118 159 190 241 294 340
#     4  10  16  35  64  85 113 159 194 241 297 342
#     4  11  21  41  58  89 124 153 191 248 289 345
#     4  11  21  38  63  87 115 161 196 236 299 349
#     4   8  16  34  59  84 116 158 191 239 294 338
#
# _framework density 24.287299999999998
#
# number of rings (size 3 to 8) (size 9 to 14) (size 15 to 20)
#    0.000    2.286    4.286    1.714    0.000    0.571 
#    2.571    1.429    0.000   14.571    0.000    0.000 
#    0.000    0.000    0.000    0.000    0.000    0.000 
#
# Total GULP energy -78214.740836 kJ/mol
# GULP energy per Si atom -5586.767203 kJ/mol
# Density = 2.423202 g / cm^3
# Si number density = 24.287300 Si / 1000 Ang^3
#
#
#
# Elastic Constant Matrix: (Units=GPa)
#
#
# Indices 1 2 3 4 5 6 
#
# 1 53.8854 1.4672 -0.8636 8.3476 5.7004 2.2015
# 2 1.4672 141.1744 12.6929 17.0478 4.8407 1.5022
# 3 -0.8636 12.6929 79.7734 18.6591 8.3757 -8.0918
# 4 8.3476 17.0478 18.6591 44.1042 4.1542 7.0267
# 5 5.7004 4.8407 8.3757 4.1542 38.4109 -3.2668
# 6 2.2015 1.5022 -8.0918 7.0267 -3.2668 25.8100
#
#
#
# Elastic Compliance Matrix: (Units=1/GPa)
#
#
# Indices 1 2 3 4 5 6 
#
# 1 0.019516 0.000263 0.001354 -0.004019 -0.002834 -0.000520
# 2 0.000263 0.007468 -0.000493 -0.002681 -0.000579 0.000045
# 3 0.001354 -0.000493 0.015214 -0.007324 -0.002119 0.006409
# 4 -0.004019 -0.002681 -0.007324 0.029296 -0.001484 -0.009961
# 5 -0.002834 -0.000579 -0.002119 -0.001484 0.027447 0.003489
# 6 -0.000520 0.000045 0.006409 -0.009961 0.003489 0.043949
#
#
# Mechanical properties :
#
#
# Convention : Reuss Voigt Hill
#
# Bulk Modulus (GPa) = 22.49851 33.49179 27.99515
# Shear Modulus (GPa) = 32.16322 39.10082 35.63202
#
# Velocity S-wave (km/s) = 3.64302 4.01674 3.83444
# Velocity P-wave (km/s) = 5.19413 5.94408 5.58172
#
# Compressibility (1/GPa) = 0.04444739
#
# Stress axis : x y z
#
# Youngs Moduli (GPa) = 51.23986 133.90281 65.72786
#
# Poissons Ratio (x) = -0.03527 -0.08901
# Poissons Ratio (y) = -0.01350 0.03241
# Poissons Ratio (z) = -0.06939 0.06603
#
# Static dielectric constant tensor:
#      x y z
#    x 2.073020 -0.123990 -0.034880 
#    y -0.123990 2.066400 0.052340 
#    z -0.034880 0.052340 1.962950 
# 
# From -- ./inp_files/492336.got.cif
#   From: 2010.05.17/outbox.cif.g08.bks.cpg/sg2_247_cif.got.tgz:492336.got - 2010.06.03 11:33:40.
