data_PCOD9108583
_publ_section_title
;
Structure prediction by ZEFSAII (Michael W. Deem and Ramdas Pophale) SiO2 
 PCOD9108583
Probable space group: P -1
;
_chemical_formula_sum "Si O2"
_cell_formula_units_Z 16
_cell_length_a 9.987966
_cell_length_b 21.576476
_cell_length_c 10.718331
_cell_angle_alpha 31.072908
_cell_angle_beta 40.137195
_cell_angle_gamma 33.617100
_cell_volume 649.341948
_symmetry_space_group_name_H-M "P -1"
_symmetry_group_IT_number 2
_symmetry_cell_setting 'triclinic'
loop_
_space_group_symop_operation_xyz
x,y,z
-x,-y,-z
loop_
_atom_site_type_symbol
_atom_site_label
_atom_site_fract_x
_atom_site_fract_y
_atom_site_fract_z
Si Si1 0.042717 0.918758 0.237231
Si Si2 0.273180 0.553753 0.474762
Si Si3 0.874369 0.846606 0.831430
Si Si4 0.530040 0.822647 0.444882
Si Si5 0.035111 0.297527 0.244872
Si Si6 0.765570 0.617845 0.854511
Si Si7 0.444922 0.287127 0.649251
Si Si8 0.031189 0.820197 0.028390
O O1 0.925394 0.824226 0.476706
O O2 0.317060 0.799107 0.285915
O O3 0.000000 0.000000 0.000000
O O4 0.966905 0.040206 0.183678
O O5 0.500000 0.500000 0.500000
O O6 0.310935 0.445321 0.524314
O O7 0.029730 0.584762 0.668536
O O8 0.221983 0.693500 0.198812
O O9 0.968235 0.779229 0.746012
O O10 0.704342 0.017231 0.659298
O O11 0.707869 0.783933 0.090389
O O12 0.060349 0.795481 0.902382
O O13 0.579599 0.731185 0.692398
O O14 0.509030 0.738986 0.486071
O O15 0.766232 0.839163 0.221194
O O16 0.248873 0.320363 0.103075
O O17 0.807588 0.461417 0.106782
#
# Coordination Sequence:
#
# PCOD9108583 Si02
#       8
#     2   2   2   2   2   2   2   2
#     4  12  23  43  65  92 128 173 209 267 320 372
#     4  11  22  39  67  96 128 170 217 263 309 382
#     4  11  21  41  66  97 126 168 213 267 311 381
#     4  10  20  40  69  95 125 165 212 268 308 377
#     4  11  25  41  66  89 133 171 207 263 328 372
#     4  10  23  44  61  95 131 166 211 263 320 378
#     4  11  21  39  68  96 124 164 223 255 309 383
#     4  10  21  38  65  96 129 164 217 263 314 372
#
# _framework density 24.640332000000001
#
# number of rings (size 3 to 8) (size 9 to 14) (size 15 to 20)
#    0.000    1.250    3.750    3.750    1.750    2.500 
#    0.000    3.125    0.000    0.000    0.000    0.000 
#    0.000    0.000    0.000    0.000    0.000    0.000 
#
# Total GULP energy -89457.518671 kJ/mol
# GULP energy per Si atom -5591.094917 kJ/mol
# Density = 2.458425 g / cm^3
# Si number density = 24.640332 Si / 1000 Ang^3
#
#
#
# Elastic Constant Matrix: (Units=GPa)
#
#
# Indices 1 2 3 4 5 6 
#
# 1 134.8688 36.7305 44.1229 -13.0984 -3.7916 13.0400
# 2 36.7305 56.0279 28.4306 -14.3874 -10.7211 14.8132
# 3 44.1229 28.4306 167.8549 -26.9910 -5.5836 8.7146
# 4 -13.0984 -14.3874 -26.9910 38.1446 10.0396 -4.4454
# 5 -3.7916 -10.7211 -5.5836 10.0396 57.6943 -8.2942
# 6 13.0400 14.8132 8.7146 -4.4454 -8.2942 50.7952
#
#
#
# Elastic Compliance Matrix: (Units=1/GPa)
#
#
# Indices 1 2 3 4 5 6 
#
# 1 0.009426 -0.005278 -0.001528 0.000255 -0.000655 -0.000703
# 2 -0.005278 0.025308 -0.001713 0.005278 0.002575 -0.004849
# 3 -0.001528 -0.001713 0.007298 0.004099 -0.000436 -0.000073
# 4 0.000255 0.005278 0.004099 0.032293 -0.004250 -0.000176
# 5 -0.000655 0.002575 -0.000436 -0.004250 0.018780 0.002187
# 6 -0.000703 -0.004849 -0.000073 -0.000176 0.002187 0.021636
#
#
# Mechanical properties :
#
#
# Convention : Reuss Voigt Hill
#
# Bulk Modulus (GPa) = 40.01028 64.14663 52.07846
# Shear Modulus (GPa) = 35.68610 45.95799 40.82204
#
# Velocity S-wave (km/s) = 3.80976 4.32343 4.07469
# Velocity P-wave (km/s) = 5.96869 7.14230 6.58171
#
# Compressibility (1/GPa) = 0.02499358
#
# Stress axis : x y z
#
# Youngs Moduli (GPa) = 106.08556 39.51346 137.02796
#
# Poissons Ratio (x) = 0.20856 0.20939
# Poissons Ratio (y) = 0.55993 0.23472
# Poissons Ratio (z) = 0.16211 0.06769
#
# Static dielectric constant tensor:
#      x y z
#    x 2.229230 -0.172760 -0.411440 
#    y -0.172760 2.270640 0.453720 
#    z -0.411440 0.453720 2.606230 
# 
# From -- ./inp_files/346280.got.cif
#   From: 2010.05.17/outbox.cif.g08.bks.cpg/sg2_174_cif.got.tgz:346280.got - 2010.06.03 11:33:40.
