data_PCOD9108954
_publ_section_title
;
Structure prediction by ZEFSAII (Michael W. Deem and Ramdas Pophale) SiO2 
 PCOD9108954
Probable space group: P -1
;
_chemical_formula_sum "Si O2"
_cell_formula_units_Z 12
_cell_length_a 7.173741
_cell_length_b 6.908503
_cell_length_c 19.846072
_cell_angle_alpha 125.300661
_cell_angle_beta 125.305790
_cell_angle_gamma 95.298285
_cell_volume 503.303689
_symmetry_space_group_name_H-M "P -1"
_symmetry_group_IT_number 2
_symmetry_cell_setting 'triclinic'
loop_
_space_group_symop_operation_xyz
x,y,z
-x,-y,-z
loop_
_atom_site_type_symbol
_atom_site_label
_atom_site_fract_x
_atom_site_fract_y
_atom_site_fract_z
Si Si1 0.115372 0.641392 0.267211
Si Si2 0.293585 0.136697 0.131619
Si Si3 0.677908 0.865408 0.385438
Si Si4 0.673605 0.170689 0.798113
Si Si5 0.309904 0.000192 0.883709
Si Si6 0.360021 0.352992 0.843959
O O1 0.467335 0.851235 0.394125
O O2 0.953059 0.299245 0.191024
O O3 0.922480 0.732200 0.273016
O O4 0.109367 0.661843 0.187200
O O5 0.490810 0.503939 0.255238
O O6 0.259502 0.995682 0.170381
O O7 0.477567 0.065316 0.113011
O O8 0.000000 0.000000 0.000000
O O9 0.645708 0.025887 0.347594
O O10 0.000000 0.000000 0.500000
O O11 0.630233 0.377288 0.875485
O O12 0.217471 0.087084 0.816539
O O13 0.488382 0.310301 0.027094
#
# Coordination Sequence:
#
# PCOD9108954 Si02
#       6
#     2   2   2   2   2   2
#     4  10  22  39  63  92 127 176 221 271 326 383
#     4  11  23  44  70 100 137 174 222 273 343 395
#     4  10  24  44  68  97 133 176 224 275 332 396
#     4   9  24  41  66  97 131 178 218 275 332 394
#     4  10  22  39  61  96 136 179 214 275 328 400
#     4  10  20  41  60  94 141 169 223 265 336 399
#
# _framework density 23.842462999999999
#
# number of rings (size 3 to 8) (size 9 to 14) (size 15 to 20)
#    1.000    1.000    0.000    2.500    2.333    3.333 
#    6.000    3.333    0.000    4.000    0.000    0.000 
#    0.000    0.000    0.000    0.000    0.000    0.000 
#
# Total GULP energy -66956.518476 kJ/mol
# GULP energy per Si atom -5579.709873 kJ/mol
# Density = 2.378820 g / cm^3
# Si number density = 23.842463 Si / 1000 Ang^3
#
#
#
# Elastic Constant Matrix: (Units=GPa)
#
#
# Indices 1 2 3 4 5 6 
#
# 1 107.9713 54.1668 15.2127 -6.1887 10.1052 1.2283
# 2 54.1668 175.2431 54.0106 -32.7987 17.7089 23.8046
# 3 15.2127 54.0106 112.5621 -30.2289 30.9655 1.1883
# 4 -6.1887 -32.7987 -30.2289 25.9414 -12.0690 1.1994
# 5 10.1052 17.7089 30.9655 -12.0690 40.4076 -3.9814
# 6 1.2283 23.8046 1.1883 1.1994 -3.9814 63.3958
#
#
#
# Elastic Compliance Matrix: (Units=1/GPa)
#
#
# Indices 1 2 3 4 5 6 
#
# 1 0.011295 -0.004125 0.000059 -0.003421 -0.001959 0.001270
# 2 -0.004125 0.009783 -0.001570 0.009990 0.000565 -0.003718
# 3 0.000059 -0.001570 0.014816 0.011992 -0.007135 -0.000364
# 4 -0.003421 0.009990 0.011992 0.067853 0.007086 -0.004748
# 5 -0.001959 0.000565 -0.007135 0.007086 0.032760 0.001883
# 6 0.001270 -0.003718 -0.000364 -0.004748 0.001883 0.017360
#
#
# Mechanical properties :
#
#
# Convention : Reuss Voigt Hill
#
# Bulk Modulus (GPa) = 40.61032 71.39518 56.00275
# Shear Modulus (GPa) = 28.84397 44.10804 36.47600
#
# Velocity S-wave (km/s) = 3.48195 4.30580 3.91561
# Velocity P-wave (km/s) = 5.76499 7.39794 6.63191
#
# Compressibility (1/GPa) = 0.02462428
#
# Stress axis : x y z
#
# Youngs Moduli (GPa) = 88.53178 102.22101 67.49279
#
# Poissons Ratio (x) = 0.42161 -0.00400
# Poissons Ratio (y) = 0.36515 0.10595
# Poissons Ratio (z) = -0.00525 0.16047
#
# Static dielectric constant tensor:
#      x y z
#    x 2.048240 0.022390 -0.031380 
#    y 0.022390 1.921150 -0.062310 
#    z -0.031380 -0.062310 1.946370 
# 
# From -- ./inp_files/269398.got.cif
#   From: 2010.05.17/outbox.cif.g08.bks.cpg/sg2_135_cif.got.tgz:269398.got - 2010.06.03 11:33:40.
