data_PCOD9108243
_publ_section_title
;
Structure prediction by ZEFSAII (Michael W. Deem and Ramdas Pophale) SiO2 
 PCOD9108243
Probable space group: P -1
;
_chemical_formula_sum "Si O2"
_cell_formula_units_Z 12
_cell_length_a 9.385719
_cell_length_b 16.112933
_cell_length_c 15.867276
_cell_angle_alpha 154.964304
_cell_angle_beta 35.886498
_cell_angle_gamma 150.526876
_cell_volume 496.989550
_symmetry_space_group_name_H-M "P -1"
_symmetry_group_IT_number 2
_symmetry_cell_setting 'triclinic'
loop_
_space_group_symop_operation_xyz
x,y,z
-x,-y,-z
loop_
_atom_site_type_symbol
_atom_site_label
_atom_site_fract_x
_atom_site_fract_y
_atom_site_fract_z
Si Si1 0.718229 0.884233 0.944121
Si Si2 0.364377 0.134240 0.849439
Si Si3 0.171952 0.991359 0.490183
Si Si4 0.455388 0.744399 0.302476
Si Si5 0.611653 0.528879 0.379952
Si Si6 0.885600 0.408337 0.376849
O O1 0.782661 0.141643 0.160926
O O2 0.649333 0.767315 0.962441
O O3 0.025841 0.936033 0.811035
O O4 0.460174 0.713087 0.848232
O O5 0.554811 0.026193 0.677688
O O6 0.487460 0.302110 0.863629
O O7 0.939776 0.740775 0.411809
O O8 0.298343 0.192665 0.686594
O O9 0.000000 0.000000 0.500000
O O10 0.142311 0.565955 0.330514
O O11 0.500000 0.000000 0.500000
O O12 0.500000 0.500000 0.500000
O O13 0.401660 0.586203 0.485271
O O14 0.000000 0.500000 0.500000
#
# Coordination Sequence:
#
# PCOD9108243 Si02
#       6
#     2   2   2   2   2   2
#     4  11  24  43  70  96 128 177 226 268 324 394
#     4  10  21  42  64  91 128 169 221 269 315 382
#     4  11  22  38  65  99 133 170 213 269 335 392
#     4  10  20  40  67  94 128 171 221 269 318 386
#     4  12  25  44  67  96 138 173 210 275 338 391
#     4  12  24  44  72  98 129 176 227 268 320 395
#
# _framework density 24.145375999999999
#
# number of rings (size 3 to 8) (size 9 to 14) (size 15 to 20)
#    0.000    1.000    0.000   11.000    0.000    2.000 
#    0.000    5.000    0.000    3.000    0.000    0.000 
#    0.000    0.000    0.000    0.000    0.000    0.000 
#
# Total GULP energy -67105.567914 kJ/mol
# GULP energy per Si atom -5592.130660 kJ/mol
# Density = 2.409042 g / cm^3
# Si number density = 24.145376 Si / 1000 Ang^3
#
#
#
# Elastic Constant Matrix: (Units=GPa)
#
#
# Indices 1 2 3 4 5 6 
#
# 1 97.7096 16.3484 24.7776 -1.1129 9.3971 -7.6482
# 2 16.3484 183.4601 53.7701 -4.7575 21.8294 -14.0122
# 3 24.7776 53.7701 96.9552 12.0972 18.9438 -2.9945
# 4 -1.1129 -4.7575 12.0972 41.3351 1.5837 6.0593
# 5 9.3971 21.8294 18.9438 1.5837 43.6853 -7.7317
# 6 -7.6482 -14.0122 -2.9945 6.0593 -7.7317 49.5645
#
#
#
# Elastic Compliance Matrix: (Units=1/GPa)
#
#
# Indices 1 2 3 4 5 6 
#
# 1 0.011135 0.000063 -0.002759 0.000965 -0.001037 0.001290
# 2 0.000063 0.006863 -0.003671 0.001748 -0.001693 0.001250
# 3 -0.002759 -0.003671 0.014320 -0.004451 -0.003733 -0.000637
# 4 0.000965 0.001748 -0.004451 0.026174 -0.000617 -0.002922
# 5 -0.001037 -0.001693 -0.003733 -0.000617 0.026185 0.003296
# 6 0.001290 0.001250 -0.000637 -0.002922 0.003296 0.021561
#
#
# Mechanical properties :
#
#
# Convention : Reuss Voigt Hill
#
# Bulk Modulus (GPa) = 51.05781 63.10191 57.07986
# Shear Modulus (GPa) = 39.84050 45.79890 42.81970
#
# Velocity S-wave (km/s) = 4.06646 4.35995 4.21576
# Velocity P-wave (km/s) = 6.57571 7.17889 6.88391
#
# Compressibility (1/GPa) = 0.01958564
#
# Stress axis : x y z
#
# Youngs Moduli (GPa) = 89.80633 145.70016 69.83168
#
# Poissons Ratio (x) = -0.00921 0.19264
# Poissons Ratio (y) = -0.00568 0.25636
# Poissons Ratio (z) = 0.24774 0.53488
#
# Static dielectric constant tensor:
#      x y z
#    x 1.730880 -0.101110 -0.044710 
#    y -0.101110 1.910970 -0.017160 
#    z -0.044710 -0.017160 2.146780 
# 
# From -- ./inp_files/503358.got.cif
#   From: 2010.05.17/outbox.cif.g08.bks.cpg/sg2_252_cif.got.tgz:503358.got - 2010.06.03 11:33:40.
