data_PCOD9108815
_publ_section_title
;
Structure prediction by ZEFSAII (Michael W. Deem and Ramdas Pophale) SiO2 
 PCOD9108815
Probable space group: P -1
;
_chemical_formula_sum "Si O2"
_cell_formula_units_Z 12
_cell_length_a 8.342746
_cell_length_b 8.116649
_cell_length_c 11.205323
_cell_angle_alpha 51.419769
_cell_angle_beta 77.085618
_cell_angle_gamma 111.491260
_cell_volume 432.445684
_symmetry_space_group_name_H-M "P -1"
_symmetry_group_IT_number 2
_symmetry_cell_setting 'triclinic'
loop_
_space_group_symop_operation_xyz
x,y,z
-x,-y,-z
loop_
_atom_site_type_symbol
_atom_site_label
_atom_site_fract_x
_atom_site_fract_y
_atom_site_fract_z
Si Si1 0.506104 0.295015 0.164330
Si Si2 0.303434 0.781936 0.027259
Si Si3 0.568625 0.394546 0.726034
Si Si4 0.987845 0.203504 0.106995
Si Si5 0.244354 0.853773 0.582767
Si Si6 0.768989 0.585460 0.345726
O O1 0.298517 0.088151 0.376119
O O2 0.500000 0.500000 0.000000
O O3 0.508191 0.117436 0.145247
O O4 0.755702 0.523688 0.067181
O O5 0.262380 0.542695 0.226306
O O6 0.125468 0.722892 0.992340
O O7 0.384834 0.066472 0.944801
O O8 0.677246 0.456673 0.550834
O O9 0.423197 0.478123 0.679304
O O10 0.876006 0.147354 0.281363
O O11 0.932247 0.922207 0.193211
O O12 0.155378 0.571886 0.652745
O O13 0.500000 0.000000 0.500000
#
# Coordination Sequence:
#
# PCOD9108815 Si02
#       6
#     2   2   2   2   2   2
#     4  12  28  48  73 112 152 201 258 310 382 452
#     4  10  20  40  72 108 148 196 248 308 374 446
#     4   9  18  37  71 110 151 199 244 310 376 443
#     4  11  26  50  76 113 153 196 256 315 372 453
#     4  12  24  47  80 109 154 205 243 312 388 446
#     4  10  21  44  74 115 154 197 253 309 377 450
#
# _framework density 27.749148999999999
#
# number of rings (size 3 to 8) (size 9 to 14) (size 15 to 20)
#    0.000    1.333    3.333    2.500    4.667    0.667 
#    0.000    6.667    0.000    0.000    0.000    0.000 
#    0.000    0.000    0.000    0.000    0.000    0.000 
#
# Total GULP energy -66943.913286 kJ/mol
# GULP energy per Si atom -5578.659440 kJ/mol
# Density = 2.768599 g / cm^3
# Si number density = 27.749149 Si / 1000 Ang^3
#
#
#
# Elastic Constant Matrix: (Units=GPa)
#
#
# Indices 1 2 3 4 5 6 
#
# 1 92.1065 46.1923 54.5449 19.2095 24.2477 -3.1581
# 2 46.1923 167.7585 87.1523 -1.0218 -10.9771 -22.3678
# 3 54.5449 87.1523 222.3585 33.2287 9.9697 -23.3655
# 4 19.2095 -1.0218 33.2287 68.0863 -13.3855 9.1430
# 5 24.2477 -10.9771 9.9697 -13.3855 52.6334 8.9471
# 6 -3.1581 -22.3678 -23.3655 9.1430 8.9471 35.2468
#
#
#
# Elastic Compliance Matrix: (Units=1/GPa)
#
#
# Indices 1 2 3 4 5 6 
#
# 1 0.018842 -0.005402 -0.000414 -0.008047 -0.012319 0.003200
# 2 -0.005402 0.009710 -0.003332 0.004397 0.006132 0.000772
# 3 -0.000414 -0.003332 0.007362 -0.004996 -0.004027 0.005047
# 4 -0.008047 0.004397 -0.004996 0.023535 0.013382 -0.010744
# 5 -0.012319 0.006132 -0.004027 0.013382 0.032074 -0.011495
# 6 0.003200 0.000772 0.005047 -0.010744 -0.011495 0.038199
#
#
# Mechanical properties :
#
#
# Convention : Reuss Voigt Hill
#
# Bulk Modulus (GPa) = 56.75339 95.33361 76.04350
# Shear Modulus (GPa) = 32.49088 50.81557 41.65323
#
# Velocity S-wave (km/s) = 3.42552 4.28395 3.87856
# Velocity P-wave (km/s) = 6.01185 7.67462 6.89355
#
# Compressibility (1/GPa) = 0.01762009
#
# Stress axis : x y z
#
# Youngs Moduli (GPa) = 53.07311 102.98524 135.83167
#
# Poissons Ratio (x) = 0.55628 0.05619
# Poissons Ratio (y) = 0.28668 0.45256
# Poissons Ratio (z) = 0.02196 0.34312
#
# Static dielectric constant tensor:
#      x y z
#    x 2.600810 0.176430 -0.007360 
#    y 0.176430 2.444730 -0.032770 
#    z -0.007360 -0.032770 2.203310 
# 
# From -- ./inp_files/377675.got.cif
#   From: 2010.05.17/outbox.cif.g08.bks.cpg/sg2_189_cif.got.tgz:377675.got - 2010.06.03 11:33:40.
