data_PCOD9108104
_publ_section_title
;
Structure prediction by ZEFSAII (Michael W. Deem and Ramdas Pophale) SiO2 
 PCOD9108104
Probable space group: P -1
;
_chemical_formula_sum "Si O2"
_cell_formula_units_Z 16
_cell_length_a 11.480028
_cell_length_b 14.927466
_cell_length_c 5.225125
_cell_angle_alpha 113.737541
_cell_angle_beta 90.178425
_cell_angle_gamma 51.871158
_cell_volume 606.159822
_symmetry_space_group_name_H-M "P -1"
_symmetry_group_IT_number 2
_symmetry_cell_setting 'triclinic'
loop_
_space_group_symop_operation_xyz
x,y,z
-x,-y,-z
loop_
_atom_site_type_symbol
_atom_site_label
_atom_site_fract_x
_atom_site_fract_y
_atom_site_fract_z
Si Si1 0.066762 0.857958 0.089436
Si Si2 0.156672 0.142311 0.651271
Si Si3 0.210599 0.488308 0.453650
Si Si4 0.490670 0.716239 0.471994
Si Si5 0.086539 0.382224 0.063513
Si Si6 0.657884 0.390199 0.543616
Si Si7 0.779960 0.055697 0.931952
Si Si8 0.455935 0.962460 0.704220
O O1 0.148121 0.911449 0.242716
O O2 0.011653 0.812089 0.246251
O O3 0.197298 0.735930 0.765707
O O4 0.912700 0.975112 0.059028
O O5 0.235821 0.037748 0.309372
O O6 0.266314 0.068097 0.812991
O O7 0.148007 0.260864 0.749437
O O8 0.336023 0.414357 0.597836
O O9 0.211417 0.380877 0.201320
O O10 0.269692 0.541727 0.326765
O O11 0.035668 0.593561 0.698889
O O12 0.400405 0.664983 0.327311
O O13 0.502800 0.821395 0.487849
O O14 0.382601 0.806609 0.819980
O O15 0.000000 0.500000 0.000000
O O16 0.500000 0.500000 0.500000
O O17 0.500000 0.000000 0.500000
O O18 0.500000 0.000000 0.000000
#
# Coordination Sequence:
#
# PCOD9108104 Si02
#       8
#     2   2   2   2   2   2   2   2
#     4  10  20  40  66  98 136 175 234 283 365 431
#     4  12  24  41  67  99 138 182 239 296 366 429
#     4  10  22  45  68  92 138 183 237 298 349 435
#     4  10  21  44  71 102 136 181 239 293 366 432
#     4  11  26  41  64  96 132 185 236 290 359 425
#     4   9  19  39  74  97 131 185 236 299 357 427
#     4  10  22  39  67 102 137 177 224 296 362 430
#     4  12  27  45  70 105 150 195 241 302 366 443
#
# _framework density 26.395679999999999
#
# number of rings (size 3 to 8) (size 9 to 14) (size 15 to 20)
#    0.000    1.500    2.500    1.875    3.500    0.000 
#    0.000    0.000    2.750    3.000    0.000    0.000 
#    0.000    0.000    0.000    0.000    0.000    0.000 
#
# Total GULP energy -89317.388133 kJ/mol
# GULP energy per Si atom -5582.336758 kJ/mol
# Density = 2.633560 g / cm^3
# Si number density = 26.395680 Si / 1000 Ang^3
#
#
#
# Elastic Constant Matrix: (Units=GPa)
#
#
# Indices 1 2 3 4 5 6 
#
# 1 208.5831 36.8715 47.3434 -0.3334 -1.6983 48.1968
# 2 36.8715 88.4547 7.0855 2.6123 8.7028 20.1322
# 3 47.3434 7.0855 57.8081 -6.3280 19.1250 9.2301
# 4 -0.3334 2.6123 -6.3280 35.5671 11.4136 1.3556
# 5 -1.6983 8.7028 19.1250 11.4136 41.2050 12.5366
# 6 48.1968 20.1322 9.2301 1.3556 12.5366 51.2609
#
#
#
# Elastic Compliance Matrix: (Units=1/GPa)
#
#
# Indices 1 2 3 4 5 6 
#
# 1 0.009225 -0.001963 -0.009304 -0.003904 0.008705 -0.008253
# 2 -0.001963 0.012911 0.001381 0.000238 -0.002653 -0.002831
# 3 -0.009304 0.001381 0.031828 0.011925 -0.020968 0.007287
# 4 -0.003904 0.000238 0.011925 0.035455 -0.016980 0.004644
# 5 0.008705 -0.002653 -0.020968 -0.016980 0.043768 -0.013622
# 6 -0.008253 -0.002831 0.007287 0.004644 -0.013622 0.030276
#
#
# Mechanical properties :
#
#
# Convention : Reuss Voigt Hill
#
# Bulk Modulus (GPa) = 29.24630 59.71631 44.48131
# Shear Modulus (GPa) = 25.68963 43.17631 34.43297
#
# Velocity S-wave (km/s) = 3.12308 4.04881 3.61569
# Velocity P-wave (km/s) = 4.91008 6.67306 5.85827
#
# Compressibility (1/GPa) = 0.03419236
#
# Stress axis : x y z
#
# Youngs Moduli (GPa) = 108.40695 77.45219 31.41929
#
# Poissons Ratio (x) = 0.15202 0.29231
# Poissons Ratio (y) = 0.21278 -0.04339
# Poissons Ratio (z) = 1.00858 -0.10696
#
# Static dielectric constant tensor:
#      x y z
#    x 2.217070 0.105390 0.001130 
#    y 0.105390 2.120770 0.042450 
#    z 0.001130 0.042450 2.157140 
# 
# From -- ./inp_files/78361.got.cif
#   From: 2010.05.17/outbox.cif.g08.bks.cpg/sg2_40_cif.got.tgz:78361.got - 2010.06.03 11:33:40.
