data_PCOD9108233
_publ_section_title
;
Structure prediction by ZEFSAII (Michael W. Deem and Ramdas Pophale) SiO2 
 PCOD9108233
Probable space group: P -1
;
_chemical_formula_sum "Si O2"
_cell_formula_units_Z 16
_cell_length_a 9.201149
_cell_length_b 12.178983
_cell_length_c 14.367928
_cell_angle_alpha 150.645353
_cell_angle_beta 77.975789
_cell_angle_gamma 113.847719
_cell_volume 683.613753
_symmetry_space_group_name_H-M "P -1"
_symmetry_group_IT_number 2
_symmetry_cell_setting 'triclinic'
loop_
_space_group_symop_operation_xyz
x,y,z
-x,-y,-z
loop_
_atom_site_type_symbol
_atom_site_label
_atom_site_fract_x
_atom_site_fract_y
_atom_site_fract_z
Si Si1 0.376696 0.280615 0.424881
Si Si2 0.901963 0.572064 0.991633
Si Si3 0.015381 0.892774 0.646740
Si Si4 0.890910 0.221597 0.266247
Si Si5 0.080752 0.444010 0.231074
Si Si6 0.529214 0.939982 0.159018
Si Si7 0.516531 0.253470 0.783911
Si Si8 0.469463 0.570432 0.280562
O O1 0.500000 0.500000 0.500000
O O2 0.186038 0.231747 0.412527
O O3 0.448455 0.349871 0.571127
O O4 0.387697 0.020801 0.213671
O O5 0.978434 0.613406 0.909137
O O6 0.714736 0.349578 0.838951
O O7 0.907836 0.837549 0.214779
O O8 0.000000 0.500000 0.000000
O O9 0.084854 0.949140 0.784913
O O10 0.069126 0.698172 0.448831
O O11 0.000000 0.500000 0.500000
O O12 0.960705 0.232420 0.163076
O O13 0.696341 0.142876 0.235971
O O14 0.269996 0.483052 0.246473
O O15 0.564031 0.949484 0.273159
O O16 0.499852 0.665674 0.928399
O O17 0.464968 0.223195 0.659954
O O18 0.500000 0.500000 0.000000
#
# Coordination Sequence:
#
# PCOD9108233 Si02
#       8
#     2   2   2   2   2   2   2   2
#     4  12  25  40  60  94 134 169 210 254 311 382
#     4  11  24  42  63  92 129 166 208 257 311 376
#     4  11  23  39  64  93 128 168 201 263 324 358
#     4  10  20  40  67  94 123 159 211 261 306 371
#     4  10  22  41  66  96 123 160 215 259 308 377
#     4  11  23  43  68  91 125 168 207 262 317 362
#     4   9  20  41  66  91 119 160 214 258 304 370
#     4  10  23  42  66  94 124 166 215 258 306 376
#
# _framework density 23.405028000000001
#
# number of rings (size 3 to 8) (size 9 to 14) (size 15 to 20)
#    0.000    1.500    0.000    6.750    0.000    7.500 
#    0.000    6.250    0.000    0.000    0.000    0.000 
#    0.000    0.000    0.000    0.000    0.000    0.000 
#
# Total GULP energy -89520.603983 kJ/mol
# GULP energy per Si atom -5595.037749 kJ/mol
# Density = 2.335176 g / cm^3
# Si number density = 23.405028 Si / 1000 Ang^3
#
#
#
# Elastic Constant Matrix: (Units=GPa)
#
#
# Indices 1 2 3 4 5 6 
#
# 1 119.7741 28.9871 34.3462 -13.1954 -9.6420 -12.3690
# 2 28.9871 114.8868 21.1565 -17.7597 -7.9826 -7.2637
# 3 34.3462 21.1565 90.0238 5.1372 -21.1545 -9.9509
# 4 -13.1954 -17.7597 5.1372 39.4389 -8.7882 1.7319
# 5 -9.6420 -7.9826 -21.1545 -8.7882 41.9164 6.4010
# 6 -12.3690 -7.2637 -9.9509 1.7319 6.4010 37.6556
#
#
#
# Elastic Compliance Matrix: (Units=1/GPa)
#
#
# Indices 1 2 3 4 5 6 
#
# 1 0.010274 -0.001257 -0.003412 0.003414 0.000822 0.001934
# 2 -0.001257 0.010232 -0.001734 0.004764 0.001692 0.000596
# 3 -0.003412 -0.001734 0.014401 -0.002674 0.005353 0.001563
# 4 0.003414 0.004764 -0.002674 0.030595 0.006949 -0.001255
# 5 0.000822 0.001692 0.005353 0.006949 0.029022 -0.003242
# 6 0.001934 0.000596 0.001563 -0.001255 -0.003242 0.028329
#
#
# Mechanical properties :
#
#
# Convention : Reuss Voigt Hill
#
# Bulk Modulus (GPa) = 45.24449 54.85159 50.04804
# Shear Modulus (GPa) = 34.95896 39.81517 37.38706
#
# Velocity S-wave (km/s) = 3.86897 4.12896 4.00108
# Velocity P-wave (km/s) = 6.27150 6.79836 6.54024
#
# Compressibility (1/GPa) = 0.02210214
#
# Stress axis : x y z
#
# Youngs Moduli (GPa) = 97.33598 97.73044 69.44068
#
# Poissons Ratio (x) = 0.12281 0.23694
# Poissons Ratio (y) = 0.12231 0.12038
# Poissons Ratio (z) = 0.33213 0.16942
#
# Static dielectric constant tensor:
#      x y z
#    x 1.862850 0.024750 -0.064470 
#    y 0.024750 1.936760 0.033850 
#    z -0.064470 0.033850 1.974590 
# 
# From -- ./inp_files/501156.got.cif
#   From: 2010.05.17/outbox.cif.g08.bks.cpg/sg2_251_cif.got.tgz:501156.got - 2010.06.03 11:33:40.
