data_PCOD9108548
_publ_section_title
;
Structure prediction by ZEFSAII (Michael W. Deem and Ramdas Pophale) SiO2 
 PCOD9108548
Probable space group: P -1
;
_chemical_formula_sum "Si O2"
_cell_formula_units_Z 16
_cell_length_a 18.422650
_cell_length_b 12.568295
_cell_length_c 7.407160
_cell_angle_alpha 49.964686
_cell_angle_beta 46.316583
_cell_angle_gamma 34.032419
_cell_volume 683.407122
_symmetry_space_group_name_H-M "P -1"
_symmetry_group_IT_number 2
_symmetry_cell_setting 'triclinic'
loop_
_space_group_symop_operation_xyz
x,y,z
-x,-y,-z
loop_
_atom_site_type_symbol
_atom_site_label
_atom_site_fract_x
_atom_site_fract_y
_atom_site_fract_z
Si Si1 0.500859 0.837131 0.411275
Si Si2 0.308964 0.479856 0.304021
Si Si3 0.143009 0.896426 0.757122
Si Si4 0.000874 0.694836 0.473592
Si Si5 0.905736 0.484246 0.886289
Si Si6 0.700517 0.203304 0.066176
Si Si7 0.006844 0.859118 0.765364
Si Si8 0.402423 0.239944 0.054981
O O1 0.644522 0.666994 0.454827
O O2 0.398833 0.832833 0.702573
O O3 0.457636 0.040325 0.259034
O O4 0.507220 0.795618 0.232099
O O5 0.147427 0.614192 0.379694
O O6 0.388878 0.357005 0.117966
O O7 0.337103 0.614014 0.163213
O O8 0.270312 0.773702 0.805026
O O9 0.138915 0.778834 0.750227
O O10 0.114654 0.077557 0.534756
O O11 0.000000 0.000000 0.000000
O O12 0.013057 0.655907 0.277902
O O13 0.958916 0.584924 0.733501
O O14 0.748285 0.643405 0.907492
O O15 0.948480 0.339782 0.131609
O O16 0.850150 0.008788 0.949071
O O17 0.000000 0.000000 0.500000
#
# Coordination Sequence:
#
# PCOD9108548 Si02
#       8
#     2   2   2   2   2   2   2   2
#     4  11  25  44  64  90 126 170 216 255 304 370
#     4  11  22  41  65  90 130 166 206 262 308 371
#     4  10  16  36  59  85 122 154 194 245 310 363
#     4  10  18  34  63  92 116 160 204 248 318 368
#     4  10  20  36  64  92 120 158 203 258 312 377
#     4  11  22  41  65  90 123 168 207 251 315 375
#     4  11  23  38  60  96 130 156 198 262 322 370
#     4  10  24  44  65  91 125 167 213 260 307 366
#
# _framework density 23.412106999999999
#
# number of rings (size 3 to 8) (size 9 to 14) (size 15 to 20)
#    0.000    1.500    5.000    2.250    5.250    0.500 
#    2.250    3.750    0.000    0.000    0.000    0.000 
#    0.000    0.000    0.000    0.000    0.000    0.000 
#
# Total GULP energy -89279.027857 kJ/mol
# GULP energy per Si atom -5579.939241 kJ/mol
# Density = 2.335882 g / cm^3
# Si number density = 23.412107 Si / 1000 Ang^3
#
#
#
# Elastic Constant Matrix: (Units=GPa)
#
#
# Indices 1 2 3 4 5 6 
#
# 1 38.2060 6.8786 22.8683 -4.6315 -4.9994 0.2849
# 2 6.8786 102.4499 57.7548 -36.1029 -0.3159 2.9530
# 3 22.8683 57.7548 124.4725 -38.1807 -13.4826 4.4911
# 4 -4.6315 -36.1029 -38.1807 51.3446 2.8250 2.6339
# 5 -4.9994 -0.3159 -13.4826 2.8250 32.8715 -4.9582
# 6 0.2849 2.9530 4.4911 2.6339 -4.9582 28.9778
#
#
#
# Elastic Compliance Matrix: (Units=1/GPa)
#
#
# Indices 1 2 3 4 5 6 
#
# 1 0.029797 0.000938 -0.006125 -0.001389 0.002311 0.001082
# 2 0.000938 0.015231 -0.005293 0.007107 -0.002773 -0.001861
# 3 -0.006125 -0.005293 0.013918 0.005927 0.004004 -0.001411
# 4 -0.001389 0.007107 0.005927 0.029030 -0.000873 -0.004417
# 5 0.002311 -0.002773 0.004004 -0.000873 0.033280 0.005413
# 6 0.001082 -0.001861 -0.001411 -0.004417 0.005413 0.036235
#
#
# Mechanical properties :
#
#
# Convention : Reuss Voigt Hill
#
# Bulk Modulus (GPa) = 26.32457 48.90354 37.61406
# Shear Modulus (GPa) = 26.16272 34.48055 30.32164
#
# Velocity S-wave (km/s) = 3.34651 3.84183 3.60269
# Velocity P-wave (km/s) = 5.11865 6.37283 5.77986
#
# Compressibility (1/GPa) = 0.03798732
#
# Stress axis : x y z
#
# Youngs Moduli (GPa) = 33.56062 65.65513 71.85027
#
# Poissons Ratio (x) = -0.06161 0.44005
# Poissons Ratio (y) = -0.03149 0.38030
# Poissons Ratio (z) = 0.20555 0.34751
#
# Static dielectric constant tensor:
#      x y z
#    x 1.924230 0.009010 0.085120 
#    y 0.009010 1.904750 0.027080 
#    z 0.085120 0.027080 2.021820 
# 
# From -- ./inp_files/243141.got.cif
#   From: 2010.05.17/outbox.cif.g08.bks.cpg/sg2_122_cif.got.tgz:243141.got - 2010.06.03 11:33:40.
