data_PCOD9108977
_publ_section_title
;
Structure prediction by ZEFSAII (Michael W. Deem and Ramdas Pophale) SiO2 
 PCOD9108977
Probable space group: P -1
;
_chemical_formula_sum "Si O2"
_cell_formula_units_Z 16
_cell_length_a 13.207951
_cell_length_b 7.404315
_cell_length_c 14.404814
_cell_angle_alpha 100.089366
_cell_angle_beta 43.198995
_cell_angle_gamma 68.449441
_cell_volume 644.259846
_symmetry_space_group_name_H-M "P -1"
_symmetry_group_IT_number 2
_symmetry_cell_setting 'triclinic'
loop_
_space_group_symop_operation_xyz
x,y,z
-x,-y,-z
loop_
_atom_site_type_symbol
_atom_site_label
_atom_site_fract_x
_atom_site_fract_y
_atom_site_fract_z
Si Si1 0.768732 0.059969 0.332809
Si Si2 0.742492 0.467026 0.099429
Si Si3 0.769505 0.386764 0.726832
Si Si4 0.153756 0.260208 0.019308
Si Si5 0.604422 0.764641 0.707324
Si Si6 0.912962 0.689052 0.370106
Si Si7 0.549302 0.228080 0.858229
Si Si8 0.684284 0.515763 0.346374
O O1 0.725232 0.314949 0.372644
O O2 0.546044 0.178962 0.449585
O O3 0.797928 0.937630 0.401210
O O4 0.004732 0.819180 0.106619
O O5 0.597534 0.564386 0.112826
O O6 0.652547 0.475997 0.257165
O O7 0.757785 0.675405 0.108650
O O8 0.718701 0.511425 0.671201
O O9 0.752661 0.182692 0.723966
O O10 0.981259 0.291861 0.617065
O O11 0.578566 0.628568 0.947018
O O12 0.107840 0.416551 0.158226
O O13 0.912052 0.412600 0.175468
O O14 0.352591 0.941763 0.872907
O O15 0.748352 0.684416 0.514852
O O16 0.596693 0.971258 0.783655
#
# Coordination Sequence:
#
# PCOD9108977 Si02
#       8
#     2   2   2   2   2   2   2   2
#     4  10  22  40  59  89 128 161 205 267 304 373
#     4  10  20  41  61  87 130 163 207 261 306 382
#     4  11  22  42  68  96 128 170 213 259 322 377
#     4  10  23  40  62  95 124 167 209 259 318 373
#     4  11  23  42  67  94 132 168 212 264 310 383
#     4  11  23  44  62  93 132 161 212 264 310 380
#     4  10  22  40  68  96 128 171 210 260 323 371
#     4  11  23  38  64  94 119 169 212 249 324 378
#
# _framework density 24.834700000000002
#
# number of rings (size 3 to 8) (size 9 to 14) (size 15 to 20)
#    0.000    1.500    3.750    3.000    1.750    3.500 
#    6.750    0.000    0.000    0.000    0.000    0.000 
#    0.000    0.000    0.000    0.000    0.000    0.000 
#
# Total GULP energy -89432.619103 kJ/mol
# GULP energy per Si atom -5589.538694 kJ/mol
# Density = 2.477818 g / cm^3
# Si number density = 24.834700 Si / 1000 Ang^3
#
#
#
# Elastic Constant Matrix: (Units=GPa)
#
#
# Indices 1 2 3 4 5 6 
#
# 1 37.1903 -9.1934 21.5858 1.7314 -14.5709 -5.9083
# 2 -9.1934 79.9885 23.3240 -7.0091 4.5720 -18.9054
# 3 21.5858 23.3240 90.7932 -11.9447 -12.9160 -13.5283
# 4 1.7314 -7.0091 -11.9447 35.5294 -5.0148 2.2138
# 5 -14.5709 4.5720 -12.9160 -5.0148 41.2655 2.6480
# 6 -5.9083 -18.9054 -13.5283 2.2138 2.6480 26.6452
#
#
#
# Elastic Compliance Matrix: (Units=1/GPa)
#
#
# Indices 1 2 3 4 5 6 
#
# 1 0.039722 0.008799 -0.009306 -0.002630 0.009201 0.009630
# 2 0.008799 0.017972 -0.004983 0.000514 -0.001167 0.012246
# 3 -0.009306 -0.004983 0.015820 0.005065 0.002721 0.001742
# 4 -0.002630 0.000514 0.005065 0.030735 0.004375 -0.000636
# 5 0.009201 -0.001167 0.002721 0.004375 0.029037 -0.000656
# 6 0.009630 0.012246 0.001742 -0.000636 -0.000656 0.049357
#
#
# Mechanical properties :
#
#
# Convention : Reuss Voigt Hill
#
# Bulk Modulus (GPa) = 15.99135 31.04497 23.51816
# Shear Modulus (GPa) = 23.31351 32.17173 27.74262
#
# Velocity S-wave (km/s) = 3.06722 3.60312 3.34592
# Velocity P-wave (km/s) = 4.35854 5.46239 4.94139
#
# Compressibility (1/GPa) = 0.06253380
#
# Stress axis : x y z
#
# Youngs Moduli (GPa) = 25.17465 55.64179 63.21310
#
# Poissons Ratio (x) = -0.48958 0.58829
# Poissons Ratio (y) = -0.22151 0.31496
# Poissons Ratio (z) = 0.23429 0.27724
#
# Static dielectric constant tensor:
#      x y z
#    x 2.055520 0.008370 -0.017110 
#    y 0.008370 1.915420 0.010980 
#    z -0.017110 0.010980 2.000590 
# 
# From -- ./inp_files/350058.got.cif
#   From: 2010.05.17/outbox.cif.g08.bks.cpg/sg2_176_cif.got.tgz:350058.got - 2010.06.03 11:33:40.
