data_PCOD9108092
_publ_section_title
;
Structure prediction by ZEFSAII (Michael W. Deem and Ramdas Pophale) SiO2 
 PCOD9108092
Probable space group: P -1
;
_chemical_formula_sum "Si O2"
_cell_formula_units_Z 11
_cell_length_a 11.686769
_cell_length_b 9.748076
_cell_length_c 7.775632
_cell_angle_alpha 88.207422
_cell_angle_beta 43.386608
_cell_angle_gamma 118.134052
_cell_volume 422.133700
_symmetry_space_group_name_H-M "P -1"
_symmetry_group_IT_number 2
_symmetry_cell_setting 'triclinic'
loop_
_space_group_symop_operation_xyz
x,y,z
-x,-y,-z
loop_
_atom_site_type_symbol
_atom_site_label
_atom_site_fract_x
_atom_site_fract_y
_atom_site_fract_z
Si Si1 0.155753 0.870039 0.951543
Si Si2 0.544953 0.945143 0.731680
Si Si3 0.418503 0.610143 0.108416
Si Si4 0.988182 0.661291 0.671038
Si Si5 0.000000 0.500000 0.000000
Si Si6 0.844236 0.880454 0.846623
O O1 0.319942 0.902060 0.921308
O O2 0.980878 0.647891 0.087287
O O3 0.324411 0.999321 0.597560
O O4 0.061806 0.956882 0.123420
O O5 0.510736 0.778265 0.864587
O O6 0.726521 0.144796 0.641032
O O7 0.560143 0.734361 0.122562
O O8 0.500000 0.500000 0.000000
O O9 0.138280 0.441540 0.369542
O O10 0.883207 0.744715 0.847181
O O11 0.935941 0.516434 0.875145
O O12 0.000000 0.000000 0.500000
#
# Coordination Sequence:
#
# PCOD9108092 Si02
#       6
#     2   2   2   2   1   2
#     4  10  23  41  70  98 133 177 224 277 332 389
#     4  10  20  42  69  92 134 173 223 280 324 387
#     4  10  21  40  67  95 140 172 220 269 330 413
#     4  10  21  41  68  94 133 174 222 269 327 399
#     4  10  20  40  66  98 130 162 230 274 314 396
#     4  11  23  44  66  97 139 181 213 272 342 399
#
# _framework density 26.058093
#
# number of rings (size 3 to 8) (size 9 to 14) (size 15 to 20)
#    0.000    1.818    3.636    0.000    0.000    3.636 
#    0.000   21.818    0.000    0.000    0.000    0.000 
#    0.000    0.000    0.000    0.000    0.000    0.000 
#
# Total GULP energy -61274.409619 kJ/mol
# GULP energy per Si atom -5570.400874 kJ/mol
# Density = 2.599878 g / cm^3
# Si number density = 26.058093 Si / 1000 Ang^3
#
#
#
# Elastic Constant Matrix: (Units=GPa)
#
#
# Indices 1 2 3 4 5 6 
#
# 1 167.5699 38.2148 35.3716 -14.3658 -7.8342 -16.1574
# 2 38.2148 159.2706 19.8430 11.7957 8.4120 -2.9411
# 3 35.3716 19.8430 56.6720 2.5213 -5.7798 0.2632
# 4 -14.3658 11.7957 2.5213 36.7578 13.0813 1.0778
# 5 -7.8342 8.4120 -5.7798 13.0813 38.8670 -17.5922
# 6 -16.1574 -2.9411 0.2632 1.0778 -17.5922 73.3924
#
#
#
# Elastic Compliance Matrix: (Units=1/GPa)
#
#
# Indices 1 2 3 4 5 6 
#
# 1 0.007768 -0.001592 -0.004359 0.003462 0.000927 0.001833
# 2 -0.001592 0.007091 -0.001541 -0.002245 -0.001505 -0.000389
# 3 -0.004359 -0.001541 0.021496 -0.004103 0.003996 -0.000080
# 4 0.003462 -0.002245 -0.004103 0.033936 -0.012073 -0.002705
# 5 0.000927 -0.001505 0.003996 -0.012073 0.034815 0.008652
# 6 0.001833 -0.000389 -0.000080 -0.002705 0.008652 0.016127
#
#
# Mechanical properties :
#
#
# Convention : Reuss Voigt Hill
#
# Bulk Modulus (GPa) = 46.79223 63.37456 55.08339
# Shear Modulus (GPa) = 34.88204 49.14232 42.01218
#
# Velocity S-wave (km/s) = 3.66269 4.34738 4.01964
# Velocity P-wave (km/s) = 5.99024 7.04080 6.53666
#
# Compressibility (1/GPa) = 0.02137107
#
# Stress axis : x y z
#
# Youngs Moduli (GPa) = 128.73771 141.01930 46.52049
#
# Poissons Ratio (x) = 0.22453 0.20277
# Poissons Ratio (y) = 0.20498 0.07169
# Poissons Ratio (z) = 0.56113 0.21730
#
# Static dielectric constant tensor:
#      x y z
#    x 1.999420 0.041440 -0.051160 
#    y 0.041440 2.046180 0.006250 
#    z -0.051160 0.006250 2.261710 
# 
# From -- ./inp_files/173604.got.cif
#   From: 2010.05.17/outbox.cif.g08.bks.cpg/sg2_87_cif.got.tgz:173604.got - 2010.06.03 11:33:40.
