data_PCOD9108628
_publ_section_title
;
Structure prediction by ZEFSAII (Michael W. Deem and Ramdas Pophale) SiO2 
 PCOD9108628
Probable space group: P -1
;
_chemical_formula_sum "Si O2"
_cell_formula_units_Z 16
_cell_length_a 9.100198
_cell_length_b 9.149344
_cell_length_c 24.273134
_cell_angle_alpha 47.883238
_cell_angle_beta 132.373302
_cell_angle_gamma 148.809763
_cell_volume 749.470616
_symmetry_space_group_name_H-M "P -1"
_symmetry_group_IT_number 2
_symmetry_cell_setting 'triclinic'
loop_
_space_group_symop_operation_xyz
x,y,z
-x,-y,-z
loop_
_atom_site_type_symbol
_atom_site_label
_atom_site_fract_x
_atom_site_fract_y
_atom_site_fract_z
Si Si1 0.380607 0.843343 0.448542
Si Si2 0.951829 0.875647 0.349427
Si Si3 0.354185 0.463908 0.248901
Si Si4 0.480998 0.309037 0.088382
Si Si5 0.012073 0.830745 0.501521
Si Si6 0.451037 0.523403 0.137195
Si Si7 0.094452 0.693740 0.107920
Si Si8 0.823668 0.140301 0.039413
O O1 0.128326 0.820605 0.381565
O O2 0.234747 0.520936 0.481985
O O3 0.500000 0.000000 0.500000
O O4 0.682957 0.060844 0.436398
O O5 0.607143 0.602571 0.321494
O O6 0.026338 0.938978 0.416889
O O7 0.061638 0.147737 0.276408
O O8 0.450406 0.449091 0.217864
O O9 0.302765 0.658217 0.177330
O O10 0.464003 0.379576 0.127344
O O11 0.773647 0.403682 0.121899
O O12 0.207772 0.966103 0.099937
O O13 0.500000 0.500000 0.000000
O O14 0.000000 0.000000 0.500000
O O15 0.135234 0.410693 0.079509
O O16 0.735437 0.863479 0.110921
O O17 0.097422 0.776192 0.025489
O O18 0.500000 0.000000 0.000000
#
# Coordination Sequence:
#
# PCOD9108628 Si02
#       8
#     2   2   2   2   2   2   2   2
#     4  10  20  40  70 100 133 174 217 266 311 376
#     4  11  23  44  65  92 133 175 211 251 323 397
#     4  12  26  42  61  90 130 177 210 256 323 412
#     4  12  23  41  61  89 115 154 208 287 341 377
#     4  11  22  41  72 110 133 162 222 279 314 368
#     4  12  25  39  62  88 120 158 219 268 324 384
#     4  12  24  40  62  88 122 163 211 270 342 378
#     4  12  22  37  63  91 113 152 218 286 316 367
#
# _framework density 21.348402
#
# number of rings (size 3 to 8) (size 9 to 14) (size 15 to 20)
#    0.000    0.500    3.750    7.125    1.750    0.000 
#    0.000    7.500    0.000    0.000    0.000    0.000 
#    0.000    0.000    0.000    0.000    0.000    0.000 
#
# Total GULP energy -89240.514982 kJ/mol
# GULP energy per Si atom -5577.532186 kJ/mol
# Density = 2.129981 g / cm^3
# Si number density = 21.348402 Si / 1000 Ang^3
#
#
#
# Elastic Constant Matrix: (Units=GPa)
#
#
# Indices 1 2 3 4 5 6 
#
# 1 93.2332 18.1830 19.2605 12.7987 -11.6742 -4.9187
# 2 18.1830 110.5511 6.0640 -9.7001 -0.2069 -3.0653
# 3 19.2605 6.0640 58.6094 1.5745 -7.3162 -9.6502
# 4 12.7987 -9.7001 1.5745 30.7696 8.3772 7.5064
# 5 -11.6742 -0.2069 -7.3162 8.3772 33.3815 6.6767
# 6 -4.9187 -3.0653 -9.6502 7.5064 6.6767 39.4764
#
#
#
# Elastic Compliance Matrix: (Units=1/GPa)
#
#
# Indices 1 2 3 4 5 6 
#
# 1 0.013900 -0.002813 -0.003073 -0.008483 0.006028 0.001356
# 2 -0.002813 0.009968 -0.000571 0.005025 -0.002250 -0.000291
# 3 -0.003073 -0.000571 0.019191 -0.001626 0.002713 0.004114
# 4 -0.008483 0.005025 -0.001626 0.042862 -0.012633 -0.007078
# 5 0.006028 -0.002250 0.002713 -0.012633 0.036316 -0.002501
# 6 0.001356 -0.000291 0.004114 -0.007078 -0.002501 0.028252
#
#
# Mechanical properties :
#
#
# Convention : Reuss Voigt Hill
#
# Bulk Modulus (GPa) = 33.17290 38.82318 35.99804
# Shear Modulus (GPa) = 28.82645 35.31792 32.07218
#
# Velocity S-wave (km/s) = 3.67861 4.07179 3.88019
# Velocity P-wave (km/s) = 5.79788 6.35067 6.08056
#
# Compressibility (1/GPa) = 0.03014509
#
# Stress axis : x y z
#
# Youngs Moduli (GPa) = 71.94145 100.31847 52.10813
#
# Poissons Ratio (x) = 0.28221 0.16014
# Poissons Ratio (y) = 0.20238 0.02974
# Poissons Ratio (z) = 0.22110 0.05725
#
# Static dielectric constant tensor:
#      x y z
#    x 1.830350 -0.034610 0.053680 
#    y -0.034610 1.805140 0.025530 
#    z 0.053680 0.025530 1.805540 
# 
# From -- ./inp_files/343998.got.cif
#   From: 2010.05.17/outbox.cif.g08.bks.cpg/sg2_172_cif.got.tgz:343998.got - 2010.06.03 11:33:40.
