data_PCOD9108992
_publ_section_title
;
Structure prediction by ZEFSAII (Michael W. Deem and Ramdas Pophale) SiO2 
 PCOD9108992
Probable space group: P -1
;
_chemical_formula_sum "Si O2"
_cell_formula_units_Z 16
_cell_length_a 9.909259
_cell_length_b 12.602368
_cell_length_c 13.355282
_cell_angle_alpha 55.674805
_cell_angle_beta 133.226626
_cell_angle_gamma 145.345520
_cell_volume 691.022437
_symmetry_space_group_name_H-M "P -1"
_symmetry_group_IT_number 2
_symmetry_cell_setting 'triclinic'
loop_
_space_group_symop_operation_xyz
x,y,z
-x,-y,-z
loop_
_atom_site_type_symbol
_atom_site_label
_atom_site_fract_x
_atom_site_fract_y
_atom_site_fract_z
Si Si1 0.674362 0.360572 0.265430
Si Si2 0.991473 0.553813 0.133053
Si Si3 0.193811 0.758152 0.328779
Si Si4 0.142504 0.967028 0.661740
Si Si5 0.145498 0.382094 0.170574
Si Si6 0.752607 0.101363 0.446819
Si Si7 0.092402 0.010762 0.150173
Si Si8 0.725435 0.771909 0.263873
O O1 0.741803 0.246512 0.382183
O O2 0.723776 0.409067 0.144686
O O3 0.910150 0.561755 0.330354
O O4 0.362194 0.223654 0.203727
O O5 0.192572 0.696338 0.249269
O O6 0.050925 0.450175 0.161461
O O7 0.971396 0.646795 0.983808
O O8 0.168182 0.898316 0.242093
O O9 0.486689 0.887780 0.458242
O O10 0.248232 0.917252 0.663440
O O11 0.945503 0.794706 0.729389
O O12 0.343535 0.149651 0.734811
O O13 0.000000 0.000000 0.500000
O O14 0.465819 0.555851 0.231782
O O15 0.021722 0.178915 0.589000
O O16 0.844381 0.897014 0.159447
O O17 0.000000 0.000000 0.000000
#
# Coordination Sequence:
#
# PCOD9108992 Si02
#       8
#     2   2   2   2   2   2   2   2
#     4   9  20  40  65  84 117 167 204 253 305 356
#     4   9  20  40  65  91 120 168 206 253 311 368
#     4   9  21  39  63  85 115 166 205 243 307 357
#     4  10  22  38  61  91 127 166 198 251 316 367
#     4  11  21  40  61  95 131 155 208 261 310 372
#     4  10  20  41  61  89 123 155 209 257 303 372
#     4  11  24  41  60  90 126 162 206 255 303 369
#     4  11  26  37  60  97 126 164 204 252 313 370
#
# _framework density 23.154095000000002
#
# number of rings (size 3 to 8) (size 9 to 14) (size 15 to 20)
#    0.750    1.250    1.250    1.500    1.750    7.500 
#    0.000    3.125    0.000    0.000    0.000    0.000 
#    0.000    0.000    0.000    0.000    0.000    0.000 
#
# Total GULP energy -89298.243454 kJ/mol
# GULP energy per Si atom -5581.140216 kJ/mol
# Density = 2.310140 g / cm^3
# Si number density = 23.154095 Si / 1000 Ang^3
#
#
#
# Elastic Constant Matrix: (Units=GPa)
#
#
# Indices 1 2 3 4 5 6 
#
# 1 55.8091 -7.2181 2.7267 -14.2889 -19.0715 3.8203
# 2 -7.2181 138.6944 28.4043 -3.5180 5.3077 17.8887
# 3 2.7267 28.4043 59.7921 -9.8373 -12.7091 3.1264
# 4 -14.2889 -3.5180 -9.8373 29.3350 9.7424 -4.3293
# 5 -19.0715 5.3077 -12.7091 9.7424 31.8259 -0.9823
# 6 3.8203 17.8887 3.1264 -4.3293 -0.9823 27.3577
#
#
#
# Elastic Compliance Matrix: (Units=1/GPa)
#
#
# Indices 1 2 3 4 5 6 
#
# 1 0.024672 0.000729 0.002824 0.008316 0.013169 -0.002456
# 2 0.000729 0.009053 -0.004696 0.000087 -0.003147 -0.005584
# 3 0.002824 -0.004696 0.021632 0.005078 0.009602 0.001353
# 4 0.008316 0.000087 0.005078 0.042497 -0.005867 0.004716
# 5 0.013169 -0.003147 0.009602 -0.005867 0.045462 -0.000175
# 6 -0.002456 -0.005584 0.001353 0.004716 -0.000175 0.041132
#
#
# Mechanical properties :
#
#
# Convention : Reuss Voigt Hill
#
# Bulk Modulus (GPa) = 18.84239 33.56904 26.20572
# Shear Modulus (GPa) = 24.45879 33.06257 28.76068
#
# Velocity S-wave (km/s) = 3.25368 3.78290 3.52823
# Velocity P-wave (km/s) = 4.71919 5.79742 5.28587
#
# Compressibility (1/GPa) = 0.05307181
#
# Stress axis : x y z
#
# Youngs Moduli (GPa) = 40.53134 110.46421 46.22699
#
# Poissons Ratio (x) = -0.08057 -0.13056
# Poissons Ratio (y) = -0.02956 0.21710
# Poissons Ratio (z) = -0.11447 0.51878
#
# Static dielectric constant tensor:
#      x y z
#    x 1.957680 0.040030 -0.015260 
#    y 0.040030 1.872530 0.000710 
#    z -0.015260 0.000710 1.873650 
# 
# From -- ./inp_files/521569.got.cif
#   From: 2010.05.17/outbox.cif.g08.bks.cpg/sg2_261_cif.got.tgz:521569.got - 2010.06.03 11:33:40.
