data_PCOD9108377
_publ_section_title
;
Structure prediction by ZEFSAII (Michael W. Deem and Ramdas Pophale) SiO2 
 PCOD9108377
Probable space group: P -1
;
_chemical_formula_sum "Si O2"
_cell_formula_units_Z 16
_cell_length_a 12.107407
_cell_length_b 14.222822
_cell_length_c 9.009008
_cell_angle_alpha 147.361744
_cell_angle_beta 93.921647
_cell_angle_gamma 99.922287
_cell_volume 754.708891
_symmetry_space_group_name_H-M "P -1"
_symmetry_group_IT_number 2
_symmetry_cell_setting 'triclinic'
loop_
_space_group_symop_operation_xyz
x,y,z
-x,-y,-z
loop_
_atom_site_type_symbol
_atom_site_label
_atom_site_fract_x
_atom_site_fract_y
_atom_site_fract_z
Si Si1 0.393721 0.315577 0.815719
Si Si2 0.593484 0.067452 0.735992
Si Si3 0.790644 0.752967 0.680129
Si Si4 0.868805 0.878621 0.537952
Si Si5 0.463390 0.603801 0.765985
Si Si6 0.004276 0.403440 0.528215
Si Si7 0.131137 0.892046 0.650331
Si Si8 0.845519 0.214835 0.803339
O O1 0.255184 0.294259 0.765796
O O2 0.397437 0.130345 0.485331
O O3 0.500000 0.500000 0.000000
O O4 0.433423 0.322512 0.999317
O O5 0.726749 0.199793 0.859830
O O6 0.500000 0.000000 0.500000
O O7 0.558778 0.206372 0.022273
O O8 0.828187 0.885647 0.713012
O O9 0.662501 0.565852 0.407493
O O10 0.898819 0.684920 0.609395
O O11 0.797695 0.888072 0.998793
O O12 0.994420 0.856528 0.533789
O O13 0.885742 0.062001 0.684010
O O14 0.500000 0.500000 0.500000
O O15 0.000000 0.500000 0.500000
O O16 0.887576 0.240567 0.382557
O O17 0.053510 0.572039 0.879066
O O18 0.187914 0.840035 0.443109
#
# Coordination Sequence:
#
# PCOD9108377 Si02
#       8
#     2   2   2   2   2   2   2   2
#     4  10  20  40  68  91 122 167 210 261 319 377
#     4   9  21  38  62  87 120 164 206 252 321 370
#     4  11  22  40  63  86 130 164 211 255 318 382
#     4  10  21  39  63  89 126 167 210 251 320 381
#     4  11  23  41  65  92 123 164 217 264 317 374
#     4  11  22  41  62  87 128 166 208 253 318 377
#     4  11  24  37  61  98 123 168 209 259 316 375
#     4  11  21  39  63  90 126 158 210 264 312 376
#
# _framework density 21.200227000000002
#
# number of rings (size 3 to 8) (size 9 to 14) (size 15 to 20)
#    0.000    1.500    2.500    3.750    5.250    0.000 
#    0.000    0.625    0.000    0.000    0.000    0.000 
#    0.000    0.000    0.000    0.000    0.000    0.000 
#
# Total GULP energy -89253.265160 kJ/mol
# GULP energy per Si atom -5578.329073 kJ/mol
# Density = 2.115197 g / cm^3
# Si number density = 21.200227 Si / 1000 Ang^3
#
#
#
# Elastic Constant Matrix: (Units=GPa)
#
#
# Indices 1 2 3 4 5 6 
#
# 1 38.9537 -0.5494 5.6825 0.3095 1.5032 -7.1084
# 2 -0.5494 74.4635 27.5488 -0.3216 -15.4119 -9.4790
# 3 5.6825 27.5488 125.6801 -2.0391 -11.9112 6.0240
# 4 0.3095 -0.3216 -2.0391 31.7568 10.7076 7.1090
# 5 1.5032 -15.4119 -11.9112 10.7076 35.4483 -5.5564
# 6 -7.1084 -9.4790 6.0240 7.1090 -5.5564 20.6799
#
#
#
# Elastic Compliance Matrix: (Units=1/GPa)
#
#
# Indices 1 2 3 4 5 6 
#
# 1 0.028737 0.003747 -0.002598 -0.004882 0.003352 0.014931
# 2 0.003747 0.019829 -0.004338 -0.008231 0.012276 0.017768
# 3 -0.002598 -0.004338 0.009340 0.002107 -0.000277 -0.006401
# 4 -0.004882 -0.008231 0.002107 0.044423 -0.020280 -0.026785
# 5 0.003352 0.012276 -0.000277 -0.020280 0.043435 0.025502
# 6 0.014931 0.017768 -0.006401 -0.026785 0.025502 0.079557
#
#
# Mechanical properties :
#
#
# Convention : Reuss Voigt Hill
#
# Bulk Modulus (GPa) = 19.40679 33.82901 26.61790
# Shear Modulus (GPa) = 20.09046 31.33803 25.71424
#
# Velocity S-wave (km/s) = 3.08174 3.84890 3.48648
# Velocity P-wave (km/s) = 4.67298 5.97859 5.36565
#
# Compressibility (1/GPa) = 0.05152836
#
# Stress axis : x y z
#
# Youngs Moduli (GPa) = 34.79789 50.43153 107.07035
#
# Poissons Ratio (x) = -0.18894 0.27814
# Poissons Ratio (y) = -0.13037 0.46443
# Poissons Ratio (z) = 0.09039 0.21875
#
# Static dielectric constant tensor:
#      x y z
#    x 1.814040 0.005490 0.068130 
#    y 0.005490 1.822170 0.044660 
#    z 0.068130 0.044660 1.863240 
# 
# From -- ./inp_files/192809.got.cif
#   From: 2010.05.17/outbox.cif.g08.bks.cpg/sg2_97_cif.got.tgz:192809.got - 2010.06.03 11:33:40.
