data_PCOD9108878
_publ_section_title
;
Structure prediction by ZEFSAII (Michael W. Deem and Ramdas Pophale) SiO2 
 PCOD9108878
Probable space group: P -1
;
_chemical_formula_sum "Si O2"
_cell_formula_units_Z 15
_cell_length_a 5.146761
_cell_length_b 17.846535
_cell_length_c 15.320260
_cell_angle_alpha 149.366587
_cell_angle_beta 57.381543
_cell_angle_gamma 124.055049
_cell_volume 588.577513
_symmetry_space_group_name_H-M "P -1"
_symmetry_group_IT_number 2
_symmetry_cell_setting 'triclinic'
loop_
_space_group_symop_operation_xyz
x,y,z
-x,-y,-z
loop_
_atom_site_type_symbol
_atom_site_label
_atom_site_fract_x
_atom_site_fract_y
_atom_site_fract_z
Si Si1 0.399460 0.617540 0.475858
Si Si2 0.532656 0.425158 0.012740
Si Si3 0.000000 0.000000 0.000000
Si Si4 0.141783 0.534013 0.834619
Si Si5 0.716370 0.152538 0.934483
Si Si6 0.656935 0.927751 0.318161
Si Si7 0.209056 0.900018 0.716057
Si Si8 0.091197 0.699966 0.768640
O O1 0.742716 0.594520 0.366890
O O2 0.299189 0.742822 0.558700
O O3 0.376849 0.656778 0.620100
O O4 0.166836 0.456657 0.340596
O O5 0.527070 0.247996 0.827306
O O6 0.500000 0.500000 0.000000
O O7 0.801375 0.500901 0.108903
O O8 0.186947 0.445924 0.125547
O O9 0.109522 0.066028 0.154213
O O10 0.010757 0.175225 0.146926
O O11 0.358450 0.704640 0.959808
O O12 0.975651 0.090553 0.767951
O O13 0.414827 0.016525 0.868719
O O14 0.835540 0.227209 0.078292
O O15 0.500000 0.000000 0.500000
O O16 0.672142 0.026458 0.325122
#
# Coordination Sequence:
#
# PCOD9108878 Si02
#       8
#     2   2   1   2   2   2   2   2
#     4  10  23  40  68 108 143 185 233 306 347 432
#     4  11  25  46  73 101 138 194 242 302 362 436
#     4  10  20  40  74  92 140 186 230 282 350 440
#     4  11  23  45  71 101 144 186 241 296 367 432
#     4  11  23  45  73  96 141 191 236 290 357 442
#     4  11  25  45  68 101 138 185 239 302 354 424
#     4  11  23  44  68 103 140 181 241 287 365 421
#     4  10  21  43  69 105 144 189 235 290 362 428
#
# _framework density 25.485171999999999
#
# number of rings (size 3 to 8) (size 9 to 14) (size 15 to 20)
#    0.000    1.333    2.667    2.800    1.867    4.267 
#    2.400    1.333    0.000    0.000    0.000    0.000 
#    0.000    0.000    0.000    0.000    0.000    0.000 
#
# Total GULP energy -83560.804160 kJ/mol
# GULP energy per Si atom -5570.720277 kJ/mol
# Density = 2.542717 g / cm^3
# Si number density = 25.485172 Si / 1000 Ang^3
#
#
#
# Elastic Constant Matrix: (Units=GPa)
#
#
# Indices 1 2 3 4 5 6 
#
# 1 58.9019 11.1621 42.4807 -14.8578 0.9054 -16.0075
# 2 11.1621 130.7791 48.8866 -6.1081 -10.4568 -39.7104
# 3 42.4807 48.8866 168.6580 -25.5046 -46.0976 -14.9035
# 4 -14.8578 -6.1081 -25.5046 59.4433 -3.5127 1.3394
# 5 0.9054 -10.4568 -46.0976 -3.5127 38.9971 6.5848
# 6 -16.0075 -39.7104 -14.9035 1.3394 6.5848 35.7403
#
#
#
# Elastic Compliance Matrix: (Units=1/GPa)
#
#
# Indices 1 2 3 4 5 6 
#
# 1 0.029985 0.006224 -0.011849 0.001695 -0.015968 0.018283
# 2 0.006224 0.013958 -0.005849 -0.000270 -0.006213 0.017012
# 3 -0.011849 -0.005849 0.015773 0.004545 0.019272 -0.008950
# 4 0.001695 -0.000270 0.004545 0.019573 0.006967 0.000337
# 5 -0.015968 -0.006213 0.019272 0.006967 0.050385 -0.015562
# 6 0.018283 0.017012 -0.008950 0.000337 -0.015562 0.054192
#
#
# Mechanical properties :
#
#
# Convention : Reuss Voigt Hill
#
# Bulk Modulus (GPa) = 27.19803 62.59974 44.89889
# Shear Modulus (GPa) = 22.82374 43.89011 33.35693
#
# Velocity S-wave (km/s) = 2.99585 4.15442 3.62176
# Velocity P-wave (km/s) = 4.76047 6.90136 5.92836
#
# Compressibility (1/GPa) = 0.03676737
#
# Stress axis : x y z
#
# Youngs Moduli (GPa) = 33.34975 71.64450 63.39906
#
# Poissons Ratio (x) = -0.44590 0.75123
# Poissons Ratio (y) = -0.20756 0.37082
# Poissons Ratio (z) = 0.39517 0.41905
#
# Static dielectric constant tensor:
#      x y z
#    x 1.880840 -0.110210 0.126780 
#    y -0.110210 2.149860 -0.097060 
#    z 0.126780 -0.097060 2.066660 
# 
# From -- ./inp_files/485063.got.cif
#   From: 2010.05.17/outbox.cif.g08.bks.cpg/sg2_243_cif.got.tgz:485063.got - 2010.06.03 11:33:40.
