data_PCOD9108826
_publ_section_title
;
Structure prediction by ZEFSAII (Michael W. Deem and Ramdas Pophale) SiO2 
 PCOD9108826
Probable space group: P -1
;
_chemical_formula_sum "Si O2"
_cell_formula_units_Z 10
_cell_length_a 13.071530
_cell_length_b 9.582945
_cell_length_c 13.961623
_cell_angle_alpha 66.182419
_cell_angle_beta 20.557158
_cell_angle_gamma 76.723374
_cell_volume 498.211961
_symmetry_space_group_name_H-M "P -1"
_symmetry_group_IT_number 2
_symmetry_cell_setting 'triclinic'
loop_
_space_group_symop_operation_xyz
x,y,z
-x,-y,-z
loop_
_atom_site_type_symbol
_atom_site_label
_atom_site_fract_x
_atom_site_fract_y
_atom_site_fract_z
Si Si1 0.695099 0.696979 0.596831
Si Si2 0.798011 0.970206 0.281529
Si Si3 0.257210 0.058447 0.025085
Si Si4 0.026249 0.856433 0.582228
Si Si5 0.942565 0.506301 0.662352
O O1 0.634736 0.787388 0.531620
O O2 0.017417 0.857220 0.314647
O O3 0.798021 0.555134 0.510059
O O4 0.407892 0.624977 0.947142
O O5 0.076808 0.085737 0.083159
O O6 0.500000 0.000000 0.500000
O O7 0.000000 0.000000 0.000000
O O8 0.237667 0.174345 0.095518
O O9 0.620604 0.078735 0.693100
O O10 0.979853 0.689915 0.610663
O O11 0.000000 0.000000 0.500000
O O12 0.000000 0.500000 0.500000
#
# Coordination Sequence:
#
# PCOD9108826 Si02
#       5
#     2   2   2   2   2
#     4  10  23  40  65  94 126 161 225 262 317 379
#     4  10  20  40  72  96 120 162 222 278 316 370
#     4  10  23  40  65  94 126 161 225 262 317 379
#     4  12  24  41  61  92 134 178 211 259 320 385
#     4  12  24  41  61  92 134 178 211 259 320 385
#
# _framework density 20.071776
#
# number of rings (size 3 to 8) (size 9 to 14) (size 15 to 20)
#    1.200    0.000    0.000    7.200    0.000    3.200 
#    0.000    0.000    0.000   24.000    0.000    0.000 
#    0.000    0.000    0.000    0.000    0.000    0.000 
#
# Total GULP energy -55709.252077 kJ/mol
# GULP energy per Si atom -5570.925208 kJ/mol
# Density = 2.002609 g / cm^3
# Si number density = 20.071776 Si / 1000 Ang^3
#
#
#
# Elastic Constant Matrix: (Units=GPa)
#
#
# Indices 1 2 3 4 5 6 
#
# 1 80.8747 32.2144 0.3222 -2.8481 5.1809 -23.5478
# 2 32.2144 132.5375 21.3978 4.3925 6.5638 -11.9764
# 3 0.3222 21.3978 108.2826 9.2623 6.3315 -9.6165
# 4 -2.8481 4.3925 9.2623 39.4141 -2.9096 -3.9081
# 5 5.1809 6.5638 6.3315 -2.9096 35.7658 12.5983
# 6 -23.5478 -11.9764 -9.6165 -3.9081 12.5983 42.2535
#
#
#
# Elastic Compliance Matrix: (Units=1/GPa)
#
#
# Indices 1 2 3 4 5 6 
#
# 1 0.017336 -0.003262 0.001769 0.001859 -0.005983 0.011095
# 2 -0.003262 0.008719 -0.001522 -0.000877 -0.001127 0.000562
# 3 0.001769 -0.001522 0.010214 -0.001979 -0.003236 0.003661
# 4 0.001859 -0.000877 -0.001979 0.026414 0.001577 0.002310
# 5 -0.005983 -0.001127 -0.003236 0.001577 0.034894 -0.014648
# 6 0.011095 0.000562 0.003661 0.002310 -0.014648 0.035424
#
#
# Mechanical properties :
#
#
# Convention : Reuss Voigt Hill
#
# Bulk Modulus (GPa) = 33.06936 47.72929 40.39932
# Shear Modulus (GPa) = 33.53163 41.33737 37.43450
#
# Velocity S-wave (km/s) = 4.09171 4.54307 4.32329
# Velocity P-wave (km/s) = 6.23171 7.16591 6.71507
#
# Compressibility (1/GPa) = 0.03023947
#
# Stress axis : x y z
#
# Youngs Moduli (GPa) = 57.68180 114.68665 97.90243
#
# Poissons Ratio (x) = 0.37412 -0.17321
# Poissons Ratio (y) = 0.18816 0.14905
# Poissons Ratio (z) = -0.10205 0.17461
#
# Static dielectric constant tensor:
#      x y z
#    x 1.884560 -0.081680 -0.021760 
#    y -0.081680 1.797930 -0.035110 
#    z -0.021760 -0.035110 1.709860 
# 
# From -- ./inp_files/528359.got.cif
#   From: 2010.05.17/outbox.cif.g08.bks.cpg/sg2_265_cif.got.tgz:528359.got - 2010.06.03 11:33:40.
