data_PCOD9108728
_publ_section_title
;
Structure prediction by ZEFSAII (Michael W. Deem and Ramdas Pophale) SiO2 
 PCOD9108728
Probable space group: P -1
;
_chemical_formula_sum "Si O2"
_cell_formula_units_Z 14
_cell_length_a 5.652669
_cell_length_b 9.507786
_cell_length_c 12.905751
_cell_angle_alpha 95.625240
_cell_angle_beta 77.084104
_cell_angle_gamma 131.800238
_cell_volume 502.745337
_symmetry_space_group_name_H-M "P -1"
_symmetry_group_IT_number 2
_symmetry_cell_setting 'triclinic'
loop_
_space_group_symop_operation_xyz
x,y,z
-x,-y,-z
loop_
_atom_site_type_symbol
_atom_site_label
_atom_site_fract_x
_atom_site_fract_y
_atom_site_fract_z
Si Si1 0.078384 0.381852 0.337683
Si Si2 0.222009 0.462614 0.093804
Si Si3 0.956544 0.068730 0.696439
Si Si4 0.531109 0.950981 0.378457
Si Si5 0.121713 0.714023 0.169015
Si Si6 0.431719 0.623043 0.654865
Si Si7 0.751880 0.028619 0.060520
O O1 0.256643 0.485980 0.218403
O O2 0.330330 0.413390 0.395592
O O3 0.823752 0.158822 0.319646
O O4 0.831724 0.409300 0.397323
O O5 0.171363 0.605243 0.075340
O O6 0.942855 0.240403 0.091663
O O7 0.500000 0.500000 0.000000
O O8 0.969173 0.154171 0.811359
O O9 0.815939 0.144744 0.645820
O O10 0.679104 0.841630 0.688840
O O11 0.305272 0.140355 0.638302
O O12 0.500000 0.000000 0.500000
O O13 0.808792 0.526405 0.243452
O O14 0.512225 0.880809 0.164608
O O15 0.500000 0.000000 0.000000
O O16 0.000000 0.000000 0.000000
#
# Coordination Sequence:
#
# PCOD9108728 Si02
#       7
#     2   2   2   2   2   2   2
#     4   9  20  38  63  91 127 164 225 256 329 391
#     4  11  24  45  69  95 134 184 224 280 337 386
#     4  10  22  40  65 102 127 170 224 266 328 411
#     4  10  20  40  70  98 133 171 213 273 341 400
#     4  11  23  42  68  91 138 173 227 272 339 389
#     4   9  20  37  63  88 124 171 209 270 323 382
#     4  12  28  44  62  97 131 171 233 284 326 399
#
# _framework density 27.847099
#
# number of rings (size 3 to 8) (size 9 to 14) (size 15 to 20)
#    0.000    1.714    1.429    3.000    2.000    8.571 
#    0.000    0.000    0.000   32.571    0.000    0.000 
#    0.000    0.000    0.000    0.000    0.000    0.000 
#
# Total GULP energy -77975.953652 kJ/mol
# GULP energy per Si atom -5569.710975 kJ/mol
# Density = 2.778372 g / cm^3
# Si number density = 27.847099 Si / 1000 Ang^3
#
#
#
# Elastic Constant Matrix: (Units=GPa)
#
#
# Indices 1 2 3 4 5 6 
#
# 1 305.8943 35.3090 70.6231 28.4439 -43.2955 -18.5755
# 2 35.3090 159.2912 32.4237 3.1837 -18.3801 -9.2875
# 3 70.6231 32.4237 89.1887 13.5553 -30.5798 -8.6658
# 4 28.4439 3.1837 13.5553 30.0012 -6.5234 -16.4953
# 5 -43.2955 -18.3801 -30.5798 -6.5234 47.2267 12.9411
# 6 -18.5755 -9.2875 -8.6658 -16.4953 12.9411 38.6152
#
#
#
# Elastic Compliance Matrix: (Units=1/GPa)
#
#
# Indices 1 2 3 4 5 6 
#
# 1 0.004359 -0.000228 -0.002226 -0.002852 0.002184 -0.000408
# 2 -0.000228 0.006914 -0.002084 0.001376 0.000951 0.001354
# 3 -0.002226 -0.002084 0.017063 -0.005050 0.008227 -0.002657
# 4 -0.002852 0.001376 -0.005050 0.048148 -0.004116 0.019773
# 5 0.002184 0.000951 0.008227 -0.004116 0.030755 -0.008940
# 6 -0.000408 0.001354 -0.002657 0.019773 -0.008940 0.036872
#
#
# Mechanical properties :
#
#
# Convention : Reuss Voigt Hill
#
# Bulk Modulus (GPa) = 51.92493 92.34287 72.13390
# Shear Modulus (GPa) = 31.32709 50.90318 41.11513
#
# Velocity S-wave (km/s) = 3.35769 4.28009 3.84664
# Velocity P-wave (km/s) = 5.80681 7.59331 6.75934
#
# Compressibility (1/GPa) = 0.01925857
#
# Stress axis : x y z
#
# Youngs Moduli (GPa) = 229.41724 144.63788 58.60743
#
# Poissons Ratio (x) = 0.03296 0.13047
# Poissons Ratio (y) = 0.05228 0.12216
# Poissons Ratio (z) = 0.51071 0.30148
#
# Static dielectric constant tensor:
#      x y z
#    x 2.394690 -0.066070 0.288580 
#    y -0.066070 2.193790 -0.031420 
#    z 0.288580 -0.031420 2.678220 
# 
# From -- ./inp_files/547279.got.cif
#   From: 2010.05.17/outbox.cif.g08.bks.cpg/sg2_274_cif.got.tgz:547279.got - 2010.06.03 11:33:40.
