data_PCOD9108428
_publ_section_title
;
Structure prediction by ZEFSAII (Michael W. Deem and Ramdas Pophale) SiO2 
 PCOD9108428
Probable space group: P -1
;
_chemical_formula_sum "Si O2"
_cell_formula_units_Z 16
_cell_length_a 5.698788
_cell_length_b 5.565767
_cell_length_c 20.599841
_cell_angle_alpha 76.383015
_cell_angle_beta 75.478184
_cell_angle_gamma 75.015034
_cell_volume 600.751348
_symmetry_space_group_name_H-M "P -1"
_symmetry_group_IT_number 2
_symmetry_cell_setting 'triclinic'
loop_
_space_group_symop_operation_xyz
x,y,z
-x,-y,-z
loop_
_atom_site_type_symbol
_atom_site_label
_atom_site_fract_x
_atom_site_fract_y
_atom_site_fract_z
Si Si1 0.156021 0.218793 0.988203
Si Si2 0.100499 0.360579 0.848261
Si Si3 0.548326 0.870479 0.636464
Si Si4 0.152523 0.818905 0.228639
Si Si5 0.562991 0.312357 0.209164
Si Si6 0.995867 0.132913 0.616837
Si Si7 0.356751 0.303562 0.488295
Si Si8 0.646655 0.762311 0.889162
O O1 0.260038 0.247646 0.906751
O O2 0.332256 0.158717 0.043253
O O3 0.000000 0.500000 0.000000
O O4 0.000000 0.000000 0.000000
O O5 0.080314 0.172114 0.803790
O O6 0.195454 0.588560 0.793816
O O7 0.833380 0.487806 0.888436
O O8 0.515590 0.849884 0.717353
O O9 0.259683 0.943756 0.629282
O O10 0.653317 0.647062 0.591762
O O11 0.768066 0.030073 0.607111
O O12 0.347756 0.564761 0.214392
O O13 0.091826 0.789220 0.309218
O O14 0.262556 0.050531 0.180322
O O15 0.595946 0.261581 0.132479
O O16 0.108232 0.301435 0.546387
O O17 0.500000 0.500000 0.500000
O O18 0.500000 0.000000 0.500000
#
# Coordination Sequence:
#
# PCOD9108428 Si02
#       8
#     2   2   2   2   2   2   2   2
#     4  10  20  40  68  95 132 183 234 293 362 432
#     4  10  23  39  65  94 131 185 231 295 362 429
#     4  11  25  47  73 106 147 190 242 299 363 432
#     4  11  23  39  66  96 136 180 237 293 357 428
#     4  11  25  39  65 100 135 180 240 295 359 427
#     4  11  25  46  74 106 145 193 240 300 363 431
#     4  10  25  48  76 109 149 193 244 300 362 432
#     4  10  21  43  62  91 137 175 234 293 359 430
#
# _framework density 26.633315
#
# number of rings (size 3 to 8) (size 9 to 14) (size 15 to 20)
#    0.000    1.500    2.500    1.125    5.250    3.500 
#    0.000    6.250    0.000    0.000    0.000    0.000 
#    0.000    0.000    0.000    0.000    0.000    0.000 
#
# Total GULP energy -89158.527595 kJ/mol
# GULP energy per Si atom -5572.407975 kJ/mol
# Density = 2.657270 g / cm^3
# Si number density = 26.633315 Si / 1000 Ang^3
#
#
#
# Elastic Constant Matrix: (Units=GPa)
#
#
# Indices 1 2 3 4 5 6 
#
# 1 71.8858 23.4710 22.2024 4.1662 1.6586 14.8258
# 2 23.4710 90.1042 42.0351 13.7415 0.8598 18.0444
# 3 22.2024 42.0351 192.7712 26.9514 10.1661 15.6325
# 4 4.1662 13.7415 26.9514 62.1179 4.5987 -0.1293
# 5 1.6586 0.8598 10.1661 4.5987 48.5560 -3.1107
# 6 14.8258 18.0444 15.6325 -0.1293 -3.1107 66.4433
#
#
#
# Elastic Compliance Matrix: (Units=1/GPa)
#
#
# Indices 1 2 3 4 5 6 
#
# 1 0.015746 -0.003195 -0.000904 0.000071 -0.000456 -0.002454
# 2 -0.003195 0.013733 -0.002175 -0.001910 0.000343 -0.002492
# 3 -0.000904 -0.002175 0.006168 -0.002056 -0.001073 -0.000713
# 4 0.000071 -0.001910 -0.002056 0.017494 -0.001133 0.000968
# 5 -0.000456 0.000343 -0.001073 -0.001133 0.021016 0.001243
# 6 -0.002454 -0.002492 -0.000713 0.000968 0.001243 0.016503
#
#
# Mechanical properties :
#
#
# Convention : Reuss Voigt Hill
#
# Bulk Modulus (GPa) = 43.29391 58.90870 51.10130
# Shear Modulus (GPa) = 45.08296 53.22695 49.15495
#
# Velocity S-wave (km/s) = 4.11874 4.47532 4.30073
# Velocity P-wave (km/s) = 6.23775 6.99079 6.62498
#
# Compressibility (1/GPa) = 0.02309794
#
# Stress axis : x y z
#
# Youngs Moduli (GPa) = 63.50888 72.81962 162.13176
#
# Poissons Ratio (x) = 0.23266 0.14653
# Poissons Ratio (y) = 0.20291 0.35270
# Poissons Ratio (z) = 0.05740 0.15841
#
# Static dielectric constant tensor:
#      x y z
#    x 2.227950 -0.102650 0.086790 
#    y -0.102650 2.215540 -0.050430 
#    z 0.086790 -0.050430 2.106890 
# 
# From -- ./inp_files/10734.got.cif
#   From: 2010.05.17/outbox.cif.g08.bks.cpg/sg2_6_cif.got.tgz:10734.got - 2010.06.03 11:33:40.
