data_PCOD9108980
_publ_section_title
;
Structure prediction by ZEFSAII (Michael W. Deem and Ramdas Pophale) SiO2 
 PCOD9108980
Probable space group: P -1
;
_chemical_formula_sum "Si O2"
_cell_formula_units_Z 16
_cell_length_a 13.879627
_cell_length_b 9.630510
_cell_length_c 9.373637
_cell_angle_alpha 60.609639
_cell_angle_beta 96.654111
_cell_angle_gamma 134.415377
_cell_volume 725.773116
_symmetry_space_group_name_H-M "P -1"
_symmetry_group_IT_number 2
_symmetry_cell_setting 'triclinic'
loop_
_space_group_symop_operation_xyz
x,y,z
-x,-y,-z
loop_
_atom_site_type_symbol
_atom_site_label
_atom_site_fract_x
_atom_site_fract_y
_atom_site_fract_z
Si Si1 0.446641 0.938118 0.806091
Si Si2 0.105286 0.097333 0.149972
Si Si3 0.775298 0.683780 0.637575
Si Si4 0.731881 0.458169 0.241360
Si Si5 0.019640 0.636914 0.294683
Si Si6 0.212726 0.203213 0.728810
Si Si7 0.253349 0.706379 0.166103
Si Si8 0.535231 0.683886 0.304017
O O1 0.400550 0.795156 0.725991
O O2 0.602719 0.075669 0.826264
O O3 0.453701 0.137635 0.701350
O O4 0.318729 0.759544 0.992123
O O5 0.137983 0.155084 0.293209
O O6 0.092346 0.894927 0.217326
O O7 0.220176 0.343584 0.960228
O O8 0.949276 0.986461 0.146189
O O9 0.800341 0.817850 0.433518
O O10 0.807802 0.540918 0.675319
O O11 0.602048 0.474547 0.743448
O O12 0.713073 0.539132 0.340798
O O13 0.863214 0.495321 0.274404
O O14 0.125158 0.673609 0.185538
O O15 0.000000 0.500000 0.500000
O O16 0.313892 0.183292 0.806814
O O17 0.500000 0.500000 0.500000
#
# Coordination Sequence:
#
# PCOD9108980 Si02
#       8
#     2   2   2   2   2   2   2   2
#     4  10  22  39  63  91 124 161 205 255 308 372
#     4  11  23  40  61  92 123 161 208 253 307 368
#     4  10  20  41  61  88 120 162 205 248 309 371
#     4  11  24  42  60  96 124 162 209 255 311 365
#     4  11  25  42  63  92 130 163 207 260 311 368
#     4  10  21  38  62  85 126 162 199 254 307 365
#     4  10  21  40  63  90 123 161 205 255 310 361
#     4   9  21  38  60  90 120 157 202 253 304 369
#
# _framework density 22.045458
#
# number of rings (size 3 to 8) (size 9 to 14) (size 15 to 20)
#    0.000    1.750    1.250    3.375    3.500    4.500 
#    0.000   10.000    0.000    0.000    0.000    0.000 
#    0.000    0.000    0.000    0.000    0.000    0.000 
#
# Total GULP energy -89379.508760 kJ/mol
# GULP energy per Si atom -5586.219297 kJ/mol
# Density = 2.199528 g / cm^3
# Si number density = 22.045458 Si / 1000 Ang^3
#
#
#
# Elastic Constant Matrix: (Units=GPa)
#
#
# Indices 1 2 3 4 5 6 
#
# 1 100.3085 13.5686 5.2342 2.6446 -3.8048 -0.5992
# 2 13.5686 89.7281 -5.5018 22.1642 7.1166 8.2216
# 3 5.2342 -5.5018 65.4862 0.0769 6.5556 -0.9926
# 4 2.6446 22.1642 0.0769 36.5460 -2.3736 8.2194
# 5 -3.8048 7.1166 6.5556 -2.3736 24.9236 -1.1239
# 6 -0.5992 8.2216 -0.9926 8.2194 -1.1239 13.3098
#
#
#
# Elastic Compliance Matrix: (Units=1/GPa)
#
#
# Indices 1 2 3 4 5 6 
#
# 1 0.010419 -0.002091 -0.001245 0.000304 0.002621 0.001701
# 2 -0.002091 0.014425 0.001912 -0.007989 -0.005902 -0.004427
# 3 -0.001245 0.001912 0.016048 -0.001542 -0.005082 0.000483
# 4 0.000304 -0.007989 -0.001542 0.036408 0.005425 -0.017192
# 5 0.002621 -0.005902 -0.005082 0.005425 0.044231 0.003769
# 6 0.001701 -0.004427 0.000483 -0.017192 0.003769 0.088915
#
#
# Mechanical properties :
#
#
# Convention : Reuss Voigt Hill
#
# Bulk Modulus (GPa) = 26.28507 31.34721 28.81614
# Shear Modulus (GPa) = 22.12626 31.10400 26.61513
#
# Velocity S-wave (km/s) = 3.17150 3.76027 3.47837
# Velocity P-wave (km/s) = 5.03590 5.75353 5.40663
#
# Compressibility (1/GPa) = 0.03804441
#
# Stress axis : x y z
#
# Youngs Moduli (GPa) = 95.98231 69.32288 62.31121
#
# Poissons Ratio (x) = 0.14494 0.07760
# Poissons Ratio (y) = 0.20067 -0.11915
# Poissons Ratio (z) = 0.11953 -0.13255
#
# Static dielectric constant tensor:
#      x y z
#    x 1.824040 0.021640 -0.041140 
#    y 0.021640 1.783910 -0.028900 
#    z -0.041140 -0.028900 1.880550 
# 
# From -- ./inp_files/298231.got.cif
#   From: 2010.05.17/outbox.cif.g08.bks.cpg/sg2_150_cif.got.tgz:298231.got - 2010.06.03 11:33:40.
