data_PCOD9108579
_publ_section_title
;
Structure prediction by ZEFSAII (Michael W. Deem and Ramdas Pophale) SiO2 
 PCOD9108579
Probable space group: P -1
;
_chemical_formula_sum "Si O2"
_cell_formula_units_Z 14
_cell_length_a 11.708161
_cell_length_b 7.672390
_cell_length_c 7.108717
_cell_angle_alpha 60.646606
_cell_angle_beta 74.917679
_cell_angle_gamma 82.831150
_cell_volume 537.412755
_symmetry_space_group_name_H-M "P -1"
_symmetry_group_IT_number 2
_symmetry_cell_setting 'triclinic'
loop_
_space_group_symop_operation_xyz
x,y,z
-x,-y,-z
loop_
_atom_site_type_symbol
_atom_site_label
_atom_site_fract_x
_atom_site_fract_y
_atom_site_fract_z
Si Si1 0.318256 0.400735 0.697427
Si Si2 0.689870 0.167056 0.555066
Si Si3 0.867185 0.787197 0.342836
Si Si4 0.542337 0.997936 0.198089
Si Si5 0.807609 0.644245 0.852305
Si Si6 0.771387 0.205733 0.090650
Si Si7 0.918142 0.012811 0.714186
O O1 0.366174 0.615532 0.498692
O O2 0.188815 0.388716 0.661545
O O3 0.387914 0.209714 0.692408
O O4 0.303010 0.374389 0.944173
O O5 0.582981 0.016101 0.635366
O O6 0.767625 0.207054 0.317751
O O7 0.783348 0.089999 0.707786
O O8 0.806330 0.760510 0.590818
O O9 0.005718 0.823799 0.292014
O O10 0.833908 0.994561 0.139913
O O11 0.634809 0.175234 0.102459
O O12 0.500000 0.000000 0.000000
O O13 0.899730 0.773036 0.871518
O O14 0.828402 0.416087 0.904319
O O15 0.000000 0.000000 0.500000
#
# Coordination Sequence:
#
# PCOD9108579 Si02
#       7
#     2   2   2   2   2   2   2
#     4  10  24  42  64 100 128 173 219 260 331 385
#     4  11  21  42  65  92 133 166 217 268 317 388
#     4  10  22  43  66  95 137 168 215 269 322 377
#     4  11  24  40  64  93 131 167 216 270 325 384
#     4  10  21  41  66  95 130 168 219 262 317 389
#     4  10  22  41  65  96 122 174 214 260 331 381
#     4  10  20  40  69  94 130 173 211 270 321 375
#
# _framework density 26.050740000000001
#
# number of rings (size 3 to 8) (size 9 to 14) (size 15 to 20)
#    0.000    1.714    2.857    1.714    2.000    1.714 
#    2.571    3.571    0.000    0.000    0.000    0.000 
#    0.000    0.000    0.000    0.000    0.000    0.000 
#
# Total GULP energy -78076.915769 kJ/mol
# GULP energy per Si atom -5576.922555 kJ/mol
# Density = 2.599145 g / cm^3
# Si number density = 26.050740 Si / 1000 Ang^3
#
#
#
# Elastic Constant Matrix: (Units=GPa)
#
#
# Indices 1 2 3 4 5 6 
#
# 1 121.2356 35.4786 28.5658 -12.0616 -3.2672 17.2159
# 2 35.4786 100.1982 21.2128 -25.9520 -6.3905 16.6221
# 3 28.5658 21.2128 110.1131 -10.5690 -5.7833 5.1092
# 4 -12.0616 -25.9520 -10.5690 44.4762 6.3301 -6.4536
# 5 -3.2672 -6.3905 -5.7833 6.3301 34.0359 2.8915
# 6 17.2159 16.6221 5.1092 -6.4536 2.8915 38.5135
#
#
#
# Elastic Compliance Matrix: (Units=1/GPa)
#
#
# Indices 1 2 3 4 5 6 
#
# 1 0.009901 -0.002498 -0.001899 0.000277 0.000369 -0.003077
# 2 -0.002498 0.013366 -0.001105 0.006166 0.001238 -0.003565
# 3 -0.001899 -0.001105 0.009942 0.001062 0.001093 0.000102
# 4 0.000277 0.006166 0.001062 0.027239 -0.003865 0.001929
# 5 0.000369 0.001238 0.001093 -0.003865 0.030877 -0.003810
# 6 -0.003077 -0.003565 0.000102 0.001929 -0.003810 0.029475
#
#
# Mechanical properties :
#
#
# Convention : Reuss Voigt Hill
#
# Bulk Modulus (GPa) = 45.03250 55.78459 50.40854
# Shear Modulus (GPa) = 35.91842 39.82444 37.87143
#
# Velocity S-wave (km/s) = 3.71723 3.91413 3.81695
# Velocity P-wave (km/s) = 5.97894 6.47206 6.23038
#
# Compressibility (1/GPa) = 0.02220618
#
# Stress axis : x y z
#
# Youngs Moduli (GPa) = 100.99677 74.81692 100.58811
#
# Poissons Ratio (x) = 0.18690 0.19098
# Poissons Ratio (y) = 0.25230 0.11111
# Poissons Ratio (z) = 0.19175 0.08264
#
# Static dielectric constant tensor:
#      x y z
#    x 2.073980 -0.042240 0.016240 
#    y -0.042240 2.163190 0.075110 
#    z 0.016240 0.075110 2.129520 
# 
# From -- ./inp_files/242014.got.cif
#   From: 2010.05.17/outbox.cif.g08.bks.cpg/sg2_122_cif.got.tgz:242014.got - 2010.06.03 11:33:40.
