data_PCOD9108129
_publ_section_title
;
Structure prediction by ZEFSAII (Michael W. Deem and Ramdas Pophale) SiO2 
 PCOD9108129
Probable space group: P -1
;
_chemical_formula_sum "Si O2"
_cell_formula_units_Z 16
_cell_length_a 9.350333
_cell_length_b 10.529669
_cell_length_c 16.264914
_cell_angle_alpha 33.885590
_cell_angle_beta 133.070796
_cell_angle_gamma 120.089829
_cell_volume 643.714673
_symmetry_space_group_name_H-M "P -1"
_symmetry_group_IT_number 2
_symmetry_cell_setting 'triclinic'
loop_
_space_group_symop_operation_xyz
x,y,z
-x,-y,-z
loop_
_atom_site_type_symbol
_atom_site_label
_atom_site_fract_x
_atom_site_fract_y
_atom_site_fract_z
Si Si1 0.174022 0.183087 0.221777
Si Si2 0.890222 0.630195 0.269167
Si Si3 0.245895 0.013997 0.507625
Si Si4 0.319294 0.498785 0.593750
Si Si5 0.376771 0.940441 0.292304
Si Si6 0.423154 0.981862 0.098316
Si Si7 0.066273 0.641356 0.723599
Si Si8 0.738907 0.334318 0.041330
O O1 0.281116 0.021158 0.421606
O O2 0.947110 0.219632 0.143414
O O3 0.191744 0.077894 0.194658
O O4 0.277389 0.411220 0.140175
O O5 0.750751 0.492943 0.343702
O O6 0.901449 0.578149 0.204325
O O7 0.110068 0.545981 0.435718
O O8 0.777763 0.893781 0.091304
O O9 0.440708 0.933118 0.679544
O O10 0.143023 0.266204 0.364996
O O11 0.093940 0.842565 0.561797
O O12 0.423864 0.697747 0.489227
O O13 0.454532 0.251521 0.765280
O O14 0.368060 0.922242 0.201878
O O15 0.570708 0.174931 0.052816
O O16 0.217970 0.630206 0.864309
#
# Coordination Sequence:
#
# PCOD9108129 Si02
#       8
#     2   2   2   2   2   2   2   2
#     4  10  23  39  63 102 140 180 223 282 353 406
#     4  11  26  45  74 100 133 191 232 288 340 413
#     4  10  21  36  65 101 138 180 216 288 348 407
#     4  11  28  48  67 102 141 185 238 286 337 402
#     4  12  24  42  69 101 138 183 234 288 334 421
#     4  12  26  46  73 101 140 185 233 286 344 413
#     4  10  20  40  67 101 137 175 227 278 359 404
#     4  10  23  42  65 101 144 175 220 291 350 411
#
# _framework density 24.855730999999999
#
# number of rings (size 3 to 8) (size 9 to 14) (size 15 to 20)
#    0.000    1.250    1.250    3.375   10.500    1.500 
#    0.000    0.000    0.000    0.000    0.000    0.000 
#    0.000    0.000    0.000    0.000    0.000    0.000 
#
# Total GULP energy -89424.233023 kJ/mol
# GULP energy per Si atom -5589.014564 kJ/mol
# Density = 2.479916 g / cm^3
# Si number density = 24.855731 Si / 1000 Ang^3
#
#
#
# Elastic Constant Matrix: (Units=GPa)
#
#
# Indices 1 2 3 4 5 6 
#
# 1 135.1782 39.0606 34.3993 -1.3183 -6.7761 -18.0384
# 2 39.0606 40.4376 10.9820 -9.2799 10.2685 -3.2077
# 3 34.3993 10.9820 99.0980 -11.3931 9.2143 -3.8281
# 4 -1.3183 -9.2799 -11.3931 25.0103 -2.7145 -5.0828
# 5 -6.7761 10.2685 9.2143 -2.7145 49.7702 -2.7107
# 6 -18.0384 -3.2077 -3.8281 -5.0828 -2.7107 40.0345
#
#
#
# Elastic Compliance Matrix: (Units=1/GPa)
#
#
# Indices 1 2 3 4 5 6 
#
# 1 0.013149 -0.013747 -0.003921 -0.004762 0.005322 0.004204
# 2 -0.013747 0.043349 0.002643 0.015164 -0.010546 -0.001257
# 3 -0.003921 0.002643 0.012135 0.006011 -0.002989 0.000166
# 4 -0.004762 0.015164 0.006011 0.049058 -0.001901 0.005744
# 5 0.005322 -0.010546 -0.002989 -0.001901 0.023585 0.002622
# 6 0.004204 -0.001257 0.000166 0.005744 0.002622 0.027695
#
#
# Mechanical properties :
#
#
# Convention : Reuss Voigt Hill
#
# Bulk Modulus (GPa) = 25.91788 49.28864 37.60326
# Shear Modulus (GPa) = 23.59825 35.64778 29.62302
#
# Velocity S-wave (km/s) = 3.08459 3.79118 3.45599
# Velocity P-wave (km/s) = 4.81001 6.24796 5.57554
#
# Compressibility (1/GPa) = 0.03858340
#
# Stress axis : x y z
#
# Youngs Moduli (GPa) = 76.05156 23.06878 82.40963
#
# Poissons Ratio (x) = 0.31713 0.32311
# Poissons Ratio (y) = 1.04548 -0.21785
# Poissons Ratio (z) = 0.29818 -0.06098
#
# Static dielectric constant tensor:
#      x y z
#    x 1.989730 0.009580 0.045900 
#    y 0.009580 1.989540 -0.042120 
#    z 0.045900 -0.042120 2.008180 
# 
# From -- ./inp_files/237723.got.cif
#   From: 2010.05.17/outbox.cif.g08.bks.cpg/sg2_119_cif.got.tgz:237723.got - 2010.06.03 11:33:40.
