data_PCOD9108308
_publ_section_title
;
Structure prediction by ZEFSAII (Michael W. Deem and Ramdas Pophale) SiO2 
 PCOD9108308
Probable space group: P -1
;
_chemical_formula_sum "Si O2"
_cell_formula_units_Z 14
_cell_length_a 8.582416
_cell_length_b 14.496509
_cell_length_c 11.494597
_cell_angle_alpha 125.430655
_cell_angle_beta 151.144136
_cell_angle_gamma 56.416604
_cell_volume 558.606679
_symmetry_space_group_name_H-M "P -1"
_symmetry_group_IT_number 2
_symmetry_cell_setting 'triclinic'
loop_
_space_group_symop_operation_xyz
x,y,z
-x,-y,-z
loop_
_atom_site_type_symbol
_atom_site_label
_atom_site_fract_x
_atom_site_fract_y
_atom_site_fract_z
Si Si1 0.152613 0.038974 0.362105
Si Si2 0.255219 0.693516 0.117999
Si Si3 0.731728 0.159243 0.552741
Si Si4 0.006732 0.371369 0.446470
Si Si5 0.999625 0.158306 0.127921
Si Si6 0.112614 0.510958 0.216870
Si Si7 0.958307 0.258606 0.543566
O O1 0.928982 0.076807 0.129360
O O2 0.159656 0.154024 0.528514
O O3 0.500000 0.000000 0.500000
O O4 0.051436 0.945470 0.318881
O O5 0.250023 0.728558 0.275619
O O6 0.618464 0.653231 0.286849
O O7 0.167470 0.813324 0.082678
O O8 0.027476 0.594060 0.885331
O O9 0.371478 0.128582 0.314330
O O10 0.782265 0.191226 0.476818
O O11 0.957260 0.284944 0.248213
O O12 0.785209 0.332180 0.377132
O O13 0.000000 0.500000 0.500000
O O14 0.500000 0.500000 0.500000
O O15 0.936854 0.633580 0.236942
O O16 0.000000 0.500000 0.000000
#
# Coordination Sequence:
#
# PCOD9108308 Si02
#       7
#     2   2   2   2   2   2   2
#     4   9  20  41  70  96 139 190 241 305 359 436
#     4  11  23  42  68  97 142 190 237 300 366 444
#     4  10  20  40  67  98 135 179 240 299 370 425
#     4  10  23  40  62  97 138 187 240 291 356 438
#     4   9  20  39  62  92 133 185 235 292 362 430
#     4  12  27  46  74 110 150 193 239 310 379 445
#     4  11  22  41  69 103 141 187 242 304 362 443
#
# _framework density 25.062359000000001
#
# number of rings (size 3 to 8) (size 9 to 14) (size 15 to 20)
#    0.000    1.714    1.429    3.000    4.000    2.857 
#    2.571    0.000    0.000    6.000    0.000    0.000 
#    0.000    0.000    0.000    0.000    0.000    0.000 
#
# Total GULP energy -78008.169180 kJ/mol
# GULP energy per Si atom -5572.012084 kJ/mol
# Density = 2.500532 g / cm^3
# Si number density = 25.062359 Si / 1000 Ang^3
#
#
#
# Elastic Constant Matrix: (Units=GPa)
#
#
# Indices 1 2 3 4 5 6 
#
# 1 163.4992 60.0944 20.0880 5.8380 -32.7041 22.4936
# 2 60.0944 154.1903 24.1946 11.2846 -2.9808 27.3675
# 3 20.0880 24.1946 70.2012 10.5861 -9.5712 -2.4599
# 4 5.8380 11.2846 10.5861 49.9381 6.1943 -11.5891
# 5 -32.7041 -2.9808 -9.5712 6.1943 25.8942 4.5859
# 6 22.4936 27.3675 -2.4599 -11.5891 4.5859 64.1588
#
#
#
# Elastic Compliance Matrix: (Units=1/GPa)
#
#
# Indices 1 2 3 4 5 6 
#
# 1 0.010930 -0.003007 0.000367 -0.003550 0.015198 -0.004263
# 2 -0.003007 0.008557 -0.002373 -0.001354 -0.002884 -0.002725
# 3 0.000367 -0.002373 0.016521 -0.003823 0.007156 0.000315
# 4 -0.003550 -0.001354 -0.003823 0.024851 -0.013257 0.007112
# 5 0.015198 -0.002884 0.007156 -0.013257 0.065224 -0.010881
# 6 -0.004263 -0.002725 0.000315 0.007112 -0.010881 0.020318
#
#
# Mechanical properties :
#
#
# Convention : Reuss Voigt Hill
#
# Bulk Modulus (GPa) = 38.49009 66.29386 52.39197
# Shear Modulus (GPa) = 30.28705 46.89914 38.59309
#
# Velocity S-wave (km/s) = 3.48007 4.33054 3.92839
# Velocity P-wave (km/s) = 5.61595 7.17731 6.44410
#
# Compressibility (1/GPa) = 0.02598071
#
# Stress axis : x y z
#
# Youngs Moduli (GPa) = 91.49531 116.86523 60.52972
#
# Poissons Ratio (x) = 0.35142 -0.02221
# Poissons Ratio (y) = 0.27513 0.14364
# Poissons Ratio (z) = -0.03357 0.27734
#
# Static dielectric constant tensor:
#      x y z
#    x 2.157100 0.105370 -0.093100 
#    y 0.105370 2.126300 -0.076130 
#    z -0.093100 -0.076130 2.078080 
# 
# From -- ./inp_files/397710.got.cif
#   From: 2010.05.17/outbox.cif.g08.bks.cpg/sg2_199_cif.got.tgz:397710.got - 2010.06.03 11:33:40.
