data_PCOD9108898
_publ_section_title
;
Structure prediction by ZEFSAII (Michael W. Deem and Ramdas Pophale) SiO2 
 PCOD9108898
Probable space group: P -1
;
_chemical_formula_sum "Si O2"
_cell_formula_units_Z 10
_cell_length_a 12.957279
_cell_length_b 7.446983
_cell_length_c 7.421369
_cell_angle_alpha 137.761797
_cell_angle_beta 124.742160
_cell_angle_gamma 68.874228
_cell_volume 393.100663
_symmetry_space_group_name_H-M "P -1"
_symmetry_group_IT_number 2
_symmetry_cell_setting 'triclinic'
loop_
_space_group_symop_operation_xyz
x,y,z
-x,-y,-z
loop_
_atom_site_type_symbol
_atom_site_label
_atom_site_fract_x
_atom_site_fract_y
_atom_site_fract_z
Si Si1 0.369446 0.321830 0.692345
Si Si2 0.735562 0.626066 0.750692
Si Si3 0.983701 0.135916 0.889647
Si Si4 0.886249 0.573552 0.310995
Si Si5 0.639219 0.009337 0.226480
O O1 0.245360 0.457828 0.736636
O O2 0.347177 0.272454 0.422452
O O3 0.365652 0.058329 0.616876
O O4 0.500000 0.500000 0.000000
O O5 0.708113 0.304463 0.477151
O O6 0.893921 0.367461 0.003195
O O7 0.880023 0.733829 0.936066
O O8 0.923331 0.884801 0.527537
O O9 0.000000 0.000000 0.000000
O O10 0.000000 0.500000 0.500000
O O11 0.694575 0.765001 0.995140
O O12 0.500000 0.000000 0.000000
#
# Coordination Sequence:
#
# PCOD9108898 Si02
#       5
#     2   2   2   2   2
#     4  12  27  48  82 107 148 205 239 304 384 426
#     4  12  26  50  76 106 153 193 243 317 359 431
#     4  10  20  40  76  98 142 193 235 297 368 423
#     4  10  21  42  71 107 137 189 248 288 359 446
#     4  12  29  48  70 116 151 189 256 298 366 456
#
# _framework density 25.438777000000002
#
# number of rings (size 3 to 8) (size 9 to 14) (size 15 to 20)
#    0.000    0.800    6.000    1.800    2.800    4.000 
#    0.000    6.000    0.000    0.000    0.000    0.000 
#    0.000    0.000    0.000    0.000    0.000    0.000 
#
# Total GULP energy -56082.477179 kJ/mol
# GULP energy per Si atom -5608.247718 kJ/mol
# Density = 2.538088 g / cm^3
# Si number density = 25.438777 Si / 1000 Ang^3
#
#
#
# Elastic Constant Matrix: (Units=GPa)
#
#
# Indices 1 2 3 4 5 6 
#
# 1 70.3944 23.9711 48.2851 21.9322 -3.5403 -29.6187
# 2 23.9711 120.6909 37.0667 13.1443 -20.9430 12.9609
# 3 48.2851 37.0667 184.0733 16.2159 13.1864 -5.9838
# 4 21.9322 13.1443 16.2159 67.6828 1.5137 -15.7640
# 5 -3.5403 -20.9430 13.1864 1.5137 58.1008 -0.2157
# 6 -29.6187 12.9609 -5.9838 -15.7640 -0.2157 55.1051
#
#
#
# Elastic Compliance Matrix: (Units=1/GPa)
#
#
# Indices 1 2 3 4 5 6 
#
# 1 0.026181 -0.004441 -0.005345 -0.003197 0.001342 0.013627
# 2 -0.004441 0.011102 -0.001388 -0.001790 0.004072 -0.005645
# 3 -0.005345 -0.001388 0.007242 -0.000097 -0.002474 -0.001797
# 4 -0.003197 -0.001790 -0.000097 0.017039 -0.001249 0.003562
# 5 0.001342 0.004072 -0.002474 -0.001249 0.019352 -0.000787
# 6 0.013627 -0.005645 -0.001797 0.003562 -0.000787 0.027620
#
#
# Mechanical properties :
#
#
# Convention : Reuss Voigt Hill
#
# Bulk Modulus (GPa) = 45.09260 65.97826 55.53543
# Shear Modulus (GPa) = 36.15963 53.90013 45.02988
#
# Velocity S-wave (km/s) = 3.77429 4.60806 4.21185
# Velocity P-wave (km/s) = 6.06284 7.36917 6.74769
#
# Compressibility (1/GPa) = 0.02217659
#
# Stress axis : x y z
#
# Youngs Moduli (GPa) = 38.19521 90.07594 138.09289
#
# Poissons Ratio (x) = 0.40002 0.73810
# Poissons Ratio (y) = 0.16962 0.19169
# Poissons Ratio (z) = 0.20415 0.12504
#
# Static dielectric constant tensor:
#      x y z
#    x 1.999060 -0.084090 0.048520 
#    y -0.084090 1.843360 0.258220 
#    z 0.048520 0.258220 1.520530 
# 
# From -- ./inp_files/361081.got.cif
#   From: 2010.05.17/outbox.cif.g08.bks.cpg/sg2_181_cif.got.tgz:361081.got - 2010.06.03 11:33:40.
