data_PCOD9108332
_publ_section_title
;
Structure prediction by ZEFSAII (Michael W. Deem and Ramdas Pophale) SiO2 
 PCOD9108332
Probable space group: P -1
;
_chemical_formula_sum "Si O2"
_cell_formula_units_Z 16
_cell_length_a 11.890820
_cell_length_b 18.438644
_cell_length_c 9.685702
_cell_angle_alpha 57.926901
_cell_angle_beta 132.189258
_cell_angle_gamma 151.307468
_cell_volume 745.271890
_symmetry_space_group_name_H-M "P -1"
_symmetry_group_IT_number 2
_symmetry_cell_setting 'triclinic'
loop_
_space_group_symop_operation_xyz
x,y,z
-x,-y,-z
loop_
_atom_site_type_symbol
_atom_site_label
_atom_site_fract_x
_atom_site_fract_y
_atom_site_fract_z
Si Si1 0.332083 0.503441 0.970166
Si Si2 0.939333 0.357081 0.538428
Si Si3 0.907861 0.375736 0.963959
Si Si4 0.806696 0.747080 0.801550
Si Si5 0.765520 0.128084 0.182758
Si Si6 0.915846 0.862148 0.057273
Si Si7 0.364796 0.688172 0.456762
Si Si8 0.761390 0.108093 0.511887
O O1 0.360158 0.416142 0.122360
O O2 0.599602 0.685525 0.984629
O O3 0.135469 0.417134 0.762741
O O4 0.162152 0.464406 0.993256
O O5 0.666113 0.261190 0.489814
O O6 0.909286 0.267810 0.495423
O O7 0.087792 0.504105 0.435972
O O8 0.669368 0.284181 0.748290
O O9 0.833032 0.260343 0.112858
O O10 0.000000 0.500000 0.000000
O O11 0.610544 0.736005 0.621247
O O12 0.991573 0.806191 0.765004
O O13 0.993170 0.861237 0.970669
O O14 0.714865 0.069237 0.352781
O O15 0.500000 0.000000 0.000000
O O16 0.061178 0.881102 0.281129
O O17 0.000000 0.000000 0.000000
O O18 0.500000 0.000000 0.500000
#
# Coordination Sequence:
#
# PCOD9108332 Si02
#       8
#     2   2   2   2   2   2   2   2
#     4  10  21  42  70  96 139 185 227 273 346 404
#     4  10  20  40  68 101 133 179 231 284 323 411
#     4  10  23  41  66  97 136 178 231 281 332 408
#     4  11  22  44  69  99 139 181 225 282 347 416
#     4  11  27  48  68  94 139 189 222 280 364 412
#     4  12  26  41  69 108 140 174 230 293 335 402
#     4  10  21  35  71 100 132 170 230 280 341 385
#     4  12  27  44  71  96 135 180 238 278 349 421
#
# _framework density 21.468675000000001
#
# number of rings (size 3 to 8) (size 9 to 14) (size 15 to 20)
#    0.000    1.250    2.500    2.625    5.250    3.000 
#    0.000    4.375    0.000    0.000    0.000    0.000 
#    0.000    0.000    0.000    0.000    0.000    0.000 
#
# Total GULP energy -89436.910753 kJ/mol
# GULP energy per Si atom -5589.806922 kJ/mol
# Density = 2.141981 g / cm^3
# Si number density = 21.468675 Si / 1000 Ang^3
#
#
#
# Elastic Constant Matrix: (Units=GPa)
#
#
# Indices 1 2 3 4 5 6 
#
# 1 116.3920 41.8923 67.9656 -3.5032 3.0787 -15.6637
# 2 41.8923 76.4824 21.5070 -0.8587 -5.0156 -9.9577
# 3 67.9656 21.5070 136.3301 -7.2284 -4.3647 2.2952
# 4 -3.5032 -0.8587 -7.2284 28.2738 -0.9507 -0.8797
# 5 3.0787 -5.0156 -4.3647 -0.9507 42.7779 1.7007
# 6 -15.6637 -9.9577 2.2952 -0.8797 1.7007 37.7320
#
#
#
# Elastic Compliance Matrix: (Units=1/GPa)
#
#
# Indices 1 2 3 4 5 6 
#
# 1 0.015714 -0.006094 -0.007052 0.000036 -0.002782 0.005470
# 2 -0.006094 0.016666 0.000456 0.000001 0.002370 0.001734
# 3 -0.007052 0.000456 0.010999 0.001905 0.001865 -0.003516
# 4 0.000036 0.000001 0.001905 0.035914 0.000963 0.000693
# 5 -0.002782 0.002370 0.001865 0.000963 0.024134 -0.001708
# 6 0.005470 0.001734 -0.003516 0.000693 -0.001708 0.029538
#
#
# Mechanical properties :
#
#
# Convention : Reuss Voigt Hill
#
# Bulk Modulus (GPa) = 55.56084 65.77048 60.66566
# Shear Modulus (GPa) = 30.42406 34.94602 32.68504
#
# Velocity S-wave (km/s) = 3.76857 4.03894 3.90609
# Velocity P-wave (km/s) = 6.69868 7.24243 6.97585
#
# Compressibility (1/GPa) = 0.01799829
#
# Stress axis : x y z
#
# Youngs Moduli (GPa) = 63.63947 60.00317 90.91954
#
# Poissons Ratio (x) = 0.36565 0.64114
# Poissons Ratio (y) = 0.38780 -0.04142
# Poissons Ratio (z) = 0.44877 -0.02734
#
# Static dielectric constant tensor:
#      x y z
#    x 1.816250 -0.020810 0.015050 
#    y -0.020810 1.894540 -0.003720 
#    z 0.015050 -0.003720 1.776650 
# 
# From -- ./inp_files/279246.got.cif
#   From: 2010.05.17/outbox.cif.g08.bks.cpg/sg2_140_cif.got.tgz:279246.got - 2010.06.03 11:33:40.
