data_PCOD9108984
_publ_section_title
;
Structure prediction by ZEFSAII (Michael W. Deem and Ramdas Pophale) SiO2 
 PCOD9108984
Probable space group: P -1
;
_chemical_formula_sum "Si O2"
_cell_formula_units_Z 14
_cell_length_a 7.587282
_cell_length_b 12.184930
_cell_length_c 7.583636
_cell_angle_alpha 82.053451
_cell_angle_beta 81.433240
_cell_angle_gamma 51.585101
_cell_volume 542.268339
_symmetry_space_group_name_H-M "P -1"
_symmetry_group_IT_number 2
_symmetry_cell_setting 'triclinic'
loop_
_space_group_symop_operation_xyz
x,y,z
-x,-y,-z
loop_
_atom_site_type_symbol
_atom_site_label
_atom_site_fract_x
_atom_site_fract_y
_atom_site_fract_z
Si Si1 0.864153 0.442055 0.593858
Si Si2 0.956663 0.271583 0.297582
Si Si3 0.459012 0.151391 0.760168
Si Si4 0.190925 0.079695 0.002689
Si Si5 0.267173 0.703766 0.138047
Si Si6 0.607279 0.263153 0.493688
Si Si7 0.752827 0.561339 0.092790
O O1 0.994367 0.303720 0.479685
O O2 0.824186 0.388338 0.794375
O O3 0.607423 0.580675 0.561758
O O4 0.000000 0.500000 0.500000
O O5 0.816366 0.211962 0.349996
O O6 0.794733 0.428672 0.211082
O O7 0.156819 0.178104 0.152012
O O8 0.328288 0.087819 0.825612
O O9 0.551618 0.155366 0.556925
O O10 0.295537 0.314718 0.801410
O O11 0.658176 0.070098 0.894193
O O12 0.940809 0.156019 0.953670
O O13 0.318538 0.723230 0.325601
O O14 0.507720 0.633848 0.021803
O O15 0.000000 0.500000 0.000000
#
# Coordination Sequence:
#
# PCOD9108984 Si02
#       7
#     2   2   2   2   2   2   2
#     4  11  20  37  63  92 121 164 207 259 316 364
#     4  11  21  40  61  93 123 153 214 260 305 359
#     4  10  22  40  64  86 134 168 204 245 320 376
#     4  11  24  40  61  97 127 169 201 256 310 380
#     4  10  21  38  62  92 129 161 207 250 317 374
#     4  10  20  41  61  88 123 166 204 260 308 363
#     4  11  20  38  62  91 122 162 208 265 302 353
#
# _framework density 25.817478000000001
#
# number of rings (size 3 to 8) (size 9 to 14) (size 15 to 20)
#    0.000    1.429    5.714    1.714    0.000    3.429 
#    2.571    0.000    0.000   21.429    0.000    0.000 
#    0.000    0.000    0.000    0.000    0.000    0.000 
#
# Total GULP energy -78036.248656 kJ/mol
# GULP energy per Si atom -5574.017761 kJ/mol
# Density = 2.575872 g / cm^3
# Si number density = 25.817478 Si / 1000 Ang^3
#
#
#
# Elastic Constant Matrix: (Units=GPa)
#
#
# Indices 1 2 3 4 5 6 
#
# 1 112.7189 9.7339 18.1823 1.2294 -34.6568 -30.8408
# 2 9.7339 84.4023 18.4333 -24.5302 -3.9042 -20.1761
# 3 18.1823 18.4333 62.9047 -10.7990 -23.1901 -6.9353
# 4 1.2294 -24.5302 -10.7990 36.5272 5.4479 1.2890
# 5 -34.6568 -3.9042 -23.1901 5.4479 43.2140 -5.0702
# 6 -30.8408 -20.1761 -6.9353 1.2890 -5.0702 44.0711
#
#
#
# Elastic Compliance Matrix: (Units=1/GPa)
#
#
# Indices 1 2 3 4 5 6 
#
# 1 0.018453 0.001378 0.002432 -0.002291 0.018408 0.016112
# 2 0.001378 0.017263 -0.002365 0.010396 0.001060 0.008313
# 3 0.002432 -0.002365 0.022082 0.002584 0.013920 0.005620
# 4 -0.002291 0.010396 0.002584 0.035688 -0.003766 0.002086
# 5 0.018408 0.001060 0.013920 -0.003766 0.048436 0.021240
# 6 0.016112 0.008313 0.005620 0.002086 0.021240 0.041039
#
#
# Mechanical properties :
#
#
# Convention : Reuss Voigt Hill
#
# Bulk Modulus (GPa) = 16.47763 39.19164 27.83464
# Shear Modulus (GPa) = 24.96238 39.00756 31.98497
#
# Velocity S-wave (km/s) = 3.11284 3.89124 3.52360
# Velocity P-wave (km/s) = 4.39499 5.94998 5.23059
#
# Compressibility (1/GPa) = 0.06068835
#
# Stress axis : x y z
#
# Youngs Moduli (GPa) = 54.19039 57.92590 45.28552
#
# Poissons Ratio (x) = -0.07982 -0.11011
# Poissons Ratio (y) = -0.07467 0.10709
# Poissons Ratio (z) = -0.13177 0.13698
#
# Static dielectric constant tensor:
#      x y z
#    x 2.237000 0.029830 0.014910 
#    y 0.029830 1.973180 0.010930 
#    z 0.014910 0.010930 2.109870 
# 
# From -- ./inp_files/206242.got.cif
#   From: 2010.05.17/outbox.cif.g08.bks.cpg/sg2_104_cif.got.tgz:206242.got - 2010.06.03 11:33:40.
