data_PCOD9108757
_publ_section_title
;
Structure prediction by ZEFSAII (Michael W. Deem and Ramdas Pophale) SiO2 
 PCOD9108757
Probable space group: P -1
;
_chemical_formula_sum "Si O2"
_cell_formula_units_Z 16
_cell_length_a 13.405807
_cell_length_b 9.096155
_cell_length_c 12.209564
_cell_angle_alpha 62.969333
_cell_angle_beta 71.477127
_cell_angle_gamma 126.603745
_cell_volume 604.431142
_symmetry_space_group_name_H-M "P -1"
_symmetry_group_IT_number 2
_symmetry_cell_setting 'triclinic'
loop_
_space_group_symop_operation_xyz
x,y,z
-x,-y,-z
loop_
_atom_site_type_symbol
_atom_site_label
_atom_site_fract_x
_atom_site_fract_y
_atom_site_fract_z
Si Si1 0.094413 0.178389 0.753267
Si Si2 0.749608 0.123924 0.237689
Si Si3 0.731786 0.978602 0.512804
Si Si4 0.293946 0.562368 0.781840
Si Si5 0.615273 0.052091 0.812410
Si Si6 0.386803 0.437187 0.161378
Si Si7 0.543189 0.324027 0.716194
Si Si8 0.995412 0.587263 0.319111
O O1 0.252754 0.444400 0.710288
O O2 0.226754 0.340864 0.540480
O O3 0.952769 0.150601 0.802389
O O4 0.934806 0.808722 0.958829
O O5 0.665056 0.187647 0.291580
O O6 0.715651 0.932735 0.403583
O O7 0.634013 0.913043 0.236811
O O8 0.000000 0.500000 0.000000
O O9 0.494360 0.733103 0.703485
O O10 0.800393 0.945927 0.598070
O O11 0.918299 0.377343 0.313980
O O12 0.546266 0.143447 0.824136
O O13 0.769923 0.272163 0.575545
O O14 0.798054 0.219123 0.768106
O O15 0.399826 0.639720 0.038793
O O16 0.478558 0.585239 0.204131
O O17 0.500000 0.500000 0.000000
#
# Coordination Sequence:
#
# PCOD9108757 Si02
#       8
#     2   2   2   2   2   2   2   2
#     4  10  21  40  72 109 149 192 242 304 371 443
#     4  12  28  45  73 112 151 195 245 308 382 445
#     4  12  24  45  74 105 149 193 245 303 373 449
#     4  11  22  42  73 108 146 194 245 297 375 455
#     4  10  22  45  71 103 138 198 245 301 364 436
#     4  12  27  46  72 106 145 200 255 303 370 436
#     4  11  26  49  74 104 157 192 251 310 374 442
#     4  10  20  40  71 103 143 188 242 296 364 439
#
# _framework density 26.471167999999999
#
# number of rings (size 3 to 8) (size 9 to 14) (size 15 to 20)
#    0.000    1.000    3.750    3.000    3.500    2.500 
#    0.000    0.625    0.000    0.000    0.000    0.000 
#    0.000    0.000    0.000    0.000    0.000    0.000 
#
# Total GULP energy -89341.759131 kJ/mol
# GULP energy per Si atom -5583.859946 kJ/mol
# Density = 2.641092 g / cm^3
# Si number density = 26.471168 Si / 1000 Ang^3
#
#
#
# Elastic Constant Matrix: (Units=GPa)
#
#
# Indices 1 2 3 4 5 6 
#
# 1 72.0047 1.4291 0.5748 -0.9033 18.4506 -16.8195
# 2 1.4291 95.8058 0.7863 20.2211 2.6456 -12.1741
# 3 0.5748 0.7863 122.8942 14.4464 28.0827 -11.6780
# 4 -0.9033 20.2211 14.4464 38.1127 -0.5958 9.0495
# 5 18.4506 2.6456 28.0827 -0.5958 40.7581 -4.8986
# 6 -16.8195 -12.1741 -11.6780 9.0495 -4.8986 36.8305
#
#
#
# Elastic Compliance Matrix: (Units=1/GPa)
#
#
# Indices 1 2 3 4 5 6 
#
# 1 0.018741 0.002296 0.003739 -0.004806 -0.010036 0.010349
# 2 0.002296 0.013712 0.002564 -0.010265 -0.002820 0.008541
# 3 0.003739 0.002564 0.011752 -0.007509 -0.009237 0.006898
# 4 -0.004806 -0.010265 -0.007509 0.038446 0.006590 -0.016538
# 5 -0.010036 -0.002820 -0.009237 0.006590 0.035073 -0.005398
# 6 0.010349 0.008541 0.006898 -0.016538 -0.005398 0.040234
#
#
# Mechanical properties :
#
#
# Convention : Reuss Voigt Hill
#
# Bulk Modulus (GPa) = 16.28527 32.92054 24.60291
# Shear Modulus (GPa) = 31.01209 42.33457 36.67333
#
# Velocity S-wave (km/s) = 3.42649 4.00343 3.72614
# Velocity P-wave (km/s) = 4.67118 5.81664 5.27509
#
# Compressibility (1/GPa) = 0.06140519
#
# Stress axis : x y z
#
# Youngs Moduli (GPa) = 53.35800 72.92766 85.09115
#
# Poissons Ratio (x) = -0.16746 -0.31818
# Poissons Ratio (y) = -0.12253 -0.21819
# Poissons Ratio (z) = -0.19952 -0.18700
#
# Static dielectric constant tensor:
#      x y z
#    x 2.170140 -0.063730 0.129730 
#    y -0.063730 2.205100 -0.089220 
#    z 0.129730 -0.089220 2.208090 
# 
# From -- ./inp_files/447156.got.cif
#   From: 2010.05.17/outbox.cif.g08.bks.cpg/sg2_224_cif.got.tgz:447156.got - 2010.06.03 11:33:40.
