data_PCOD9108016
_publ_section_title
;
Structure prediction by ZEFSAII (Michael W. Deem and Ramdas Pophale) SiO2 
 PCOD9108016
Probable space group: P -1
;
_chemical_formula_sum "Si O2"
_cell_formula_units_Z 16
_cell_length_a 11.830833
_cell_length_b 15.109382
_cell_length_c 9.111436
_cell_angle_alpha 39.385889
_cell_angle_beta 109.283313
_cell_angle_gamma 130.681809
_cell_volume 730.977156
_symmetry_space_group_name_H-M "P -1"
_symmetry_group_IT_number 2
_symmetry_cell_setting 'triclinic'
loop_
_space_group_symop_operation_xyz
x,y,z
-x,-y,-z
loop_
_atom_site_type_symbol
_atom_site_label
_atom_site_fract_x
_atom_site_fract_y
_atom_site_fract_z
Si Si1 0.545155 0.878590 0.289576
Si Si2 0.382548 0.372191 0.243867
Si Si3 0.031917 0.183641 0.407384
Si Si4 0.428814 0.354952 0.787202
Si Si5 0.078428 0.130631 0.011827
Si Si6 0.101138 0.518884 0.156122
Si Si7 0.911599 0.232345 0.994983
Si Si8 0.461658 0.844429 0.974001
O O1 0.567259 0.743198 0.536334
O O2 0.443483 0.800874 0.196999
O O3 0.725607 0.068319 0.087838
O O4 0.483305 0.953021 0.274802
O O5 0.192699 0.244103 0.325439
O O6 0.435413 0.524728 0.189994
O O7 0.500000 0.500000 0.000000
O O8 0.073033 0.332883 0.357620
O O9 0.938814 0.179973 0.234406
O O10 0.945105 0.996722 0.701730
O O11 0.500000 0.500000 0.500000
O O12 0.411550 0.176767 0.984437
O O13 0.263775 0.291530 0.849705
O O14 0.006522 0.220085 0.927586
O O15 0.000000 0.000000 0.000000
O O16 0.292346 0.694356 0.012866
O O17 0.048407 0.574037 0.202634
O O18 0.000000 0.500000 0.000000
#
# Coordination Sequence:
#
# PCOD9108016 Si02
#       8
#     2   2   2   2   2   2   2   2
#     4  10  21  38  66  95 132 176 217 275 331 395
#     4  12  24  39  65 102 135 174 224 273 338 391
#     4  11  22  43  67  93 133 176 225 274 328 397
#     4  12  24  42  65  95 133 173 222 276 331 398
#     4  12  25  39  65  98 129 175 221 271 334 395
#     4   9  20  39  69  95 126 176 216 275 331 397
#     4  10  21  41  66  96 132 169 224 269 335 393
#     4  10  20  40  66  94 131 176 217 273 337 390
#
# _framework density 21.88851
#
# number of rings (size 3 to 8) (size 9 to 14) (size 15 to 20)
#    0.000    1.250    3.750    2.625    1.750    0.000 
#    0.000    6.250    0.000    0.000    0.000    0.000 
#    0.000    0.000    0.000    0.000    0.000    0.000 
#
# Total GULP energy -89211.283159 kJ/mol
# GULP energy per Si atom -5575.705197 kJ/mol
# Density = 2.183869 g / cm^3
# Si number density = 21.888510 Si / 1000 Ang^3
#
#
#
# Elastic Constant Matrix: (Units=GPa)
#
#
# Indices 1 2 3 4 5 6 
#
# 1 141.3891 24.5894 49.7639 -4.3990 10.0015 -21.7617
# 2 24.5894 103.1806 13.5946 4.4404 0.1150 -8.1333
# 3 49.7639 13.5946 64.6471 -6.7251 2.6525 3.1480
# 4 -4.3990 4.4404 -6.7251 26.1945 -5.4459 14.2699
# 5 10.0015 0.1150 2.6525 -5.4459 40.7608 -12.5696
# 6 -21.7617 -8.1333 3.1480 14.2699 -12.5696 52.0320
#
#
#
# Elastic Compliance Matrix: (Units=1/GPa)
#
#
# Indices 1 2 3 4 5 6 
#
# 1 0.011313 -0.000854 -0.009175 -0.003741 -0.000833 0.005978
# 2 -0.000854 0.010538 -0.002101 -0.003755 0.000615 0.002596
# 3 -0.009175 -0.002101 0.024401 0.009527 -0.000652 -0.008412
# 4 -0.003741 -0.003755 0.009527 0.049698 0.002057 -0.015861
# 5 -0.000833 0.000615 -0.000652 0.002057 0.026811 0.005700
# 6 0.005978 0.002596 -0.008412 -0.015861 0.005700 0.028361
#
#
# Mechanical properties :
#
#
# Convention : Reuss Voigt Hill
#
# Bulk Modulus (GPa) = 45.47211 53.90142 49.68676
# Shear Modulus (GPa) = 27.36555 38.54870 32.95712
#
# Velocity S-wave (km/s) = 3.53969 4.20114 3.88452
# Velocity P-wave (km/s) = 6.12579 6.94347 6.54741
#
# Compressibility (1/GPa) = 0.02199150
#
# Stress axis : x y z
#
# Youngs Moduli (GPa) = 88.39309 94.89841 40.98270
#
# Poissons Ratio (x) = 0.08105 0.37602
# Poissons Ratio (y) = 0.07550 0.08609
# Poissons Ratio (z) = 0.81101 0.19936
#
# Static dielectric constant tensor:
#      x y z
#    x 1.870780 -0.035580 0.030250 
#    y -0.035580 1.862800 -0.013120 
#    z 0.030250 -0.013120 1.773410 
# 
# From -- ./inp_files/217023.got.cif
#   From: 2010.05.17/outbox.cif.g08.bks.cpg/sg2_109_cif.got.tgz:217023.got - 2010.06.03 11:33:40.
