data_PCOD9108047
_publ_section_title
;
Structure prediction by ZEFSAII (Michael W. Deem and Ramdas Pophale) SiO2 
 PCOD9108047
Probable space group: P -1
;
_chemical_formula_sum "Si O2"
_cell_formula_units_Z 14
_cell_length_a 8.249076
_cell_length_b 15.942461
_cell_length_c 15.637310
_cell_angle_alpha 153.810548
_cell_angle_beta 138.731664
_cell_angle_gamma 56.674644
_cell_volume 540.570976
_symmetry_space_group_name_H-M "P -1"
_symmetry_group_IT_number 2
_symmetry_cell_setting 'triclinic'
loop_
_space_group_symop_operation_xyz
x,y,z
-x,-y,-z
loop_
_atom_site_type_symbol
_atom_site_label
_atom_site_fract_x
_atom_site_fract_y
_atom_site_fract_z
Si Si1 0.002570 0.801085 0.920289
Si Si2 0.419608 0.459069 0.818090
Si Si3 0.044804 0.231784 0.318474
Si Si4 0.096870 0.536817 0.295779
Si Si5 0.547371 0.982660 0.106299
Si Si6 0.850799 0.301310 0.819722
Si Si7 0.639965 0.900671 0.250565
O O1 0.868870 0.771878 0.747379
O O2 0.862560 0.591931 0.727213
O O3 0.323365 0.862795 0.097789
O O4 0.997980 0.013806 0.147638
O O5 0.562661 0.302168 0.735051
O O6 0.258245 0.414579 0.624028
O O7 0.182834 0.434847 0.769371
O O8 0.639347 0.697652 0.111679
O O9 0.745984 0.214944 0.177187
O O10 0.339150 0.768150 0.596035
O O11 0.032802 0.374235 0.043584
O O12 0.705280 0.928660 0.200009
O O13 0.500000 0.000000 0.000000
O O14 0.798362 0.099950 0.557011
O O15 0.000000 0.500000 0.000000
#
# Coordination Sequence:
#
# PCOD9108047 Si02
#       7
#     2   2   2   2   2   2   2
#     4   9  21  38  66  96 126 176 218 266 331 388
#     4  11  24  43  70  98 125 183 221 270 333 388
#     4  10  20  40  66  95 136 166 217 271 330 398
#     4  11  24  43  66 100 132 175 224 272 327 390
#     4  11  22  39  63 100 138 167 217 280 329 390
#     4  12  25  47  67  94 140 172 225 276 323 399
#     4  10  23  43  67  95 130 181 218 268 338 388
#
# _framework density 25.898541000000002
#
# number of rings (size 3 to 8) (size 9 to 14) (size 15 to 20)
#    0.000    1.429    4.286    0.429    2.000    5.143 
#    5.143    0.000    0.000    0.000    0.000    0.000 
#    0.000    0.000    0.000    0.000    0.000    0.000 
#
# Total GULP energy -78032.102609 kJ/mol
# GULP energy per Si atom -5573.721615 kJ/mol
# Density = 2.583959 g / cm^3
# Si number density = 25.898541 Si / 1000 Ang^3
#
#
#
# Elastic Constant Matrix: (Units=GPa)
#
#
# Indices 1 2 3 4 5 6 
#
# 1 75.0289 15.0523 17.9394 -15.9035 -6.5343 -3.6286
# 2 15.0523 92.7376 27.8118 -6.9123 -9.9196 14.9657
# 3 17.9394 27.8118 161.1136 -21.3216 -25.4906 4.7078
# 4 -15.9035 -6.9123 -21.3216 40.8906 6.1213 -3.9161
# 5 -6.5343 -9.9196 -25.4906 6.1213 35.6085 -1.1000
# 6 -3.6286 14.9657 4.7078 -3.9161 -1.1000 28.7103
#
#
#
# Elastic Compliance Matrix: (Units=1/GPa)
#
#
# Indices 1 2 3 4 5 6 
#
# 1 0.015413 -0.002497 -0.000523 0.005556 0.000931 0.004129
# 2 -0.002497 0.012907 -0.001514 -0.000519 0.001932 -0.006792
# 3 -0.000523 -0.001514 0.007604 0.002844 0.004438 0.000034
# 4 0.005556 -0.000519 0.002844 0.028711 -0.001890 0.004350
# 5 0.000931 0.001932 0.004438 -0.001890 0.032274 -0.000639
# 6 0.004129 -0.006792 0.000034 0.004350 -0.000639 0.039456
#
#
# Mechanical properties :
#
#
# Convention : Reuss Voigt Hill
#
# Bulk Modulus (GPa) = 37.23938 50.05411 43.64674
# Shear Modulus (GPa) = 32.38634 38.91365 35.65000
#
# Velocity S-wave (km/s) = 3.54009 3.88047 3.71418
# Velocity P-wave (km/s) = 5.57851 6.28063 5.93996
#
# Compressibility (1/GPa) = 0.02685329
#
# Stress axis : x y z
#
# Youngs Moduli (GPa) = 64.88182 77.47909 131.50984
#
# Poissons Ratio (x) = 0.19350 0.06881
# Poissons Ratio (y) = 0.16204 0.19915
# Poissons Ratio (z) = 0.03395 0.11733
#
# Static dielectric constant tensor:
#      x y z
#    x 2.081650 -0.107770 0.098200 
#    y -0.107770 1.975430 0.077160 
#    z 0.098200 0.077160 1.866720 
# 
# From -- ./inp_files/202202.got.cif
#   From: 2010.05.17/outbox.cif.g08.bks.cpg/sg2_102_cif.got.tgz:202202.got - 2010.06.03 11:33:40.
