data_PCOD9108140
_publ_section_title
;
Structure prediction by ZEFSAII (Michael W. Deem and Ramdas Pophale) SiO2 
 PCOD9108140
Probable space group: P -1
;
_chemical_formula_sum "Si O2"
_cell_formula_units_Z 16
_cell_length_a 24.030255
_cell_length_b 5.299006
_cell_length_c 5.189091
_cell_angle_alpha 90.869672
_cell_angle_beta 66.032929
_cell_angle_gamma 96.824311
_cell_volume 599.112538
_symmetry_space_group_name_H-M "P -1"
_symmetry_group_IT_number 2
_symmetry_cell_setting 'triclinic'
loop_
_space_group_symop_operation_xyz
x,y,z
-x,-y,-z
loop_
_atom_site_type_symbol
_atom_site_label
_atom_site_fract_x
_atom_site_fract_y
_atom_site_fract_z
Si Si1 0.099125 0.452259 0.833697
Si Si2 0.345137 0.371959 0.012156
Si Si3 0.412100 0.740989 0.263032
Si Si4 0.988040 0.268025 0.314581
Si Si5 0.537415 0.836379 0.239563
Si Si6 0.131973 0.085121 0.372904
Si Si7 0.311235 0.854984 0.823393
Si Si8 0.810103 0.115717 0.225553
O O1 0.052889 0.649327 0.843636
O O2 0.152833 0.607281 0.893353
O O3 0.125855 0.353783 0.519338
O O4 0.053571 0.239732 0.062826
O O5 0.413082 0.344971 0.764807
O O6 0.306782 0.581600 0.965024
O O7 0.310404 0.092172 0.023203
O O8 0.366723 0.495837 0.247579
O O9 0.479099 0.678747 0.209720
O O10 0.376419 0.866107 0.558070
O O11 0.425749 0.957854 0.020587
O O12 0.939072 0.045836 0.514328
O O13 0.000000 0.500000 0.500000
O O14 0.500000 0.000000 0.500000
O O15 0.170180 0.957384 0.525607
O O16 0.165729 0.064176 0.040360
O O17 0.260415 0.874312 0.702154
#
# Coordination Sequence:
#
# PCOD9108140 Si02
#       8
#     2   2   2   2   2   2   2   2
#     4  10  23  42  68 104 142 190 233 309 367 447
#     4  12  26  49  72 109 142 191 243 307 367 449
#     4  11  25  45  76 106 149 191 238 306 380 448
#     4  10  20  40  67 103 148 176 243 298 373 445
#     4  11  23  47  74 112 149 185 241 305 380 454
#     4  11  25  44  72 102 142 189 247 294 387 426
#     4  12  30  48  74 104 148 192 257 301 373 441
#     4  11  28  47  68 104 139 193 248 308 354 453
#
# _framework density 26.706168000000002
#
# number of rings (size 3 to 8) (size 9 to 14) (size 15 to 20)
#    0.000    1.000    3.750    0.750    7.000    3.500 
#    0.000    0.000    0.000    0.000    0.000    0.000 
#    0.000    0.000    0.000    0.000    0.000    0.000 
#
# Total GULP energy -89525.226204 kJ/mol
# GULP energy per Si atom -5595.326638 kJ/mol
# Density = 2.664538 g / cm^3
# Si number density = 26.706168 Si / 1000 Ang^3
#
#
#
# Elastic Constant Matrix: (Units=GPa)
#
#
# Indices 1 2 3 4 5 6 
#
# 1 143.5994 28.3058 -6.4954 1.0587 -5.7078 15.2257
# 2 28.3058 109.2697 27.4704 26.8902 3.7640 -3.5501
# 3 -6.4954 27.4704 74.0453 17.9311 2.5534 -0.9371
# 4 1.0587 26.8902 17.9311 42.6130 1.3299 10.9816
# 5 -5.7078 3.7640 2.5534 1.3299 35.0053 1.0137
# 6 15.2257 -3.5501 -0.9371 10.9816 1.0137 30.1652
#
#
#
# Elastic Compliance Matrix: (Units=1/GPa)
#
#
# Indices 1 2 3 4 5 6 
#
# 1 0.008333 -0.003397 0.001171 0.002851 0.001694 -0.005664
# 2 -0.003397 0.013141 -0.002969 -0.008540 -0.001609 0.006332
# 3 0.001171 -0.002969 0.016021 -0.005265 -0.000502 0.001491
# 4 0.002851 -0.008540 -0.005265 0.034930 0.000885 -0.015353
# 5 0.001694 -0.001609 -0.000502 0.000885 0.029088 -0.002360
# 6 -0.005664 0.006332 0.001491 -0.015353 -0.002360 0.042470
#
#
# Mechanical properties :
#
#
# Convention : Reuss Voigt Hill
#
# Bulk Modulus (GPa) = 36.89534 47.27512 42.08523
# Shear Modulus (GPa) = 30.59816 40.06560 35.33188
#
# Velocity S-wave (km/s) = 3.38854 3.87749 3.64123
# Velocity P-wave (km/s) = 5.39953 6.14711 5.78541
#
# Compressibility (1/GPa) = 0.02710370
#
# Stress axis : x y z
#
# Youngs Moduli (GPa) = 120.00066 76.09805 62.41881
#
# Poissons Ratio (x) = 0.25850 -0.07308
# Poissons Ratio (y) = 0.40764 0.18535
# Poissons Ratio (z) = -0.14050 0.22597
#
# Static dielectric constant tensor:
#      x y z
#    x 2.135610 -0.032760 0.089630 
#    y -0.032760 2.226040 -0.078060 
#    z 0.089630 -0.078060 2.105650 
# 
# From -- ./inp_files/121725.got.cif
#   From: 2010.05.17/outbox.cif.g08.bks.cpg/sg2_61_cif.got.tgz:121725.got - 2010.06.03 11:33:40.
