data_PCOD9108078
_publ_section_title
;
Structure prediction by ZEFSAII (Michael W. Deem and Ramdas Pophale) SiO2 
 PCOD9108078
Probable space group: P -1
;
_chemical_formula_sum "Si O2"
_cell_formula_units_Z 16
_cell_length_a 19.088203
_cell_length_b 10.916866
_cell_length_c 8.413440
_cell_angle_alpha 136.609659
_cell_angle_beta 36.413197
_cell_angle_gamma 133.343513
_cell_volume 692.409389
_symmetry_space_group_name_H-M "P -1"
_symmetry_group_IT_number 2
_symmetry_cell_setting 'triclinic'
loop_
_space_group_symop_operation_xyz
x,y,z
-x,-y,-z
loop_
_atom_site_type_symbol
_atom_site_label
_atom_site_fract_x
_atom_site_fract_y
_atom_site_fract_z
Si Si1 0.540563 0.391142 0.059598
Si Si2 0.102524 0.695304 0.856421
Si Si3 0.538504 0.255447 0.575036
Si Si4 0.865295 0.581830 0.974643
Si Si5 0.788539 0.205266 0.926504
Si Si6 0.288222 0.052112 0.728740
Si Si7 0.312454 0.158541 0.419907
Si Si8 0.808261 0.597619 0.753888
O O1 0.487968 0.571801 0.311090
O O2 0.450762 0.242024 0.190183
O O3 0.542939 0.313657 0.804862
O O4 0.680227 0.465648 0.925378
O O5 0.109858 0.750422 0.079178
O O6 0.144718 0.507298 0.572725
O O7 0.201804 0.857202 0.742669
O O8 0.976119 0.669405 0.971819
O O9 0.419890 0.090319 0.605788
O O10 0.336600 0.779377 0.746527
O O11 0.824441 0.365792 0.882645
O O12 0.757288 0.679799 0.300862
O O13 0.895573 0.621184 0.769979
O O14 0.759875 0.004206 0.714430
O O15 0.308206 0.081156 0.532277
O O16 0.223655 0.212295 0.054432
#
# Coordination Sequence:
#
# PCOD9108078 Si02
#       8
#     2   2   2   2   2   2   2   2
#     4  10  20  40  66  97 130 162 206 264 324 375
#     4  12  25  44  66  92 130 170 220 255 310 382
#     4  10  21  39  66  95 132 163 208 261 318 382
#     4  11  26  45  64  93 130 171 213 263 313 372
#     4  12  25  41  66  97 127 169 215 259 317 378
#     4  10  25  41  64 101 125 169 208 262 322 374
#     4  11  25  41  66  98 131 165 208 265 322 376
#     4  10  23  42  69  93 124 171 211 263 315 374
#
# _framework density 23.107716
#
# number of rings (size 3 to 8) (size 9 to 14) (size 15 to 20)
#    0.000    1.250    2.500    2.250    3.500    7.500 
#    0.000    0.000    0.000    0.000    0.000    0.000 
#    0.000    0.000    0.000    0.000    0.000    0.000 
#
# Total GULP energy -89660.056409 kJ/mol
# GULP energy per Si atom -5603.753526 kJ/mol
# Density = 2.305512 g / cm^3
# Si number density = 23.107716 Si / 1000 Ang^3
#
#
#
# Elastic Constant Matrix: (Units=GPa)
#
#
# Indices 1 2 3 4 5 6 
#
# 1 88.3152 6.4942 7.2855 3.5043 0.8250 18.1545
# 2 6.4942 94.8677 16.7186 -0.6345 -4.3585 -0.3711
# 3 7.2855 16.7186 51.3130 12.1999 9.2351 10.2268
# 4 3.5043 -0.6345 12.1999 27.7119 8.8520 2.1015
# 5 0.8250 -4.3585 9.2351 8.8520 23.5623 1.0983
# 6 18.1545 -0.3711 10.2268 2.1015 1.0983 34.7092
#
#
#
# Elastic Compliance Matrix: (Units=1/GPa)
#
#
# Indices 1 2 3 4 5 6 
#
# 1 0.012800 -0.000918 0.000074 -0.001204 0.000116 -0.006657
# 2 -0.000918 0.011665 -0.004998 0.001299 0.003573 0.001886
# 3 0.000074 -0.004998 0.025890 -0.008591 -0.007523 -0.006962
# 4 -0.001204 0.001299 -0.008591 0.044123 -0.012969 0.000914
# 5 0.000116 0.003573 -0.007523 -0.012969 0.050855 0.001370
# 6 -0.006657 0.001886 -0.006962 0.000914 0.001370 0.034266
#
#
# Mechanical properties :
#
#
# Convention : Reuss Voigt Hill
#
# Bulk Modulus (GPa) = 25.85936 32.83252 29.34594
# Shear Modulus (GPa) = 24.48913 30.79652 27.64283
#
# Velocity S-wave (km/s) = 3.25896 3.65463 3.46245
# Velocity P-wave (km/s) = 5.03748 5.66107 5.35835
#
# Compressibility (1/GPa) = 0.03867071
#
# Stress axis : x y z
#
# Youngs Moduli (GPa) = 78.12709 85.72761 38.62476
#
# Poissons Ratio (x) = 0.07870 -0.00286
# Poissons Ratio (y) = 0.07172 0.19305
# Poissons Ratio (z) = -0.00579 0.42847
#
# Static dielectric constant tensor:
#      x y z
#    x 1.856700 0.004980 -0.005080 
#    y 0.004980 1.844450 0.002140 
#    z -0.005080 0.002140 1.854710 
# 
# From -- ./inp_files/345670.got.cif
#   From: 2010.05.17/outbox.cif.g08.bks.cpg/sg2_173_cif.got.tgz:345670.got - 2010.06.03 11:33:40.
