data_PCOD9108904
_publ_section_title
;
Structure prediction by ZEFSAII (Michael W. Deem and Ramdas Pophale) SiO2 
 PCOD9108904
Probable space group: P -1
;
_chemical_formula_sum "Si O2"
_cell_formula_units_Z 16
_cell_length_a 7.023581
_cell_length_b 16.039106
_cell_length_c 19.379199
_cell_angle_alpha 20.705741
_cell_angle_beta 123.959302
_cell_angle_gamma 116.515295
_cell_volume 618.298629
_symmetry_space_group_name_H-M "P -1"
_symmetry_group_IT_number 2
_symmetry_cell_setting 'triclinic'
loop_
_space_group_symop_operation_xyz
x,y,z
-x,-y,-z
loop_
_atom_site_type_symbol
_atom_site_label
_atom_site_fract_x
_atom_site_fract_y
_atom_site_fract_z
Si Si1 0.452063 0.557827 0.775391
Si Si2 0.339125 0.755590 0.294178
Si Si3 0.646118 0.218232 0.207476
Si Si4 0.038459 0.462387 0.118161
Si Si5 0.570560 0.293329 0.864528
Si Si6 0.582832 0.806017 0.434538
Si Si7 0.173440 0.123052 0.849096
Si Si8 0.239050 0.028316 0.308720
O O1 0.460181 0.371374 0.857625
O O2 0.684092 0.656331 0.727948
O O3 0.241933 0.804638 0.533542
O O4 0.504781 0.410166 0.971768
O O5 0.500000 0.500000 0.500000
O O6 0.508053 0.855205 0.302996
O O7 0.100339 0.750745 0.291019
O O8 0.249732 0.922529 0.080912
O O9 0.854817 0.304650 0.219738
O O10 0.448411 0.166604 0.259261
O O11 0.735964 0.973621 0.369224
O O12 0.982747 0.737854 0.923211
O O13 0.000000 0.500000 0.000000
O O14 0.677635 0.517390 0.688809
O O15 0.347490 0.292631 0.770060
O O16 0.753597 0.033207 0.085166
O O17 0.337015 0.898283 0.357439
#
# Coordination Sequence:
#
# PCOD9108904 Si02
#       8
#     2   2   2   2   2   2   2   2
#     4  10  21  39  64  86 126 160 200 261 304 363
#     4  11  21  40  61  90 120 161 204 255 311 364
#     4   9  20  38  61  89 123 161 203 248 308 364
#     4  10  21  38  63  94 120 160 209 250 308 367
#     4  10  20  41  57  92 121 160 212 252 312 368
#     4   9  20  37  61  83 124 157 204 251 301 372
#     4  10  23  37  62  87 122 159 208 258 304 375
#     4   9  21  39  59  89 119 160 203 252 297 377
#
# _framework density 25.877464
#
# number of rings (size 3 to 8) (size 9 to 14) (size 15 to 20)
#    0.750    1.500    1.250    1.125    1.750    3.000 
#    0.000    7.500    5.500    0.000    0.000    0.000 
#    0.000    0.000    0.000    0.000    0.000    0.000 
#
# Total GULP energy -89328.860788 kJ/mol
# GULP energy per Si atom -5583.053799 kJ/mol
# Density = 2.581857 g / cm^3
# Si number density = 25.877464 Si / 1000 Ang^3
#
#
#
# Elastic Constant Matrix: (Units=GPa)
#
#
# Indices 1 2 3 4 5 6 
#
# 1 69.2257 7.1215 43.9048 -4.2201 11.4595 -6.8851
# 2 7.1215 107.8668 38.4835 -24.7715 7.6107 -10.2833
# 3 43.9048 38.4835 160.4190 -11.5049 5.5437 -1.6640
# 4 -4.2201 -24.7715 -11.5049 34.5802 -1.9777 -4.9629
# 5 11.4595 7.6107 5.5437 -1.9777 40.3796 -2.9241
# 6 -6.8851 -10.2833 -1.6640 -4.9629 -2.9241 25.6436
#
#
#
# Elastic Compliance Matrix: (Units=1/GPa)
#
#
# Indices 1 2 3 4 5 6 
#
# 1 0.019072 0.002090 -0.005320 0.002598 -0.004543 0.005598
# 2 0.002090 0.013225 -0.002913 0.009721 -0.001676 0.007365
# 3 -0.005320 -0.002913 0.008326 -0.000211 0.000760 -0.002010
# 4 0.002598 0.009721 -0.000211 0.037850 0.000177 0.011928
# 5 -0.004543 -0.001676 0.000760 0.000177 0.026361 0.001198
# 6 0.005598 0.007365 -0.002010 0.011928 0.001198 0.045767
#
#
# Mechanical properties :
#
#
# Convention : Reuss Voigt Hill
#
# Bulk Modulus (GPa) = 35.28992 57.39237 46.34114
# Shear Modulus (GPa) = 29.01360 36.65412 32.83386
#
# Velocity S-wave (km/s) = 3.35205 3.76766 3.56592
# Velocity P-wave (km/s) = 5.35244 6.41511 5.90772
#
# Compressibility (1/GPa) = 0.02833670
#
# Stress axis : x y z
#
# Youngs Moduli (GPa) = 52.43396 75.61582 120.10344
#
# Poissons Ratio (x) = -0.15801 0.63890
# Poissons Ratio (y) = -0.10957 0.34986
# Poissons Ratio (z) = 0.27893 0.22027
#
# Static dielectric constant tensor:
#      x y z
#    x 2.101090 0.049730 -0.056920 
#    y 0.049730 2.065560 -0.030340 
#    z -0.056920 -0.030340 2.097780 
# 
# From -- ./inp_files/608311.got.cif
#   From: 2010.05.17/outbox.cif.g08.bks.cpg/sg2_305_cif.got.tgz:608311.got - 2010.06.03 11:33:40.
