data_PCOD9108674
_publ_section_title
;
Structure prediction by ZEFSAII (Michael W. Deem and Ramdas Pophale) SiO2 
 PCOD9108674
Probable space group: P -1
;
_chemical_formula_sum "Si O2"
_cell_formula_units_Z 11
_cell_length_a 16.335884
_cell_length_b 20.612710
_cell_length_c 4.898238
_cell_angle_alpha 89.924776
_cell_angle_beta 98.213342
_cell_angle_gamma 161.999346
_cell_volume 453.034453
_symmetry_space_group_name_H-M "P -1"
_symmetry_group_IT_number 2
_symmetry_cell_setting 'triclinic'
loop_
_space_group_symop_operation_xyz
x,y,z
-x,-y,-z
loop_
_atom_site_type_symbol
_atom_site_label
_atom_site_fract_x
_atom_site_fract_y
_atom_site_fract_z
Si Si1 0.518248 0.640476 0.682336
Si Si2 0.952366 0.899655 0.296223
Si Si3 0.818775 0.392703 0.165082
Si Si4 0.696948 0.085874 0.172368
Si Si5 0.071809 0.375523 0.848575
Si Si6 0.500000 0.500000 0.500000
O O1 0.404633 0.505133 0.400192
O O2 0.300345 0.499654 0.813234
O O3 0.742561 0.755214 0.932398
O O4 0.712624 0.848605 0.671103
O O5 0.786410 0.723719 0.408913
O O6 0.000000 0.000000 0.500000
O O7 0.000000 0.500000 0.500000
O O8 0.821364 0.471349 0.156548
O O9 0.000000 0.500000 0.000000
O O10 0.488191 0.116161 0.996585
O O11 0.771253 0.141883 0.526490
O O12 0.994851 0.312061 0.130287
O O13 0.500000 0.000000 0.000000
#
# Coordination Sequence:
#
# PCOD9108674 Si02
#       6
#     2   2   2   2   2   1
#     4  10  23  41  65  97 131 174 223 276 339 393
#     4   9  20  41  66  90 131 174 210 276 341 401
#     4  12  23  43  70  94 132 181 220 273 347 394
#     4  12  24  44  70  98 137 182 224 278 350 396
#     4  12  26  43  70 102 138 173 237 284 319 422
#     4  10  20  40  70  88 134 172 216 268 346 400
#
# _framework density 24.280712000000001
#
# number of rings (size 3 to 8) (size 9 to 14) (size 15 to 20)
#    0.000    1.091    3.636    2.182    5.091    1.455 
#    9.818    0.000    0.000    0.000    0.000    0.000 
#    0.000    0.000    0.000    0.000    0.000    0.000 
#
# Total GULP energy -61262.366466 kJ/mol
# GULP energy per Si atom -5569.306042 kJ/mol
# Density = 2.422545 g / cm^3
# Si number density = 24.280712 Si / 1000 Ang^3
#
#
#
# Elastic Constant Matrix: (Units=GPa)
#
#
# Indices 1 2 3 4 5 6 
#
# 1 114.5687 24.1958 -16.1219 -2.8816 -1.2505 9.4391
# 2 24.1958 154.5067 5.1451 -12.7826 3.5255 -16.2087
# 3 -16.1219 5.1451 61.6599 -25.6778 -7.4652 -7.2620
# 4 -2.8816 -12.7826 -25.6778 38.5013 3.8293 -13.4875
# 5 -1.2505 3.5255 -7.4652 3.8293 17.1826 0.1918
# 6 9.4391 -16.2087 -7.2620 -13.4875 0.1918 57.2704
#
#
#
# Elastic Compliance Matrix: (Units=1/GPa)
#
#
# Indices 1 2 3 4 5 6 
#
# 1 0.009761 -0.001657 0.003652 0.001993 0.002206 -0.001153
# 2 -0.001657 0.007498 0.000953 0.004482 -0.002284 0.003579
# 3 0.003652 0.000953 0.027798 0.021265 0.007317 0.008176
# 4 0.001993 0.004482 0.021265 0.047182 -0.002215 0.014756
# 5 0.002206 -0.002284 0.007317 -0.002215 0.062509 -0.000813
# 6 -0.001153 0.003579 0.008176 0.014756 -0.000813 0.023178
#
#
# Mechanical properties :
#
#
# Convention : Reuss Voigt Hill
#
# Bulk Modulus (GPa) = 19.62606 39.68591 29.65599
# Shear Modulus (GPa) = 26.45271 43.75862 35.10566
#
# Velocity S-wave (km/s) = 3.30427 4.24983 3.80653
# Velocity P-wave (km/s) = 4.76005 6.36094 5.61781
#
# Compressibility (1/GPa) = 0.05095267
#
# Stress axis : x y z
#
# Youngs Moduli (GPa) = 102.44583 133.36383 35.97390
#
# Poissons Ratio (x) = 0.22093 -0.13136
# Poissons Ratio (y) = 0.16971 -0.03427
# Poissons Ratio (z) = -0.37409 -0.12704
#
# Static dielectric constant tensor:
#      x y z
#    x 1.776300 0.092430 0.187710 
#    y 0.092430 2.027880 0.023500 
#    z 0.187710 0.023500 1.765450 
# 
# From -- ./inp_files/95976.got.cif
#   From: 2010.05.17/outbox.cif.g08.bks.cpg/sg2_48_cif.got.tgz:95976.got - 2010.06.03 11:33:40.
