data_PCOD9108959
_publ_section_title
;
Structure prediction by ZEFSAII (Michael W. Deem and Ramdas Pophale) SiO2 
 PCOD9108959
Probable space group: P -1
;
_chemical_formula_sum "Si O2"
_cell_formula_units_Z 16
_cell_length_a 14.011938
_cell_length_b 8.133904
_cell_length_c 16.628451
_cell_angle_alpha 89.095553
_cell_angle_beta 33.477038
_cell_angle_gamma 115.197734
_cell_volume 632.965219
_symmetry_space_group_name_H-M "P -1"
_symmetry_group_IT_number 2
_symmetry_cell_setting 'triclinic'
loop_
_space_group_symop_operation_xyz
x,y,z
-x,-y,-z
loop_
_atom_site_type_symbol
_atom_site_label
_atom_site_fract_x
_atom_site_fract_y
_atom_site_fract_z
Si Si1 0.279029 0.496267 0.796457
Si Si2 0.683153 0.270461 0.697914
Si Si3 0.662990 0.688621 0.790444
Si Si4 0.696495 0.026423 0.307663
Si Si5 0.893757 0.814038 0.228841
Si Si6 0.283227 0.045030 0.397044
Si Si7 0.459177 0.275892 0.728434
Si Si8 0.746337 0.913723 0.882715
O O1 0.267718 0.450332 0.707767
O O2 0.551007 0.801955 0.636444
O O3 0.349577 0.364543 0.774457
O O4 0.983931 0.316190 0.055664
O O5 0.700064 0.437913 0.623042
O O6 0.476621 0.135430 0.919132
O O7 0.000000 0.500000 0.500000
O O8 0.605240 0.044979 0.709421
O O9 0.636564 0.743966 0.720211
O O10 0.383424 0.366329 0.002451
O O11 0.714879 0.885850 0.809958
O O12 0.939053 0.790536 0.625536
O O13 0.500000 0.000000 0.500000
O O14 0.809280 0.940894 0.270358
O O15 0.502394 0.813890 0.372719
O O16 0.198497 0.020030 0.970216
O O17 0.956791 0.838364 0.279489
#
# Coordination Sequence:
#
# PCOD9108959 Si02
#       8
#     2   2   2   2   2   2   2   2
#     4   9  18  36  58  81 115 153 193 231 289 350
#     4  11  21  36  56  85 115 152 194 238 290 344
#     4  10  22  37  60  84 116 156 197 236 283 350
#     4   9  16  30  54  88 112 144 195 237 279 332
#     4   8  16  33  59  77 109 154 191 228 279 350
#     4  11  22  37  58  88 118 151 192 243 298 337
#     4   8  17  33  54  77 109 155 189 222 275 351
#     4  10  20  41  61  84 114 156 201 235 278 349
#
# _framework density 25.277847999999999
#
# number of rings (size 3 to 8) (size 9 to 14) (size 15 to 20)
#    0.000    2.500    1.250    3.750    1.750    1.500 
#    2.250    8.750    0.000    0.000    0.000    2.625 
#    0.000    0.000    0.000    0.000    0.000    0.000 
#
# Total GULP energy -89164.298416 kJ/mol
# GULP energy per Si atom -5572.768651 kJ/mol
# Density = 2.522031 g / cm^3
# Si number density = 25.277848 Si / 1000 Ang^3
#
#
#
# Elastic Constant Matrix: (Units=GPa)
#
#
# Indices 1 2 3 4 5 6 
#
# 1 60.6152 19.2772 22.5590 0.4537 -17.9423 26.9320
# 2 19.2772 138.0661 36.4319 30.7680 -3.1099 28.3323
# 3 22.5590 36.4319 101.6983 30.1548 -3.2842 4.7512
# 4 0.4537 30.7680 30.1548 58.0597 1.1332 -2.4530
# 5 -17.9423 -3.1099 -3.2842 1.1332 24.4187 -3.9185
# 6 26.9320 28.3323 4.7512 -2.4530 -3.9185 37.0376
#
#
#
# Elastic Compliance Matrix: (Units=1/GPa)
#
#
# Indices 1 2 3 4 5 6 
#
# 1 0.035635 0.002204 -0.007094 0.000788 0.021566 -0.024355
# 2 0.002204 0.010649 -0.002369 -0.004863 0.001338 -0.009626
# 3 -0.007094 -0.002369 0.013585 -0.005499 -0.002697 0.004578
# 4 0.000788 -0.004863 -0.005499 0.022892 -0.000998 0.005263
# 5 0.021566 0.001338 -0.002697 -0.000998 0.054949 -0.010612
# 6 -0.024355 -0.009626 0.004578 0.005263 -0.010612 0.050711
#
#
# Mechanical properties :
#
#
# Convention : Reuss Voigt Hill
#
# Bulk Modulus (GPa) = 22.04955 50.76842 36.40899
# Shear Modulus (GPa) = 22.92982 38.71064 30.82023
#
# Velocity S-wave (km/s) = 3.01510 3.91756 3.49558
# Velocity P-wave (km/s) = 4.56759 6.37109 5.54318
#
# Compressibility (1/GPa) = 0.04535239
#
# Stress axis : x y z
#
# Youngs Moduli (GPa) = 28.06209 93.90137 73.61244
#
# Poissons Ratio (x) = -0.20699 0.52219
# Poissons Ratio (y) = -0.06186 0.17439
# Poissons Ratio (z) = 0.19907 0.22246
#
# Static dielectric constant tensor:
#      x y z
#    x 2.169630 0.016280 -0.066720 
#    y 0.016280 2.066170 -0.001810 
#    z -0.066720 -0.001810 2.125640 
# 
# From -- ./inp_files/572683.got.cif
#   From: 2010.05.17/outbox.cif.g08.bks.cpg/sg2_287_cif.got.tgz:572683.got - 2010.06.03 11:33:40.
