data_PCOD9108076
_publ_section_title
;
Structure prediction by ZEFSAII (Michael W. Deem and Ramdas Pophale) SiO2 
 PCOD9108076
Probable space group: P -1
;
_chemical_formula_sum "Si O2"
_cell_formula_units_Z 16
_cell_length_a 13.062395
_cell_length_b 8.784375
_cell_length_c 10.782011
_cell_angle_alpha 64.538883
_cell_angle_beta 127.473392
_cell_angle_gamma 124.104668
_cell_volume 805.552499
_symmetry_space_group_name_H-M "P -1"
_symmetry_group_IT_number 2
_symmetry_cell_setting 'triclinic'
loop_
_space_group_symop_operation_xyz
x,y,z
-x,-y,-z
loop_
_atom_site_type_symbol
_atom_site_label
_atom_site_fract_x
_atom_site_fract_y
_atom_site_fract_z
Si Si1 0.393924 0.599046 0.027297
Si Si2 0.150023 0.686342 0.698744
Si Si3 0.507474 0.335490 0.643348
Si Si4 0.893645 0.325108 0.611978
Si Si5 0.343846 0.196689 0.026300
Si Si6 0.624295 0.089870 0.659954
Si Si7 0.933136 0.894947 0.283719
Si Si8 0.184875 0.100531 0.555229
O O1 0.420473 0.602722 0.191593
O O2 0.357267 0.392751 0.022034
O O3 0.267300 0.654450 0.875873
O O4 0.537102 0.743785 0.014564
O O5 0.172507 0.663978 0.575153
O O6 0.993609 0.527955 0.664943
O O7 0.160286 0.892113 0.649481
O O8 0.500000 0.500000 0.500000
O O9 0.586748 0.231708 0.664627
O O10 0.343995 0.198822 0.593886
O O11 0.771629 0.199944 0.657977
O O12 0.001795 0.231648 0.691772
O O13 0.372169 0.072133 0.193822
O O14 0.185674 0.085286 0.895110
O O15 0.500000 0.000000 0.500000
O O16 0.849960 0.808532 0.381157
O O17 0.071046 0.071363 0.372491
#
# Coordination Sequence:
#
# PCOD9108076 Si02
#       8
#     2   2   2   2   2   2   2   2
#     4  11  23  41  67  98 131 168 223 269 323 382
#     4  10  21  40  68  94 128 171 219 270 316 385
#     4  12  27  45  67  97 133 171 215 273 332 388
#     4  10  22  42  65  96 132 174 219 259 322 390
#     4  11  23  41  69  98 130 174 217 270 319 390
#     4  12  26  45  65  97 133 177 216 267 332 386
#     4  10  20  40  66  97 126 171 218 263 320 374
#     4  10  22  40  67  98 129 168 219 269 322 383
#
# _framework density 19.862145000000002
#
# number of rings (size 3 to 8) (size 9 to 14) (size 15 to 20)
#    0.000    1.250    2.500    3.750    1.750    6.500 
#    2.250    0.625    0.000    0.000    0.000    0.000 
#    0.000    0.000    0.000    0.000    0.000    0.000 
#
# Total GULP energy -89424.537705 kJ/mol
# GULP energy per Si atom -5589.033607 kJ/mol
# Density = 1.981694 g / cm^3
# Si number density = 19.862145 Si / 1000 Ang^3
#
#
#
# Elastic Constant Matrix: (Units=GPa)
#
#
# Indices 1 2 3 4 5 6 
#
# 1 122.2181 54.7112 47.6276 -8.0318 0.4390 4.9751
# 2 54.7112 68.8491 38.6619 -11.1843 6.0213 8.0921
# 3 47.6276 38.6619 178.1066 -0.6978 20.6418 2.7224
# 4 -8.0318 -11.1843 -0.6978 30.4867 0.8644 -3.3803
# 5 0.4390 6.0213 20.6418 0.8644 31.7744 -0.8838
# 6 4.9751 8.0921 2.7224 -3.3803 -0.8838 19.0670
#
#
#
# Elastic Compliance Matrix: (Units=1/GPa)
#
#
# Indices 1 2 3 4 5 6 
#
# 1 0.013252 -0.009968 -0.001730 -0.000162 0.002865 0.001124
# 2 -0.009968 0.025957 -0.002421 0.006150 -0.003574 -0.007145
# 3 -0.001730 -0.002421 0.007070 -0.001056 -0.004079 0.000093
# 4 -0.000162 0.006150 -0.001056 0.035450 -0.001336 0.003806
# 5 0.002865 -0.003574 -0.004079 -0.001336 0.034872 0.002731
# 6 0.001124 -0.007145 0.000093 0.003806 0.002731 0.055974
#
#
# Mechanical properties :
#
#
# Convention : Reuss Voigt Hill
#
# Bulk Modulus (GPa) = 55.43249 72.35282 63.89265
# Shear Modulus (GPa) = 24.17490 31.47718 27.82604
#
# Velocity S-wave (km/s) = 3.49253 3.98525 3.74700
# Velocity P-wave (km/s) = 6.65078 7.59492 7.13848
#
# Compressibility (1/GPa) = 0.01803996
#
# Stress axis : x y z
#
# Youngs Moduli (GPa) = 75.46156 38.52536 141.44425
#
# Poissons Ratio (x) = 0.38403 0.24466
# Poissons Ratio (y) = 0.75222 0.34249
# Poissons Ratio (z) = 0.13053 0.09328
#
# Static dielectric constant tensor:
#      x y z
#    x 1.703700 -0.011850 -0.001000 
#    y -0.011850 1.698120 0.018820 
#    z -0.001000 0.018820 1.685360 
# 
# From -- ./inp_files/243194.got.cif
#   From: 2010.05.17/outbox.cif.g08.bks.cpg/sg2_122_cif.got.tgz:243194.got - 2010.06.03 11:33:40.
