data_PCOD9108368
_publ_section_title
;
Structure prediction by ZEFSAII (Michael W. Deem and Ramdas Pophale) SiO2 
 PCOD9108368
Probable space group: P -1
;
_chemical_formula_sum "Si O2"
_cell_formula_units_Z 16
_cell_length_a 7.374284
_cell_length_b 16.738844
_cell_length_c 6.835177
_cell_angle_alpha 73.942979
_cell_angle_beta 55.190680
_cell_angle_gamma 66.078606
_cell_volume 632.086643
_symmetry_space_group_name_H-M "P -1"
_symmetry_group_IT_number 2
_symmetry_cell_setting 'triclinic'
loop_
_space_group_symop_operation_xyz
x,y,z
-x,-y,-z
loop_
_atom_site_type_symbol
_atom_site_label
_atom_site_fract_x
_atom_site_fract_y
_atom_site_fract_z
Si Si1 0.127032 0.274727 0.872920
Si Si2 0.592111 0.352378 0.057919
Si Si3 0.142523 0.095552 0.921224
Si Si4 0.094751 0.463255 0.677945
Si Si5 0.743049 0.040181 0.727477
Si Si6 0.388093 0.499848 0.799097
Si Si7 0.329290 0.928461 0.672347
Si Si8 0.460322 0.193346 0.069263
O O1 0.200051 0.357249 0.701230
O O2 0.240362 0.238734 0.036495
O O3 0.182473 0.185585 0.779723
O O4 0.853543 0.488451 0.935910
O O5 0.557329 0.407892 0.839463
O O6 0.494024 0.274219 0.116080
O O7 0.851798 0.310297 0.002158
O O8 0.508098 0.426316 0.228567
O O9 0.870158 0.117724 0.139672
O O10 0.269477 0.038949 0.070737
O O11 0.194573 0.025653 0.764278
O O12 0.278328 0.502834 0.647682
O O13 0.000000 0.500000 0.500000
O O14 0.602499 0.065448 0.595841
O O15 0.665547 0.131256 0.840052
O O16 0.000000 0.000000 0.500000
O O17 0.537469 0.879200 0.721532
#
# Coordination Sequence:
#
# PCOD9108368 Si02
#       8
#     2   2   2   2   2   2   2   2
#     4  11  22  38  64  94 122 162 213 256 311 375
#     4  10  20  40  68  89 123 169 208 260 312 379
#     4   9  18  36  61  85 123 162 202 256 311 369
#     4  10  21  42  67  96 132 162 207 266 316 373
#     4   9  20  37  62  91 122 166 208 255 317 373
#     4   9  20  42  67  89 126 169 207 252 332 377
#     4   9  18  37  62  84 124 166 199 255 316 364
#     4  11  21  39  63  90 128 165 206 265 311 362
#
# _framework density 25.312985000000001
#
# number of rings (size 3 to 8) (size 9 to 14) (size 15 to 20)
#    0.000    2.250    2.500    0.750    0.000    2.000 
#    2.250   14.375    0.000    0.000    0.000    0.000 
#    0.000    0.000    0.000    0.000    0.000    0.000 
#
# Total GULP energy -89270.609741 kJ/mol
# GULP energy per Si atom -5579.413109 kJ/mol
# Density = 2.525537 g / cm^3
# Si number density = 25.312985 Si / 1000 Ang^3
#
#
#
# Elastic Constant Matrix: (Units=GPa)
#
#
# Indices 1 2 3 4 5 6 
#
# 1 151.1062 50.3383 29.6169 -3.4623 28.1443 -16.7977
# 2 50.3383 153.6391 35.8657 -11.5036 18.2269 -11.7074
# 3 29.6169 35.8657 124.4290 -2.4386 45.4429 -6.2939
# 4 -3.4623 -11.5036 -2.4386 31.3621 -0.6300 6.1657
# 5 28.1443 18.2269 45.4429 -0.6300 49.9944 -2.9464
# 6 -16.7977 -11.7074 -6.2939 6.1657 -2.9464 57.0197
#
#
#
# Elastic Compliance Matrix: (Units=1/GPa)
#
#
# Indices 1 2 3 4 5 6 
#
# 1 0.008225 -0.002156 0.000174 -0.000308 -0.003898 0.001831
# 2 -0.002156 0.007828 -0.001636 0.002401 -0.000092 0.000527
# 3 0.000174 -0.001636 0.012426 0.000066 -0.010765 0.000524
# 4 -0.000308 0.002401 0.000066 0.033361 -0.000532 -0.003225
# 5 -0.003898 -0.000092 -0.010765 -0.000532 0.031970 -0.000646
# 6 0.001831 0.000527 0.000524 -0.003225 -0.000646 0.018559
#
#
# Mechanical properties :
#
#
# Convention : Reuss Voigt Hill
#
# Bulk Modulus (GPa) = 47.07596 73.42400 60.24998
# Shear Modulus (GPa) = 39.46795 48.56545 44.01670
#
# Velocity S-wave (km/s) = 3.95295 4.38493 4.17453
# Velocity P-wave (km/s) = 6.28270 7.39637 6.86217
#
# Compressibility (1/GPa) = 0.02124227
#
# Stress axis : x y z
#
# Youngs Moduli (GPa) = 121.58529 127.74721 80.47685
#
# Poissons Ratio (x) = 0.27548 -0.01402
# Poissons Ratio (y) = 0.26219 0.13165
# Poissons Ratio (z) = -0.02118 0.20898
#
# Static dielectric constant tensor:
#      x y z
#    x 2.186810 -0.020190 -0.099930 
#    y -0.020190 2.002200 0.077370 
#    z -0.099930 0.077370 2.105000 
# 
# From -- ./inp_files/196513.got.cif
#   From: 2010.05.17/outbox.cif.g08.bks.cpg/sg2_99_cif.got.tgz:196513.got - 2010.06.03 11:33:40.
