data_PCOD9108747
_publ_section_title
;
Structure prediction by ZEFSAII (Michael W. Deem and Ramdas Pophale) SiO2 
 PCOD9108747
Probable space group: P -1
;
_chemical_formula_sum "Si O2"
_cell_formula_units_Z 13
_cell_length_a 4.916569
_cell_length_b 12.302246
_cell_length_c 11.698818
_cell_angle_alpha 129.023577
_cell_angle_beta 115.467633
_cell_angle_gamma 82.872930
_cell_volume 485.334932
_symmetry_space_group_name_H-M "P -1"
_symmetry_group_IT_number 2
_symmetry_cell_setting 'triclinic'
loop_
_space_group_symop_operation_xyz
x,y,z
-x,-y,-z
loop_
_atom_site_type_symbol
_atom_site_label
_atom_site_fract_x
_atom_site_fract_y
_atom_site_fract_z
Si Si1 0.343529 0.497437 0.090920
Si Si2 0.036389 0.965623 0.351482
Si Si3 0.424007 0.969099 0.098219
Si Si4 0.530827 0.724207 0.624192
Si Si5 0.393477 0.779073 0.402619
Si Si6 0.317010 0.666834 0.812805
Si Si7 0.000000 0.500000 0.500000
O O1 0.487867 0.642633 0.277370
O O2 0.392327 0.367495 0.093878
O O3 0.500000 0.500000 0.000000
O O4 0.000000 0.500000 0.000000
O O5 0.158607 0.820474 0.294507
O O6 0.732579 0.962120 0.220724
O O7 0.322008 0.086862 0.443889
O O8 0.000000 0.000000 0.500000
O O9 0.304143 0.109467 0.208245
O O10 0.236145 0.805230 0.948474
O O11 0.500000 0.000000 0.000000
O O12 0.299383 0.744390 0.493709
O O13 0.355483 0.666272 0.675865
O O14 0.751886 0.623695 0.552889
O O15 0.058592 0.525119 0.667065
#
# Coordination Sequence:
#
# PCOD9108747 Si02
#       7
#     2   2   2   2   2   2   1
#     4  12  30  46  72 107 154 204 251 315 386 453
#     4  11  24  42  73 104 144 190 254 310 376 459
#     4  10  20  40  71 100 144 186 240 313 374 440
#     4   9  20  41  70 107 137 190 248 303 386 436
#     4  11  26  43  73 104 140 199 253 312 376 459
#     4   9  22  41  69 108 149 192 254 310 375 460
#     4   8  20  38  74 104 142 196 238 308 374 458
#
# _framework density 26.785627000000002
#
# number of rings (size 3 to 8) (size 9 to 14) (size 15 to 20)
#    0.923    0.923    1.538    0.923    8.615    0.615 
#    0.000    6.154    0.000    0.000    0.000    0.000 
#    0.000    0.000    0.000    0.000    0.000    0.000 
#
# Total GULP energy -72462.092239 kJ/mol
# GULP energy per Si atom -5574.007095 kJ/mol
# Density = 2.672466 g / cm^3
# Si number density = 26.785627 Si / 1000 Ang^3
#
#
#
# Elastic Constant Matrix: (Units=GPa)
#
#
# Indices 1 2 3 4 5 6 
#
# 1 96.9434 59.3510 28.3761 -16.7146 3.2792 -1.3920
# 2 59.3510 184.7387 90.8431 -4.5173 7.9428 -25.6150
# 3 28.3761 90.8431 168.4941 4.9426 -3.1976 -14.5258
# 4 -16.7146 -4.5173 4.9426 83.4003 -9.8830 -3.0080
# 5 3.2792 7.9428 -3.1976 -9.8830 36.2612 -15.3905
# 6 -1.3920 -25.6150 -14.5258 -3.0080 -15.3905 57.5707
#
#
#
# Elastic Compliance Matrix: (Units=1/GPa)
#
#
# Indices 1 2 3 4 5 6 
#
# 1 0.013449 -0.004431 -0.000092 0.002367 -0.000299 -0.001625
# 2 -0.004431 0.009216 -0.003997 -0.000153 -0.000844 0.002751
# 3 -0.000092 -0.003997 0.008218 -0.000482 0.001794 0.000747
# 4 0.002367 -0.000153 -0.000482 0.013019 0.004013 0.001621
# 5 -0.000299 -0.000844 0.001794 0.004013 0.032892 0.009073
# 6 -0.001625 0.002751 0.000747 0.001621 0.009073 0.021253
#
#
# Mechanical properties :
#
#
# Convention : Reuss Voigt Hill
#
# Bulk Modulus (GPa) = 72.22715 89.70187 80.96451
# Shear Modulus (GPa) = 41.77070 53.55351 47.66210
#
# Velocity S-wave (km/s) = 3.95326 4.47625 4.22286
# Velocity P-wave (km/s) = 6.91818 7.76384 7.35318
#
# Compressibility (1/GPa) = 0.01384521
#
# Stress axis : x y z
#
# Youngs Moduli (GPa) = 74.35269 108.50760 121.68526
#
# Poissons Ratio (x) = 0.48075 0.01114
# Poissons Ratio (y) = 0.32942 0.48637
# Poissons Ratio (z) = 0.00680 0.43370
#
# Static dielectric constant tensor:
#      x y z
#    x 3.091490 0.469430 0.281860 
#    y 0.469430 2.750260 0.330460 
#    z 0.281860 0.330460 2.536250 
# 
# From -- ./inp_files/90375.got.cif
#   From: 2010.05.17/outbox.cif.g08.bks.cpg/sg2_46_cif.got.tgz:90375.got - 2010.06.03 11:33:40.
