data_PCOD9108588
_publ_section_title
;
Structure prediction by ZEFSAII (Michael W. Deem and Ramdas Pophale) SiO2 
 PCOD9108588
Probable space group: P -1
;
_chemical_formula_sum "Si O2"
_cell_formula_units_Z 14
_cell_length_a 19.792354
_cell_length_b 16.393149
_cell_length_c 17.707690
_cell_angle_alpha 161.638780
_cell_angle_beta 20.929481
_cell_angle_gamma 158.674674
_cell_volume 592.409360
_symmetry_space_group_name_H-M "P -1"
_symmetry_group_IT_number 2
_symmetry_cell_setting 'triclinic'
loop_
_space_group_symop_operation_xyz
x,y,z
-x,-y,-z
loop_
_atom_site_type_symbol
_atom_site_label
_atom_site_fract_x
_atom_site_fract_y
_atom_site_fract_z
Si Si1 0.595999 0.290792 0.248262
Si Si2 0.705105 0.671825 0.842658
Si Si3 0.416956 0.563383 0.912288
Si Si4 0.233798 0.333420 0.474156
Si Si5 0.591748 0.170792 0.629292
Si Si6 0.202065 0.874148 0.229004
Si Si7 0.185771 0.925927 0.549972
O O1 0.500000 0.500000 0.500000
O O2 0.665631 0.361072 0.322935
O O3 0.409589 0.989879 0.162584
O O4 0.781536 0.334835 0.035717
O O5 0.532186 0.500296 0.810051
O O6 0.692968 0.487989 0.768621
O O7 0.939950 0.802816 0.684906
O O8 0.609014 0.891146 0.162818
O O9 0.617552 0.712748 0.781400
O O10 0.280626 0.271128 0.753454
O O11 0.292386 0.751086 0.235559
O O12 0.001220 0.256066 0.623716
O O13 0.206299 0.129634 0.395853
O O14 0.761550 0.127406 0.465449
O O15 0.500000 0.000000 0.500000
#
# Coordination Sequence:
#
# PCOD9108588 Si02
#       7
#     2   2   2   2   2   2   2
#     4   9  18  35  58  88 112 142 201 255 304 370
#     4  10  23  42  64  97 129 167 212 262 316 371
#     4  11  26  43  60  95 132 170 215 256 313 393
#     4  10  21  37  59  83 117 161 200 255 312 359
#     4  10  20  40  69  96 126 162 218 266 302 377
#     4   9  19  37  61  85 114 152 205 259 307 359
#     4  11  25  43  66  92 133 173 207 261 319 372
#
# _framework density 23.632307000000001
#
# number of rings (size 3 to 8) (size 9 to 14) (size 15 to 20)
#    0.000    2.000    1.429    0.857    4.000    1.714 
#    5.143    0.000    0.000    0.000    0.000    0.000 
#    0.000    0.000    0.000    0.000    0.000    0.000 
#
# Total GULP energy -78024.167133 kJ/mol
# GULP energy per Si atom -5573.154795 kJ/mol
# Density = 2.357852 g / cm^3
# Si number density = 23.632307 Si / 1000 Ang^3
#
#
#
# Elastic Constant Matrix: (Units=GPa)
#
#
# Indices 1 2 3 4 5 6 
#
# 1 47.2405 11.6792 11.0726 -11.1963 3.6148 2.4999
# 2 11.6792 84.4440 71.5076 -32.5636 3.6592 13.3234
# 3 11.0726 71.5076 137.9058 -20.1688 15.8013 21.6807
# 4 -11.1963 -32.5636 -20.1688 41.1429 1.7621 -2.9688
# 5 3.6148 3.6592 15.8013 1.7621 26.2095 -7.9756
# 6 2.4999 13.3234 21.6807 -2.9688 -7.9756 12.8881
#
#
#
# Elastic Compliance Matrix: (Units=1/GPa)
#
#
# Indices 1 2 3 4 5 6 
#
# 1 0.023578 -0.000083 0.001799 0.006788 -0.008121 -0.010975
# 2 -0.000083 0.029364 -0.011487 0.017075 -0.000575 -0.007438
# 3 0.001799 -0.011487 0.022582 0.000522 -0.025021 -0.041826
# 4 0.006788 0.017075 0.000522 0.039120 -0.011780 -0.018124
# 5 -0.008121 -0.000575 -0.025021 -0.011780 0.083621 0.093295
# 6 -0.010975 -0.007438 -0.041826 -0.018124 0.093295 0.211329
#
#
# Mechanical properties :
#
#
# Convention : Reuss Voigt Hill
#
# Bulk Modulus (GPa) = 17.86283 50.90101 34.38192
# Shear Modulus (GPa) = 11.16581 27.73683 19.45132
#
# Velocity S-wave (km/s) = 2.17602 3.42962 2.87205
# Velocity P-wave (km/s) = 3.72672 6.10480 5.05752
#
# Compressibility (1/GPa) = 0.05598218
#
# Stress axis : x y z
#
# Youngs Moduli (GPa) = 42.41190 34.05580 44.28329
#
# Poissons Ratio (x) = 0.00282 -0.07964
# Poissons Ratio (y) = 0.00351 0.50866
# Poissons Ratio (z) = -0.07628 0.39119
#
# Static dielectric constant tensor:
#      x y z
#    x 1.958310 0.024400 0.015490 
#    y 0.024400 2.078350 0.141080 
#    z 0.015490 0.141080 2.013840 
# 
# From -- ./inp_files/578419.got.cif
#   From: 2010.05.17/outbox.cif.g08.bks.cpg/sg2_290_cif.got.tgz:578419.got - 2010.06.03 11:33:40.
