data_PCOD9108072
_publ_section_title
;
Structure prediction by ZEFSAII (Michael W. Deem and Ramdas Pophale) SiO2 
 PCOD9108072
Probable space group: P -1
;
_chemical_formula_sum "Si O2"
_cell_formula_units_Z 12
_cell_length_a 12.295148
_cell_length_b 7.806716
_cell_length_c 13.962091
_cell_angle_alpha 106.094269
_cell_angle_beta 140.234925
_cell_angle_gamma 107.743534
_cell_volume 443.531134
_symmetry_space_group_name_H-M "P -1"
_symmetry_group_IT_number 2
_symmetry_cell_setting 'triclinic'
loop_
_space_group_symop_operation_xyz
x,y,z
-x,-y,-z
loop_
_atom_site_type_symbol
_atom_site_label
_atom_site_fract_x
_atom_site_fract_y
_atom_site_fract_z
Si Si1 0.301652 0.611721 0.329162
Si Si2 0.160514 0.017279 0.873964
Si Si3 0.045030 0.535860 0.647986
Si Si4 0.918315 0.811752 0.322154
Si Si5 0.656702 0.072042 0.465437
Si Si6 0.582129 0.667426 0.696703
O O1 0.114066 0.597981 0.260139
O O2 0.568739 0.803125 0.622648
O O3 0.229324 0.344591 0.210169
O O4 0.393701 0.789544 0.320671
O O5 0.203861 0.855377 0.840595
O O6 0.788814 0.707695 0.599314
O O7 0.257261 0.235115 0.886983
O O8 0.320013 0.193210 0.109682
O O9 0.000000 0.500000 0.500000
O O10 0.210251 0.497667 0.785548
O O11 0.701413 0.215426 0.418238
O O12 0.230267 0.020835 0.509042
O O13 0.000000 0.000000 0.500000
#
# Coordination Sequence:
#
# PCOD9108072 Si02
#       6
#     2   2   2   2   2   2
#     4  10  20  40  66  96 140 180 221 285 336 409
#     4  12  23  47  67 103 136 179 230 280 339 411
#     4  10  20  40  71  97 137 176 231 284 341 401
#     4  10  20  40  71  97 137 176 231 284 341 401
#     4   9  19  38  63 101 134 177 227 278 342 403
#     4  11  24  42  69  97 137 183 226 273 346 410
#
# _framework density 27.055602
#
# number of rings (size 3 to 8) (size 9 to 14) (size 15 to 20)
#    1.000    0.667    5.000    0.000    0.000    2.667 
#    6.000    3.333    0.000    0.000    0.000    0.000 
#    0.000    0.000    0.000    0.000    0.000    0.000 
#
# Total GULP energy -66901.995130 kJ/mol
# GULP energy per Si atom -5575.166261 kJ/mol
# Density = 2.699402 g / cm^3
# Si number density = 27.055602 Si / 1000 Ang^3
#
#
#
# Elastic Constant Matrix: (Units=GPa)
#
#
# Indices 1 2 3 4 5 6 
#
# 1 159.5057 49.8159 58.3805 -9.1205 -63.0336 -6.1239
# 2 49.8159 247.4627 65.4271 -32.5027 -45.2212 2.5995
# 3 58.3805 65.4271 157.3176 -24.1096 -50.8993 -0.8138
# 4 -9.1205 -32.5027 -24.1096 33.9506 4.3851 -19.9288
# 5 -63.0336 -45.2212 -50.8993 4.3851 69.3006 7.8394
# 6 -6.1239 2.5995 -0.8138 -19.9288 7.8394 56.4801
#
#
#
# Elastic Compliance Matrix: (Units=1/GPa)
#
#
# Indices 1 2 3 4 5 6 
#
# 1 0.009944 -0.000143 -0.000787 0.001090 0.008270 0.000310
# 2 -0.000143 0.005319 -0.000592 0.004991 0.002460 0.001151
# 3 -0.000787 -0.000592 0.009601 0.006247 0.005380 0.001538
# 4 0.001090 0.004991 0.006247 0.048077 0.003940 0.016396
# 5 0.008270 0.002460 0.005380 0.003940 0.027436 -0.001557
# 6 0.000310 0.001151 0.001538 0.016396 -0.001557 0.023709
#
#
# Mechanical properties :
#
#
# Convention : Reuss Voigt Hill
#
# Bulk Modulus (GPa) = 45.82685 101.28144 73.55414
# Shear Modulus (GPa) = 37.20108 57.99043 47.59575
#
# Velocity S-wave (km/s) = 3.71210 4.63469 4.19881
# Velocity P-wave (km/s) = 5.94540 8.13365 7.12404
#
# Compressibility (1/GPa) = 0.02182127
#
# Stress axis : x y z
#
# Youngs Moduli (GPa) = 100.56086 187.98976 104.15522
#
# Poissons Ratio (x) = 0.02682 0.08192
# Poissons Ratio (y) = 0.01435 0.06171
# Poissons Ratio (z) = 0.07909 0.11138
#
# Static dielectric constant tensor:
#      x y z
#    x 2.325490 -0.055010 0.183180 
#    y -0.055010 2.187100 0.079500 
#    z 0.183180 0.079500 2.174250 
# 
# From -- ./inp_files/418303.got.cif
#   From: 2010.05.17/outbox.cif.g08.bks.cpg/sg2_210_cif.got.tgz:418303.got - 2010.06.03 11:33:40.
