data_PCOD9108719
_publ_section_title
;
Structure prediction by ZEFSAII (Michael W. Deem and Ramdas Pophale) SiO2 
 PCOD9108719
Probable space group: P -1
;
_chemical_formula_sum "Si O2"
_cell_formula_units_Z 14
_cell_length_a 8.694652
_cell_length_b 21.747894
_cell_length_c 5.588758
_cell_angle_alpha 91.282691
_cell_angle_beta 72.654775
_cell_angle_gamma 37.738704
_cell_volume 553.860002
_symmetry_space_group_name_H-M "P -1"
_symmetry_group_IT_number 2
_symmetry_cell_setting 'triclinic'
loop_
_space_group_symop_operation_xyz
x,y,z
-x,-y,-z
loop_
_atom_site_type_symbol
_atom_site_label
_atom_site_fract_x
_atom_site_fract_y
_atom_site_fract_z
Si Si1 0.779367 0.096395 0.808872
Si Si2 0.276180 0.659865 0.654531
Si Si3 0.894022 0.506288 0.798566
Si Si4 0.321345 0.741489 0.274387
Si Si5 0.196181 0.146483 0.764386
Si Si6 0.250934 0.564407 0.310506
Si Si7 0.684380 0.021251 0.174062
O O1 0.611010 0.208288 0.783984
O O2 0.609026 0.093294 0.004910
O O3 0.000000 0.000000 0.500000
O O4 0.988126 0.061954 0.909061
O O5 0.339882 0.707366 0.527311
O O6 0.153455 0.656753 0.495007
O O7 0.582043 0.531031 0.577497
O O8 0.031509 0.739404 0.977206
O O9 0.965325 0.411437 0.727540
O O10 0.000000 0.500000 0.500000
O O11 0.546343 0.630860 0.997511
O O12 0.000000 0.500000 0.000000
O O13 0.994798 0.829453 0.344164
O O14 0.456822 0.098486 0.506822
O O15 0.304172 0.055972 0.876280
O O16 0.500000 0.500000 0.000000
#
# Coordination Sequence:
#
# PCOD9108719 Si02
#       7
#     2   2   2   2   2   2   2
#     4  10  21  42  64  93 143 176 226 278 367 424
#     4  11  21  39  72  97 134 181 247 292 363 417
#     4  12  27  49  70 105 148 191 244 302 375 437
#     4  11  23  43  66  97 132 190 232 296 356 434
#     4  10  20  40  70  97 137 175 244 287 357 420
#     4  11  23  44  70  96 135 185 240 303 354 427
#     4   9  21  40  64 101 134 181 223 297 344 433
#
# _framework density 25.277145999999998
#
# number of rings (size 3 to 8) (size 9 to 14) (size 15 to 20)
#    0.000    1.429    2.857    1.714    2.000    1.143 
#    7.714    4.286    0.000    0.000    0.000    0.000 
#    0.000    0.000    0.000    0.000    0.000    0.000 
#
# Total GULP energy -78282.335716 kJ/mol
# GULP energy per Si atom -5591.595408 kJ/mol
# Density = 2.521961 g / cm^3
# Si number density = 25.277146 Si / 1000 Ang^3
#
#
#
# Elastic Constant Matrix: (Units=GPa)
#
#
# Indices 1 2 3 4 5 6 
#
# 1 94.1639 30.6116 31.5451 -17.6360 -1.7709 16.8163
# 2 30.6116 104.6220 17.2536 -22.4388 -12.1509 25.5443
# 3 31.5451 17.2536 118.0294 -4.9513 -16.8893 16.9491
# 4 -17.6360 -22.4388 -4.9513 45.9967 9.3420 -5.9201
# 5 -1.7709 -12.1509 -16.8893 9.3420 45.6320 -5.8732
# 6 16.8163 25.5443 16.9491 -5.9201 -5.8732 50.7676
#
#
#
# Elastic Compliance Matrix: (Units=1/GPa)
#
#
# Indices 1 2 3 4 5 6 
#
# 1 0.013490 -0.002366 -0.003135 0.003889 -0.002327 -0.002047
# 2 -0.002366 0.012548 -0.000086 0.004234 0.001732 -0.004807
# 3 -0.003135 -0.000086 0.010072 -0.001140 0.003559 -0.002002
# 4 0.003889 0.004234 -0.001140 0.026029 -0.004540 -0.000528
# 5 -0.002327 0.001732 0.003559 -0.004540 0.024665 0.001035
# 6 -0.002047 -0.004807 -0.002002 -0.000528 0.001035 0.023521
#
#
# Mechanical properties :
#
#
# Convention : Reuss Voigt Hill
#
# Bulk Modulus (GPa) = 40.10594 52.84840 46.47717
# Shear Modulus (GPa) = 38.51767 44.30628 41.41197
#
# Velocity S-wave (km/s) = 3.90784 4.19121 4.05200
# Velocity P-wave (km/s) = 6.02184 6.66143 6.34969
#
# Compressibility (1/GPa) = 0.02493396
#
# Stress axis : x y z
#
# Youngs Moduli (GPa) = 74.13167 79.69599 99.28597
#
# Poissons Ratio (x) = 0.18858 0.31129
# Poissons Ratio (y) = 0.17541 0.00855
# Poissons Ratio (z) = 0.23242 0.00686
#
# Static dielectric constant tensor:
#      x y z
#    x 1.801910 -0.398970 0.058370 
#    y -0.398970 1.716450 -0.007890 
#    z 0.058370 -0.007890 1.933390 
# 
# From -- ./inp_files/53026.got.cif
#   From: 2010.05.17/outbox.cif.g08.bks.cpg/sg2_27_cif.got.tgz:53026.got - 2010.06.03 11:33:40.
