data_PCOD9108554
_publ_section_title
;
Structure prediction by ZEFSAII (Michael W. Deem and Ramdas Pophale) SiO2 
 PCOD9108554
Probable space group: P -1
;
_chemical_formula_sum "Si O2"
_cell_formula_units_Z 16
_cell_length_a 22.231648
_cell_length_b 9.257868
_cell_length_c 9.013054
_cell_angle_alpha 124.079139
_cell_angle_beta 149.415237
_cell_angle_gamma 49.415767
_cell_volume 716.822556
_symmetry_space_group_name_H-M "P -1"
_symmetry_group_IT_number 2
_symmetry_cell_setting 'triclinic'
loop_
_space_group_symop_operation_xyz
x,y,z
-x,-y,-z
loop_
_atom_site_type_symbol
_atom_site_label
_atom_site_fract_x
_atom_site_fract_y
_atom_site_fract_z
Si Si1 0.794372 0.133959 0.230336
Si Si2 0.393625 0.146912 0.752130
Si Si3 0.203946 0.502975 0.718542
Si Si4 0.020413 0.626908 0.921455
Si Si5 0.852983 0.919191 0.936699
Si Si6 0.016245 0.126673 0.292359
Si Si7 0.182841 0.344342 0.884956
Si Si8 0.576196 0.057311 0.818402
O O1 0.815230 0.300390 0.285144
O O2 0.645599 0.187745 0.979383
O O3 0.871300 0.061163 0.505114
O O4 0.838083 0.960099 0.103992
O O5 0.328496 0.341154 0.815846
O O6 0.277652 0.085607 0.414193
O O7 0.477060 0.155214 0.793616
O O8 0.500000 0.000000 0.000000
O O9 0.089006 0.445177 0.393567
O O10 0.206962 0.479220 0.889483
O O11 0.972182 0.721263 0.033570
O O12 0.937068 0.713868 0.446175
O O13 0.997080 0.808543 0.869072
O O14 0.891627 0.086973 0.051062
O O15 0.849141 0.541686 0.960028
O O16 0.305362 0.144630 0.011031
O O17 0.500000 0.000000 0.500000
#
# Coordination Sequence:
#
# PCOD9108554 Si02
#       8
#     2   2   2   2   2   2   2   2
#     4  11  23  40  66  95 132 170 203 263 327 373
#     4  11  23  45  69  91 124 172 220 259 313 376
#     4  10  21  40  67  96 125 167 214 261 311 388
#     4  10  21  39  64  96 128 166 215 257 313 381
#     4  11  22  38  65  96 128 164 211 263 308 388
#     4  10  21  39  63  94 129 165 205 262 324 369
#     4  10  20  40  69  90 127 172 208 261 317 380
#     4  11  23  45  66  91 128 170 215 261 321 372
#
# _framework density 22.320727999999999
#
# number of rings (size 3 to 8) (size 9 to 14) (size 15 to 20)
#    0.000    1.500    2.500    3.750    1.750    1.500 
#    2.250    7.500    0.000    0.000    0.000    0.000 
#    0.000    0.000    0.000    0.000    0.000    0.000 
#
# Total GULP energy -89217.145655 kJ/mol
# GULP energy per Si atom -5576.071603 kJ/mol
# Density = 2.226992 g / cm^3
# Si number density = 22.320728 Si / 1000 Ang^3
#
#
#
# Elastic Constant Matrix: (Units=GPa)
#
#
# Indices 1 2 3 4 5 6 
#
# 1 145.6250 28.6805 19.0170 6.5020 17.9665 -12.8500
# 2 28.6805 93.2084 4.2870 -3.6554 14.2793 -1.0885
# 3 19.0170 4.2870 62.2662 3.7422 10.1367 -1.5239
# 4 6.5020 -3.6554 3.7422 23.9923 7.4385 8.0373
# 5 17.9665 14.2793 10.1367 7.4385 31.1113 5.3765
# 6 -12.8500 -1.0885 -1.5239 8.0373 5.3765 58.0106
#
#
#
# Elastic Compliance Matrix: (Units=1/GPa)
#
#
# Indices 1 2 3 4 5 6 
#
# 1 0.008164 -0.002005 -0.001661 -0.002051 -0.003161 0.002304
# 2 -0.002005 0.012345 0.000416 0.004183 -0.005599 -0.000262
# 3 -0.001661 0.000416 0.017391 -0.000939 -0.004790 0.000671
# 4 -0.002051 0.004183 -0.000939 0.048461 -0.010963 -0.006099
# 5 -0.003161 -0.005599 -0.004790 -0.010963 0.041279 -0.003238
# 6 0.002304 -0.000262 0.000671 -0.006099 -0.003238 0.018906
#
#
# Mechanical properties :
#
#
# Convention : Reuss Voigt Hill
#
# Bulk Modulus (GPa) = 31.84690 45.00763 38.42726
# Shear Modulus (GPa) = 30.57862 39.23053 34.90458
#
# Velocity S-wave (km/s) = 3.70532 4.19690 3.95875
# Velocity P-wave (km/s) = 5.71005 6.61008 6.17648
#
# Compressibility (1/GPa) = 0.03140023
#
# Stress axis : x y z
#
# Youngs Moduli (GPa) = 122.49552 81.00389 57.50005
#
# Poissons Ratio (x) = 0.16240 0.09551
# Poissons Ratio (y) = 0.24558 -0.02392
# Poissons Ratio (z) = 0.20347 -0.03370
#
# Static dielectric constant tensor:
#      x y z
#    x 1.986030 -0.084170 -0.036500 
#    y -0.084170 1.977870 -0.021560 
#    z -0.036500 -0.021560 1.854230 
# 
# From -- ./inp_files/352354.got.cif
#   From: 2010.05.17/outbox.cif.g08.bks.cpg/sg2_177_cif.got.tgz:352354.got - 2010.06.03 11:33:40.
