data_PCOD9108894
_publ_section_title
;
Structure prediction by ZEFSAII (Michael W. Deem and Ramdas Pophale) SiO2 
 PCOD9108894
Probable space group: P -1
;
_chemical_formula_sum "Si O2"
_cell_formula_units_Z 12
_cell_length_a 8.470233
_cell_length_b 15.745019
_cell_length_c 11.493782
_cell_angle_alpha 26.722609
_cell_angle_beta 42.848941
_cell_angle_gamma 35.076159
_cell_volume 396.092049
_symmetry_space_group_name_H-M "P -1"
_symmetry_group_IT_number 2
_symmetry_cell_setting 'triclinic'
loop_
_space_group_symop_operation_xyz
x,y,z
-x,-y,-z
loop_
_atom_site_type_symbol
_atom_site_label
_atom_site_fract_x
_atom_site_fract_y
_atom_site_fract_z
Si Si1 0.851403 0.703273 0.681484
Si Si2 0.822589 0.174575 0.784341
Si Si3 0.678929 0.759282 0.937372
Si Si4 0.000000 0.000000 0.500000
Si Si5 0.841518 0.335381 0.982798
Si Si6 0.500000 0.000000 0.000000
Si Si7 0.301352 0.449189 0.433949
O O1 0.611811 0.810187 0.775711
O O2 0.806778 0.559570 0.785894
O O3 0.964054 0.852653 0.392055
O O4 0.140021 0.505083 0.825014
O O5 0.708873 0.412839 0.615643
O O6 0.556571 0.150581 0.943738
O O7 0.000000 0.000000 0.000000
O O8 0.879609 0.843756 0.740395
O O9 0.834624 0.825513 0.028509
O O10 0.797262 0.179013 0.283795
O O11 0.663459 0.429930 0.844914
O O12 0.480794 0.807891 0.337904
O O13 0.000000 0.500000 0.500000
#
# Coordination Sequence:
#
# PCOD9108894 Si02
#       7
#     2   2   2   1   2   1   2
#     4  10  22  49  70 107 152 197 261 315 393 460
#     4  12  26  46  74 113 157 202 252 321 402 466
#     4  10  25  47  75 106 151 203 260 324 380 472
#     4  10  24  48  72 106 148 204 256 318 392 448
#     4  10  22  45  71 109 151 197 261 313 386 469
#     4  10  20  40  76 104 148 200 254 314 374 450
#     4  10  22  44  71 112 150 197 257 311 379 472
#
# _framework density 30.295988999999999
#
# number of rings (size 3 to 8) (size 9 to 14) (size 15 to 20)
#    0.000    1.667    3.333    0.500    2.333   10.000 
#    3.000    1.667    0.000    0.000    0.000    0.000 
#    0.000    0.000    0.000    0.000    0.000    0.000 
#
# Total GULP energy -66822.776007 kJ/mol
# GULP energy per Si atom -5568.564667 kJ/mol
# Density = 3.022703 g / cm^3
# Si number density = 30.295989 Si / 1000 Ang^3
#
#
#
# Elastic Constant Matrix: (Units=GPa)
#
#
# Indices 1 2 3 4 5 6 
#
# 1 112.8583 46.8941 66.4270 -3.3613 -11.1688 -14.1062
# 2 46.8941 144.9020 38.1713 -1.3485 10.0721 0.0710
# 3 66.4270 38.1713 247.6958 28.5549 18.9437 -15.8503
# 4 -3.3613 -1.3485 28.5549 64.3315 8.5688 7.7613
# 5 -11.1688 10.0721 18.9437 8.5688 63.7229 -3.1366
# 6 -14.1062 0.0710 -15.8503 7.7613 -3.1366 55.2323
#
#
#
# Elastic Compliance Matrix: (Units=1/GPa)
#
#
# Indices 1 2 3 4 5 6 
#
# 1 0.012943 -0.003599 -0.003188 0.001224 0.003740 0.002436
# 2 -0.003599 0.008288 -0.000298 0.000527 -0.001982 -0.001202
# 3 -0.003188 -0.000298 0.005419 -0.002465 -0.001742 0.000989
# 4 0.001224 0.000527 -0.002465 0.017279 -0.001603 -0.002915
# 5 0.003740 -0.001982 -0.001742 -0.001603 0.017478 0.001676
# 6 0.002436 -0.001202 0.000989 -0.002915 0.001676 0.019518
#
#
# Mechanical properties :
#
#
# Convention : Reuss Voigt Hill
#
# Bulk Modulus (GPa) = 80.12624 89.82677 84.97651
# Shear Modulus (GPa) = 50.37584 60.25493 55.31538
#
# Velocity S-wave (km/s) = 4.08215 4.46452 4.27761
# Velocity P-wave (km/s) = 6.98025 7.50267 7.24617
#
# Compressibility (1/GPa) = 0.01248031
#
# Stress axis : x y z
#
# Youngs Moduli (GPa) = 77.25912 120.66051 184.54315
#
# Poissons Ratio (x) = 0.43424 0.58829
# Poissons Ratio (y) = 0.27805 0.05502
# Poissons Ratio (z) = 0.24629 0.03597
#
# Static dielectric constant tensor:
#      x y z
#    x 2.322010 -0.102600 0.065020 
#    y -0.102600 2.676900 0.377430 
#    z 0.065020 0.377430 2.498130 
# 
# From -- ./inp_files/507405.got.cif
#   From: 2010.05.17/outbox.cif.g08.bks.cpg/sg2_254_cif.got.tgz:507405.got - 2010.06.03 11:33:40.
