data_PCOD9108522
_publ_section_title
;
Structure prediction by ZEFSAII (Michael W. Deem and Ramdas Pophale) SiO2 
 PCOD9108522
Probable space group: P -1
;
_chemical_formula_sum "Si O2"
_cell_formula_units_Z 16
_cell_length_a 6.989134
_cell_length_b 8.733706
_cell_length_c 10.295181
_cell_angle_alpha 96.650273
_cell_angle_beta 83.224211
_cell_angle_gamma 100.180578
_cell_volume 611.308619
_symmetry_space_group_name_H-M "P -1"
_symmetry_group_IT_number 2
_symmetry_cell_setting 'triclinic'
loop_
_space_group_symop_operation_xyz
x,y,z
-x,-y,-z
loop_
_atom_site_type_symbol
_atom_site_label
_atom_site_fract_x
_atom_site_fract_y
_atom_site_fract_z
Si Si1 0.546431 0.327655 0.469558
Si Si2 0.379245 0.608382 0.827177
Si Si3 0.984827 0.674516 0.854677
Si Si4 0.301885 0.594723 0.263319
Si Si5 0.180305 0.889810 0.197650
Si Si6 0.216926 0.995556 0.751102
Si Si7 0.765449 0.965088 0.523284
Si Si8 0.669755 0.846687 0.996183
O O1 0.500000 0.500000 0.500000
O O2 0.613734 0.325771 0.314770
O O3 0.682556 0.327859 0.586725
O O4 0.344024 0.211115 0.492618
O O5 0.494202 0.460573 0.800230
O O6 0.496444 0.741281 0.922831
O O7 0.153401 0.583488 0.881601
O O8 0.852942 0.565626 0.750230
O O9 0.837291 0.737031 0.972009
O O10 0.229586 0.716960 0.183664
O O11 0.095889 0.835567 0.799609
O O12 0.949609 0.893833 0.235858
O O13 0.278502 0.975884 0.326376
O O14 0.249619 0.998302 0.079666
O O15 0.300310 0.964893 0.599796
O O16 0.363991 0.085208 0.853393
O O17 0.000000 0.000000 0.500000
#
# Coordination Sequence:
#
# PCOD9108522 Si02
#       8
#     2   2   2   2   2   2   2   2
#     4  10  22  41  67 103 148 188 227 291 362 422
#     4  10  22  42  69 102 139 187 239 289 357 430
#     4  10  22  42  68 104 138 188 239 288 357 429
#     4  10  24  40  67 102 147 184 229 299 363 414
#     4  10  20  40  69 101 138 177 235 298 348 411
#     4  10  23  42  73 102 138 187 243 288 358 423
#     4  10  22  39  69 109 140 179 239 300 344 417
#     4  10  21  46  73  98 137 191 237 294 352 424
#
# _framework density 26.173356999999999
#
# number of rings (size 3 to 8) (size 9 to 14) (size 15 to 20)
#    0.000    2.000    1.250    1.500    7.000    6.500 
#    0.000    8.125    0.000   12.000    0.000    0.000 
#    0.000    0.000    0.000    0.000    0.000    0.000 
#
# Total GULP energy -89586.052901 kJ/mol
# GULP energy per Si atom -5599.128306 kJ/mol
# Density = 2.611379 g / cm^3
# Si number density = 26.173357 Si / 1000 Ang^3
#
#
#
# Elastic Constant Matrix: (Units=GPa)
#
#
# Indices 1 2 3 4 5 6 
#
# 1 160.4508 33.6371 26.3833 6.0157 0.1968 -9.0928
# 2 33.6371 125.6571 45.5504 26.7065 1.4295 4.1567
# 3 26.3833 45.5504 181.5958 44.5611 -8.0321 10.7123
# 4 6.0157 26.7065 44.5611 38.7781 0.8540 15.3174
# 5 0.1968 1.4295 -8.0321 0.8540 30.6107 -5.7909
# 6 -9.0928 4.1567 10.7123 15.3174 -5.7909 43.2130
#
#
#
# Elastic Compliance Matrix: (Units=1/GPa)
#
#
# Indices 1 2 3 4 5 6 
#
# 1 0.006787 -0.001666 -0.000723 0.000250 0.000159 0.001700
# 2 -0.001666 0.009961 -0.000857 -0.006000 -0.000325 0.000987
# 3 -0.000723 -0.000857 0.008149 -0.009352 0.002745 0.001593
# 4 0.000250 -0.006000 -0.009352 0.046426 -0.006183 -0.014337
# 5 0.000159 -0.000325 0.002745 -0.006183 0.034754 0.006233
# 6 0.001700 0.000987 0.001593 -0.014337 0.006233 0.028927
#
#
# Mechanical properties :
#
#
# Convention : Reuss Voigt Hill
#
# Bulk Modulus (GPa) = 54.33091 75.42723 64.87907
# Shear Modulus (GPa) = 33.86819 46.66256 40.26537
#
# Velocity S-wave (km/s) = 3.60112 4.22693 3.92651
# Velocity P-wave (km/s) = 6.17202 7.25972 6.73786
#
# Compressibility (1/GPa) = 0.01840573
#
# Stress axis : x y z
#
# Youngs Moduli (GPa) = 147.33264 100.39208 122.71655
#
# Poissons Ratio (x) = 0.16726 0.08870
# Poissons Ratio (y) = 0.24547 0.10515
# Poissons Ratio (z) = 0.10649 0.08602
#
# Static dielectric constant tensor:
#      x y z
#    x 2.063330 -0.034270 -0.022290 
#    y -0.034270 1.985210 -0.028900 
#    z -0.022290 -0.028900 2.064390 
# 
# From -- ./inp_files/309844.got.cif
#   From: 2010.05.17/outbox.cif.g08.bks.cpg/sg2_155_cif.got.tgz:309844.got - 2010.06.03 11:33:40.
