data_PCOD9108027
_publ_section_title
;
Structure prediction by ZEFSAII (Michael W. Deem and Ramdas Pophale) SiO2 
 PCOD9108027
Probable space group: P -1
;
_chemical_formula_sum "Si O2"
_cell_formula_units_Z 16
_cell_length_a 9.748482
_cell_length_b 17.224461
_cell_length_c 5.898481
_cell_angle_alpha 126.011225
_cell_angle_beta 111.221316
_cell_angle_gamma 47.533572
_cell_volume 589.976741
_symmetry_space_group_name_H-M "P -1"
_symmetry_group_IT_number 2
_symmetry_cell_setting 'triclinic'
loop_
_space_group_symop_operation_xyz
x,y,z
-x,-y,-z
loop_
_atom_site_type_symbol
_atom_site_label
_atom_site_fract_x
_atom_site_fract_y
_atom_site_fract_z
Si Si1 0.828071 0.199992 0.580007
Si Si2 0.815659 0.652073 0.251472
Si Si3 0.208950 0.599811 0.421992
Si Si4 0.565580 0.400077 0.056297
Si Si5 0.290132 0.927388 0.985568
Si Si6 0.544177 0.076217 0.510981
Si Si7 0.728972 0.698546 0.759338
Si Si8 0.163226 0.127851 0.968193
O O1 0.807774 0.301327 0.581458
O O2 0.827605 0.106027 0.267978
O O3 0.001518 0.147033 0.755353
O O4 0.645177 0.276797 0.764091
O O5 0.646949 0.794340 0.415820
O O6 0.782458 0.614978 0.419936
O O7 0.017110 0.620518 0.331552
O O8 0.797452 0.633635 0.936923
O O9 0.385791 0.464228 0.218223
O O10 0.268238 0.618849 0.732186
O O11 0.500000 0.500000 0.000000
O O12 0.507708 0.811823 0.849380
O O13 0.178695 0.073394 0.129960
O O14 0.313913 0.915518 0.248556
O O15 0.500000 0.000000 0.500000
O O16 0.645570 0.996763 0.217893
O O17 0.826599 0.763551 0.887094
#
# Coordination Sequence:
#
# PCOD9108027 Si02
#       8
#     2   2   2   2   2   2   2   2
#     4  11  23  39  58  95 130 163 211 267 330 378
#     4  11  21  36  65  95 120 165 220 270 306 379
#     4  10  20  40  66  95 118 162 210 268 326 391
#     4   9  21  40  65  91 120 157 208 270 328 392
#     4  11  24  36  57  89 134 176 212 263 317 371
#     4  11  20  36  54  83 122 169 220 258 305 365
#     4  11  22  39  63  91 129 175 227 260 313 367
#     4  12  21  36  59  88 126 179 220 258 301 377
#
# _framework density 27.119713000000001
#
# number of rings (size 3 to 8) (size 9 to 14) (size 15 to 20)
#    0.000    1.250    5.000    2.250    1.750    2.500 
#    0.000    0.000    0.000    3.750    0.000    0.000 
#    0.000    0.000    0.000    0.000    0.000    0.000 
#
# Total GULP energy -89494.917474 kJ/mol
# GULP energy per Si atom -5593.432342 kJ/mol
# Density = 2.705799 g / cm^3
# Si number density = 27.119713 Si / 1000 Ang^3
#
#
#
# Elastic Constant Matrix: (Units=GPa)
#
#
# Indices 1 2 3 4 5 6 
#
# 1 83.2060 46.7607 26.3535 -13.1716 17.0717 -4.5886
# 2 46.7607 95.0862 70.9858 -24.6704 20.8796 -14.5662
# 3 26.3535 70.9858 119.4513 -30.1323 -6.8967 10.6771
# 4 -13.1716 -24.6704 -30.1323 59.9555 -13.1085 4.2524
# 5 17.0717 20.8796 -6.8967 -13.1085 39.6399 -1.4307
# 6 -4.5886 -14.5662 10.6771 4.2524 -1.4307 39.4897
#
#
#
# Elastic Compliance Matrix: (Units=1/GPa)
#
#
# Indices 1 2 3 4 5 6 
#
# 1 0.017286 -0.010612 0.002883 0.000821 -0.001184 -0.002816
# 2 -0.010612 0.045942 -0.030042 -0.005867 -0.025947 0.023528
# 3 0.002883 -0.030042 0.031248 0.010328 0.022731 -0.019484
# 4 0.000821 -0.005867 0.010328 0.022702 0.011793 -0.006878
# 5 -0.001184 -0.025947 0.022731 0.011793 0.046702 -0.015432
# 6 -0.002816 0.023528 -0.019484 -0.006878 -0.015432 0.039124
#
#
# Mechanical properties :
#
#
# Convention : Reuss Voigt Hill
#
# Bulk Modulus (GPa) = 52.81192 65.10483 58.95838
# Shear Modulus (GPa) = 17.55268 38.05990 27.80629
#
# Velocity S-wave (km/s) = 2.54683 3.75027 3.20553
# Velocity P-wave (km/s) = 5.30701 6.54303 5.95716
#
# Compressibility (1/GPa) = 0.01893512
#
# Stress axis : x y z
#
# Youngs Moduli (GPa) = 57.84889 21.76641 32.00239
#
# Poissons Ratio (x) = 0.23097 -0.09226
# Poissons Ratio (y) = 0.61387 0.96141
# Poissons Ratio (z) = -0.16677 0.65390
#
# Static dielectric constant tensor:
#      x y z
#    x -0.126420 -1.127550 0.850320 
#    y -1.127550 1.470350 0.455090 
#    z 0.850320 0.455090 1.878160 
# 
# From -- ./inp_files/82458.got.cif
#   From: 2010.05.17/outbox.cif.g08.bks.cpg/sg2_42_cif.got.tgz:82458.got - 2010.06.03 11:33:40.
