data_PCOD9108337
_publ_section_title
;
Structure prediction by ZEFSAII (Michael W. Deem and Ramdas Pophale) SiO2 
 PCOD9108337
Probable space group: P -1
;
_chemical_formula_sum "Si O2"
_cell_formula_units_Z 15
_cell_length_a 9.085270
_cell_length_b 15.915874
_cell_length_c 5.159198
_cell_angle_alpha 106.046370
_cell_angle_beta 76.929610
_cell_angle_gamma 119.496295
_cell_volume 620.401129
_symmetry_space_group_name_H-M "P -1"
_symmetry_group_IT_number 2
_symmetry_cell_setting 'triclinic'
loop_
_space_group_symop_operation_xyz
x,y,z
-x,-y,-z
loop_
_atom_site_type_symbol
_atom_site_label
_atom_site_fract_x
_atom_site_fract_y
_atom_site_fract_z
Si Si1 0.541704 0.435979 0.142371
Si Si2 0.159145 0.565841 0.682539
Si Si3 0.427838 0.727767 0.336810
Si Si4 0.000000 0.000000 0.000000
Si Si5 0.004491 0.159503 0.976604
Si Si6 0.203820 0.315365 0.411581
Si Si7 0.226153 0.132144 0.486179
Si Si8 0.885048 0.280707 0.814532
O O1 0.734477 0.474314 0.209879
O O2 0.610142 0.595773 0.613986
O O3 0.500000 0.500000 0.000000
O O4 0.511412 0.332128 0.934339
O O5 0.315018 0.644916 0.518488
O O6 0.000000 0.500000 0.500000
O O7 0.094689 0.629302 0.935300
O O8 0.580553 0.824908 0.471711
O O9 0.293860 0.754322 0.277186
O O10 0.836849 0.937235 0.792824
O O11 0.076170 0.918190 0.830120
O O12 0.101209 0.097425 0.763328
O O13 0.888182 0.188498 0.877115
O O14 0.143176 0.263808 0.114176
O O15 0.216164 0.232655 0.510786
O O16 0.041746 0.323344 0.589257
#
# Coordination Sequence:
#
# PCOD9108337 Si02
#       8
#     2   2   2   1   2   2   2   2
#     4  11  25  44  70 101 135 179 245 295 338 410
#     4  11  26  49  65  98 144 188 233 293 354 407
#     4  11  23  44  67  96 135 188 226 283 351 411
#     4  10  22  36  68 108 142 166 222 292 340 418
#     4  10  20  40  68 102 133 174 227 277 349 413
#     4  10  20  42  69  98 127 179 234 283 337 409
#     4  10  20  40  69  97 135 176 227 276 347 413
#     4  10  24  41  72  95 135 182 232 279 349 416
#
# _framework density 24.177904999999999
#
# number of rings (size 3 to 8) (size 9 to 14) (size 15 to 20)
#    0.000    1.600    2.667    1.200    0.000    5.867 
#    4.800    3.333    0.000   12.000    0.000    0.000 
#    0.000    0.000    0.000    0.000    0.000    0.000 
#
# Total GULP energy -83618.220172 kJ/mol
# GULP energy per Si atom -5574.548011 kJ/mol
# Density = 2.412288 g / cm^3
# Si number density = 24.177905 Si / 1000 Ang^3
#
#
#
# Elastic Constant Matrix: (Units=GPa)
#
#
# Indices 1 2 3 4 5 6 
#
# 1 210.9813 87.6689 67.9412 13.0934 28.0196 -8.9618
# 2 87.6689 105.4913 26.4777 15.8491 18.0113 5.7015
# 3 67.9412 26.4777 100.7483 17.5943 13.6748 21.6858
# 4 13.0934 15.8491 17.5943 35.3055 10.6043 13.3351
# 5 28.0196 18.0113 13.6748 10.6043 56.3501 -1.5355
# 6 -8.9618 5.7015 21.6858 13.3351 -1.5355 44.7970
#
#
#
# Elastic Compliance Matrix: (Units=1/GPa)
#
#
# Indices 1 2 3 4 5 6 
#
# 1 0.009900 -0.006915 -0.006002 0.000715 -0.001240 0.005511
# 2 -0.006915 0.015701 0.002120 -0.003851 -0.001460 -0.003312
# 3 -0.006002 0.002120 0.015911 -0.003177 -0.001182 -0.008267
# 4 0.000715 -0.003851 -0.003177 0.036339 -0.005432 -0.008832
# 5 -0.001240 -0.001460 -0.001182 -0.005432 0.020216 0.002820
# 6 0.005511 -0.003312 -0.008267 -0.008832 0.002820 0.030575
#
#
# Mechanical properties :
#
#
# Convention : Reuss Voigt Hill
#
# Bulk Modulus (GPa) = 50.20244 86.82183 68.51213
# Shear Modulus (GPa) = 31.87295 42.96605 37.41950
#
# Velocity S-wave (km/s) = 3.63473 4.22012 3.93832
# Velocity P-wave (km/s) = 6.19870 7.72874 7.00561
#
# Compressibility (1/GPa) = 0.01991935
#
# Stress axis : x y z
#
# Youngs Moduli (GPa) = 101.00892 63.69212 62.85088
#
# Poissons Ratio (x) = 0.44040 0.37721
# Poissons Ratio (y) = 0.69843 -0.13326
# Poissons Ratio (z) = 0.60622 -0.13504
#
# Static dielectric constant tensor:
#      x y z
#    x 1.956480 0.017360 -0.032670 
#    y 0.017360 2.515280 -0.405370 
#    z -0.032670 -0.405370 2.292630 
# 
# From -- ./inp_files/37460.got.cif
#   From: 2010.05.17/outbox.cif.g08.bks.cpg/sg2_19_cif.got.tgz:37460.got - 2010.06.03 11:33:40.
