data_PCOD9108979
_publ_section_title
;
Structure prediction by ZEFSAII (Michael W. Deem and Ramdas Pophale) SiO2 
 PCOD9108979
Probable space group: P -1
;
_chemical_formula_sum "Si O2"
_cell_formula_units_Z 15
_cell_length_a 10.298921
_cell_length_b 30.334026
_cell_length_c 6.556306
_cell_angle_alpha 47.626262
_cell_angle_beta 116.262668
_cell_angle_gamma 148.499866
_cell_volume 742.845833
_symmetry_space_group_name_H-M "P -1"
_symmetry_group_IT_number 2
_symmetry_cell_setting 'triclinic'
loop_
_space_group_symop_operation_xyz
x,y,z
-x,-y,-z
loop_
_atom_site_type_symbol
_atom_site_label
_atom_site_fract_x
_atom_site_fract_y
_atom_site_fract_z
Si Si1 0.000000 0.000000 0.500000
Si Si2 0.386769 0.998609 0.237725
Si Si3 0.753246 0.780146 0.987616
Si Si4 0.221068 0.618190 0.379474
Si Si5 0.313770 0.762019 0.761548
Si Si6 0.538025 0.269735 0.414747
Si Si7 0.138752 0.827111 0.298199
Si Si8 0.257764 0.078729 0.097850
O O1 0.967364 0.989357 0.257720
O O2 0.062517 0.097787 0.236717
O O3 0.303824 0.032370 0.170898
O O4 0.500000 0.000000 0.500000
O O5 0.169877 0.885107 0.322743
O O6 0.610679 0.085777 0.951264
O O7 0.500159 0.698352 0.215758
O O8 0.900799 0.770154 0.175576
O O9 0.642279 0.746830 0.784578
O O10 0.247623 0.624522 0.621680
O O11 0.000000 0.500000 0.500000
O O12 0.175737 0.671087 0.111757
O O13 0.350459 0.736737 0.660198
O O14 0.154758 0.767014 0.593248
O O15 0.609966 0.877688 0.708649
O O16 0.384948 0.176617 0.763501
#
# Coordination Sequence:
#
# PCOD9108979 Si02
#       8
#     1   2   2   2   2   2   2   2
#     4  12  22  38  54  92 138 158 210 258 296 374
#     4  11  22  36  58  81 129 187 209 241 304 362
#     4  11  25  37  59  97 129 161 207 259 310 372
#     4  10  23  45  70  92 115 156 215 269 322 376
#     4  10  20  41  61  88 120 159 213 252 307 375
#     4  10  20  42  64  85 120 165 205 259 317 364
#     4  11  24  37  56  92 129 165 219 253 292 383
#     4  11  21  37  56  87 122 174 212 246 301 361
#
# _framework density 20.192615
#
# number of rings (size 3 to 8) (size 9 to 14) (size 15 to 20)
#    0.000    1.333    6.667    0.800    3.733    4.800 
#    0.000    0.667    0.000    1.600    0.000    0.000 
#    0.000    0.000    0.000    0.000    0.000    0.000 
#
# Total GULP energy -83563.983079 kJ/mol
# GULP energy per Si atom -5570.932205 kJ/mol
# Density = 2.014666 g / cm^3
# Si number density = 20.192615 Si / 1000 Ang^3
#
#
#
# Elastic Constant Matrix: (Units=GPa)
#
#
# Indices 1 2 3 4 5 6 
#
# 1 80.0996 40.4164 36.1714 21.7170 15.9174 -6.4850
# 2 40.4164 137.4192 48.3590 20.8614 12.0640 -19.5382
# 3 36.1714 48.3590 91.0906 27.2853 27.1246 2.8514
# 4 21.7170 20.8614 27.2853 36.0298 4.0936 -5.3092
# 5 15.9174 12.0640 27.1246 4.0936 47.1313 15.4054
# 6 -6.4850 -19.5382 2.8514 -5.3092 15.4054 20.8451
#
#
#
# Elastic Compliance Matrix: (Units=1/GPa)
#
#
# Indices 1 2 3 4 5 6 
#
# 1 0.018052 -0.001904 -0.002913 -0.005906 -0.005684 0.006926
# 2 -0.001904 0.011960 -0.004912 0.000623 -0.004467 0.014750
# 3 -0.002913 -0.004912 0.020048 -0.010808 -0.006278 -0.006366
# 4 -0.005906 0.000623 -0.010808 0.040359 0.001472 0.009417
# 5 -0.005684 -0.004467 -0.006278 0.001472 0.038643 -0.033281
# 6 0.006926 0.014750 -0.006366 0.009417 -0.033281 0.091818
#
#
# Mechanical properties :
#
#
# Convention : Reuss Voigt Hill
#
# Bulk Modulus (GPa) = 32.67571 62.05588 47.36579
# Shear Modulus (GPa) = 19.95704 33.04543 26.50124
#
# Velocity S-wave (km/s) = 3.14719 4.04977 3.62667
# Velocity P-wave (km/s) = 5.42435 7.25715 6.40663
#
# Compressibility (1/GPa) = 0.03060377
#
# Stress axis : x y z
#
# Youngs Moduli (GPa) = 55.39532 83.61152 49.87979
#
# Poissons Ratio (x) = 0.15919 0.14528
# Poissons Ratio (y) = 0.10547 0.24500
# Poissons Ratio (z) = 0.16135 0.41068
#
# Static dielectric constant tensor:
#      x y z
#    x 1.546450 -0.064630 0.125500 
#    y -0.064630 1.829240 0.090970 
#    z 0.125500 0.090970 1.678680 
# 
# From -- ./inp_files/85293.got.cif
#   From: 2010.05.17/outbox.cif.g08.bks.cpg/sg2_43_cif.got.tgz:85293.got - 2010.06.03 11:33:40.
