data_PCOD9108506
_publ_section_title
;
Structure prediction by ZEFSAII (Michael W. Deem and Ramdas Pophale) SiO2 
 PCOD9108506
Probable space group: P -1
;
_chemical_formula_sum "Si O2"
_cell_formula_units_Z 16
_cell_length_a 6.870647
_cell_length_b 8.520651
_cell_length_c 18.545597
_cell_angle_alpha 118.887835
_cell_angle_beta 56.329428
_cell_angle_gamma 104.336334
_cell_volume 790.826854
_symmetry_space_group_name_H-M "P -1"
_symmetry_group_IT_number 2
_symmetry_cell_setting 'triclinic'
loop_
_space_group_symop_operation_xyz
x,y,z
-x,-y,-z
loop_
_atom_site_type_symbol
_atom_site_label
_atom_site_fract_x
_atom_site_fract_y
_atom_site_fract_z
Si Si1 0.947442 0.863597 0.757249
Si Si2 0.028595 0.779542 0.261050
Si Si3 0.977025 0.164307 0.096422
Si Si4 0.507426 0.380181 0.196369
Si Si5 0.792339 0.001604 0.601058
Si Si6 0.349721 0.448016 0.086855
Si Si7 0.492477 0.747276 0.371785
Si Si8 0.064602 0.698050 0.553229
O O1 0.696209 0.766540 0.787261
O O2 0.040246 0.872223 0.821917
O O3 0.087851 0.739528 0.642453
O O4 0.948443 0.062800 0.767523
O O5 0.142001 0.595391 0.170642
O O6 0.764048 0.755101 0.335704
O O7 0.169902 0.842428 0.314902
O O8 0.752986 0.287718 0.147706
O O9 0.220545 0.264277 0.060799
O O10 0.000000 0.000000 0.000000
O O11 0.498887 0.437200 0.127039
O O12 0.459502 0.560891 0.293254
O O13 0.846457 0.821933 0.595137
O O14 0.563064 0.069818 0.621579
O O15 0.000000 0.000000 0.500000
O O16 0.500000 0.500000 0.000000
O O17 0.304628 0.746882 0.474647
O O18 0.000000 0.500000 0.500000
#
# Coordination Sequence:
#
# PCOD9108506 Si02
#       8
#     2   2   2   2   2   2   2   2
#     4  10  25  42  67  96 136 171 221 265 332 389
#     4  11  23  42  65 101 128 166 225 275 323 394
#     4  11  27  46  67  98 133 175 222 271 334 401
#     4  11  23  45  68  93 134 176 213 273 337 390
#     4   9  21  37  64  91 131 171 209 263 324 380
#     4  11  26  43  71  97 127 171 222 278 335 389
#     4  11  21  41  68  95 133 172 216 271 325 389
#     4  10  20  40  68  99 132 177 219 262 328 395
#
# _framework density 20.23199
#
# number of rings (size 3 to 8) (size 9 to 14) (size 15 to 20)
#    0.000    1.500    3.750    0.000    3.500    9.000 
#    0.000    1.875    0.000    0.000    0.000    0.000 
#    0.000    0.000    0.000    0.000    0.000    0.000 
#
# Total GULP energy -89281.829660 kJ/mol
# GULP energy per Si atom -5580.114354 kJ/mol
# Density = 2.018594 g / cm^3
# Si number density = 20.231990 Si / 1000 Ang^3
#
#
#
# Elastic Constant Matrix: (Units=GPa)
#
#
# Indices 1 2 3 4 5 6 
#
# 1 64.4763 5.7294 31.9292 -12.3469 4.6936 -16.4715
# 2 5.7294 60.2724 22.3009 0.6312 19.9964 -5.1179
# 3 31.9292 22.3009 113.5451 -5.8306 26.4385 -15.0592
# 4 -12.3469 0.6312 -5.8306 44.9561 -1.9623 0.9915
# 5 4.6936 19.9964 26.4385 -1.9623 33.7798 4.3300
# 6 -16.4715 -5.1179 -15.0592 0.9915 4.3300 17.4227
#
#
#
# Elastic Compliance Matrix: (Units=1/GPa)
#
#
# Indices 1 2 3 4 5 6 
#
# 1 0.023543 0.002134 -0.002835 0.005392 -0.004733 0.021304
# 2 0.002134 0.022526 0.000235 -0.000656 -0.015483 0.012722
# 3 -0.002835 0.000235 0.014149 0.000230 -0.012432 0.012694
# 4 0.005392 -0.000656 0.000230 0.023699 0.000366 0.003664
# 5 -0.004733 -0.015483 -0.012432 0.000366 0.053417 -0.033065
# 6 0.021304 0.012722 0.012694 0.003664 -0.033065 0.100255
#
#
# Mechanical properties :
#
#
# Convention : Reuss Voigt Hill
#
# Bulk Modulus (GPa) = 16.86792 39.80145 28.33469
# Shear Modulus (GPa) = 19.35854 31.12067 25.23961
#
# Velocity S-wave (km/s) = 3.09662 3.92623 3.53584
# Velocity P-wave (km/s) = 4.59791 6.34578 5.54120
#
# Compressibility (1/GPa) = 0.05928414
#
# Stress axis : x y z
#
# Youngs Moduli (GPa) = 42.47473 44.39371 70.67858
#
# Poissons Ratio (x) = -0.09472 0.20039
# Poissons Ratio (y) = -0.09063 -0.01659
# Poissons Ratio (z) = 0.12042 -0.01042
#
# Static dielectric constant tensor:
#      x y z
#    x 1.705320 -0.018160 0.004600 
#    y -0.018160 1.727760 -0.006820 
#    z 0.004600 -0.006820 1.683360 
# 
# From -- ./inp_files/47430.got.cif
#   From: 2010.05.17/outbox.cif.g08.bks.cpg/sg2_24_cif.got.tgz:47430.got - 2010.06.03 11:33:40.
