data_PCOD9108215
_publ_section_title
;
Structure prediction by ZEFSAII (Michael W. Deem and Ramdas Pophale) SiO2 
 PCOD9108215
Probable space group: P -1
;
_chemical_formula_sum "Si O2"
_cell_formula_units_Z 14
_cell_length_a 8.899435
_cell_length_b 9.136032
_cell_length_c 18.844834
_cell_angle_alpha 59.842574
_cell_angle_beta 122.509408
_cell_angle_gamma 147.710134
_cell_volume 686.305830
_symmetry_space_group_name_H-M "P -1"
_symmetry_group_IT_number 2
_symmetry_cell_setting 'triclinic'
loop_
_space_group_symop_operation_xyz
x,y,z
-x,-y,-z
loop_
_atom_site_type_symbol
_atom_site_label
_atom_site_fract_x
_atom_site_fract_y
_atom_site_fract_z
Si Si1 0.010997 0.571484 0.718323
Si Si2 0.817819 0.210378 0.993445
Si Si3 0.310504 0.707129 0.614944
Si Si4 0.750825 0.749166 0.947083
Si Si5 0.402337 0.997361 0.172736
Si Si6 0.222587 0.250622 0.441086
Si Si7 0.121963 0.852648 0.418689
O O1 0.871880 0.644415 0.643010
O O2 0.183652 0.636597 0.677323
O O3 0.254891 0.779942 0.789844
O O4 0.771279 0.257775 0.757791
O O5 0.063347 0.243214 0.055345
O O6 0.000000 0.500000 0.000000
O O7 0.500000 0.000000 0.000000
O O8 0.732483 0.137506 0.906331
O O9 0.188492 0.764786 0.518539
O O10 0.191212 0.439610 0.618093
O O11 0.651896 0.993294 0.625939
O O12 0.635760 0.832172 0.859665
O O13 0.500000 0.500000 0.000000
O O14 0.000000 0.000000 0.000000
O O15 0.500000 0.500000 0.500000
O O16 0.208906 0.097518 0.414066
O O17 0.000000 0.000000 0.500000
#
# Coordination Sequence:
#
# PCOD9108215 Si02
#       7
#     2   2   2   2   2   2   2
#     4  12  24  41  62  92 130 170 214 277 339 381
#     4  11  22  41  69 100 128 170 215 263 322 399
#     4  10  21  37  61  84 115 159 207 271 320 376
#     4  10  20  40  67  93 125 168 217 253 306 404
#     4  11  24  42  63  95 132 169 212 269 329 399
#     4  12  24  40  62  90 123 174 224 268 325 397
#     4  10  21  38  59  86 113 153 222 271 307 374
#
# _framework density 20.399068
#
# number of rings (size 3 to 8) (size 9 to 14) (size 15 to 20)
#    0.000    1.143    1.429    6.857    4.000    0.000 
#    0.000    8.571    0.000    0.000    0.000    0.000 
#    0.000    0.000    0.000    0.000    0.000    0.000 
#
# Total GULP energy -77954.803349 kJ/mol
# GULP energy per Si atom -5568.200239 kJ/mol
# Density = 2.035264 g / cm^3
# Si number density = 20.399068 Si / 1000 Ang^3
#
#
#
# Elastic Constant Matrix: (Units=GPa)
#
#
# Indices 1 2 3 4 5 6 
#
# 1 110.5365 41.1130 45.8657 -15.0622 11.7438 -12.1838
# 2 41.1130 151.9355 45.5596 -8.2971 17.5908 4.5251
# 3 45.8657 45.5596 65.6430 -12.9728 29.1119 -9.7093
# 4 -15.0622 -8.2971 -12.9728 44.8165 2.4023 -6.3190
# 5 11.7438 17.5908 29.1119 2.4023 39.0022 -1.1970
# 6 -12.1838 4.5251 -9.7093 -6.3190 -1.1970 40.7327
#
#
#
# Elastic Compliance Matrix: (Units=1/GPa)
#
#
# Indices 1 2 3 4 5 6 
#
# 1 0.013557 -0.001192 -0.009541 0.001705 0.003543 0.002282
# 2 -0.001192 0.008716 -0.006410 -0.001128 0.001190 -0.002993
# 3 -0.009541 -0.006410 0.040549 0.009850 -0.024854 0.008321
# 4 0.001705 -0.001128 0.009850 0.026975 -0.008806 0.006909
# 5 0.003543 0.001190 -0.024854 -0.008806 0.042974 -0.005100
# 6 0.002282 -0.002993 0.008321 0.006909 -0.005100 0.028471
#
#
# Mechanical properties :
#
#
# Convention : Reuss Voigt Hill
#
# Bulk Modulus (GPa) = 35.04419 65.91017 50.47718
# Shear Modulus (GPa) = 24.38552 37.94875 31.16713
#
# Velocity S-wave (km/s) = 3.46124 4.31782 3.91304
# Velocity P-wave (km/s) = 5.76109 7.56562 6.72417
#
# Compressibility (1/GPa) = 0.02853540
#
# Stress axis : x y z
#
# Youngs Moduli (GPa) = 73.76336 114.72950 24.66150
#
# Poissons Ratio (x) = 0.13679 0.23530
# Poissons Ratio (y) = 0.08795 0.15807
# Poissons Ratio (z) = 0.70380 0.73538
#
# Static dielectric constant tensor:
#      x y z
#    x 1.657230 0.040230 0.209070 
#    y 0.040230 1.697560 -0.007580 
#    z 0.209070 -0.007580 1.578430 
# 
# From -- ./inp_files/217397.got.cif
#   From: 2010.05.17/outbox.cif.g08.bks.cpg/sg2_109_cif.got.tgz:217397.got - 2010.06.03 11:33:40.
