data_PCOD9108770
_publ_section_title
;
Structure prediction by ZEFSAII (Michael W. Deem and Ramdas Pophale) SiO2 
 PCOD9108770
Probable space group: P -1
;
_chemical_formula_sum "Si O2"
_cell_formula_units_Z 16
_cell_length_a 12.327596
_cell_length_b 14.169353
_cell_length_c 7.980667
_cell_angle_alpha 70.216706
_cell_angle_beta 114.101495
_cell_angle_gamma 53.831890
_cell_volume 634.652166
_symmetry_space_group_name_H-M "P -1"
_symmetry_group_IT_number 2
_symmetry_cell_setting 'triclinic'
loop_
_space_group_symop_operation_xyz
x,y,z
-x,-y,-z
loop_
_atom_site_type_symbol
_atom_site_label
_atom_site_fract_x
_atom_site_fract_y
_atom_site_fract_z
Si Si1 0.300855 0.311045 0.385053
Si Si2 0.296931 0.854755 0.166759
Si Si3 0.790625 0.078512 0.284034
Si Si4 0.226397 0.716751 0.393371
Si Si5 0.854075 0.337966 0.306221
Si Si6 0.113480 0.653501 0.060452
Si Si7 0.371656 0.310169 0.044263
Si Si8 0.641151 0.943940 0.469081
O O1 0.547041 0.162558 0.693657
O O2 0.146635 0.513969 0.222206
O O3 0.305536 0.325902 0.179558
O O4 0.252035 0.230998 0.444782
O O5 0.348917 0.729411 0.404308
O O6 0.331156 0.794506 0.034809
O O7 0.036552 0.065486 0.890207
O O8 0.604030 0.206673 0.232491
O O9 0.000000 0.000000 0.500000
O O10 0.902702 0.890474 0.418437
O O11 0.278364 0.633245 0.657559
O O12 0.219066 0.645589 0.275798
O O13 0.788748 0.390615 0.036758
O O14 0.820080 0.476753 0.266226
O O15 0.846650 0.857195 0.737089
O O16 0.467532 0.136081 0.137519
O O17 0.500000 0.000000 0.500000
#
# Coordination Sequence:
#
# PCOD9108770 Si02
#       8
#     2   2   2   2   2   2   2   2
#     4  10  23  39  65  96 126 170 223 267 324 389
#     4  10  23  40  62  95 127 175 215 258 333 387
#     4  11  23  40  66  92 134 176 211 269 328 385
#     4  10  22  40  64  92 137 164 216 270 318 391
#     4  10  23  40  63 101 128 170 216 265 323 395
#     4  11  21  41  68  95 131 170 216 271 328 386
#     4  10  22  40  65  91 131 167 219 265 325 385
#     4  10  20  40  71  90 124 175 215 268 331 378
#
# _framework density 25.210661999999999
#
# number of rings (size 3 to 8) (size 9 to 14) (size 15 to 20)
#    0.000    1.750    1.250    2.625    7.000    1.000 
#    2.250    0.625    5.500    6.000    0.000    0.000 
#    0.000    0.000    0.000    0.000    0.000    0.000 
#
# Total GULP energy -89237.981428 kJ/mol
# GULP energy per Si atom -5577.373839 kJ/mol
# Density = 2.515328 g / cm^3
# Si number density = 25.210662 Si / 1000 Ang^3
#
#
#
# Elastic Constant Matrix: (Units=GPa)
#
#
# Indices 1 2 3 4 5 6 
#
# 1 67.3537 27.1365 34.4974 -4.7589 -12.8895 2.4178
# 2 27.1365 88.5873 23.1429 -11.1757 -19.4368 -1.0804
# 3 34.4974 23.1429 85.5219 -11.6196 -14.0550 1.4644
# 4 -4.7589 -11.1757 -11.6196 41.6001 4.0337 -0.9272
# 5 -12.8895 -19.4368 -14.0550 4.0337 41.0080 -4.5258
# 6 2.4178 -1.0804 1.4644 -0.9272 -4.5258 26.2508
#
#
#
# Elastic Compliance Matrix: (Units=1/GPa)
#
#
# Indices 1 2 3 4 5 6 
#
# 1 0.020413 -0.004142 -0.006881 -0.000927 0.002037 -0.001348
# 2 -0.004142 0.014300 -0.001041 0.002629 0.005081 0.001997
# 3 -0.006881 -0.001041 0.015555 0.003051 0.002402 0.000245
# 4 -0.000927 0.002629 0.003051 0.025550 -0.000419 0.000854
# 5 0.002037 0.005081 0.002402 -0.000419 0.028833 0.004844
# 6 -0.001348 0.001997 0.000245 0.000854 0.004844 0.039152
#
#
# Mechanical properties :
#
#
# Convention : Reuss Voigt Hill
#
# Bulk Modulus (GPa) = 38.25567 45.66851 41.96209
# Shear Modulus (GPa) = 28.30538 32.21753 30.26146
#
# Velocity S-wave (km/s) = 3.35439 3.57870 3.46836
# Velocity P-wave (km/s) = 5.49635 5.93550 5.72014
#
# Compressibility (1/GPa) = 0.02613992
#
# Stress axis : x y z
#
# Youngs Moduli (GPa) = 48.98862 69.93122 64.28621
#
# Poissons Ratio (x) = 0.28964 0.44238
# Poissons Ratio (y) = 0.20290 0.06692
# Poissons Ratio (z) = 0.33711 0.07280
#
# Static dielectric constant tensor:
#      x y z
#    x 2.054900 0.022750 -0.050440 
#    y 0.022750 2.092140 -0.068110 
#    z -0.050440 -0.068110 1.980500 
# 
# From -- ./inp_files/272190.got.cif
#   From: 2010.05.17/outbox.cif.g08.bks.cpg/sg2_137_cif.got.tgz:272190.got - 2010.06.03 11:33:40.
