data_PCOD9108375
_publ_section_title
;
Structure prediction by ZEFSAII (Michael W. Deem and Ramdas Pophale) SiO2 
 PCOD9108375
Probable space group: P -1
;
_chemical_formula_sum "Si O2"
_cell_formula_units_Z 14
_cell_length_a 11.241886
_cell_length_b 9.205858
_cell_length_c 9.119079
_cell_angle_alpha 135.940802
_cell_angle_beta 96.337106
_cell_angle_gamma 71.310767
_cell_volume 611.292085
_symmetry_space_group_name_H-M "P -1"
_symmetry_group_IT_number 2
_symmetry_cell_setting 'triclinic'
loop_
_space_group_symop_operation_xyz
x,y,z
-x,-y,-z
loop_
_atom_site_type_symbol
_atom_site_label
_atom_site_fract_x
_atom_site_fract_y
_atom_site_fract_z
Si Si1 0.395381 0.887781 0.933487
Si Si2 0.747632 0.837193 0.138636
Si Si3 0.833716 0.024831 0.859824
Si Si4 0.822178 0.114718 0.582799
Si Si5 0.573599 0.541802 0.899199
Si Si6 0.902806 0.363532 0.298357
Si Si7 0.924010 0.439599 0.676464
O O1 0.474685 0.643846 0.827532
O O2 0.311698 0.946291 0.816893
O O3 0.296519 0.009671 0.137913
O O4 0.500000 0.000000 0.000000
O O5 0.807844 0.914795 0.341260
O O6 0.642641 0.722524 0.075612
O O7 0.853155 0.650678 0.921754
O O8 0.846222 0.063746 0.719861
O O9 0.824097 0.248934 0.110050
O O10 0.959745 0.831441 0.793379
O O11 0.685129 0.316813 0.705516
O O12 0.918352 0.224056 0.603040
O O13 0.500000 0.500000 0.000000
O O14 0.854497 0.446656 0.514468
O O15 0.940687 0.543112 0.339684
#
# Coordination Sequence:
#
# PCOD9108375 Si02
#       7
#     2   2   2   2   2   2   2
#     4  10  20  40  68  90 131 171 215 263 316 388
#     4  10  22  42  64  95 135 171 209 268 328 394
#     4  11  22  42  67  97 131 173 215 269 331 380
#     4  11  24  41  66  97 137 167 211 274 330 385
#     4  10  21  41  63  96 130 167 222 267 318 386
#     4  10  23  43  68  92 129 173 223 269 314 394
#     4  10  22  44  64  95 126 170 219 266 318 387
#
# _framework density 22.902311000000001
#
# number of rings (size 3 to 8) (size 9 to 14) (size 15 to 20)
#    0.000    1.714    2.857    0.857    2.000    2.286 
#   10.286    2.857    0.000    0.000    0.000    0.000 
#    0.000    0.000    0.000    0.000    0.000    0.000 
#
# Total GULP energy -78283.794784 kJ/mol
# GULP energy per Si atom -5591.699627 kJ/mol
# Density = 2.285018 g / cm^3
# Si number density = 22.902311 Si / 1000 Ang^3
#
#
#
# Elastic Constant Matrix: (Units=GPa)
#
#
# Indices 1 2 3 4 5 6 
#
# 1 86.8697 47.2855 40.8348 -11.0502 -8.7290 21.8082
# 2 47.2855 147.0004 49.4554 -16.1004 -1.7266 22.6880
# 3 40.8348 49.4554 145.2589 -9.3708 15.6065 16.1225
# 4 -11.0502 -16.1004 -9.3708 34.3682 1.5452 -11.4763
# 5 -8.7290 -1.7266 15.6065 1.5452 31.6565 -0.4361
# 6 21.8082 22.6880 16.1225 -11.4763 -0.4361 45.5830
#
#
#
# Elastic Compliance Matrix: (Units=1/GPa)
#
#
# Indices 1 2 3 4 5 6 
#
# 1 0.017037 -0.003287 -0.003734 0.001010 0.006243 -0.004880
# 2 -0.003287 0.008977 -0.001849 0.002053 0.000371 -0.001721
# 3 -0.003734 -0.001849 0.009269 0.000556 -0.005734 -0.000487
# 4 0.001010 0.002053 0.000556 0.032781 -0.001394 0.006538
# 5 0.006243 0.000371 -0.005734 -0.001394 0.036210 -0.001148
# 6 -0.004880 -0.001721 -0.000487 0.006538 -0.001148 0.026937
#
#
# Mechanical properties :
#
#
# Convention : Reuss Voigt Hill
#
# Bulk Modulus (GPa) = 57.00083 72.69783 64.84933
# Shear Modulus (GPa) = 32.30029 38.42511 35.36270
#
# Velocity S-wave (km/s) = 3.75954 4.10052 3.93372
# Velocity P-wave (km/s) = 6.61727 7.36414 7.00067
#
# Compressibility (1/GPa) = 0.01754361
#
# Stress axis : x y z
#
# Youngs Moduli (GPa) = 58.69635 111.39863 107.88222
#
# Poissons Ratio (x) = 0.36614 0.40286
# Poissons Ratio (y) = 0.19292 0.19944
# Poissons Ratio (z) = 0.21919 0.20594
#
# Static dielectric constant tensor:
#      x y z
#    x 1.893590 -0.014370 -0.004780 
#    y -0.014370 1.897830 0.039880 
#    z -0.004780 0.039880 1.849710 
# 
# From -- ./inp_files/245929.got.cif
#   From: 2010.05.17/outbox.cif.g08.bks.cpg/sg2_123_cif.got.tgz:245929.got - 2010.06.03 11:33:40.
