data_PCOD9108769
_publ_section_title
;
Structure prediction by ZEFSAII (Michael W. Deem and Ramdas Pophale) SiO2 
 PCOD9108769
Probable space group: P -1
;
_chemical_formula_sum "Si O2"
_cell_formula_units_Z 12
_cell_length_a 10.828400
_cell_length_b 13.790792
_cell_length_c 8.984454
_cell_angle_alpha 48.891277
_cell_angle_beta 144.475538
_cell_angle_gamma 137.441013
_cell_volume 521.490102
_symmetry_space_group_name_H-M "P -1"
_symmetry_group_IT_number 2
_symmetry_cell_setting 'triclinic'
loop_
_space_group_symop_operation_xyz
x,y,z
-x,-y,-z
loop_
_atom_site_type_symbol
_atom_site_label
_atom_site_fract_x
_atom_site_fract_y
_atom_site_fract_z
Si Si1 0.734882 0.416503 0.255595
Si Si2 0.416717 0.381905 0.265430
Si Si3 0.735749 0.122830 0.532443
Si Si4 0.771884 0.363597 0.845618
Si Si5 0.534459 0.093629 0.084344
Si Si6 0.919569 0.157816 0.992528
O O1 0.549605 0.381985 0.243289
O O2 0.701149 0.263149 0.324656
O O3 0.000000 0.500000 0.500000
O O4 0.688591 0.507875 0.990319
O O5 0.608796 0.422373 0.542283
O O6 0.194643 0.226552 0.240111
O O7 0.500000 0.000000 0.500000
O O8 0.926153 0.166596 0.808197
O O9 0.726992 0.075420 0.401246
O O10 0.629236 0.253160 0.949216
O O11 0.828725 0.265198 0.877300
O O12 0.000000 0.500000 0.000000
O O13 0.270807 0.006717 0.988985
O O14 0.500000 0.000000 0.000000
#
# Coordination Sequence:
#
# PCOD9108769 Si02
#       6
#     2   2   2   2   2   2
#     4  11  22  40  68  98 130 165 218 276 321 381
#     4  11  23  38  70  96 132 168 223 263 330 380
#     4  10  20  40  71  89 126 173 216 269 322 375
#     4  11  24  41  66  94 136 174 211 268 327 385
#     4   9  22  40  65  92 130 177 210 264 332 381
#     4  10  21  44  65  93 129 172 223 268 315 384
#
# _framework density 23.010981999999998
#
# number of rings (size 3 to 8) (size 9 to 14) (size 15 to 20)
#    0.000    1.667    3.333    0.000    4.667    1.333 
#    0.000    3.333    7.333    0.000    0.000    0.000 
#    0.000    0.000    0.000    0.000    0.000    0.000 
#
# Total GULP energy -66911.338523 kJ/mol
# GULP energy per Si atom -5575.944877 kJ/mol
# Density = 2.295861 g / cm^3
# Si number density = 23.010982 Si / 1000 Ang^3
#
#
#
# Elastic Constant Matrix: (Units=GPa)
#
#
# Indices 1 2 3 4 5 6 
#
# 1 64.3713 20.2411 30.5924 1.0035 -19.5431 14.0749
# 2 20.2411 143.5789 57.8363 10.1101 -0.8849 27.5897
# 3 30.5924 57.8363 161.6684 21.3865 -26.8147 12.2508
# 4 1.0035 10.1101 21.3865 33.8589 4.3868 -6.0833
# 5 -19.5431 -0.8849 -26.8147 4.3868 44.4686 5.4256
# 6 14.0749 27.5897 12.2508 -6.0833 5.4256 39.3022
#
#
#
# Elastic Compliance Matrix: (Units=1/GPa)
#
#
# Indices 1 2 3 4 5 6 
#
# 1 0.021197 -0.000643 -0.001161 -0.002518 0.009893 -0.008534
# 2 -0.000643 0.009363 -0.002661 -0.002018 -0.000805 -0.005714
# 3 -0.001161 -0.002661 0.009374 -0.006310 0.006010 -0.002444
# 4 -0.002518 -0.002018 -0.006310 0.037564 -0.010059 0.011488
# 5 0.009893 -0.000805 0.006010 -0.010059 0.032770 -0.010932
# 6 -0.008534 -0.005714 -0.002444 0.011488 -0.010932 0.036560
#
#
# Mechanical properties :
#
#
# Convention : Reuss Voigt Hill
#
# Bulk Modulus (GPa) = 32.25349 65.21759 48.73554
# Shear Modulus (GPa) = 30.10379 40.92253 35.51316
#
# Velocity S-wave (km/s) = 3.62088 4.22167 3.93276
# Velocity P-wave (km/s) = 5.61498 7.22266 6.46896
#
# Compressibility (1/GPa) = 0.03100440
#
# Stress axis : x y z
#
# Youngs Moduli (GPa) = 47.17629 106.80838 106.67795
#
# Poissons Ratio (x) = 0.06864 0.12381
# Poissons Ratio (y) = 0.03032 0.28391
# Poissons Ratio (z) = 0.05475 0.28425
#
# Static dielectric constant tensor:
#      x y z
#    x 1.979790 -0.044910 0.001960 
#    y -0.044910 1.876230 -0.017250 
#    z 0.001960 -0.017250 1.878660 
# 
# From -- ./inp_files/28845.got.cif
#   From: 2010.05.17/outbox.cif.g08.bks.cpg/sg2_15_cif.got.tgz:28845.got - 2010.06.03 11:33:40.
