data_PCOD9108098
_publ_section_title
;
Structure prediction by ZEFSAII (Michael W. Deem and Ramdas Pophale) SiO2 
 PCOD9108098
Probable space group: P -1
;
_chemical_formula_sum "Si O2"
_cell_formula_units_Z 14
_cell_length_a 11.286112
_cell_length_b 11.351181
_cell_length_c 9.578548
_cell_angle_alpha 66.289031
_cell_angle_beta 40.549838
_cell_angle_gamma 49.672127
_cell_volume 598.149177
_symmetry_space_group_name_H-M "P -1"
_symmetry_group_IT_number 2
_symmetry_cell_setting 'triclinic'
loop_
_space_group_symop_operation_xyz
x,y,z
-x,-y,-z
loop_
_atom_site_type_symbol
_atom_site_label
_atom_site_fract_x
_atom_site_fract_y
_atom_site_fract_z
Si Si1 0.364486 0.932779 0.399802
Si Si2 0.027503 0.410666 0.205642
Si Si3 0.826199 0.854989 0.032762
Si Si4 0.070098 0.721662 0.380605
Si Si5 0.771067 0.095232 0.747233
Si Si6 0.516554 0.613418 0.535753
Si Si7 0.202969 0.611269 0.010726
O O1 0.392670 0.901768 0.220749
O O2 0.364977 0.790144 0.530748
O O3 0.143506 0.102405 0.546890
O O4 0.580078 0.917002 0.271438
O O5 0.771057 0.555399 0.341208
O O6 0.093768 0.280931 0.090926
O O7 0.016595 0.342333 0.395809
O O8 0.181238 0.474053 0.039221
O O9 0.800807 0.999037 0.904300
O O10 0.002641 0.771209 0.038366
O O11 0.253140 0.745986 0.268853
O O12 0.163095 0.622744 0.204927
O O13 0.000000 0.000000 0.500000
O O14 0.500000 0.500000 0.500000
O O15 0.421521 0.598878 0.772999
#
# Coordination Sequence:
#
# PCOD9108098 Si02
#       7
#     2   2   2   2   2   2   2
#     4  11  23  43  70 105 132 179 231 280 334 404
#     4  12  24  47  67 101 138 178 231 280 328 411
#     4  12  22  42  72 103 131 177 233 280 335 399
#     4  11  26  45  67  99 144 176 223 283 341 403
#     4  10  20  40  66  98 132 172 227 277 329 398
#     4  12  24  43  73  99 135 176 231 282 333 398
#     4  12  26  45  69 102 139 182 223 278 348 397
#
# _framework density 23.405535
#
# number of rings (size 3 to 8) (size 9 to 14) (size 15 to 20)
#    0.000    0.571    5.714    4.714    0.000    3.429 
#    2.571    0.000    0.000    0.000    0.000    0.000 
#    0.000    0.000    0.000    0.000    0.000    0.000 
#
# Total GULP energy -78399.989197 kJ/mol
# GULP energy per Si atom -5599.999228 kJ/mol
# Density = 2.335226 g / cm^3
# Si number density = 23.405535 Si / 1000 Ang^3
#
#
#
# Elastic Constant Matrix: (Units=GPa)
#
#
# Indices 1 2 3 4 5 6 
#
# 1 31.6238 -8.2462 2.0267 6.9103 1.6204 0.7331
# 2 -8.2462 80.5459 9.2040 -25.2427 4.4310 -15.9465
# 3 2.0267 9.2040 80.2431 -19.1015 11.1747 8.6525
# 4 6.9103 -25.2427 -19.1015 45.2935 -1.7128 -4.0155
# 5 1.6204 4.4310 11.1747 -1.7128 40.3972 -0.7688
# 6 0.7331 -15.9465 8.6525 -4.0155 -0.7688 18.8991
#
#
#
# Elastic Compliance Matrix: (Units=1/GPa)
#
#
# Indices 1 2 3 4 5 6 
#
# 1 0.033448 0.002414 -0.002133 -0.004642 -0.001200 0.000681
# 2 0.002414 0.020942 -0.001616 0.012438 -0.001022 0.020918
# 3 -0.002133 -0.001616 0.015236 0.005053 -0.003877 -0.007340
# 4 -0.004642 0.012438 0.005053 0.033179 -0.000876 0.015375
# 5 -0.001200 -0.001022 -0.003877 -0.000876 0.025985 0.001830
# 6 0.000681 0.020918 -0.007340 0.015375 0.001830 0.077237
#
#
# Mechanical properties :
#
#
# Convention : Reuss Voigt Hill
#
# Bulk Modulus (GPa) = 14.93498 22.04241 18.48870
# Shear Modulus (GPa) = 21.64360 33.54650 27.59505
#
# Velocity S-wave (km/s) = 3.04422 3.78997 3.43738
# Velocity P-wave (km/s) = 4.33027 5.34695 4.86524
#
# Compressibility (1/GPa) = 0.06695691
#
# Stress axis : x y z
#
# Youngs Moduli (GPa) = 29.89708 47.74990 65.63611
#
# Poissons Ratio (x) = -0.11527 0.14000
# Poissons Ratio (y) = -0.07217 0.10604
# Poissons Ratio (z) = 0.06377 0.07715
#
# Static dielectric constant tensor:
#      x y z
#    x 1.942620 -0.029660 -0.019750 
#    y -0.029660 1.891210 -0.000730 
#    z -0.019750 -0.000730 1.849950 
# 
# From -- ./inp_files/184956.got.cif
#   From: 2010.05.17/outbox.cif.g08.bks.cpg/sg2_93_cif.got.tgz:184956.got - 2010.06.03 11:33:40.
