data_PCOD9108341
_publ_section_title
;
Structure prediction by ZEFSAII (Michael W. Deem and Ramdas Pophale) SiO2 
 PCOD9108341
Probable space group: P -1
;
_chemical_formula_sum "Si O2"
_cell_formula_units_Z 15
_cell_length_a 9.266714
_cell_length_b 13.906648
_cell_length_c 6.148602
_cell_angle_alpha 126.547631
_cell_angle_beta 83.556598
_cell_angle_gamma 107.771098
_cell_volume 603.671971
_symmetry_space_group_name_H-M "P -1"
_symmetry_group_IT_number 2
_symmetry_cell_setting 'triclinic'
loop_
_space_group_symop_operation_xyz
x,y,z
-x,-y,-z
loop_
_atom_site_type_symbol
_atom_site_label
_atom_site_fract_x
_atom_site_fract_y
_atom_site_fract_z
Si Si1 0.766937 0.443021 0.781991
Si Si2 0.965211 0.669846 0.284119
Si Si3 0.295050 0.746261 0.826654
Si Si4 0.500000 0.000000 0.000000
Si Si5 0.291741 0.107815 0.406115
Si Si6 0.958709 0.138856 0.802373
Si Si7 0.490403 0.321447 0.963434
Si Si8 0.231218 0.267347 0.237317
O O1 0.737296 0.386357 0.470717
O O2 0.611588 0.414643 0.909479
O O3 0.885839 0.372835 0.760796
O O4 0.862199 0.586331 0.999208
O O5 0.858220 0.659951 0.498480
O O6 0.013111 0.810696 0.379906
O O7 0.385891 0.854426 0.792989
O O8 0.144734 0.778192 0.969011
O O9 0.405649 0.743525 0.003275
O O10 0.600604 0.980483 0.753277
O O11 0.369759 0.220412 0.702134
O O12 0.283638 0.171582 0.259063
O O13 0.135140 0.006183 0.360484
O O14 0.109028 0.178991 0.976742
O O15 0.378666 0.355620 0.205700
#
# Coordination Sequence:
#
# PCOD9108341 Si02
#       8
#     2   2   2   1   2   2   2   2
#     4  11  24  47  71 103 139 181 242 291 333 418
#     4  11  26  45  72 101 140 187 235 286 347 415
#     4  11  22  42  70 105 136 177 233 285 344 415
#     4  10  20  40  68 102 138 178 220 294 332 410
#     4  11  25  43  70 106 145 180 231 286 351 418
#     4  11  25  43  72 104 138 187 227 283 356 416
#     4  12  24  44  72 100 141 183 228 286 351 407
#     4  12  25  46  67 106 147 179 229 292 351 414
#
# _framework density 24.847930999999999
#
# number of rings (size 3 to 8) (size 9 to 14) (size 15 to 20)
#    0.000    0.800    5.333    1.200    0.000    8.533 
#    0.000    4.667    0.000    0.000    0.000    0.000 
#    0.000    0.000    0.000    0.000    0.000    0.000 
#
# Total GULP energy -83692.015379 kJ/mol
# GULP energy per Si atom -5579.467692 kJ/mol
# Density = 2.479138 g / cm^3
# Si number density = 24.847931 Si / 1000 Ang^3
#
#
#
# Elastic Constant Matrix: (Units=GPa)
#
#
# Indices 1 2 3 4 5 6 
#
# 1 113.9709 35.4012 29.3166 -13.3178 -4.4223 23.4084
# 2 35.4012 76.5722 14.1758 1.4605 -5.0648 16.6617
# 3 29.3166 14.1758 51.3584 -0.6470 8.1886 3.3906
# 4 -13.3178 1.4605 -0.6470 30.2180 2.6247 -3.4716
# 5 -4.4223 -5.0648 8.1886 2.6247 52.1680 -11.2986
# 6 23.4084 16.6617 3.3906 -3.4716 -11.2986 42.3629
#
#
#
# Elastic Compliance Matrix: (Units=1/GPa)
#
#
# Indices 1 2 3 4 5 6 
#
# 1 0.013191 -0.004025 -0.006108 0.005305 0.000407 -0.004674
# 2 -0.004025 0.016310 -0.002113 -0.003147 0.000855 -0.004052
# 3 -0.006108 -0.002113 0.024124 -0.001591 -0.004208 0.001023
# 4 0.005305 -0.003147 -0.001591 0.035772 -0.001178 0.001051
# 5 0.000407 0.000855 -0.004208 -0.001178 0.021159 0.005322
# 6 -0.004674 -0.004052 0.001023 0.001051 0.005322 0.029205
#
#
# Mechanical properties :
#
#
# Convention : Reuss Voigt Hill
#
# Bulk Modulus (GPa) = 34.32517 44.40987 39.36752
# Shear Modulus (GPa) = 28.74134 35.81695 32.27914
#
# Velocity S-wave (km/s) = 3.40470 3.80076 3.60817
# Velocity P-wave (km/s) = 5.41296 6.09692 5.76509
#
# Compressibility (1/GPa) = 0.02913314
#
# Stress axis : x y z
#
# Youngs Moduli (GPa) = 75.80706 61.31306 41.45180
#
# Poissons Ratio (x) = 0.24679 0.25321
# Poissons Ratio (y) = 0.30513 0.08757
# Poissons Ratio (z) = 0.46307 0.12953
#
# Static dielectric constant tensor:
#      x y z
#    x 2.026770 -0.018630 -0.044330 
#    y -0.018630 1.964000 -0.012230 
#    z -0.044330 -0.012230 1.964670 
# 
# From -- ./inp_files/40294.got.cif
#   From: 2010.05.17/outbox.cif.g08.bks.cpg/sg2_21_cif.got.tgz:40294.got - 2010.06.03 11:33:40.
