data_PCOD9108057
_publ_section_title
;
Structure prediction by ZEFSAII (Michael W. Deem and Ramdas Pophale) SiO2 
 PCOD9108057
Probable space group: P -1
;
_chemical_formula_sum "Si O2"
_cell_formula_units_Z 16
_cell_length_a 8.816551
_cell_length_b 12.144311
_cell_length_c 14.741404
_cell_angle_alpha 146.019919
_cell_angle_beta 132.705451
_cell_angle_gamma 43.250008
_cell_volume 592.974841
_symmetry_space_group_name_H-M "P -1"
_symmetry_group_IT_number 2
_symmetry_cell_setting 'triclinic'
loop_
_space_group_symop_operation_xyz
x,y,z
-x,-y,-z
loop_
_atom_site_type_symbol
_atom_site_label
_atom_site_fract_x
_atom_site_fract_y
_atom_site_fract_z
Si Si1 0.698313 0.285367 0.046216
Si Si2 0.471965 0.343816 0.504148
Si Si3 0.183413 0.196026 0.418901
Si Si4 0.728757 0.172123 0.173517
Si Si5 0.651805 0.253774 0.799635
Si Si6 0.926226 0.341360 0.732143
Si Si7 0.068762 0.434255 0.291807
Si Si8 0.131988 0.224713 0.916538
O O1 0.656490 0.170093 0.038638
O O2 0.555287 0.541186 0.180499
O O3 0.954699 0.264687 0.124497
O O4 0.617269 0.242988 0.886655
O O5 0.360541 0.231223 0.450177
O O6 0.392366 0.594619 0.670680
O O7 0.739579 0.254198 0.566996
O O8 0.338138 0.345562 0.357389
O O9 0.988659 0.147723 0.255481
O O10 0.044891 0.412035 0.564679
O O11 0.297146 0.981504 0.378658
O O12 0.728150 0.986633 0.113426
O O13 0.875418 0.290936 0.893695
O O14 0.005748 0.411752 0.720183
O O15 0.111731 0.200075 0.783636
O O16 0.813319 0.572407 0.897085
#
# Coordination Sequence:
#
# PCOD9108057 Si02
#       8
#     2   2   2   2   2   2   2   2
#     4  11  20  39  70  99 133 159 219 286 321 373
#     4  11  21  41  66  98 134 174 214 265 333 390
#     4  10  21  40  66  98 131 163 222 265 331 383
#     4  10  20  40  66  96 125 170 218 274 323 377
#     4  10  23  39  65 105 124 170 219 274 329 375
#     4  11  24  42  65  93 137 179 216 265 322 396
#     4  11  21  41  68  97 132 173 212 271 326 386
#     4  10  23  42  65  93 132 177 223 263 328 384
#
# _framework density 26.982596000000001
#
# number of rings (size 3 to 8) (size 9 to 14) (size 15 to 20)
#    0.000    1.500    3.750    1.875    0.000    4.000 
#    4.500    5.625    2.750    0.000    0.000    0.000 
#    0.000    0.000    0.000    0.000    0.000    0.000 
#
# Total GULP energy -89594.004098 kJ/mol
# GULP energy per Si atom -5599.625256 kJ/mol
# Density = 2.692118 g / cm^3
# Si number density = 26.982596 Si / 1000 Ang^3
#
#
#
# Elastic Constant Matrix: (Units=GPa)
#
#
# Indices 1 2 3 4 5 6 
#
# 1 76.5730 23.5879 14.9486 -14.1249 10.9544 28.4994
# 2 23.5879 129.1974 40.2734 -9.9824 0.7401 35.0067
# 3 14.9486 40.2734 84.4878 -11.5563 21.4964 2.2948
# 4 -14.1249 -9.9824 -11.5563 53.8342 -1.9298 -6.6532
# 5 10.9544 0.7401 21.4964 -1.9298 33.6747 -13.9551
# 6 28.4994 35.0067 2.2948 -6.6532 -13.9551 58.2567
#
#
#
# Elastic Compliance Matrix: (Units=1/GPa)
#
#
# Indices 1 2 3 4 5 6 
#
# 1 0.019713 -0.000121 0.000221 0.003321 -0.011295 -0.011906
# 2 -0.000121 0.011090 -0.005211 0.000153 0.000540 -0.006253
# 3 0.000221 -0.005211 0.017392 0.002434 -0.010920 0.000000
# 4 0.003321 0.000153 0.002434 0.019961 -0.001443 0.000122
# 5 -0.011295 0.000540 -0.010920 -0.001443 0.047197 0.016772
# 6 -0.011906 -0.006253 0.000000 0.000122 0.016772 0.030779
#
#
# Mechanical properties :
#
#
# Convention : Reuss Voigt Hill
#
# Bulk Modulus (GPa) = 26.33432 49.76421 38.04927
# Shear Modulus (GPa) = 29.58369 43.24970 36.41669
#
# Velocity S-wave (km/s) = 3.31478 4.00793 3.67773
# Velocity P-wave (km/s) = 4.94281 6.31674 5.67153
#
# Compressibility (1/GPa) = 0.03797325
#
# Stress axis : x y z
#
# Youngs Moduli (GPa) = 50.72718 90.17531 57.49633
#
# Poissons Ratio (x) = 0.01087 -0.01271
# Poissons Ratio (y) = 0.00612 0.29964
# Poissons Ratio (z) = -0.01121 0.46994
#
# Static dielectric constant tensor:
#      x y z
#    x 2.055750 -0.025580 -0.011650 
#    y -0.025580 2.192580 -0.072130 
#    z -0.011650 -0.072130 2.117250 
# 
# From -- ./inp_files/501043.got.cif
#   From: 2010.05.17/outbox.cif.g08.bks.cpg/sg2_251_cif.got.tgz:501043.got - 2010.06.03 11:33:40.
