data_PCOD9108283
_publ_section_title
;
Structure prediction by ZEFSAII (Michael W. Deem and Ramdas Pophale) SiO2 
 PCOD9108283
Probable space group: P -1
;
_chemical_formula_sum "Si O2"
_cell_formula_units_Z 16
_cell_length_a 13.922149
_cell_length_b 16.391022
_cell_length_c 6.950248
_cell_angle_alpha 141.067266
_cell_angle_beta 71.566637
_cell_angle_gamma 130.010724
_cell_volume 705.444094
_symmetry_space_group_name_H-M "P -1"
_symmetry_group_IT_number 2
_symmetry_cell_setting 'triclinic'
loop_
_space_group_symop_operation_xyz
x,y,z
-x,-y,-z
loop_
_atom_site_type_symbol
_atom_site_label
_atom_site_fract_x
_atom_site_fract_y
_atom_site_fract_z
Si Si1 0.487606 0.368718 0.413000
Si Si2 0.793079 0.925897 0.076581
Si Si3 0.305146 0.906321 0.322490
Si Si4 0.804109 0.542886 0.998107
Si Si5 0.775578 0.668778 0.895846
Si Si6 0.016456 0.272426 0.419948
Si Si7 0.859948 0.331836 0.369687
Si Si8 0.410828 0.748345 0.157818
O O1 0.500000 0.500000 0.500000
O O2 0.614146 0.502185 0.718089
O O3 0.326058 0.214523 0.257718
O O4 0.530073 0.271944 0.103408
O O5 0.757467 0.030567 0.398401
O O6 0.933024 0.070471 0.144685
O O7 0.792735 0.819667 0.053065
O O8 0.312918 0.780624 0.211425
O O9 0.461203 0.079751 0.500367
O O10 0.225678 0.811492 0.003431
O O11 0.833245 0.687666 0.104732
O O12 0.788913 0.399354 0.619740
O O13 0.666347 0.427602 0.996221
O O14 0.922715 0.628426 0.235149
O O15 0.857869 0.643895 0.652041
O O16 0.907965 0.276327 0.403581
O O17 0.000000 0.500000 0.500000
#
# Coordination Sequence:
#
# PCOD9108283 Si02
#       8
#     2   2   2   2   2   2   2   2
#     4   9  19  41  67  92 128 165 210 263 316 375
#     4  10  23  42  65  94 130 168 213 267 318 375
#     4  10  22  41  66  94 133 166 215 266 317 378
#     4  12  24  40  68  95 127 169 216 264 318 382
#     4  11  23  43  66  94 128 171 214 263 317 385
#     4  12  24  42  65  95 129 169 213 264 325 376
#     4  12  23  40  62  93 129 167 212 262 320 379
#     4  10  20  40  67  97 128 168 211 267 319 377
#
# _framework density 22.680747
#
# number of rings (size 3 to 8) (size 9 to 14) (size 15 to 20)
#    0.000    1.250    2.500    3.750    0.000    2.000 
#    2.250    5.625    0.000    0.000    0.000    0.000 
#    0.000    0.000    0.000    0.000    0.000    0.000 
#
# Total GULP energy -89356.471806 kJ/mol
# GULP energy per Si atom -5584.779488 kJ/mol
# Density = 2.262912 g / cm^3
# Si number density = 22.680747 Si / 1000 Ang^3
#
#
#
# Elastic Constant Matrix: (Units=GPa)
#
#
# Indices 1 2 3 4 5 6 
#
# 1 90.7263 18.7443 26.7573 -4.7965 5.3964 -29.7292
# 2 18.7443 92.2554 18.1004 11.5649 22.3197 -18.1901
# 3 26.7573 18.1004 66.0761 10.9837 29.7489 -6.0424
# 4 -4.7965 11.5649 10.9837 28.1520 -0.0976 2.8069
# 5 5.3964 22.3197 29.7489 -0.0976 44.3389 0.5018
# 6 -29.7292 -18.1901 -6.0424 2.8069 0.5018 28.1669
#
#
#
# Elastic Compliance Matrix: (Units=1/GPa)
#
#
# Indices 1 2 3 4 5 6 
#
# 1 0.019592 -0.000089 -0.008463 0.004866 0.003143 0.018264
# 2 -0.000089 0.016308 0.002783 -0.009044 -0.010222 0.012117
# 3 -0.008463 0.002783 0.029260 -0.014161 -0.020044 0.000910
# 4 0.004866 -0.009044 -0.014161 0.046498 0.013661 -0.008619
# 5 0.003143 -0.010222 -0.020044 0.013661 0.040905 -0.009675
# 6 0.018264 0.012117 0.000910 -0.008619 -0.009675 0.063832
#
#
# Mechanical properties :
#
#
# Convention : Reuss Voigt Hill
#
# Bulk Modulus (GPa) = 18.64943 41.80686 30.22815
# Shear Modulus (GPa) = 20.34122 32.49528 26.41825
#
# Velocity S-wave (km/s) = 2.99799 3.78924 3.41660
# Velocity P-wave (km/s) = 4.49715 6.13329 5.37781
#
# Compressibility (1/GPa) = 0.05362094
#
# Stress axis : x y z
#
# Youngs Moduli (GPa) = 51.04215 61.32089 34.17591
#
# Poissons Ratio (x) = 0.00548 0.28922
# Poissons Ratio (y) = 0.00456 -0.09510
# Poissons Ratio (z) = 0.43195 -0.17064
#
# Static dielectric constant tensor:
#      x y z
#    x 1.901290 0.017530 0.007510 
#    y 0.017530 1.881090 0.006420 
#    z 0.007510 0.006420 1.850460 
# 
# From -- ./inp_files/84277.got.cif
#   From: 2010.05.17/outbox.cif.g08.bks.cpg/sg2_43_cif.got.tgz:84277.got - 2010.06.03 11:33:40.
