data_PCOD9108282
_publ_section_title
;
Structure prediction by ZEFSAII (Michael W. Deem and Ramdas Pophale) SiO2 
 PCOD9108282
Probable space group: P -1
;
_chemical_formula_sum "Si O2"
_cell_formula_units_Z 12
_cell_length_a 17.269616
_cell_length_b 18.481412
_cell_length_c 11.771280
_cell_angle_alpha 21.006271
_cell_angle_beta 148.082400
_cell_angle_gamma 158.170356
_cell_volume 496.314551
_symmetry_space_group_name_H-M "P -1"
_symmetry_group_IT_number 2
_symmetry_cell_setting 'triclinic'
loop_
_space_group_symop_operation_xyz
x,y,z
-x,-y,-z
loop_
_atom_site_type_symbol
_atom_site_label
_atom_site_fract_x
_atom_site_fract_y
_atom_site_fract_z
Si Si1 0.159519 0.024034 0.880476
Si Si2 0.485569 0.003866 0.340808
Si Si3 0.289963 0.387854 0.991609
Si Si4 0.748336 0.272449 0.903170
Si Si5 0.292458 0.358987 0.790874
Si Si6 0.141327 0.423081 0.163040
O O1 0.227481 0.168264 0.879651
O O2 0.189398 0.235231 0.518643
O O3 0.301478 0.969868 0.117553
O O4 0.910122 0.745883 0.988855
O O5 0.425212 0.720058 0.642791
O O6 0.500000 0.000000 0.500000
O O7 0.702825 0.313549 0.115050
O O8 0.221760 0.222788 0.028469
O O9 0.452788 0.404231 0.234371
O O10 0.788885 0.495772 0.540418
O O11 0.810909 0.422708 0.883312
O O12 0.897213 0.232433 0.115944
O O13 0.500000 0.000000 0.000000
#
# Coordination Sequence:
#
# PCOD9108282 Si02
#       6
#     2   2   2   2   2   2
#     4  11  23  44  66  94 132 174 216 269 328 384
#     4  12  25  44  65  95 139 175 216 263 329 389
#     4  11  23  41  66  98 130 173 220 269 322 386
#     4  10  20  40  67  97 128 167 219 270 326 381
#     4  10  22  38  66  97 129 163 222 273 324 376
#     4  10  24  42  66  95 132 171 215 270 324 384
#
# _framework density 24.178215000000002
#
# number of rings (size 3 to 8) (size 9 to 14) (size 15 to 20)
#    0.000    1.333    1.667    3.500    2.333    6.667 
#    3.000    0.833    0.000    0.000    0.000    0.000 
#    0.000    0.000    0.000    0.000    0.000    0.000 
#
# Total GULP energy -67147.068176 kJ/mol
# GULP energy per Si atom -5595.589015 kJ/mol
# Density = 2.412318 g / cm^3
# Si number density = 24.178215 Si / 1000 Ang^3
#
#
#
# Elastic Constant Matrix: (Units=GPa)
#
#
# Indices 1 2 3 4 5 6 
#
# 1 38.0100 18.1797 33.3404 8.3520 -0.1508 -0.0877
# 2 18.1797 119.3057 47.5155 11.1945 -8.5480 23.5866
# 3 33.3404 47.5155 130.0675 7.5991 0.0402 20.1531
# 4 8.3520 11.1945 7.5991 41.2189 11.1746 -0.5959
# 5 -0.1508 -8.5480 0.0402 11.1746 37.4937 0.9114
# 6 -0.0877 23.5866 20.1531 -0.5959 0.9114 43.1221
#
#
#
# Elastic Compliance Matrix: (Units=1/GPa)
#
#
# Indices 1 2 3 4 5 6 
#
# 1 0.036597 -0.002521 -0.009016 -0.005263 0.001015 0.005573
# 2 -0.002521 0.011346 -0.002516 -0.003171 0.003650 -0.005156
# 3 -0.009016 -0.002516 0.011508 0.000515 -0.000678 -0.003999
# 4 -0.005263 -0.003171 0.000515 0.028654 -0.009335 0.002076
# 5 0.001015 0.003650 -0.000678 -0.009335 0.030350 -0.002448
# 6 0.005573 -0.005156 -0.003999 0.002076 -0.002448 0.027971
#
#
# Mechanical properties :
#
#
# Convention : Reuss Voigt Hill
#
# Bulk Modulus (GPa) = 31.90238 53.93939 42.92088
# Shear Modulus (GPa) = 27.02988 36.92347 31.97667
#
# Velocity S-wave (km/s) = 3.34719 3.91210 3.64062
# Velocity P-wave (km/s) = 5.30675 6.53939 5.95505
#
# Compressibility (1/GPa) = 0.03134563
#
# Stress axis : x y z
#
# Youngs Moduli (GPa) = 27.32502 88.13422 86.89392
#
# Poissons Ratio (x) = 0.22217 0.78345
# Poissons Ratio (y) = 0.06888 0.21860
# Poissons Ratio (z) = 0.24637 0.22172
#
# Static dielectric constant tensor:
#      x y z
#    x 1.984150 -0.027010 0.027550 
#    y -0.027010 1.971770 0.005740 
#    z 0.027550 0.005740 1.943030 
# 
# From -- ./inp_files/60202.got.cif
#   From: 2010.05.17/outbox.cif.g08.bks.cpg/sg2_31_cif.got.tgz:60202.got - 2010.06.03 11:33:40.
