data_PCOD9108362
_publ_section_title
;
Structure prediction by ZEFSAII (Michael W. Deem and Ramdas Pophale) SiO2 
 PCOD9108362
Probable space group: P -1
;
_chemical_formula_sum "Si O2"
_cell_formula_units_Z 16
_cell_length_a 8.604755
_cell_length_b 9.811773
_cell_length_c 13.735777
_cell_angle_alpha 67.033526
_cell_angle_beta 39.497617
_cell_angle_gamma 65.609433
_cell_volume 666.639165
_symmetry_space_group_name_H-M "P -1"
_symmetry_group_IT_number 2
_symmetry_cell_setting 'triclinic'
loop_
_space_group_symop_operation_xyz
x,y,z
-x,-y,-z
loop_
_atom_site_type_symbol
_atom_site_label
_atom_site_fract_x
_atom_site_fract_y
_atom_site_fract_z
Si Si1 0.110799 0.918989 0.714470
Si Si2 0.047881 0.668376 0.449953
Si Si3 0.425397 0.649437 0.101182
Si Si4 0.866229 0.879568 0.043739
Si Si5 0.221293 0.530130 0.594738
Si Si6 0.679042 0.791716 0.460162
Si Si7 0.391637 0.061732 0.139078
Si Si8 0.123124 0.561944 0.089986
O O1 0.383740 0.827796 0.581294
O O2 0.979107 0.856892 0.886629
O O3 0.902196 0.940222 0.724226
O O4 0.186664 0.073779 0.675402
O O5 0.251815 0.703129 0.263527
O O6 0.144973 0.657824 0.515411
O O7 0.000000 0.500000 0.500000
O O8 0.780348 0.772058 0.528264
O O9 0.262197 0.584548 0.117703
O O10 0.539057 0.772552 0.949525
O O11 0.652972 0.519658 0.063310
O O12 0.952674 0.716522 0.095435
O O13 0.572571 0.955488 0.156987
O O14 0.000000 0.000000 0.000000
O O15 0.500000 0.500000 0.500000
O O16 0.211928 0.364927 0.600029
O O17 0.051547 0.554448 0.764986
O O18 0.500000 0.000000 0.000000
#
# Coordination Sequence:
#
# PCOD9108362 Si02
#       8
#     2   2   2   2   2   2   2   2
#     4  10  23  39  65  93 121 170 215 271 309 391
#     4  10  20  40  68  85 126 175 211 249 327 392
#     4  11  22  41  65  99 127 168 219 268 318 388
#     4  11  21  39  65  95 130 171 212 260 333 383
#     4  11  25  41  63  93 133 170 208 268 328 382
#     4  10  21  42  65  88 127 167 221 256 325 389
#     4  10  22  40  64  92 129 164 219 267 320 380
#     4  11  24  38  65  98 133 163 215 271 321 381
#
# _framework density 24.000988
#
# number of rings (size 3 to 8) (size 9 to 14) (size 15 to 20)
#    0.000    1.500    3.750    2.250    5.250    3.000 
#    0.000    3.125    0.000    3.750    0.000    0.000 
#    0.000    0.000    0.000    0.000    0.000    0.000 
#
# Total GULP energy -89279.026892 kJ/mol
# GULP energy per Si atom -5579.939181 kJ/mol
# Density = 2.394636 g / cm^3
# Si number density = 24.000988 Si / 1000 Ang^3
#
#
#
# Elastic Constant Matrix: (Units=GPa)
#
#
# Indices 1 2 3 4 5 6 
#
# 1 109.3525 29.5357 47.8159 11.8882 -33.7095 -48.4525
# 2 29.5357 87.0764 35.5170 10.9368 -11.4325 -37.3699
# 3 47.8159 35.5170 96.0495 7.3313 -30.6705 -32.3139
# 4 11.8882 10.9368 7.3313 29.6060 -11.4728 -4.3876
# 5 -33.7095 -11.4325 -30.6705 -11.4728 42.3875 6.6529
# 6 -48.4525 -37.3699 -32.3139 -4.3876 6.6529 53.4319
#
#
#
# Elastic Compliance Matrix: (Units=1/GPa)
#
#
# Indices 1 2 3 4 5 6 
#
# 1 0.021982 0.003523 -0.000847 -0.001415 0.014298 0.019988
# 2 0.003523 0.018099 -0.002833 -0.004511 0.002296 0.013484
# 3 -0.000847 -0.002833 0.017335 0.002204 0.010668 0.006587
# 4 -0.001415 -0.004511 0.002204 0.039187 0.010038 -0.001137
# 5 0.014298 0.002296 0.010668 0.010038 0.043438 0.016439
# 6 0.019988 0.013484 0.006587 -0.001137 0.016439 0.048114
#
#
# Mechanical properties :
#
#
# Convention : Reuss Voigt Hill
#
# Bulk Modulus (GPa) = 17.51281 57.57950 37.54616
# Shear Modulus (GPa) = 24.09602 37.05904 30.57753
#
# Velocity S-wave (km/s) = 3.17197 3.93372 3.57320
# Velocity P-wave (km/s) = 4.55277 6.68392 5.71850
#
# Compressibility (1/GPa) = 0.05710105
#
# Stress axis : x y z
#
# Youngs Moduli (GPa) = 45.49263 55.25052 57.68736
#
# Poissons Ratio (x) = -0.19463 0.04889
# Poissons Ratio (y) = -0.16026 0.16341
# Poissons Ratio (z) = 0.03855 0.15650
#
# Static dielectric constant tensor:
#      x y z
#    x 2.057050 0.053950 -0.053240 
#    y 0.053950 2.059940 -0.098820 
#    z -0.053240 -0.098820 2.048960 
# 
# From -- ./inp_files/500129.got.cif
#   From: 2010.05.17/outbox.cif.g08.bks.cpg/sg2_251_cif.got.tgz:500129.got - 2010.06.03 11:33:40.
