data_PCOD9108058
_publ_section_title
;
Structure prediction by ZEFSAII (Michael W. Deem and Ramdas Pophale) SiO2 
 PCOD9108058
Probable space group: P -1
;
_chemical_formula_sum "Si O2"
_cell_formula_units_Z 15
_cell_length_a 8.398908
_cell_length_b 15.668778
_cell_length_c 14.379514
_cell_angle_alpha 40.746012
_cell_angle_beta 34.354474
_cell_angle_gamma 46.343753
_cell_volume 686.113183
_symmetry_space_group_name_H-M "P -1"
_symmetry_group_IT_number 2
_symmetry_cell_setting 'triclinic'
loop_
_space_group_symop_operation_xyz
x,y,z
-x,-y,-z
loop_
_atom_site_type_symbol
_atom_site_label
_atom_site_fract_x
_atom_site_fract_y
_atom_site_fract_z
Si Si1 0.664991 0.349843 0.058502
Si Si2 0.500000 0.000000 0.500000
Si Si3 0.126981 0.170872 0.259635
Si Si4 0.472865 0.906019 0.387341
Si Si5 0.136267 0.396533 0.940671
Si Si6 0.992447 0.684306 0.260600
Si Si7 0.129441 0.222390 0.428553
Si Si8 0.742434 0.418214 0.584372
O O1 0.441992 0.257859 0.277794
O O2 0.500000 0.500000 0.000000
O O3 0.906814 0.364271 0.004187
O O4 0.796578 0.294544 0.942445
O O5 0.583329 0.961713 0.382744
O O6 0.826510 0.929600 0.436948
O O7 0.113370 0.235998 0.314958
O O8 0.796576 0.165870 0.399441
O O9 0.324644 0.027325 0.293707
O O10 0.249580 0.260582 0.052534
O O11 0.732018 0.805545 0.299808
O O12 0.401230 0.445677 0.724254
O O13 0.000000 0.500000 0.000000
O O14 0.864409 0.553456 0.403145
O O15 0.151694 0.645117 0.314069
O O16 0.881977 0.317001 0.522064
#
# Coordination Sequence:
#
# PCOD9108058 Si02
#       8
#     2   1   2   2   2   2   2   2
#     4  12  25  44  67  94 133 170 221 267 333 385
#     4  10  20  40  66  96 126 180 214 264 324 386
#     4  10  23  42  67  93 138 168 223 263 332 382
#     4  10  21  41  68  97 131 179 217 271 321 392
#     4  12  26  42  64  98 133 173 213 277 327 386
#     4  11  23  41  67  97 131 173 222 270 322 391
#     4  11  22  42  68  96 130 177 218 265 325 394
#     4  11  24  40  69  99 134 165 221 272 325 390
#
# _framework density 21.862280999999999
#
# number of rings (size 3 to 8) (size 9 to 14) (size 15 to 20)
#    0.000    1.067    2.667    4.000    3.733    0.533 
#    2.400    2.667    0.000    0.000    0.000    0.000 
#    0.000    0.000    0.000    0.000    0.000    0.000 
#
# Total GULP energy -83693.484355 kJ/mol
# GULP energy per Si atom -5579.565624 kJ/mol
# Density = 2.181252 g / cm^3
# Si number density = 21.862281 Si / 1000 Ang^3
#
#
#
# Elastic Constant Matrix: (Units=GPa)
#
#
# Indices 1 2 3 4 5 6 
#
# 1 78.8169 -2.6839 -1.2216 6.3498 2.7235 -6.2814
# 2 -2.6839 105.6967 6.9687 39.8018 16.0388 6.6307
# 3 -1.2216 6.9687 58.0693 16.6530 -7.1093 -6.7802
# 4 6.3498 39.8018 16.6530 33.8082 -1.0950 5.9987
# 5 2.7235 16.0388 -7.1093 -1.0950 31.1981 -1.1077
# 6 -6.2814 6.6307 -6.7802 5.9987 -1.1077 24.6013
#
#
#
# Elastic Compliance Matrix: (Units=1/GPa)
#
#
# Indices 1 2 3 4 5 6 
#
# 1 0.014210 0.003941 0.002986 -0.009874 -0.002731 0.005674
# 2 0.003941 0.022192 0.005092 -0.030335 -0.011540 0.003305
# 3 0.002986 0.005092 0.024068 -0.020302 0.002287 0.011076
# 4 -0.009874 -0.030335 -0.020302 0.080982 0.013997 -0.019056
# 5 -0.002731 -0.011540 0.002287 0.013997 0.039286 0.001399
# 6 0.005674 0.003305 0.011076 -0.019056 0.001399 0.048968
#
#
# Mechanical properties :
#
#
# Convention : Reuss Voigt Hill
#
# Bulk Modulus (GPa) = 11.83313 27.63435 19.73374
# Shear Modulus (GPa) = 21.38229 33.88950 27.63590
#
# Velocity S-wave (km/s) = 3.13076 3.94145 3.55926
# Velocity P-wave (km/s) = 4.30038 5.77763 5.09285
#
# Compressibility (1/GPa) = 0.08450850
#
# Stress axis : x y z
#
# Youngs Moduli (GPa) = 70.37218 45.06045 41.54887
#
# Poissons Ratio (x) = -0.17757 -0.12406
# Poissons Ratio (y) = -0.27732 -0.21158
# Poissons Ratio (z) = -0.21012 -0.22946
#
# Static dielectric constant tensor:
#      x y z
#    x 1.806540 -0.015590 -0.008420 
#    y -0.015590 1.754150 -0.013540 
#    z -0.008420 -0.013540 1.780040 
# 
# From -- ./inp_files/182050.got.cif
#   From: 2010.05.17/outbox.cif.g08.bks.cpg/sg2_92_cif.got.tgz:182050.got - 2010.06.03 11:33:40.
