data_PCOD9108095
_publ_section_title
;
Structure prediction by ZEFSAII (Michael W. Deem and Ramdas Pophale) SiO2 
 PCOD9108095
Probable space group: P -1
;
_chemical_formula_sum "Si O2"
_cell_formula_units_Z 16
_cell_length_a 9.329733
_cell_length_b 12.342661
_cell_length_c 23.349331
_cell_angle_alpha 18.926353
_cell_angle_beta 58.296947
_cell_angle_gamma 55.274622
_cell_volume 715.880973
_symmetry_space_group_name_H-M "P -1"
_symmetry_group_IT_number 2
_symmetry_cell_setting 'triclinic'
loop_
_space_group_symop_operation_xyz
x,y,z
-x,-y,-z
loop_
_atom_site_type_symbol
_atom_site_label
_atom_site_fract_x
_atom_site_fract_y
_atom_site_fract_z
Si Si1 0.491377 0.678465 0.236259
Si Si2 0.675733 0.527270 0.917070
Si Si3 0.883669 0.487146 0.475895
Si Si4 0.826408 0.428316 0.702252
Si Si5 0.031600 0.331337 0.140017
Si Si6 0.356246 0.676257 0.097464
Si Si7 0.673697 0.243758 0.306928
Si Si8 0.499932 0.711041 0.453036
O O1 0.287481 0.757515 0.221467
O O2 0.594741 0.435636 0.285679
O O3 0.523119 0.497214 0.381642
O O4 0.560462 0.015787 0.056356
O O5 0.842991 0.484024 0.943878
O O6 0.699324 0.300994 0.967882
O O7 0.636707 0.922336 0.705433
O O8 0.500000 0.500000 0.000000
O O9 0.696832 0.743500 0.397615
O O10 0.000000 0.500000 0.500000
O O11 0.979069 0.606735 0.342281
O O12 0.878541 0.085673 0.672590
O O13 0.796193 0.334187 0.820708
O O14 0.733601 0.835346 0.508774
O O15 0.843860 0.359277 0.194042
O O16 0.000000 0.500000 0.000000
O O17 0.518654 0.341395 0.243886
O O18 0.500000 0.500000 0.500000
#
# Coordination Sequence:
#
# PCOD9108095 Si02
#       8
#     2   2   2   2   2   2   2   2
#     4  11  22  40  66  97 131 173 216 266 322 389
#     4  12  26  45  65  97 132 175 214 270 334 384
#     4  11  24  41  69 100 127 173 218 266 321 382
#     4  10  20  40  66  98 131 170 222 263 319 389
#     4  11  26  44  67  96 132 169 218 271 323 394
#     4  11  23  40  67  97 132 171 216 267 328 384
#     4  10  21  40  67  97 126 175 218 266 322 383
#     4  12  24  44  66  95 136 171 218 266 328 388
#
# _framework density 22.350083999999999
#
# number of rings (size 3 to 8) (size 9 to 14) (size 15 to 20)
#    0.000    1.000    2.500    6.000    5.250    1.000 
#    2.250    2.500    0.000    0.000    0.000    0.000 
#    0.000    0.000    0.000    0.000    0.000    0.000 
#
# Total GULP energy -89600.255098 kJ/mol
# GULP energy per Si atom -5600.015944 kJ/mol
# Density = 2.229921 g / cm^3
# Si number density = 22.350084 Si / 1000 Ang^3
#
#
#
# Elastic Constant Matrix: (Units=GPa)
#
#
# Indices 1 2 3 4 5 6 
#
# 1 106.0013 39.5181 14.2534 17.9060 -10.6966 22.4624
# 2 39.5181 100.0238 36.9867 37.2080 -5.1480 13.5828
# 3 14.2534 36.9867 88.8069 22.3954 -13.9052 2.2139
# 4 17.9060 37.2080 22.3954 50.2077 0.1240 -3.3001
# 5 -10.6966 -5.1480 -13.9052 0.1240 33.7217 -2.2491
# 6 22.4624 13.5828 2.2139 -3.3001 -2.2491 42.0858
#
#
#
# Elastic Compliance Matrix: (Units=1/GPa)
#
#
# Indices 1 2 3 4 5 6 
#
# 1 0.012578 -0.003240 0.000712 -0.002788 0.003416 -0.005741
# 2 -0.003240 0.017045 -0.004007 -0.009975 -0.000332 -0.004361
# 3 0.000712 -0.004007 0.014668 -0.003832 0.005686 0.000145
# 4 -0.002788 -0.009975 -0.003832 0.030489 -0.003625 0.007106
# 5 0.003416 -0.000332 0.005686 -0.003625 0.033010 -0.000535
# 6 -0.005741 -0.004361 0.000145 0.007106 -0.000535 0.028754
#
#
# Mechanical properties :
#
#
# Convention : Reuss Voigt Hill
#
# Bulk Modulus (GPa) = 32.02986 52.92760 42.47873
# Shear Modulus (GPa) = 31.24592 38.80796 35.02694
#
# Velocity S-wave (km/s) = 3.74307 4.17149 3.96308
# Velocity P-wave (km/s) = 5.74829 6.85087 6.32366
#
# Compressibility (1/GPa) = 0.03122087
#
# Stress axis : x y z
#
# Youngs Moduli (GPa) = 79.50158 58.66812 68.17605
#
# Poissons Ratio (x) = 0.19010 -0.04852
# Poissons Ratio (y) = 0.25760 0.27317
# Poissons Ratio (z) = -0.05659 0.23507
#
# Static dielectric constant tensor:
#      x y z
#    x 1.756360 -0.013720 -0.025270 
#    y -0.013720 1.823630 -0.017000 
#    z -0.025270 -0.017000 1.841330 
# 
# From -- ./inp_files/607728.got.cif
#   From: 2010.05.17/outbox.cif.g08.bks.cpg/sg2_304_cif.got.tgz:607728.got - 2010.06.03 11:33:40.
