data_PCOD9108935
_publ_section_title
;
Structure prediction by ZEFSAII (Michael W. Deem and Ramdas Pophale) SiO2 
 PCOD9108935
Probable space group: P -1
;
_chemical_formula_sum "Si O2"
_cell_formula_units_Z 16
_cell_length_a 15.642344
_cell_length_b 8.061181
_cell_length_c 17.921766
_cell_angle_alpha 58.562505
_cell_angle_beta 22.790728
_cell_angle_gamma 60.603315
_cell_volume 746.551696
_symmetry_space_group_name_H-M "P -1"
_symmetry_group_IT_number 2
_symmetry_cell_setting 'triclinic'
loop_
_space_group_symop_operation_xyz
x,y,z
-x,-y,-z
loop_
_atom_site_type_symbol
_atom_site_label
_atom_site_fract_x
_atom_site_fract_y
_atom_site_fract_z
Si Si1 0.331052 0.579971 0.813297
Si Si2 0.478875 0.229018 0.038531
Si Si3 0.484463 0.784578 0.161591
Si Si4 0.062999 0.711527 0.319579
Si Si5 0.164877 0.399968 0.742625
Si Si6 0.260091 0.174115 0.568502
Si Si7 0.631278 0.270624 0.417064
Si Si8 0.981784 0.275480 0.481615
O O1 0.396040 0.366862 0.843686
O O2 0.512653 0.728332 0.663685
O O3 0.345440 0.602484 0.707043
O O4 0.080068 0.632206 0.024517
O O5 0.226667 0.242456 0.262828
O O6 0.557412 0.005551 0.045643
O O7 0.488457 0.283657 0.930488
O O8 0.678759 0.337494 0.891772
O O9 0.221147 0.795130 0.387060
O O10 0.942596 0.507032 0.465556
O O11 0.932974 0.832474 0.334744
O O12 0.040668 0.804260 0.397733
O O13 0.179589 0.318141 0.665931
O O14 0.226308 0.624062 0.658788
O O15 0.371089 0.284155 0.643056
O O16 0.308155 0.949657 0.602197
#
# Coordination Sequence:
#
# PCOD9108935 Si02
#       8
#     2   2   2   2   2   2   2   2
#     4  11  22  40  66  92 128 166 209 262 314 377
#     4  10  22  38  61  89 125 166 208 257 313 372
#     4  10  22  38  60  95 124 159 212 261 307 372
#     4  10  22  38  59  92 122 163 213 257 306 375
#     4  10  23  43  67  91 123 175 203 260 327 364
#     4  11  24  43  65  96 132 163 212 264 308 378
#     4  10  24  45  65  95 130 161 212 266 310 379
#     4  10  20  41  60  83 128 164 207 259 314 366
#
# _framework density 21.431873
#
# number of rings (size 3 to 8) (size 9 to 14) (size 15 to 20)
#    0.000    1.750    1.250    2.625    3.500    3.000 
#    6.750    0.000    0.000    0.000    0.000    0.000 
#    0.000    0.000    0.000    0.000    0.000    0.000 
#
# Total GULP energy -89204.152395 kJ/mol
# GULP energy per Si atom -5575.259525 kJ/mol
# Density = 2.138309 g / cm^3
# Si number density = 21.431873 Si / 1000 Ang^3
#
#
#
# Elastic Constant Matrix: (Units=GPa)
#
#
# Indices 1 2 3 4 5 6 
#
# 1 66.6392 40.3995 38.3598 13.6034 -4.9036 -18.2049
# 2 40.3995 84.9580 24.4216 -6.5208 12.2390 -16.8588
# 3 38.3598 24.4216 159.4709 24.7498 -9.6855 -7.0122
# 4 13.6034 -6.5208 24.7498 25.4620 -1.4115 0.2650
# 5 -4.9036 12.2390 -9.6855 -1.4115 16.9554 -5.3924
# 6 -18.2049 -16.8588 -7.0122 0.2650 -5.3924 25.8407
#
#
#
# Elastic Compliance Matrix: (Units=1/GPa)
#
#
# Indices 1 2 3 4 5 6 
#
# 1 0.043485 -0.023471 0.000639 -0.028171 0.034873 0.023062
# 2 -0.023471 0.029270 -0.004424 0.022716 -0.030198 -0.005174
# 3 0.000639 -0.004424 0.008871 -0.009660 0.008208 0.001783
# 4 -0.028171 0.022716 -0.009660 0.068076 -0.028973 -0.014392
# 5 0.034873 -0.030198 0.008208 -0.028973 0.102277 0.028734
# 6 0.023062 -0.005174 0.001783 -0.014392 0.028734 0.058198
#
#
# Mechanical properties :
#
#
# Convention : Reuss Voigt Hill
#
# Bulk Modulus (GPa) = 36.88254 57.49223 47.18738
# Shear Modulus (GPa) = 13.37872 27.51076 20.44474
#
# Velocity S-wave (km/s) = 2.50120 3.58668 3.09194
# Velocity P-wave (km/s) = 5.05845 6.63597 5.90017
#
# Compressibility (1/GPa) = 0.02711310
#
# Stress axis : x y z
#
# Youngs Moduli (GPa) = 22.99651 34.16430 112.72987
#
# Poissons Ratio (x) = 0.80188 -0.07199
# Poissons Ratio (y) = 0.53976 0.49868
# Poissons Ratio (z) = -0.01469 0.15113
#
# Static dielectric constant tensor:
#      x y z
#    x 1.809480 0.021260 -0.004080 
#    y 0.021260 1.809890 0.016530 
#    z -0.004080 0.016530 1.805520 
# 
# From -- ./inp_files/599731.got.cif
#   From: 2010.05.17/outbox.cif.g08.bks.cpg/sg2_300_cif.got.tgz:599731.got - 2010.06.03 11:33:40.
