data_PCOD9108216
_publ_section_title
;
Structure prediction by ZEFSAII (Michael W. Deem and Ramdas Pophale) SiO2 
 PCOD9108216
Probable space group: P -1
;
_chemical_formula_sum "Si O2"
_cell_formula_units_Z 14
_cell_length_a 8.952752
_cell_length_b 8.807059
_cell_length_c 19.926741
_cell_angle_alpha 54.232500
_cell_angle_beta 54.304374
_cell_angle_gamma 32.642175
_cell_volume 672.509252
_symmetry_space_group_name_H-M "P -1"
_symmetry_group_IT_number 2
_symmetry_cell_setting 'triclinic'
loop_
_space_group_symop_operation_xyz
x,y,z
-x,-y,-z
loop_
_atom_site_type_symbol
_atom_site_label
_atom_site_fract_x
_atom_site_fract_y
_atom_site_fract_z
Si Si1 0.905237 0.080008 0.277692
Si Si2 0.511627 0.299957 0.005700
Si Si3 0.631068 0.119535 0.578939
Si Si4 0.079102 0.369305 0.937201
Si Si5 0.820323 0.307942 0.384354
Si Si6 0.495528 0.636170 0.167764
Si Si7 0.226851 0.225633 0.559842
O O1 0.898024 0.207232 0.314151
O O2 0.628499 0.345966 0.238665
O O3 0.898791 0.872314 0.357473
O O4 0.178443 0.908987 0.205518
O O5 0.227964 0.406469 0.073536
O O6 0.771548 0.949895 0.028002
O O7 0.500000 0.500000 0.000000
O O8 0.490076 0.374021 0.913828
O O9 0.751539 0.167133 0.478116
O O10 0.474280 0.355689 0.617649
O O11 0.371860 0.211034 0.589755
O O12 0.909531 0.811433 0.617227
O O13 0.304937 0.349931 0.861431
O O14 0.000000 0.500000 0.000000
O O15 0.000000 0.500000 0.500000
O O16 0.500000 0.000000 0.500000
#
# Coordination Sequence:
#
# PCOD9108216 Si02
#       7
#     2   2   2   2   2   2   2
#     4  12  24  40  61  91 127 165 210 270 330 371
#     4  11  22  41  70 101 128 169 214 259 316 389
#     4  10  21  38  60  84 111 150 217 264 302 366
#     4  10  20  40  67  93 125 169 217 250 303 396
#     4  10  21  37  60  84 112 155 204 265 311 369
#     4  11  23  41  62  93 129 166 208 262 318 388
#     4  12  24  40  61  88 120 169 216 262 319 389
#
# _framework density 20.817556
#
# number of rings (size 3 to 8) (size 9 to 14) (size 15 to 20)
#    0.000    1.143    1.429    7.286    4.000    0.000 
#    0.000    8.571    0.000    0.000    0.000    0.000 
#    0.000    0.000    0.000    0.000    0.000    0.000 
#
# Total GULP energy -78090.193065 kJ/mol
# GULP energy per Si atom -5577.870933 kJ/mol
# Density = 2.077017 g / cm^3
# Si number density = 20.817556 Si / 1000 Ang^3
#
#
#
# Elastic Constant Matrix: (Units=GPa)
#
#
# Indices 1 2 3 4 5 6 
#
# 1 70.9321 17.6309 24.8422 19.4978 0.7170 4.9759
# 2 17.6309 122.4283 20.7845 8.0373 16.6093 -1.9797
# 3 24.8422 20.7845 54.2493 2.6251 8.8333 10.6070
# 4 19.4978 8.0373 2.6251 35.2945 0.6244 2.4385
# 5 0.7170 16.6093 8.8333 0.6244 21.2678 -2.3720
# 6 4.9759 -1.9797 10.6070 2.4385 -2.3720 30.8364
#
#
#
# Elastic Compliance Matrix: (Units=1/GPa)
#
#
# Indices 1 2 3 4 5 6 
#
# 1 0.020432 -0.001284 -0.009303 -0.010453 0.004596 0.001001
# 2 -0.001284 0.009715 -0.002262 -0.001305 -0.006430 0.001218
# 3 -0.009303 -0.002262 0.026755 0.004465 -0.010165 -0.008982
# 4 -0.010453 -0.001305 0.004465 0.034297 -0.001800 -0.002783
# 5 0.004596 -0.006430 -0.010165 -0.001800 0.056926 0.006863
# 6 0.001001 0.001218 -0.008982 -0.002783 0.006863 0.036184
#
#
# Mechanical properties :
#
#
# Convention : Reuss Voigt Hill
#
# Bulk Modulus (GPa) = 32.04645 41.56942 36.80794
# Shear Modulus (GPa) = 22.68525 29.76989 26.22757
#
# Velocity S-wave (km/s) = 3.30467 3.78569 3.55333
# Velocity P-wave (km/s) = 5.47617 6.25463 5.87830
#
# Compressibility (1/GPa) = 0.03120470
#
# Stress axis : x y z
#
# Youngs Moduli (GPa) = 48.94300 102.93735 37.37586
#
# Poissons Ratio (x) = 0.13220 0.34769
# Poissons Ratio (y) = 0.06286 0.08454
# Poissons Ratio (z) = 0.45529 0.23282
#
# Static dielectric constant tensor:
#      x y z
#    x 1.977680 0.094320 0.071400 
#    y 0.094320 1.784050 0.008420 
#    z 0.071400 0.008420 1.767240 
# 
# From -- ./inp_files/225557.got.cif
#   From: 2010.05.17/outbox.cif.g08.bks.cpg/sg2_113_cif.got.tgz:225557.got - 2010.06.03 11:33:40.
