data_PCOD9108473
_publ_section_title
;
Structure prediction by ZEFSAII (Michael W. Deem and Ramdas Pophale) SiO2 
 PCOD9108473
Probable space group: P -1
;
_chemical_formula_sum "Si O2"
_cell_formula_units_Z 14
_cell_length_a 8.870325
_cell_length_b 8.535701
_cell_length_c 7.366293
_cell_angle_alpha 75.818976
_cell_angle_beta 99.282348
_cell_angle_gamma 106.487207
_cell_volume 515.972623
_symmetry_space_group_name_H-M "P -1"
_symmetry_group_IT_number 2
_symmetry_cell_setting 'triclinic'
loop_
_space_group_symop_operation_xyz
x,y,z
-x,-y,-z
loop_
_atom_site_type_symbol
_atom_site_label
_atom_site_fract_x
_atom_site_fract_y
_atom_site_fract_z
Si Si1 0.885702 0.277079 0.588665
Si Si2 0.503672 0.365906 0.388623
Si Si3 0.319362 0.006584 0.596731
Si Si4 0.844064 0.516351 0.230977
Si Si5 0.851897 0.021249 0.080408
Si Si6 0.538912 0.796811 0.906325
Si Si7 0.239911 0.639073 0.102202
O O1 0.436938 0.184510 0.523096
O O2 0.920727 0.376670 0.377543
O O3 0.054589 0.311659 0.712523
O O4 0.789364 0.367187 0.686390
O O5 0.500000 0.500000 0.500000
O O6 0.228294 0.901462 0.436659
O O7 0.670784 0.445858 0.298517
O O8 0.404825 0.321199 0.194730
O O9 0.428139 0.898841 0.748639
O O10 0.178763 0.020467 0.701089
O O11 0.836092 0.503596 0.017281
O O12 0.691524 0.914271 0.988334
O O13 0.838924 0.210783 0.006637
O O14 0.000000 0.000000 0.000000
O O15 0.423704 0.699755 0.067595
#
# Coordination Sequence:
#
# PCOD9108473 Si02
#       7
#     2   2   2   2   2   2   2
#     4  11  21  39  73 101 128 178 230 286 321 396
#     4  11  24  42  66  99 139 175 226 287 341 402
#     4  11  22  43  74  98 128 188 238 266 337 425
#     4  10  23  40  63 105 141 170 233 279 336 400
#     4  11  24  40  63 102 140 171 225 296 343 400
#     4  10  22  42  68  97 133 180 236 273 331 425
#     4  10  20  40  68  97 134 181 230 273 334 412
#
# _framework density 27.133226000000001
#
# number of rings (size 3 to 8) (size 9 to 14) (size 15 to 20)
#    0.000    1.429    4.286    3.429    4.000    3.429 
#    0.000    2.857    0.000    0.000    0.000    0.000 
#    0.000    0.000    0.000    0.000    0.000    0.000 
#
# Total GULP energy -78232.103668 kJ/mol
# GULP energy per Si atom -5588.007405 kJ/mol
# Density = 2.707147 g / cm^3
# Si number density = 27.133226 Si / 1000 Ang^3
#
#
#
# Elastic Constant Matrix: (Units=GPa)
#
#
# Indices 1 2 3 4 5 6 
#
# 1 125.5957 70.8101 48.2743 13.8333 -13.5993 28.1577
# 2 70.8101 161.3643 61.7399 36.2141 9.6513 32.6796
# 3 48.2743 61.7399 160.7368 40.9492 -18.9247 8.5563
# 4 13.8333 36.2141 40.9492 63.8703 13.6001 6.8510
# 5 -13.5993 9.6513 -18.9247 13.6001 43.6551 7.3381
# 6 28.1577 32.6796 8.5563 6.8510 7.3381 49.9293
#
#
#
# Elastic Compliance Matrix: (Units=1/GPa)
#
#
# Indices 1 2 3 4 5 6 
#
# 1 0.012515 -0.004365 -0.001211 -0.000047 0.005151 -0.004744
# 2 -0.004365 0.010357 -0.002284 -0.002414 -0.003367 -0.003100
# 3 -0.001211 -0.002284 0.009690 -0.006007 0.006126 0.000441
# 4 -0.000047 -0.002414 -0.006007 0.022779 -0.009330 0.000881
# 5 0.005151 -0.003367 0.006126 -0.009330 0.031680 -0.005127
# 6 -0.004744 -0.003100 0.000441 0.000881 -0.005127 0.025289
#
#
# Mechanical properties :
#
#
# Convention : Reuss Voigt Hill
#
# Bulk Modulus (GPa) = 59.37307 89.92726 74.65016
# Shear Modulus (GPa) = 37.41235 49.28244 43.34740
#
# Velocity S-wave (km/s) = 3.71730 4.26645 4.00131
# Velocity P-wave (km/s) = 6.35248 7.58188 6.99424
#
# Compressibility (1/GPa) = 0.01684265
#
# Stress axis : x y z
#
# Youngs Moduli (GPa) = 79.90350 96.54937 103.19408
#
# Poissons Ratio (x) = 0.42147 0.12497
# Poissons Ratio (y) = 0.34881 0.23567
# Poissons Ratio (z) = 0.09676 0.22050
#
# Static dielectric constant tensor:
#      x y z
#    x 2.209500 -0.088730 0.038760 
#    y -0.088730 2.205130 0.003850 
#    z 0.038760 0.003850 2.173750 
# 
# From -- ./inp_files/154699.got.cif
#   From: 2010.05.17/outbox.cif.g08.bks.cpg/sg2_78_cif.got.tgz:154699.got - 2010.06.03 11:33:40.
