data_PCOD9108082
_publ_section_title
;
Structure prediction by ZEFSAII (Michael W. Deem and Ramdas Pophale) SiO2 
 PCOD9108082
Probable space group: P -1
;
_chemical_formula_sum "Si O2"
_cell_formula_units_Z 14
_cell_length_a 24.583212
_cell_length_b 8.904473
_cell_length_c 9.519995
_cell_angle_alpha 137.948989
_cell_angle_beta 33.084599
_cell_angle_gamma 150.045210
_cell_volume 566.952412
_symmetry_space_group_name_H-M "P -1"
_symmetry_group_IT_number 2
_symmetry_cell_setting 'triclinic'
loop_
_space_group_symop_operation_xyz
x,y,z
-x,-y,-z
loop_
_atom_site_type_symbol
_atom_site_label
_atom_site_fract_x
_atom_site_fract_y
_atom_site_fract_z
Si Si1 0.342601 0.235070 0.780101
Si Si2 0.679689 0.219176 0.883500
Si Si3 0.203533 0.388499 0.657779
Si Si4 0.365553 0.345456 0.489415
Si Si5 0.914690 0.303707 0.911773
Si Si6 0.384502 0.781627 0.291537
Si Si7 0.027476 0.309717 0.387553
O O1 0.355684 0.374187 0.697671
O O2 0.475728 0.458269 0.740780
O O3 0.202028 0.040643 0.026570
O O4 0.347495 0.981215 0.546567
O O5 0.645772 0.291232 0.859009
O O6 0.818352 0.514928 0.848703
O O7 0.705141 0.995130 0.632606
O O8 0.544561 0.006351 0.119618
O O9 0.301007 0.440760 0.602783
O O10 0.153493 0.569012 0.909607
O O11 0.291838 0.504589 0.404772
O O12 0.073872 0.035116 0.681373
O O13 0.000000 0.500000 0.000000
O O14 0.003132 0.322714 0.613989
O O15 0.000000 0.500000 0.500000
#
# Coordination Sequence:
#
# PCOD9108082 Si02
#       7
#     2   2   2   2   2   2   2
#     4   9  21  42  67  96 132 177 232 277 346 405
#     4  10  21  42  62  93 142 168 226 283 339 405
#     4  11  25  44  73 100 137 181 237 283 348 404
#     4  10  20  40  66  97 132 175 227 287 338 408
#     4  11  26  47  70  99 143 185 229 284 340 423
#     4   9  21  40  66  96 126 180 225 287 331 405
#     4  12  26  45  67 106 142 180 225 290 350 405
#
# _framework density 24.693431
#
# number of rings (size 3 to 8) (size 9 to 14) (size 15 to 20)
#    0.000    1.714    1.429    2.571    2.000    8.000 
#   10.286    0.000    0.000    0.000    0.000    0.000 
#    0.000    0.000    0.000    0.000    0.000    0.000 
#
# Total GULP energy -78459.062210 kJ/mol
# GULP energy per Si atom -5604.218729 kJ/mol
# Density = 2.463723 g / cm^3
# Si number density = 24.693431 Si / 1000 Ang^3
#
#
#
# Elastic Constant Matrix: (Units=GPa)
#
#
# Indices 1 2 3 4 5 6 
#
# 1 120.1446 26.9884 7.0251 -10.4613 -22.7164 6.6861
# 2 26.9884 131.3171 3.5722 -38.0211 -1.8114 9.1748
# 3 7.0251 3.5722 82.6771 -20.8665 -2.0093 4.1211
# 4 -10.4613 -38.0211 -20.8665 41.4158 7.4986 -7.3453
# 5 -22.7164 -1.8114 -2.0093 7.4986 38.9680 -1.6704
# 6 6.6861 9.1748 4.1211 -7.3453 -1.6704 35.8535
#
#
#
# Elastic Compliance Matrix: (Units=1/GPa)
#
#
# Indices 1 2 3 4 5 6 
#
# 1 0.009930 -0.002205 -0.000854 -0.001208 0.005824 -0.001165
# 2 -0.002205 0.011352 0.002579 0.011587 -0.002878 -0.000550
# 3 -0.000854 0.002579 0.014473 0.009671 -0.001503 -0.000253
# 4 -0.001208 0.011587 0.009671 0.041463 -0.007461 0.004295
# 5 0.005824 -0.002878 -0.001503 -0.007461 0.030269 -0.000295
# 6 -0.001165 -0.000550 -0.000253 0.004295 -0.000295 0.029145
#
#
# Mechanical properties :
#
#
# Convention : Reuss Voigt Hill
#
# Bulk Modulus (GPa) = 28.74038 45.47892 37.10965
# Shear Modulus (GPa) = 33.51417 43.01765 38.26591
#
# Velocity S-wave (km/s) = 3.68803 4.17834 3.94082
# Velocity P-wave (km/s) = 5.45890 6.46029 5.98059
#
# Compressibility (1/GPa) = 0.03479425
#
# Stress axis : x y z
#
# Youngs Moduli (GPa) = 100.70941 88.09060 69.09278
#
# Poissons Ratio (x) = 0.19428 0.05898
# Poissons Ratio (y) = 0.22211 -0.17818
# Poissons Ratio (z) = 0.08597 -0.22717
#
# Static dielectric constant tensor:
#      x y z
#    x 1.928540 -0.026270 -0.002070 
#    y -0.026270 1.972550 0.065140 
#    z -0.002070 0.065140 1.998640 
# 
# From -- ./inp_files/245761.got.cif
#   From: 2010.05.17/outbox.cif.g08.bks.cpg/sg2_123_cif.got.tgz:245761.got - 2010.06.03 11:33:40.
