data_PCOD9108499
_publ_section_title
;
Structure prediction by ZEFSAII (Michael W. Deem and Ramdas Pophale) SiO2 
 PCOD9108499
Probable space group: P -1
;
_chemical_formula_sum "Si O2"
_cell_formula_units_Z 14
_cell_length_a 10.293869
_cell_length_b 7.331536
_cell_length_c 8.135171
_cell_angle_alpha 78.777794
_cell_angle_beta 94.182968
_cell_angle_gamma 120.196568
_cell_volume 520.277476
_symmetry_space_group_name_H-M "P -1"
_symmetry_group_IT_number 2
_symmetry_cell_setting 'triclinic'
loop_
_space_group_symop_operation_xyz
x,y,z
-x,-y,-z
loop_
_atom_site_type_symbol
_atom_site_label
_atom_site_fract_x
_atom_site_fract_y
_atom_site_fract_z
Si Si1 0.812694 0.330305 0.134995
Si Si2 0.886547 0.812690 0.145930
Si Si3 0.156401 0.889787 0.352575
Si Si4 0.613014 0.798404 0.943123
Si Si5 0.424414 0.565422 0.227913
Si Si6 0.879782 0.494398 0.751820
Si Si7 0.396071 0.050096 0.601044
O O1 0.841974 0.566906 0.144147
O O2 0.952916 0.320137 0.232122
O O3 0.666077 0.131788 0.231749
O O4 0.841974 0.350675 0.940132
O O5 0.995616 0.869319 0.304643
O O6 0.729199 0.803915 0.095078
O O7 0.000000 0.000000 0.000000
O O8 0.132726 0.650412 0.378622
O O9 0.278309 0.007615 0.196494
O O10 0.249602 0.013431 0.497093
O O11 0.549315 0.607648 0.833858
O O12 0.470733 0.743278 0.054065
O O13 0.248453 0.444329 0.272956
O O14 0.511428 0.708859 0.365438
O O15 0.500000 0.000000 0.500000
#
# Coordination Sequence:
#
# PCOD9108499 Si02
#       7
#     2   2   2   2   2   2   2
#     4  10  22  39  69  98 129 169 232 278 325 378
#     4   9  19  40  66  96 124 166 223 276 327 381
#     4  10  22  40  64  96 132 173 212 274 329 397
#     4  10  22  41  69  92 131 170 229 278 324 383
#     4  11  23  41  65  99 129 174 223 276 334 382
#     4  10  20  40  68  99 118 171 232 287 314 377
#     4  12  26  41  62 102 144 176 212 266 338 406
#
# _framework density 26.908719000000001
#
# number of rings (size 3 to 8) (size 9 to 14) (size 15 to 20)
#    0.000    1.714    2.857    0.857    2.000    5.143 
#    0.000    0.714    0.000    0.000    0.000    0.000 
#    0.000    0.000    0.000    0.000    0.000    0.000 
#
# Total GULP energy -78209.466205 kJ/mol
# GULP energy per Si atom -5586.390443 kJ/mol
# Density = 2.684747 g / cm^3
# Si number density = 26.908719 Si / 1000 Ang^3
#
#
#
# Elastic Constant Matrix: (Units=GPa)
#
#
# Indices 1 2 3 4 5 6 
#
# 1 76.5684 20.6756 19.5241 -2.1474 -3.4494 16.3133
# 2 20.6756 130.4826 40.3206 14.3458 -9.9124 15.4428
# 3 19.5241 40.3206 60.2669 17.9781 11.2436 3.1987
# 4 -2.1474 14.3458 17.9781 60.6281 16.4023 -4.3154
# 5 -3.4494 -9.9124 11.2436 16.4023 41.9337 -4.1182
# 6 16.3133 15.4428 3.1987 -4.3154 -4.1182 30.1337
#
#
#
# Elastic Compliance Matrix: (Units=1/GPa)
#
#
# Indices 1 2 3 4 5 6 
#
# 1 0.016233 0.000053 -0.005538 0.001217 0.001587 -0.007836
# 2 0.000053 0.011135 -0.007543 -0.002079 0.005026 -0.004545
# 3 -0.005538 -0.007543 0.025838 -0.003891 -0.007394 0.002553
# 4 0.001217 -0.002079 -0.003891 0.020276 -0.007007 0.002766
# 5 0.001587 0.005026 -0.007394 -0.007007 0.029932 0.000437
# 6 -0.007836 -0.004545 0.002553 0.002766 0.000437 0.039942
#
#
# Mechanical properties :
#
#
# Convention : Reuss Voigt Hill
#
# Bulk Modulus (GPa) = 36.83129 47.59540 42.21334
# Shear Modulus (GPa) = 28.01750 38.99224 33.50487
#
# Velocity S-wave (km/s) = 3.23027 3.81078 3.53247
# Velocity P-wave (km/s) = 5.25643 6.09006 5.68854
#
# Compressibility (1/GPa) = 0.02715083
#
# Stress axis : x y z
#
# Youngs Moduli (GPa) = 61.60247 89.81042 38.70293
#
# Poissons Ratio (x) = -0.00477 0.21433
# Poissons Ratio (y) = -0.00327 0.29193
# Poissons Ratio (z) = 0.34114 0.67742
#
# Static dielectric constant tensor:
#      x y z
#    x 2.168450 -0.006840 0.080190 
#    y -0.006840 2.133180 -0.019980 
#    z 0.080190 -0.019980 2.149780 
# 
# From -- ./inp_files/243575.got.cif
#   From: 2010.05.17/outbox.cif.g08.bks.cpg/sg2_122_cif.got.tgz:243575.got - 2010.06.03 11:33:40.
