data_PCOD9108126
_publ_section_title
;
Structure prediction by ZEFSAII (Michael W. Deem and Ramdas Pophale) SiO2 
 PCOD9108126
Probable space group: P -1
;
_chemical_formula_sum "Si O2"
_cell_formula_units_Z 16
_cell_length_a 14.321236
_cell_length_b 15.196012
_cell_length_c 11.695841
_cell_angle_alpha 126.544883
_cell_angle_beta 31.658627
_cell_angle_gamma 147.997756
_cell_volume 630.678913
_symmetry_space_group_name_H-M "P -1"
_symmetry_group_IT_number 2
_symmetry_cell_setting 'triclinic'
loop_
_space_group_symop_operation_xyz
x,y,z
-x,-y,-z
loop_
_atom_site_type_symbol
_atom_site_label
_atom_site_fract_x
_atom_site_fract_y
_atom_site_fract_z
Si Si1 0.178182 0.706818 0.969892
Si Si2 0.698035 0.627277 0.504038
Si Si3 0.695796 0.169752 0.515021
Si Si4 0.440239 0.193974 0.175224
Si Si5 0.639092 0.704211 0.253281
Si Si6 0.796204 0.946077 0.920205
Si Si7 0.798974 0.722183 0.853185
Si Si8 0.908153 0.395732 0.260542
O O1 0.498644 0.842811 0.801004
O O2 0.998172 0.705759 0.230301
O O3 0.163406 0.723271 0.862514
O O4 0.000000 0.500000 0.000000
O O5 0.500000 0.500000 0.500000
O O6 0.521791 0.487713 0.688068
O O7 0.703476 0.759758 0.613694
O O8 0.469974 0.136064 0.789686
O O9 0.919631 0.345978 0.333183
O O10 0.900871 0.200781 0.409699
O O11 0.500000 0.000000 0.500000
O O12 0.268099 0.053206 0.141664
O O13 0.776881 0.388008 0.925627
O O14 0.374697 0.662385 0.490005
O O15 0.807605 0.781205 0.016265
O O16 0.883741 0.856097 0.211424
O O17 0.783269 0.809059 0.843945
O O18 0.500000 0.500000 0.000000
#
# Coordination Sequence:
#
# PCOD9108126 Si02
#       8
#     2   2   2   2   2   2   2   2
#     4  10  20  40  67 101 124 168 228 284 323 386
#     4  12  21  40  72  99 128 175 235 276 329 400
#     4  12  25  43  68  98 137 185 219 269 344 407
#     4  11  24  42  68 100 132 173 225 280 331 401
#     4  12  23  42  67  96 138 178 213 281 340 396
#     4  12  27  45  64 101 149 173 218 281 346 403
#     4  12  26  43  67 101 132 179 233 270 327 404
#     4  11  21  41  70  94 128 174 228 271 329 389
#
# _framework density 25.369485999999998
#
# number of rings (size 3 to 8) (size 9 to 14) (size 15 to 20)
#    0.000    0.500    7.500    3.375    1.750    2.000 
#    0.000    2.500    0.000    2.250    0.000    0.000 
#    0.000    0.000    0.000    0.000    0.000    0.000 
#
# Total GULP energy -89763.444974 kJ/mol
# GULP energy per Si atom -5610.215311 kJ/mol
# Density = 2.531174 g / cm^3
# Si number density = 25.369486 Si / 1000 Ang^3
#
#
#
# Elastic Constant Matrix: (Units=GPa)
#
#
# Indices 1 2 3 4 5 6 
#
# 1 94.2636 19.0417 37.1713 3.1927 -12.0895 9.0135
# 2 19.0417 74.1316 11.8720 -6.9962 -8.7657 13.4828
# 3 37.1713 11.8720 118.9178 -0.6347 -25.9515 -9.2322
# 4 3.1927 -6.9962 -0.6347 27.1561 0.6439 5.2031
# 5 -12.0895 -8.7657 -25.9515 0.6439 47.2898 0.3360
# 6 9.0135 13.4828 -9.2322 5.2031 0.3360 39.0586
#
#
#
# Elastic Compliance Matrix: (Units=1/GPa)
#
#
# Indices 1 2 3 4 5 6 
#
# 1 0.013049 -0.002250 -0.003914 -0.001660 0.000815 -0.002946
# 2 -0.002250 0.016041 -0.000928 0.005478 0.001857 -0.005983
# 3 -0.003914 -0.000928 0.011090 -0.000374 0.004891 0.003853
# 4 -0.001660 0.005478 -0.000374 0.039744 -0.000106 -0.006890
# 5 0.000815 0.001857 0.004891 -0.000106 0.024383 0.000132
# 6 -0.002946 -0.005983 0.003853 -0.006890 0.000132 0.030175
#
#
# Mechanical properties :
#
#
# Convention : Reuss Voigt Hill
#
# Bulk Modulus (GPa) = 38.46821 47.05367 42.76094
# Shear Modulus (GPa) = 31.78026 37.31610 34.54818
#
# Velocity S-wave (km/s) = 3.54318 3.83940 3.69426
# Velocity P-wave (km/s) = 5.65110 6.18403 5.92356
#
# Compressibility (1/GPa) = 0.02599549
#
# Stress axis : x y z
#
# Youngs Moduli (GPa) = 76.63575 62.34144 90.17372
#
# Poissons Ratio (x) = 0.14024 0.35294
# Poissons Ratio (y) = 0.17239 0.08371
# Poissons Ratio (z) = 0.29995 0.05787
#
# Static dielectric constant tensor:
#      x y z
#    x 2.155110 -0.011910 0.007220 
#    y -0.011910 2.010570 -0.009110 
#    z 0.007220 -0.009110 1.970270 
# 
# From -- ./inp_files/456975.got.cif
#   From: 2010.05.17/outbox.cif.g08.bks.cpg/sg2_229_cif.got.tgz:456975.got - 2010.06.03 11:33:40.
