data_PCOD9108075
_publ_section_title
;
Structure prediction by ZEFSAII (Michael W. Deem and Ramdas Pophale) SiO2 
 PCOD9108075
Probable space group: P -1
;
_chemical_formula_sum "Si O2"
_cell_formula_units_Z 16
_cell_length_a 8.774765
_cell_length_b 9.192121
_cell_length_c 15.456719
_cell_angle_alpha 48.907116
_cell_angle_beta 109.476576
_cell_angle_gamma 80.775533
_cell_volume 748.916758
_symmetry_space_group_name_H-M "P -1"
_symmetry_group_IT_number 2
_symmetry_cell_setting 'triclinic'
loop_
_space_group_symop_operation_xyz
x,y,z
-x,-y,-z
loop_
_atom_site_type_symbol
_atom_site_label
_atom_site_fract_x
_atom_site_fract_y
_atom_site_fract_z
Si Si1 0.462008 0.517154 0.088198
Si Si2 0.068461 0.667440 0.347651
Si Si3 0.606413 0.742459 0.348284
Si Si4 0.573943 0.449426 0.311309
Si Si5 0.624211 0.991211 0.110758
Si Si6 0.131987 0.728772 0.142521
Si Si7 0.159215 0.402007 0.139994
Si Si8 0.290355 0.882518 0.382905
O O1 0.630050 0.409112 0.236464
O O2 0.335774 0.412174 0.130484
O O3 0.500000 0.500000 0.000000
O O4 0.363168 0.787538 0.977101
O O5 0.187550 0.408162 0.507442
O O6 0.145433 0.663747 0.269180
O O7 0.130364 0.821398 0.353013
O O8 0.844028 0.783097 0.243744
O O9 0.633998 0.581611 0.334761
O O10 0.538994 0.976038 0.193264
O O11 0.449691 0.777543 0.376439
O O12 0.347769 0.628908 0.195083
O O13 0.621430 0.232348 0.462550
O O14 0.500000 0.000000 0.000000
O O15 0.073698 0.581305 0.132813
O O16 0.000000 0.000000 0.000000
O O17 0.215550 0.147659 0.271068
O O18 0.000000 0.500000 0.000000
#
# Coordination Sequence:
#
# PCOD9108075 Si02
#       8
#     2   2   2   2   2   2   2   2
#     4  11  24  43  61  91 129 173 217 268 326 387
#     4  11  22  41  66  98 132 169 219 275 328 388
#     4  11  21  41  68  99 129 172 220 271 331 392
#     4  10  20  40  66  97 125 168 221 271 323 390
#     4  12  25  41  65  94 133 175 223 268 324 392
#     4  11  21  36  63  96 129 167 217 269 324 380
#     4  11  25  41  63  96 134 168 215 274 331 390
#     4  11  21  42  72  97 130 170 219 271 337 392
#
# _framework density 21.364187999999999
#
# number of rings (size 3 to 8) (size 9 to 14) (size 15 to 20)
#    0.000    1.000    3.750    4.875    0.000    3.000 
#    2.250    0.000    0.000    2.250    0.000    0.000 
#    0.000    0.000    0.000    0.000    0.000    0.000 
#
# Total GULP energy -89144.540121 kJ/mol
# GULP energy per Si atom -5571.533758 kJ/mol
# Density = 2.131556 g / cm^3
# Si number density = 21.364188 Si / 1000 Ang^3
#
#
#
# Elastic Constant Matrix: (Units=GPa)
#
#
# Indices 1 2 3 4 5 6 
#
# 1 33.6310 7.8182 31.8465 -5.2129 0.5712 3.5624
# 2 7.8182 111.2289 66.3351 4.2995 -2.9445 4.1295
# 3 31.8465 66.3351 192.0662 7.4980 -18.2241 0.4474
# 4 -5.2129 4.2995 7.4980 43.8603 1.6911 -15.5915
# 5 0.5712 -2.9445 -18.2241 1.6911 45.5972 6.6543
# 6 3.5624 4.1295 0.4474 -15.5915 6.6543 23.2068
#
#
#
# Elastic Compliance Matrix: (Units=1/GPa)
#
#
# Indices 1 2 3 4 5 6 
#
# 1 0.037183 0.001429 -0.007159 0.005102 -0.003209 -0.001476
# 2 0.001429 0.011547 -0.004216 -0.001251 -0.000489 -0.002893
# 3 -0.007159 -0.004216 0.008254 -0.002251 0.003312 -0.000772
# 4 0.005102 -0.001251 -0.002251 0.032200 -0.005552 0.022709
# 5 -0.003209 -0.000489 0.003312 -0.005552 0.024984 -0.010379
# 6 -0.001476 -0.002893 -0.000772 0.022709 -0.010379 0.062080
#
#
# Mechanical properties :
#
#
# Convention : Reuss Voigt Hill
#
# Bulk Modulus (GPa) = 26.96030 60.99173 43.97602
# Shear Modulus (GPa) = 23.98035 37.92794 30.95415
#
# Velocity S-wave (km/s) = 3.35394 4.21801 3.81055
# Velocity P-wave (km/s) = 5.25788 7.23413 6.32369
#
# Compressibility (1/GPa) = 0.03709157
#
# Stress axis : x y z
#
# Youngs Moduli (GPa) = 26.89392 86.60182 121.16055
#
# Poissons Ratio (x) = -0.12371 0.86738
# Poissons Ratio (y) = -0.03842 0.51078
# Poissons Ratio (z) = 0.19253 0.36509
#
# Static dielectric constant tensor:
#      x y z
#    x 1.833160 -0.020290 -0.056210 
#    y -0.020290 1.931670 0.010970 
#    z -0.056210 0.010970 1.840680 
# 
# From -- ./inp_files/308601.got.cif
#   From: 2010.05.17/outbox.cif.g08.bks.cpg/sg2_155_cif.got.tgz:308601.got - 2010.06.03 11:33:40.
