data_PCOD9108023
_publ_section_title
;
Structure prediction by ZEFSAII (Michael W. Deem and Ramdas Pophale) SiO2 
 PCOD9108023
Probable space group: P -1
;
_chemical_formula_sum "Si O2"
_cell_formula_units_Z 16
_cell_length_a 11.988805
_cell_length_b 9.706710
_cell_length_c 13.943305
_cell_angle_alpha 71.062350
_cell_angle_beta 27.729340
_cell_angle_gamma 79.156424
_cell_volume 695.772155
_symmetry_space_group_name_H-M "P -1"
_symmetry_group_IT_number 2
_symmetry_cell_setting 'triclinic'
loop_
_space_group_symop_operation_xyz
x,y,z
-x,-y,-z
loop_
_atom_site_type_symbol
_atom_site_label
_atom_site_fract_x
_atom_site_fract_y
_atom_site_fract_z
Si Si1 0.643248 0.220390 0.923825
Si Si2 0.604629 0.267143 0.164658
Si Si3 0.519549 0.587941 0.156345
Si Si4 0.285729 0.064575 0.602293
Si Si5 0.179663 0.985708 0.282219
Si Si6 0.845127 0.680900 0.220291
Si Si7 0.387867 0.647132 0.444397
Si Si8 0.998542 0.806917 0.781249
O O1 0.543199 0.345869 0.912483
O O2 0.848982 0.175253 0.709457
O O3 0.686219 0.253359 0.995084
O O4 0.444766 0.061734 0.107595
O O5 0.486989 0.411545 0.222803
O O6 0.400681 0.134445 0.397313
O O7 0.860708 0.290870 0.024194
O O8 0.372839 0.645299 0.341274
O O9 0.800595 0.651841 0.961874
O O10 0.213115 0.193446 0.691909
O O11 0.500000 0.000000 0.500000
O O12 0.060502 0.921306 0.795860
O O13 0.000000 0.000000 0.500000
O O14 0.121913 0.096707 0.221670
O O15 0.666780 0.678116 0.265009
O O16 0.747914 0.517409 0.378500
O O17 0.251825 0.768215 0.563686
#
# Coordination Sequence:
#
# PCOD9108023 Si02
#       8
#     2   2   2   2   2   2   2   2
#     4  10  23  41  65 103 133 171 232 274 333 407
#     4  12  25  44  69  97 142 178 220 286 341 391
#     4  11  24  43  71  96 135 183 224 276 339 397
#     4  12  26  44  65 102 138 174 226 282 339 401
#     4  10  20  40  66  94 134 178 217 276 337 391
#     4  11  25  43  68  98 134 177 228 277 341 403
#     4  11  23  43  68  98 133 177 230 276 329 411
#     4  11  23  41  67  98 132 172 228 271 335 406
#
# _framework density 22.996034000000002
#
# number of rings (size 3 to 8) (size 9 to 14) (size 15 to 20)
#    0.000    1.000    3.750    2.625    1.750    4.000 
#    0.000    0.625    0.000    0.000    0.000    0.000 
#    0.000    0.000    0.000    0.000    0.000    0.000 
#
# Total GULP energy -89351.971278 kJ/mol
# GULP energy per Si atom -5584.498205 kJ/mol
# Density = 2.294369 g / cm^3
# Si number density = 22.996034 Si / 1000 Ang^3
#
#
#
# Elastic Constant Matrix: (Units=GPa)
#
#
# Indices 1 2 3 4 5 6 
#
# 1 78.2167 21.7842 1.6647 -5.6485 8.2440 -2.9877
# 2 21.7842 124.5702 4.1527 4.0179 4.2011 -0.3983
# 3 1.6647 4.1527 40.6579 -7.4493 0.9061 -7.7512
# 4 -5.6485 4.0179 -7.4493 31.7344 4.2160 -0.7362
# 5 8.2440 4.2011 0.9061 4.2160 26.4741 4.3130
# 6 -2.9877 -0.3983 -7.7512 -0.7362 4.3130 27.4513
#
#
#
# Elastic Compliance Matrix: (Units=1/GPa)
#
#
# Indices 1 2 3 4 5 6 
#
# 1 0.014387 -0.002491 0.001010 0.003865 -0.005180 0.002732
# 2 -0.002491 0.008565 -0.001194 -0.001797 -0.000174 -0.000505
# 3 0.001010 -0.001194 0.027806 0.007552 -0.003701 0.008728
# 4 0.003865 -0.001797 0.007552 0.035312 -0.007560 0.004662
# 5 -0.005180 -0.000174 -0.003701 -0.007560 0.042118 -0.008431
# 6 0.002732 -0.000505 0.008728 0.004662 -0.008431 0.040632
#
#
# Mechanical properties :
#
#
# Convention : Reuss Voigt Hill
#
# Bulk Modulus (GPa) = 22.02287 33.18309 27.60298
# Shear Modulus (GPa) = 26.41217 31.52153 28.96685
#
# Velocity S-wave (km/s) = 3.39271 3.70636 3.55300
# Velocity P-wave (km/s) = 4.99449 5.72516 5.37226
#
# Compressibility (1/GPa) = 0.04540734
#
# Stress axis : x y z
#
# Youngs Moduli (GPa) = 69.50907 116.75148 35.96312
#
# Poissons Ratio (x) = 0.29080 -0.03631
# Poissons Ratio (y) = 0.17313 0.04295
# Poissons Ratio (z) = -0.07019 0.13945
#
# Static dielectric constant tensor:
#      x y z
#    x 1.858950 0.054010 0.000100 
#    y 0.054010 1.863210 0.053590 
#    z 0.000100 0.053590 1.994990 
# 
# From -- ./inp_files/46653.got.cif
#   From: 2010.05.17/outbox.cif.g08.bks.cpg/sg2_24_cif.got.tgz:46653.got - 2010.06.03 11:33:40.
