data_PCOD9108703
_publ_section_title
;
Structure prediction by ZEFSAII (Michael W. Deem and Ramdas Pophale) SiO2 
 PCOD9108703
Probable space group: P -1
;
_chemical_formula_sum "Si O2"
_cell_formula_units_Z 16
_cell_length_a 16.691602
_cell_length_b 9.603163
_cell_length_c 9.254240
_cell_angle_alpha 66.956077
_cell_angle_beta 67.677126
_cell_angle_gamma 29.831742
_cell_volume 676.402370
_symmetry_space_group_name_H-M "P -1"
_symmetry_group_IT_number 2
_symmetry_cell_setting 'triclinic'
loop_
_space_group_symop_operation_xyz
x,y,z
-x,-y,-z
loop_
_atom_site_type_symbol
_atom_site_label
_atom_site_fract_x
_atom_site_fract_y
_atom_site_fract_z
Si Si1 0.297216 0.278959 0.119142
Si Si2 0.499271 0.428973 0.372311
Si Si3 0.632763 0.903480 0.528545
Si Si4 0.756948 0.241252 0.802814
Si Si5 0.014762 0.095718 0.781334
Si Si6 0.001823 0.646700 0.537209
Si Si7 0.854781 0.774431 0.892504
Si Si8 0.648989 0.480293 0.070765
O O1 0.372982 0.116547 0.286417
O O2 0.118855 0.607409 0.160480
O O3 0.266506 0.181966 0.077198
O O4 0.376686 0.303892 0.971922
O O5 0.500000 0.500000 0.500000
O O6 0.326121 0.629654 0.348116
O O7 0.551013 0.492235 0.208838
O O8 0.608449 0.117231 0.425440
O O9 0.809419 0.591745 0.479968
O O10 0.500000 0.000000 0.500000
O O11 0.919925 0.095960 0.772731
O O12 0.783102 0.028395 0.911929
O O13 0.634924 0.488587 0.904308
O O14 0.079739 0.103134 0.603548
O O15 0.164271 0.827856 0.886280
O O16 0.000000 0.500000 0.500000
O O17 0.920190 0.734202 0.708938
O O18 0.000000 0.500000 0.000000
#
# Coordination Sequence:
#
# PCOD9108703 Si02
#       8
#     2   2   2   2   2   2   2   2
#     4  10  21  42  66  98 130 172 219 275 320 393
#     4  12  27  45  67  98 135 178 220 270 327 396
#     4  11  23  44  71  94 135 175 227 265 326 395
#     4  11  25  43  66 100 134 169 218 278 325 395
#     4  10  20  40  70  96 128 170 225 266 329 387
#     4  11  22  40  72  96 128 180 221 270 328 391
#     4  12  24  41  66 104 136 163 223 279 330 385
#     4  11  23  44  71  94 132 180 218 264 341 392
#
# _framework density 23.654558999999999
#
# number of rings (size 3 to 8) (size 9 to 14) (size 15 to 20)
#    0.000    1.000    2.500    7.125    3.500    0.500 
#    6.750    1.250    0.000    0.000    0.000    0.000 
#    0.000    0.000    0.000    0.000    0.000    0.000 
#
# Total GULP energy -89600.214236 kJ/mol
# GULP energy per Si atom -5600.013390 kJ/mol
# Density = 2.360072 g / cm^3
# Si number density = 23.654559 Si / 1000 Ang^3
#
#
#
# Elastic Constant Matrix: (Units=GPa)
#
#
# Indices 1 2 3 4 5 6 
#
# 1 161.4432 17.3450 32.2549 -5.7117 -1.5452 10.1798
# 2 17.3450 39.0366 -1.4933 -17.3588 -2.5090 6.3202
# 3 32.2549 -1.4933 104.1597 -14.2532 -12.9071 3.9234
# 4 -5.7117 -17.3588 -14.2532 41.1597 1.2459 -6.2438
# 5 -1.5452 -2.5090 -12.9071 1.2459 49.1610 -11.4876
# 6 10.1798 6.3202 3.9234 -6.2438 -11.4876 45.2144
#
#
#
# Elastic Compliance Matrix: (Units=1/GPa)
#
#
# Indices 1 2 3 4 5 6 
#
# 1 0.007135 -0.003871 -0.002561 -0.001700 -0.000908 -0.001309
# 2 -0.003871 0.034640 0.004074 0.015160 0.001925 -0.001742
# 3 -0.002561 0.004074 0.011555 0.005351 0.003153 0.000544
# 4 -0.001700 0.015160 0.005351 0.032673 0.001953 0.002808
# 5 -0.000908 0.001925 0.003153 0.001953 0.022510 0.005651
# 6 -0.001309 -0.001742 0.000544 0.002808 0.005651 0.024431
#
#
# Mechanical properties :
#
#
# Convention : Reuss Voigt Hill
#
# Bulk Modulus (GPa) = 20.57031 44.53919 32.55475
# Shear Modulus (GPa) = 32.49615 44.20921 38.35268
#
# Velocity S-wave (km/s) = 3.71047 4.32783 4.03099
# Velocity P-wave (km/s) = 5.20306 6.62143 5.95463
#
# Compressibility (1/GPa) = 0.04861375
#
# Stress axis : x y z
#
# Youngs Moduli (GPa) = 140.14708 28.86840 86.54620
#
# Poissons Ratio (x) = 0.11175 0.22165
# Poissons Ratio (y) = 0.54251 -0.35259
# Poissons Ratio (z) = 0.35892 -0.11761
#
# Static dielectric constant tensor:
#      x y z
#    x 1.890700 -0.033270 -0.017770 
#    y -0.033270 1.959960 0.015060 
#    z -0.017770 0.015060 1.847030 
# 
# From -- ./inp_files/297850.got.cif
#   From: 2010.05.17/outbox.cif.g08.bks.cpg/sg2_149_cif.got.tgz:297850.got - 2010.06.03 11:33:40.
