data_PCOD9108156
_publ_section_title
;
Structure prediction by ZEFSAII (Michael W. Deem and Ramdas Pophale) SiO2 
 PCOD9108156
Probable space group: P -1
;
_chemical_formula_sum "Si O2"
_cell_formula_units_Z 16
_cell_length_a 19.278998
_cell_length_b 7.404203
_cell_length_c 16.674288
_cell_angle_alpha 52.080546
_cell_angle_beta 27.548257
_cell_angle_gamma 36.422793
_cell_volume 609.763477
_symmetry_space_group_name_H-M "P -1"
_symmetry_group_IT_number 2
_symmetry_cell_setting 'triclinic'
loop_
_space_group_symop_operation_xyz
x,y,z
-x,-y,-z
loop_
_atom_site_type_symbol
_atom_site_label
_atom_site_fract_x
_atom_site_fract_y
_atom_site_fract_z
Si Si1 0.805468 0.643140 0.951676
Si Si2 0.265644 0.598053 0.040544
Si Si3 0.288599 0.199397 0.601316
Si Si4 0.069942 0.680907 0.389168
Si Si5 0.470410 0.381072 0.144382
Si Si6 0.095219 0.647332 0.833357
Si Si7 0.301793 0.607253 0.467912
Si Si8 0.338422 0.603063 0.731726
O O1 0.812240 0.405760 0.062814
O O2 0.658636 0.987358 0.052806
O O3 0.698550 0.668530 0.973507
O O4 0.041620 0.468386 0.740877
O O5 0.169606 0.640348 0.212525
O O6 0.479900 0.500808 0.866379
O O7 0.096125 0.959749 0.074789
O O8 0.387138 0.296335 0.416436
O O9 0.500000 0.000000 0.500000
O O10 0.284029 0.925702 0.688504
O O11 0.238644 0.528449 0.328414
O O12 0.000000 0.500000 0.500000
O O13 0.869444 0.065379 0.493207
O O14 0.500000 0.500000 0.000000
O O15 0.176800 0.568788 0.677107
O O16 0.299562 0.522065 0.707387
O O17 0.000000 0.500000 0.000000
O O18 0.449338 0.608714 0.371417
#
# Coordination Sequence:
#
# PCOD9108156 Si02
#       8
#     2   2   2   2   2   2   2   2
#     4  12  23  37  61  94 122 154 199 249 293 354
#     4  10  21  40  62  89 122 156 197 241 306 360
#     4  10  21  37  58  86 125 162 192 236 296 352
#     4  10  20  40  67  88 112 156 206 254 296 344
#     4  10  21  41  65  83 118 159 196 248 305 349
#     4   9  20  37  62  83 121 164 197 229 295 352
#     4   9  21  41  57  86 120 158 201 241 293 356
#     4  12  22  36  61  91 125 158 199 240 288 357
#
# _framework density 26.239684
#
# number of rings (size 3 to 8) (size 9 to 14) (size 15 to 20)
#    0.750    1.000    2.500    2.625    0.000    3.500 
#    0.000    1.250    0.000    6.750    0.000    0.000 
#    0.000    0.000    0.000    0.000    0.000    0.000 
#
# Total GULP energy -89098.320204 kJ/mol
# GULP energy per Si atom -5568.645013 kJ/mol
# Density = 2.617996 g / cm^3
# Si number density = 26.239684 Si / 1000 Ang^3
#
#
#
# Elastic Constant Matrix: (Units=GPa)
#
#
# Indices 1 2 3 4 5 6 
#
# 1 92.0561 1.4507 24.4264 5.8313 -48.2949 14.1484
# 2 1.4507 115.3740 38.0945 -13.0676 -17.8422 -4.9894
# 3 24.4264 38.0945 134.9377 -17.8391 -38.6047 -5.3515
# 4 5.8313 -13.0676 -17.8391 48.4812 1.5989 -8.7243
# 5 -48.2949 -17.8422 -38.6047 1.5989 61.8229 -2.1496
# 6 14.1484 -4.9894 -5.3515 -8.7243 -2.1496 31.1251
#
#
#
# Elastic Compliance Matrix: (Units=1/GPa)
#
#
# Indices 1 2 3 4 5 6 
#
# 1 0.021568 0.001545 -0.000568 -0.004705 0.016720 -0.009818
# 2 0.001545 0.010019 -0.001986 0.001924 0.002853 0.001299
# 3 -0.000568 -0.001986 0.010222 0.003675 0.005378 0.003099
# 4 -0.004705 0.001924 0.003675 0.024896 -0.001123 0.009980
# 5 0.016720 0.002853 0.005378 -0.001123 0.033300 -0.004233
# 6 -0.009818 0.001299 0.003099 0.009980 -0.004233 0.039838
#
#
# Mechanical properties :
#
#
# Convention : Reuss Voigt Hill
#
# Bulk Modulus (GPa) = 25.13221 52.25679 38.69450
# Shear Modulus (GPa) = 32.23197 46.84557 39.53877
#
# Velocity S-wave (km/s) = 3.50861 4.22986 3.88600
# Velocity P-wave (km/s) = 5.10025 6.61922 5.90875
#
# Compressibility (1/GPa) = 0.03978957
#
# Stress axis : x y z
#
# Youngs Moduli (GPa) = 46.36473 99.80950 97.83021
#
# Poissons Ratio (x) = -0.15416 0.05560
# Poissons Ratio (y) = -0.07161 0.19429
# Poissons Ratio (z) = 0.02635 0.19822
#
# Static dielectric constant tensor:
#      x y z
#    x 2.362940 0.052270 0.090490 
#    y 0.052270 2.095920 0.022410 
#    z 0.090490 0.022410 2.132380 
# 
# From -- ./inp_files/613973.got.cif
#   From: 2010.05.17/outbox.cif.g08.bks.cpg/sg2_307_cif.got.tgz:613973.got - 2010.06.03 11:33:40.
