data_PCOD9108433
_publ_section_title
;
Structure prediction by ZEFSAII (Michael W. Deem and Ramdas Pophale) SiO2 
 PCOD9108433
Probable space group: P -1
;
_chemical_formula_sum "Si O2"
_cell_formula_units_Z 16
_cell_length_a 29.299591
_cell_length_b 6.546622
_cell_length_c 8.635689
_cell_angle_alpha 77.638462
_cell_angle_beta 30.457681
_cell_angle_gamma 89.669778
_cell_volume 764.861748
_symmetry_space_group_name_H-M "P -1"
_symmetry_group_IT_number 2
_symmetry_cell_setting 'triclinic'
loop_
_space_group_symop_operation_xyz
x,y,z
-x,-y,-z
loop_
_atom_site_type_symbol
_atom_site_label
_atom_site_fract_x
_atom_site_fract_y
_atom_site_fract_z
Si Si1 0.779438 0.198110 0.726149
Si Si2 0.451362 0.941832 0.938852
Si Si3 0.568475 0.451243 0.435792
Si Si4 0.329992 0.570008 0.140310
Si Si5 0.370444 0.157422 0.567106
Si Si6 0.063189 0.385640 0.739284
Si Si7 0.112105 0.986844 0.801257
Si Si8 0.716395 0.904015 0.486743
O O1 0.755478 0.334076 0.630911
O O2 0.846706 0.394335 0.609446
O O3 0.834732 0.054935 0.503290
O O4 0.683041 0.033188 0.118032
O O5 0.514160 0.196633 0.679026
O O6 0.532010 0.858278 0.792817
O O7 0.352171 0.954123 0.294902
O O8 0.419378 0.779807 0.909347
O O9 0.500000 0.500000 0.500000
O O10 0.595424 0.610268 0.478253
O O11 0.661681 0.483813 0.054906
O O12 0.324251 0.350810 0.286111
O O13 0.292196 0.125613 0.667308
O O14 0.095290 0.218350 0.781392
O O15 0.000000 0.500000 0.000000
O O16 0.990732 0.217227 0.856698
O O17 0.181037 0.997813 0.743272
#
# Coordination Sequence:
#
# PCOD9108433 Si02
#       8
#     2   2   2   2   2   2   2   2
#     4  11  21  39  66  94 119 164 212 256 299 372
#     4  12  23  40  62  85 127 171 216 254 302 362
#     4  12  22  39  60  84 118 166 218 263 297 355
#     4  12  22  38  64  87 117 164 219 254 302 359
#     4  12  27  39  58  93 133 168 211 254 313 361
#     4   9  20  38  69 100 119 151 205 262 309 374
#     4  10  20  40  68  96 123 156 207 256 313 370
#     4  12  25  40  60  93 131 168 203 261 314 369
#
# _framework density 20.918814000000001
#
# number of rings (size 3 to 8) (size 9 to 14) (size 15 to 20)
#    0.000    0.750    6.250    2.250    0.000    3.000 
#    0.000    0.625    0.000    6.750    0.000    0.000 
#    0.000    0.000    0.000    0.000    0.000    0.000 
#
# Total GULP energy -89178.450675 kJ/mol
# GULP energy per Si atom -5573.653167 kJ/mol
# Density = 2.087120 g / cm^3
# Si number density = 20.918814 Si / 1000 Ang^3
#
#
#
# Elastic Constant Matrix: (Units=GPa)
#
#
# Indices 1 2 3 4 5 6 
#
# 1 121.3450 34.0722 10.2204 0.1991 -25.8036 21.4411
# 2 34.0722 100.6619 12.9519 -0.9588 -15.9224 16.2647
# 3 10.2204 12.9519 32.6573 -3.5811 -22.2640 6.6703
# 4 0.1991 -0.9588 -3.5811 38.9290 3.8170 -17.6897
# 5 -25.8036 -15.9224 -22.2640 3.8170 29.8656 -2.6194
# 6 21.4411 16.2647 6.6703 -17.6897 -2.6194 27.7583
#
#
#
# Elastic Compliance Matrix: (Units=1/GPa)
#
#
# Indices 1 2 3 4 5 6 
#
# 1 0.015483 -0.000378 0.013885 -0.009763 0.023098 -0.019117
# 2 -0.000378 0.012538 0.001587 -0.004679 0.007286 -0.009730
# 3 0.013885 0.001587 0.079108 -0.014913 0.070785 -0.033489
# 4 -0.009763 -0.004679 -0.014913 0.044890 -0.024260 0.040184
# 5 0.023098 0.007286 0.070785 -0.024260 0.109311 -0.044266
# 6 -0.019117 -0.009730 -0.033489 0.040184 -0.044266 0.085972
#
#
# Mechanical properties :
#
#
# Convention : Reuss Voigt Hill
#
# Bulk Modulus (GPa) = 7.28233 41.01702 24.14967
# Shear Modulus (GPa) = 13.77844 32.47189 23.12516
#
# Velocity S-wave (km/s) = 2.56923 3.94417 3.32847
# Velocity P-wave (km/s) = 3.50571 6.35549 5.13236
#
# Compressibility (1/GPa) = 0.13731870
#
# Stress axis : x y z
#
# Youngs Moduli (GPa) = 64.58606 79.75723 12.64090
#
# Poissons Ratio (x) = 0.03014 -0.17553
# Poissons Ratio (y) = 0.02441 -0.02006
# Poissons Ratio (z) = -0.89681 -0.12657
#
# Static dielectric constant tensor:
#      x y z
#    x 1.782530 -0.010980 -0.064280 
#    y -0.010980 1.804670 0.047970 
#    z -0.064280 0.047970 1.835950 
# 
# From -- ./inp_files/47872.got.cif
#   From: 2010.05.17/outbox.cif.g08.bks.cpg/sg2_24_cif.got.tgz:47872.got - 2010.06.03 11:33:40.
