data_PCOD9108024
_publ_section_title
;
Structure prediction by ZEFSAII (Michael W. Deem and Ramdas Pophale) SiO2 
 PCOD9108024
Probable space group: P -1
;
_chemical_formula_sum "Si O2"
_cell_formula_units_Z 16
_cell_length_a 21.119332
_cell_length_b 9.219011
_cell_length_c 17.053671
_cell_angle_alpha 142.178345
_cell_angle_beta 160.480116
_cell_angle_gamma 41.721536
_cell_volume 680.285447
_symmetry_space_group_name_H-M "P -1"
_symmetry_group_IT_number 2
_symmetry_cell_setting 'triclinic'
loop_
_space_group_symop_operation_xyz
x,y,z
-x,-y,-z
loop_
_atom_site_type_symbol
_atom_site_label
_atom_site_fract_x
_atom_site_fract_y
_atom_site_fract_z
Si Si1 0.147990 0.332789 0.149452
Si Si2 0.764239 0.534039 0.955607
Si Si3 0.206984 0.906912 0.307365
Si Si4 0.759463 0.972901 0.422286
Si Si5 0.798884 0.939101 0.048347
Si Si6 0.430421 0.632735 0.714889
Si Si7 0.289209 0.532233 0.799536
Si Si8 0.180404 0.438694 0.464769
O O1 0.282486 0.483128 0.424810
O O2 0.264336 0.193724 0.160417
O O3 0.000000 0.500000 0.000000
O O4 0.015646 0.152340 0.964843
O O5 0.716430 0.315340 0.748024
O O6 0.634738 0.548327 0.887687
O O7 0.740089 0.778997 0.984438
O O8 0.984322 0.501991 0.220630
O O9 0.281709 0.944583 0.500096
O O10 0.223661 0.158490 0.392397
O O11 0.756162 0.690317 0.294510
O O12 0.613650 0.099753 0.248498
O O13 0.971845 0.052353 0.683176
O O14 0.729771 0.206292 0.078960
O O15 0.356062 0.575893 0.690036
O O16 0.158808 0.507127 0.559573
O O17 0.500000 0.500000 0.000000
#
# Coordination Sequence:
#
# PCOD9108024 Si02
#       8
#     2   2   2   2   2   2   2   2
#     4  11  18  39  69  98 134 165 214 270 323 382
#     4  12  23  39  67  99 132 175 217 258 341 390
#     4  10  20  40  66  94 135 178 204 270 330 379
#     4  10  20  43  69  94 131 171 219 270 322 380
#     4  11  21  42  69  96 130 177 218 265 328 382
#     4  12  23  40  69 102 130 172 216 270 326 394
#     4  11  26  46  67  94 126 174 226 273 318 387
#     4  11  25  47  63  89 144 167 213 278 324 383
#
# _framework density 23.519539000000002
#
# number of rings (size 3 to 8) (size 9 to 14) (size 15 to 20)
#    0.000    1.000    6.250    1.500    0.000    5.000 
#    9.000    1.250    0.000    0.000    0.000    0.000 
#    0.000    0.000    0.000    0.000    0.000    0.000 
#
# Total GULP energy -89584.898187 kJ/mol
# GULP energy per Si atom -5599.056137 kJ/mol
# Density = 2.346601 g / cm^3
# Si number density = 23.519539 Si / 1000 Ang^3
#
#
#
# Elastic Constant Matrix: (Units=GPa)
#
#
# Indices 1 2 3 4 5 6 
#
# 1 70.1692 46.4193 17.3057 -2.1118 17.7041 10.9440
# 2 46.4193 140.8214 12.9442 21.5792 5.8396 1.8691
# 3 17.3057 12.9442 64.5370 -4.9407 7.5083 1.1180
# 4 -2.1118 21.5792 -4.9407 23.9111 -6.1085 9.7852
# 5 17.7041 5.8396 7.5083 -6.1085 40.3857 5.8707
# 6 10.9440 1.8691 1.1180 9.7852 5.8707 35.5246
#
#
#
# Elastic Compliance Matrix: (Units=1/GPa)
#
#
# Indices 1 2 3 4 5 6 
#
# 1 0.024370 -0.009309 -0.002910 0.012389 -0.005553 -0.009421
# 2 -0.009309 0.012575 -0.001222 -0.015324 -0.000787 0.006596
# 3 -0.002910 -0.001222 0.016976 0.004362 -0.000954 -0.000617
# 4 0.012389 -0.015324 0.004362 0.070093 0.010082 -0.024121
# 5 -0.005553 -0.000787 -0.000954 0.010082 0.029874 -0.005932
# 6 -0.009421 0.006596 -0.000617 -0.024121 -0.005932 0.038349
#
#
# Mechanical properties :
#
#
# Convention : Reuss Voigt Hill
#
# Bulk Modulus (GPa) = 36.98239 47.65176 42.31708
# Shear Modulus (GPa) = 21.91708 33.22150 27.56929
#
# Velocity S-wave (km/s) = 3.05596 3.76241 3.42744
# Velocity P-wave (km/s) = 5.31132 6.25930 5.80469
#
# Compressibility (1/GPa) = 0.02703989
#
# Stress axis : x y z
#
# Youngs Moduli (GPa) = 41.03328 79.52113 58.90640
#
# Poissons Ratio (x) = 0.74026 0.17143
# Poissons Ratio (y) = 0.38198 0.07197
# Poissons Ratio (z) = 0.11941 0.09716
#
# Static dielectric constant tensor:
#      x y z
#    x 1.923480 -0.004020 -0.025620 
#    y -0.004020 1.888350 0.023500 
#    z -0.025620 0.023500 1.901190 
# 
# From -- ./inp_files/346221.got.cif
#   From: 2010.05.17/outbox.cif.g08.bks.cpg/sg2_174_cif.got.tgz:346221.got - 2010.06.03 11:33:40.
