data_PCOD9108265
_publ_section_title
;
Structure prediction by ZEFSAII (Michael W. Deem and Ramdas Pophale) SiO2 
 PCOD9108265
Probable space group: P -1
;
_chemical_formula_sum "Si O2"
_cell_formula_units_Z 14
_cell_length_a 9.683389
_cell_length_b 13.042852
_cell_length_c 7.794876
_cell_angle_alpha 133.372576
_cell_angle_beta 108.261465
_cell_angle_gamma 56.169870
_cell_volume 590.573116
_symmetry_space_group_name_H-M "P -1"
_symmetry_group_IT_number 2
_symmetry_cell_setting 'triclinic'
loop_
_space_group_symop_operation_xyz
x,y,z
-x,-y,-z
loop_
_atom_site_type_symbol
_atom_site_label
_atom_site_fract_x
_atom_site_fract_y
_atom_site_fract_z
Si Si1 0.982172 0.672077 0.993705
Si Si2 0.339332 0.497525 0.994779
Si Si3 0.329577 0.639533 0.525473
Si Si4 0.110072 0.007793 0.207427
Si Si5 0.992784 0.344858 0.596951
Si Si6 0.200644 0.963215 0.698479
Si Si7 0.562891 0.130649 0.654722
O O1 0.174557 0.614976 0.960817
O O2 0.966463 0.520541 0.750037
O O3 0.976862 0.672415 0.201967
O O4 0.854728 0.849204 0.078738
O O5 0.396354 0.307767 0.795242
O O6 0.500000 0.500000 0.000000
O O7 0.308368 0.575431 0.258754
O O8 0.500000 0.500000 0.500000
O O9 0.164119 0.654950 0.559957
O O10 0.313323 0.814792 0.699551
O O11 0.131190 0.167408 0.385526
O O12 0.302215 0.872096 0.157203
O O13 0.980581 0.033117 0.345962
O O14 0.000000 0.000000 0.000000
O O15 0.318692 0.910044 0.514859
O O16 0.500000 0.000000 0.500000
#
# Coordination Sequence:
#
# PCOD9108265 Si02
#       7
#     2   2   2   2   2   2   2
#     4  10  20  40  67  96 124 171 228 276 327 399
#     4  11  22  37  65  96 126 168 217 286 329 395
#     4  10  23  40  61  92 132 171 219 273 341 397
#     4  11  24  43  68 100 139 184 231 280 343 414
#     4   9  20  38  67  90 128 173 218 272 332 397
#     4  11  23  44  71  97 130 187 232 276 329 426
#     4  12  25  41  68 104 140 171 234 289 338 399
#
# _framework density 23.705788999999999
#
# number of rings (size 3 to 8) (size 9 to 14) (size 15 to 20)
#    0.000    1.429    2.857    2.143   10.000    0.000 
#    0.000    3.571    0.000    0.000    0.000    0.000 
#    0.000    0.000    0.000    0.000    0.000    0.000 
#
# Total GULP energy -77951.499427 kJ/mol
# GULP energy per Si atom -5567.964245 kJ/mol
# Density = 2.365183 g / cm^3
# Si number density = 23.705789 Si / 1000 Ang^3
#
#
#
# Elastic Constant Matrix: (Units=GPa)
#
#
# Indices 1 2 3 4 5 6 
#
# 1 61.2022 37.9356 19.4643 -2.3073 7.5899 -2.1243
# 2 37.9356 116.3216 43.8924 31.9024 10.9320 -2.4037
# 3 19.4643 43.8924 105.1866 28.2564 12.9687 16.0114
# 4 -2.3073 31.9024 28.2564 57.0666 6.6862 6.3116
# 5 7.5899 10.9320 12.9687 6.6862 41.4997 14.7023
# 6 -2.1243 -2.4037 16.0114 6.3116 14.7023 29.4767
#
#
#
# Elastic Compliance Matrix: (Units=1/GPa)
#
#
# Indices 1 2 3 4 5 6 
#
# 1 0.022888 -0.007927 -0.002761 0.006812 -0.003283 0.002681
# 2 -0.007927 0.014667 -0.003211 -0.007241 -0.001983 0.004908
# 3 -0.002761 -0.003211 0.013543 -0.004278 0.000307 -0.007054
# 4 0.006812 -0.007241 -0.004278 0.024361 -0.001053 -0.002467
# 5 -0.003283 -0.001983 0.000307 -0.001053 0.030868 -0.015736
# 6 0.002681 0.004908 -0.007054 -0.002467 -0.015736 0.046727
#
#
# Mechanical properties :
#
#
# Convention : Reuss Voigt Hill
#
# Bulk Modulus (GPa) = 42.91836 53.92168 48.42002
# Shear Modulus (GPa) = 26.50860 37.70316 32.10588
#
# Velocity S-wave (km/s) = 3.34763 3.99239 3.68414
# Velocity P-wave (km/s) = 5.75205 6.63685 6.21023
#
# Compressibility (1/GPa) = 0.02330005
#
# Stress axis : x y z
#
# Youngs Moduli (GPa) = 43.69177 68.17897 73.83943
#
# Poissons Ratio (x) = 0.54044 0.20386
# Poissons Ratio (y) = 0.34634 0.23711
# Poissons Ratio (z) = 0.12063 0.21894
#
# Static dielectric constant tensor:
#      x y z
#    x 1.994190 0.102180 0.028000 
#    y 0.102180 1.994340 -0.033750 
#    z 0.028000 -0.033750 1.949390 
# 
# From -- ./inp_files/274695.got.cif
#   From: 2010.05.17/outbox.cif.g08.bks.cpg/sg2_138_cif.got.tgz:274695.got - 2010.06.03 11:33:40.
