data_PCOD9108841
_publ_section_title
;
Structure prediction by ZEFSAII (Michael W. Deem and Ramdas Pophale) SiO2 
 PCOD9108841
Probable space group: P -1
;
_chemical_formula_sum "Si O2"
_cell_formula_units_Z 16
_cell_length_a 5.901663
_cell_length_b 6.290201
_cell_length_c 25.306587
_cell_angle_alpha 89.713526
_cell_angle_beta 128.749152
_cell_angle_gamma 75.736964
_cell_volume 694.153896
_symmetry_space_group_name_H-M "P -1"
_symmetry_group_IT_number 2
_symmetry_cell_setting 'triclinic'
loop_
_space_group_symop_operation_xyz
x,y,z
-x,-y,-z
loop_
_atom_site_type_symbol
_atom_site_label
_atom_site_fract_x
_atom_site_fract_y
_atom_site_fract_z
Si Si1 0.252667 0.874226 0.350423
Si Si2 0.779922 0.877033 0.498182
Si Si3 0.298274 0.541590 0.849908
Si Si4 0.606660 0.148880 0.974176
Si Si5 0.238918 0.325165 0.731467
Si Si6 0.306263 0.076936 0.251349
Si Si7 0.801444 0.286952 0.349286
Si Si8 0.143789 0.288605 0.060687
O O1 0.589475 0.806936 0.424331
O O2 0.086348 0.690270 0.335122
O O3 0.224768 0.926066 0.284356
O O4 0.047108 0.102093 0.349091
O O5 0.023507 0.700145 0.571275
O O6 0.500000 0.000000 0.500000
O O7 0.000000 0.000000 0.500000
O O8 0.385701 0.360616 0.910034
O O9 0.235386 0.419048 0.788770
O O10 0.573467 0.642820 0.875382
O O11 0.991276 0.744256 0.815404
O O12 0.729641 0.956136 0.947748
O O13 0.838655 0.251140 0.039568
O O14 0.500000 0.000000 0.000000
O O15 0.319040 0.488296 0.701508
O O16 0.485928 0.079931 0.762514
O O17 0.518258 0.193507 0.314258
O O18 0.000000 0.500000 0.000000
#
# Coordination Sequence:
#
# PCOD9108841 Si02
#       8
#     2   2   2   2   2   2   2   2
#     4  10  22  43  67  96 148 178 246 301 356 427
#     4  10  20  40  73 101 139 202 249 308 380 433
#     4  11  25  47  71 100 144 184 224 289 357 424
#     4  10  23  49  74 104 134 175 230 281 343 422
#     4  11  26  43  66 106 141 183 239 296 355 430
#     4  11  24  44  67 100 140 186 231 298 354 430
#     4  10  22  43  67  98 141 188 239 302 359 427
#     4   9  22  47  69  99 139 172 218 280 339 412
#
# _framework density 23.049644000000001
#
# number of rings (size 3 to 8) (size 9 to 14) (size 15 to 20)
#    0.000    1.750    2.500    0.000    3.500    2.500 
#   18.000    0.625    0.000    0.000    0.000    0.000 
#    0.000    0.000    0.000    0.000    0.000    0.000 
#
# Total GULP energy -89247.610074 kJ/mol
# GULP energy per Si atom -5577.975630 kJ/mol
# Density = 2.299718 g / cm^3
# Si number density = 23.049644 Si / 1000 Ang^3
#
#
#
# Elastic Constant Matrix: (Units=GPa)
#
#
# Indices 1 2 3 4 5 6 
#
# 1 64.2385 17.0465 25.2576 2.1245 4.1676 20.2666
# 2 17.0465 77.4483 43.0287 15.1634 4.4230 4.3954
# 3 25.2576 43.0287 121.5534 1.7939 8.3937 -13.1488
# 4 2.1245 15.1634 1.7939 22.8178 13.7977 0.6448
# 5 4.1676 4.4230 8.3937 13.7977 35.2126 1.3281
# 6 20.2666 4.3954 -13.1488 0.6448 1.3281 32.0464
#
#
#
# Elastic Compliance Matrix: (Units=1/GPa)
#
#
# Indices 1 2 3 4 5 6 
#
# 1 0.024007 -0.000312 -0.006790 -0.000893 -0.000159 -0.017901
# 2 -0.000312 0.020705 -0.008076 -0.016614 0.006093 -0.005875
# 3 -0.006790 -0.008076 0.013930 0.007537 -0.004877 0.011168
# 4 -0.000893 -0.016614 0.007537 0.070881 -0.027591 0.005653
# 5 -0.000159 0.006093 -0.004877 -0.027591 0.039771 -0.003830
# 6 -0.017901 -0.005875 0.011168 0.005653 -0.003830 0.047959
#
#
# Mechanical properties :
#
#
# Convention : Reuss Voigt Hill
#
# Bulk Modulus (GPa) = 35.35187 48.21177 41.78182
# Shear Modulus (GPa) = 19.45236 29.87584 24.66410
#
# Velocity S-wave (km/s) = 2.90820 3.60412 3.27470
# Velocity P-wave (km/s) = 5.16212 6.18720 5.69776
#
# Compressibility (1/GPa) = 0.02828705
#
# Stress axis : x y z
#
# Youngs Moduli (GPa) = 41.65437 48.29658 71.78650
#
# Poissons Ratio (x) = 0.01505 0.48746
# Poissons Ratio (y) = 0.01298 0.57973
# Poissons Ratio (z) = 0.28285 0.39003
#
# Static dielectric constant tensor:
#      x y z
#    x 1.953650 -0.091470 0.075990 
#    y -0.091470 1.834390 0.037360 
#    z 0.075990 0.037360 1.782320 
# 
# From -- ./inp_files/13462.got.cif
#   From: 2010.05.17/outbox.cif.g08.bks.cpg/sg2_7_cif.got.tgz:13462.got - 2010.06.03 11:33:40.
