data_PCOD9108241
_publ_section_title
;
Structure prediction by ZEFSAII (Michael W. Deem and Ramdas Pophale) SiO2 
 PCOD9108241
Probable space group: P -1
;
_chemical_formula_sum "Si O2"
_cell_formula_units_Z 14
_cell_length_a 20.555111
_cell_length_b 15.137609
_cell_length_c 8.006441
_cell_angle_alpha 138.865247
_cell_angle_beta 29.440422
_cell_angle_gamma 149.304720
_cell_volume 624.977199
_symmetry_space_group_name_H-M "P -1"
_symmetry_group_IT_number 2
_symmetry_cell_setting 'triclinic'
loop_
_space_group_symop_operation_xyz
x,y,z
-x,-y,-z
loop_
_atom_site_type_symbol
_atom_site_label
_atom_site_fract_x
_atom_site_fract_y
_atom_site_fract_z
Si Si1 0.027129 0.457939 0.066130
Si Si2 0.267668 0.541265 0.148423
Si Si3 0.967556 0.828086 0.780975
Si Si4 0.620601 0.287397 0.191192
Si Si5 0.074316 0.907716 0.273688
Si Si6 0.308116 0.966546 0.348027
Si Si7 0.435327 0.096076 0.864407
O O1 0.901135 0.472302 0.476694
O O2 0.230333 0.600690 0.848644
O O3 0.972964 0.268279 0.949482
O O4 0.000000 0.500000 0.000000
O O5 0.339318 0.585530 0.864634
O O6 0.410737 0.700874 0.171211
O O7 0.212459 0.356369 0.053121
O O8 0.006973 0.841853 0.518195
O O9 0.106556 0.848909 0.620600
O O10 0.000000 0.000000 0.000000
O O11 0.654409 0.159914 0.859337
O O12 0.416980 0.141604 0.464966
O O13 0.000000 0.000000 0.500000
O O14 0.277916 0.048176 0.039561
O O15 0.366070 0.023667 0.105094
O O16 0.500000 0.000000 0.500000
#
# Coordination Sequence:
#
# PCOD9108241 Si02
#       7
#     2   2   2   2   2   2   2
#     4  12  21  39  67  90 129 164 211 269 316 378
#     4  11  22  38  66  96 115 169 223 260 309 383
#     4  11  24  43  62  84 131 172 209 257 325 379
#     4  10  21  36  62  94 121 152 211 265 304 369
#     4  11  25  43  62  96 131 168 207 265 330 377
#     4   9  20  39  59  92 127 158 203 261 317 372
#     4  10  20  40  67  94 128 166 210 263 321 380
#
# _framework density 22.400817
#
# number of rings (size 3 to 8) (size 9 to 14) (size 15 to 20)
#    0.000    1.429    4.286    1.286    2.000    0.000 
#    5.143    2.857    0.000    0.000    0.000    0.000 
#    0.000    0.000    0.000    0.000    0.000    0.000 
#
# Total GULP energy -78118.614901 kJ/mol
# GULP energy per Si atom -5579.901064 kJ/mol
# Density = 2.234983 g / cm^3
# Si number density = 22.400817 Si / 1000 Ang^3
#
#
#
# Elastic Constant Matrix: (Units=GPa)
#
#
# Indices 1 2 3 4 5 6 
#
# 1 97.9118 52.2261 10.7371 -12.6660 -26.9240 20.6140
# 2 52.2261 192.0737 20.2745 0.7607 -16.2237 23.3932
# 3 10.7371 20.2745 19.9277 6.7775 -13.9562 2.1197
# 4 -12.6660 0.7607 6.7775 29.8347 -1.8333 -6.0812
# 5 -26.9240 -16.2237 -13.9562 -1.8333 36.6255 -5.0412
# 6 20.6140 23.3932 2.1197 -6.0812 -5.0412 42.2975
#
#
#
# Elastic Compliance Matrix: (Units=1/GPa)
#
#
# Indices 1 2 3 4 5 6 
#
# 1 0.016545 -0.003107 -0.000403 0.007004 0.010422 -0.004075
# 2 -0.003107 0.006816 -0.006160 -0.000678 -0.001960 -0.002278
# 3 -0.000403 -0.006160 0.081369 -0.016755 0.027192 0.000357
# 4 0.007004 -0.000678 -0.016755 0.041164 0.001054 0.003845
# 5 0.010422 -0.001960 0.027192 0.001054 0.044525 0.000100
# 6 -0.004075 -0.002278 0.000357 0.003845 0.000100 0.027435
#
#
# Mechanical properties :
#
#
# Convention : Reuss Voigt Hill
#
# Bulk Modulus (GPa) = 11.71087 52.93208 32.32148
# Shear Modulus (GPa) = 18.82128 36.86324 27.84226
#
# Velocity S-wave (km/s) = 2.90177 4.06103 3.52932
# Velocity P-wave (km/s) = 4.05787 6.75796 5.57388
#
# Compressibility (1/GPa) = 0.08539072
#
# Stress axis : x y z
#
# Youngs Moduli (GPa) = 60.44172 146.71369 12.28963
#
# Poissons Ratio (x) = 0.45587 0.00495
# Poissons Ratio (y) = 0.18781 0.07570
# Poissons Ratio (z) = 0.02434 0.90374
#
# Static dielectric constant tensor:
#      x y z
#    x 2.113700 -0.035450 -0.091760 
#    y -0.035450 1.827470 -0.090970 
#    z -0.091760 -0.090970 1.828150 
# 
# From -- ./inp_files/201373.got.cif
#   From: 2010.05.17/outbox.cif.g08.bks.cpg/sg2_101_cif.got.tgz:201373.got - 2010.06.03 11:33:40.
