data_PCOD9108725
_publ_section_title
;
Structure prediction by ZEFSAII (Michael W. Deem and Ramdas Pophale) SiO2 
 PCOD9108725
Probable space group: P -1
;
_chemical_formula_sum "Si O2"
_cell_formula_units_Z 15
_cell_length_a 8.729052
_cell_length_b 11.456435
_cell_length_c 11.678285
_cell_angle_alpha 113.827868
_cell_angle_beta 89.428062
_cell_angle_gamma 41.320572
_cell_volume 603.004029
_symmetry_space_group_name_H-M "P -1"
_symmetry_group_IT_number 2
_symmetry_cell_setting 'triclinic'
loop_
_space_group_symop_operation_xyz
x,y,z
-x,-y,-z
loop_
_atom_site_type_symbol
_atom_site_label
_atom_site_fract_x
_atom_site_fract_y
_atom_site_fract_z
Si Si1 0.421156 0.395827 0.220242
Si Si2 0.781243 0.897586 0.764179
Si Si3 0.882323 0.244891 0.075451
Si Si4 0.209203 0.687580 0.521834
Si Si5 0.361410 0.965295 0.785240
Si Si6 0.000000 0.000000 0.500000
Si Si7 0.952908 0.609363 0.163690
Si Si8 0.515651 0.732785 0.269032
O O1 0.706689 0.239879 0.101693
O O2 0.245578 0.637905 0.364677
O O3 0.238630 0.445363 0.153288
O O4 0.477182 0.277328 0.289154
O O5 0.956270 0.827808 0.840118
O O6 0.013597 0.720348 0.594962
O O7 0.587281 0.914260 0.804531
O O8 0.595018 0.128731 0.792257
O O9 0.640169 0.509942 0.157087
O O10 0.098587 0.117976 0.925158
O O11 0.500000 0.500000 0.500000
O O12 0.074127 0.919625 0.605317
O O13 0.223126 0.140452 0.753401
O O14 0.708257 0.123905 0.574632
O O15 0.774983 0.642330 0.260929
O O16 0.000000 0.500000 0.000000
#
# Coordination Sequence:
#
# PCOD9108725 Si02
#       8
#     2   2   2   2   2   1   2   2
#     4  12  27  41  68 104 134 174 224 277 332 395
#     4  10  23  40  71  97 129 180 223 267 336 392
#     4  12  22  42  67 100 134 173 221 276 330 397
#     4  11  22  44  69  98 135 171 221 276 330 394
#     4  11  26  42  67 100 137 179 220 275 333 400
#     4  10  20  40  70  98 128 176 220 270 328 394
#     4  11  25  46  67  96 137 179 223 271 332 396
#     4  10  21  40  70  96 127 178 221 269 330 393
#
# _framework density 24.875457000000001
#
# number of rings (size 3 to 8) (size 9 to 14) (size 15 to 20)
#    0.000    1.067    4.000    1.600    3.733    3.200 
#    0.000    6.000    0.000    0.000    0.000    0.000 
#    0.000    0.000    0.000    0.000    0.000    0.000 
#
# Total GULP energy -83512.709610 kJ/mol
# GULP energy per Si atom -5567.513974 kJ/mol
# Density = 2.481884 g / cm^3
# Si number density = 24.875457 Si / 1000 Ang^3
#
#
#
# Elastic Constant Matrix: (Units=GPa)
#
#
# Indices 1 2 3 4 5 6 
#
# 1 154.5185 37.2295 37.2873 8.5118 -37.3279 -5.2677
# 2 37.2295 70.6419 -17.8305 6.0891 8.4389 -15.4224
# 3 37.2873 -17.8305 75.5513 15.0384 -17.3449 -13.5000
# 4 8.5118 6.0891 15.0384 20.2156 -13.9646 -13.0037
# 5 -37.3279 8.4389 -17.3449 -13.9646 38.6378 1.1486
# 6 -5.2677 -15.4224 -13.5000 -13.0037 1.1486 47.0279
#
#
#
# Elastic Compliance Matrix: (Units=1/GPa)
#
#
# Indices 1 2 3 4 5 6 
#
# 1 0.018576 -0.018329 -0.012753 0.022992 0.024589 -0.001834
# 2 -0.018329 0.036385 0.018679 -0.033085 -0.029429 0.006811
# 3 -0.012753 0.018679 0.026966 -0.026507 -0.014037 0.005452
# 4 0.022992 -0.033085 -0.026507 0.122396 0.061288 0.016463
# 5 0.024589 -0.029429 -0.014037 0.061288 0.071787 0.004267
# 6 -0.001834 0.006811 0.005452 0.016463 0.004267 0.029305
#
#
# Mechanical properties :
#
#
# Convention : Reuss Voigt Hill
#
# Bulk Modulus (GPa) = 17.50616 46.00936 31.75776
# Shear Modulus (GPa) = 14.31592 37.44463 25.88027
#
# Velocity S-wave (km/s) = 2.40157 3.88401 3.22901
# Velocity P-wave (km/s) = 3.83964 6.21692 5.16686
#
# Compressibility (1/GPa) = 0.05712274
#
# Stress axis : x y z
#
# Youngs Moduli (GPa) = 53.83187 27.48409 37.08358
#
# Poissons Ratio (x) = 0.50375 0.47292
# Poissons Ratio (y) = 0.98666 -0.69270
# Poissons Ratio (z) = 0.68651 -0.51338
#
# Static dielectric constant tensor:
#      x y z
#    x 1.933370 -0.084780 -0.086520 
#    y -0.084780 1.908880 -0.157890 
#    z -0.086520 -0.157890 1.840250 
# 
# From -- ./inp_files/390729.got.cif
#   From: 2010.05.17/outbox.cif.g08.bks.cpg/sg2_196_cif.got.tgz:390729.got - 2010.06.03 11:33:40.
