data_PCOD9108988
_publ_section_title
;
Structure prediction by ZEFSAII (Michael W. Deem and Ramdas Pophale) SiO2 
 PCOD9108988
Probable space group: P -1
;
_chemical_formula_sum "Si O2"
_cell_formula_units_Z 16
_cell_length_a 7.721525
_cell_length_b 8.587690
_cell_length_c 15.055025
_cell_angle_alpha 99.033832
_cell_angle_beta 100.981736
_cell_angle_gamma 127.986753
_cell_volume 722.249257
_symmetry_space_group_name_H-M "P -1"
_symmetry_group_IT_number 2
_symmetry_cell_setting 'triclinic'
loop_
_space_group_symop_operation_xyz
x,y,z
-x,-y,-z
loop_
_atom_site_type_symbol
_atom_site_label
_atom_site_fract_x
_atom_site_fract_y
_atom_site_fract_z
Si Si1 0.210045 0.754826 0.303863
Si Si2 0.479439 0.222434 0.350359
Si Si3 0.166516 0.509930 0.448446
Si Si4 0.996059 0.859945 0.720393
Si Si5 0.012662 0.627077 0.863376
Si Si6 0.771879 0.699266 0.193516
Si Si7 0.970871 0.142545 0.953927
Si Si8 0.453614 0.728470 0.831949
O O1 0.218688 0.653556 0.382960
O O2 0.182738 0.617432 0.206677
O O3 0.972973 0.721261 0.269373
O O4 0.418172 0.005011 0.345556
O O5 0.601090 0.377762 0.459445
O O6 0.239860 0.173897 0.299765
O O7 0.628204 0.309110 0.281805
O O8 0.043752 0.281380 0.377547
O O9 0.000000 0.500000 0.500000
O O10 0.011658 0.766734 0.802979
O O11 0.212359 0.111355 0.756180
O O12 0.264266 0.691349 0.876697
O O13 0.990224 0.686201 0.963131
O O14 0.539274 0.454280 0.160780
O O15 0.859331 0.753245 0.105068
O O16 0.697953 0.967324 0.881604
O O17 0.000000 0.000000 0.000000
#
# Coordination Sequence:
#
# PCOD9108988 Si02
#       8
#     2   2   2   2   2   2   2   2
#     4   9  20  38  61  88 124 158 200 253 305 357
#     4  11  20  41  62  89 124 166 205 250 310 369
#     4  11  22  38  63  92 122 161 209 254 303 371
#     4  10  20  41  61  88 126 161 200 257 310 362
#     4  10  21  39  62  93 122 161 207 256 305 361
#     4  10  21  41  64  87 128 163 204 255 306 363
#     4  12  22  42  64  89 128 165 205 255 308 363
#     4  11  23  40  64  92 125 164 208 253 305 360
#
# _framework density 22.153020000000001
#
# number of rings (size 3 to 8) (size 9 to 14) (size 15 to 20)
#    0.000    1.500    3.750    3.375    0.000    2.500 
#    2.250   13.125    0.000    0.000    0.000    0.000 
#    0.000    0.000    0.000    0.000    0.000    0.000 
#
# Total GULP energy -89427.867335 kJ/mol
# GULP energy per Si atom -5589.241708 kJ/mol
# Density = 2.210260 g / cm^3
# Si number density = 22.153020 Si / 1000 Ang^3
#
#
#
# Elastic Constant Matrix: (Units=GPa)
#
#
# Indices 1 2 3 4 5 6 
#
# 1 32.8068 11.1544 12.4499 10.1282 -12.5579 -11.6323
# 2 11.1544 121.5637 42.5934 21.8654 -24.9387 -15.4702
# 3 12.4499 42.5934 130.5903 20.9032 -32.2905 -7.4553
# 4 10.1282 21.8654 20.9032 33.1119 -13.6645 -8.3210
# 5 -12.5579 -24.9387 -32.2905 -13.6645 40.2381 1.8964
# 6 -11.6323 -15.4702 -7.4553 -8.3210 1.8964 29.1671
#
#
#
# Elastic Compliance Matrix: (Units=1/GPa)
#
#
# Indices 1 2 3 4 5 6 
#
# 1 0.041214 0.001330 0.000114 -0.005115 0.011335 0.014975
# 2 0.001330 0.010814 -0.001772 -0.003522 0.004286 0.004530
# 3 0.000114 -0.001772 0.010212 -0.002601 0.006222 0.000569
# 4 -0.005115 -0.003522 -0.002601 0.040490 0.007578 0.006486
# 5 0.011335 0.004286 0.006222 0.007578 0.038233 0.008060
# 6 0.014975 0.004530 0.000569 0.006486 0.008060 0.044132
#
#
# Mechanical properties :
#
#
# Convention : Reuss Voigt Hill
#
# Bulk Modulus (GPa) = 16.23831 46.37292 31.30561
# Shear Modulus (GPa) = 24.23901 35.08763 29.66332
#
# Velocity S-wave (km/s) = 3.31140 3.98411 3.66323
# Velocity P-wave (km/s) = 4.68684 6.49174 5.66167
#
# Compressibility (1/GPa) = 0.06158278
#
# Stress axis : x y z
#
# Youngs Moduli (GPa) = 24.26367 92.47127 97.92481
#
# Poissons Ratio (x) = -0.12295 -0.01112
# Poissons Ratio (y) = -0.03226 0.17350
# Poissons Ratio (z) = -0.00276 0.16384
#
# Static dielectric constant tensor:
#      x y z
#    x 1.867350 0.009390 0.055720 
#    y 0.009390 1.834590 0.054150 
#    z 0.055720 0.054150 1.832450 
# 
# From -- ./inp_files/221717.got.cif
#   From: 2010.05.17/outbox.cif.g08.bks.cpg/sg2_111_cif.got.tgz:221717.got - 2010.06.03 11:33:40.
