data_PCOD9108529
_publ_section_title
;
Structure prediction by ZEFSAII (Michael W. Deem and Ramdas Pophale) SiO2 
 PCOD9108529
Probable space group: P -1
;
_chemical_formula_sum "Si O2"
_cell_formula_units_Z 14
_cell_length_a 14.203591
_cell_length_b 5.478994
_cell_length_c 7.465276
_cell_angle_alpha 67.068766
_cell_angle_beta 84.895154
_cell_angle_gamma 84.464173
_cell_volume 531.713847
_symmetry_space_group_name_H-M "P -1"
_symmetry_group_IT_number 2
_symmetry_cell_setting 'triclinic'
loop_
_space_group_symop_operation_xyz
x,y,z
-x,-y,-z
loop_
_atom_site_type_symbol
_atom_site_label
_atom_site_fract_x
_atom_site_fract_y
_atom_site_fract_z
Si Si1 0.015846 0.700670 0.279736
Si Si2 0.170632 0.552152 0.009758
Si Si3 0.489634 0.612098 0.767745
Si Si4 0.179167 0.029434 0.304328
Si Si5 0.666246 0.284599 0.794142
Si Si6 0.613384 0.881982 0.203988
Si Si7 0.818985 0.933566 0.309494
O O1 0.072733 0.593434 0.126123
O O2 0.000000 0.500000 0.500000
O O3 0.083210 0.905011 0.301805
O O4 0.911450 0.823650 0.217329
O O5 0.195461 0.241837 0.086506
O O6 0.255134 0.646919 0.093602
O O7 0.171802 0.746463 0.786470
O O8 0.594540 0.536375 0.695383
O O9 0.448955 0.914851 0.712297
O O10 0.500000 0.500000 0.000000
O O11 0.576385 0.592249 0.260911
O O12 0.270725 0.824576 0.349611
O O13 0.171841 0.162032 0.460984
O O14 0.613631 0.045162 0.966657
O O15 0.719358 0.864845 0.268045
#
# Coordination Sequence:
#
# PCOD9108529 Si02
#       7
#     2   2   2   2   2   2   2
#     4  11  23  45  65  97 137 181 232 283 349 415
#     4  10  23  42  67  98 131 178 235 276 353 415
#     4  10  20  40  69 103 137 183 232 286 345 420
#     4  11  24  43  66 100 131 185 229 282 354 409
#     4   9  21  38  65  95 136 175 227 284 344 415
#     4  10  23  39  67 106 135 183 236 280 352 414
#     4  11  24  44  67  99 140 178 230 295 337 412
#
# _framework density 26.329954000000001
#
# number of rings (size 3 to 8) (size 9 to 14) (size 15 to 20)
#    0.000    1.714    1.429    2.571    8.000    1.714 
#    5.143    1.429    0.000    0.000    0.000    0.000 
#    0.000    0.000    0.000    0.000    0.000    0.000 
#
# Total GULP energy -78420.286011 kJ/mol
# GULP energy per Si atom -5601.449001 kJ/mol
# Density = 2.627003 g / cm^3
# Si number density = 26.329954 Si / 1000 Ang^3
#
#
#
# Elastic Constant Matrix: (Units=GPa)
#
#
# Indices 1 2 3 4 5 6 
#
# 1 158.4579 58.1152 11.8494 17.1619 3.4471 -38.3657
# 2 58.1152 106.8301 14.6628 1.7622 7.7533 -8.8760
# 3 11.8494 14.6628 88.2318 0.6843 0.4295 1.2443
# 4 17.1619 1.7622 0.6843 36.4633 1.1945 -5.1109
# 5 3.4471 7.7533 0.4295 1.1945 24.7305 -4.7899
# 6 -38.3657 -8.8760 1.2443 -5.1109 -4.7899 40.0837
#
#
#
# Elastic Compliance Matrix: (Units=1/GPa)
#
#
# Indices 1 2 3 4 5 6 
#
# 1 0.010748 -0.005093 -0.000705 -0.003609 0.002021 0.008963
# 2 -0.005093 0.012360 -0.001332 0.001619 -0.003671 -0.002328
# 3 -0.000705 -0.001332 0.011668 -0.000010 0.000057 -0.001327
# 4 -0.003609 0.001619 -0.000010 0.029154 -0.001323 0.000463
# 5 0.002021 -0.003671 0.000057 -0.001323 0.042537 0.006034
# 6 0.008963 -0.002328 -0.001327 0.000463 0.006034 0.033833
#
#
# Mechanical properties :
#
#
# Convention : Reuss Voigt Hill
#
# Bulk Modulus (GPa) = 48.74052 58.08605 53.41329
# Shear Modulus (GPa) = 30.97900 38.18166 34.58033
#
# Velocity S-wave (km/s) = 3.43384 3.81218 3.62794
# Velocity P-wave (km/s) = 5.85434 6.44094 6.15463
#
# Compressibility (1/GPa) = 0.02051681
#
# Stress axis : x y z
#
# Youngs Moduli (GPa) = 93.03625 80.90484 85.70158
#
# Poissons Ratio (x) = 0.41203 0.06045
# Poissons Ratio (y) = 0.47381 0.11415
# Poissons Ratio (z) = 0.06563 0.10776
#
# Static dielectric constant tensor:
#      x y z
#    x 2.049410 -0.056730 -0.028290 
#    y -0.056730 2.081260 -0.029680 
#    z -0.028290 -0.029680 2.012890 
# 
# From -- ./inp_files/141113.got.cif
#   From: 2010.05.17/outbox.cif.g08.bks.cpg/sg2_71_cif.got.tgz:141113.got - 2010.06.03 11:33:40.
