data_PCOD9108465
_publ_section_title
;
Structure prediction by ZEFSAII (Michael W. Deem and Ramdas Pophale) SiO2 
 PCOD9108465
Probable space group: P -1
;
_chemical_formula_sum "Si O2"
_cell_formula_units_Z 14
_cell_length_a 11.864683
_cell_length_b 11.211067
_cell_length_c 12.022513
_cell_angle_alpha 145.303969
_cell_angle_beta 138.341269
_cell_angle_gamma 38.034390
_cell_volume 537.802077
_symmetry_space_group_name_H-M "P -1"
_symmetry_group_IT_number 2
_symmetry_cell_setting 'triclinic'
loop_
_space_group_symop_operation_xyz
x,y,z
-x,-y,-z
loop_
_atom_site_type_symbol
_atom_site_label
_atom_site_fract_x
_atom_site_fract_y
_atom_site_fract_z
Si Si1 0.548653 0.621542 0.270161
Si Si2 0.532358 0.107169 0.990793
Si Si3 0.346102 0.014617 0.249721
Si Si4 0.864686 0.305290 0.931809
Si Si5 0.894589 0.722793 0.223916
Si Si6 0.946703 0.318992 0.255519
Si Si7 0.128079 0.881070 0.663558
O O1 0.596327 0.788881 0.513534
O O2 0.360771 0.616039 0.174948
O O3 0.740633 0.381169 0.203064
O O4 0.490228 0.766079 0.220576
O O5 0.328663 0.187059 0.841309
O O6 0.665746 0.964992 0.876593
O O7 0.500000 0.000000 0.000000
O O8 0.651431 0.239270 0.228355
O O9 0.142977 0.077414 0.206202
O O10 0.982035 0.037249 0.771521
O O11 0.932176 0.458924 0.020203
O O12 0.907030 0.367098 0.132701
O O13 0.888228 0.921167 0.286711
O O14 0.044531 0.719001 0.423530
O O15 0.000000 0.500000 0.500000
#
# Coordination Sequence:
#
# PCOD9108465 Si02
#       7
#     2   2   2   2   2   2   2
#     4  10  23  39  66  95 132 183 226 279 349 400
#     4  10  20  40  68  97 130 173 224 279 341 406
#     4  10  20  43  64  94 138 177 226 284 338 416
#     4  12  22  42  64  95 130 175 223 280 341 405
#     4  10  23  42  66  98 137 168 226 286 330 415
#     4  10  22  39  59  94 133 169 226 279 328 409
#     4  10  22  43  68  97 130 180 221 273 352 408
#
# _framework density 26.031883000000001
#
# number of rings (size 3 to 8) (size 9 to 14) (size 15 to 20)
#    0.000    1.714    1.429    2.571    0.000    2.857 
#   10.286    0.000    0.000    8.571    0.000    0.000 
#    0.000    0.000    0.000    0.000    0.000    0.000 
#
# Total GULP energy -78132.535955 kJ/mol
# GULP energy per Si atom -5580.895425 kJ/mol
# Density = 2.597263 g / cm^3
# Si number density = 26.031883 Si / 1000 Ang^3
#
#
#
# Elastic Constant Matrix: (Units=GPa)
#
#
# Indices 1 2 3 4 5 6 
#
# 1 139.6752 39.0996 42.0219 -8.5186 22.3339 10.0310
# 2 39.0996 100.3670 20.2368 -9.4389 9.7506 -24.2958
# 3 42.0219 20.2368 116.9028 -31.5440 42.2418 -16.0011
# 4 -8.5186 -9.4389 -31.5440 43.6966 -3.8468 8.1936
# 5 22.3339 9.7506 42.2418 -3.8468 41.0502 -8.6971
# 6 10.0310 -24.2958 -16.0011 8.1936 -8.6971 45.5208
#
#
#
# Elastic Compliance Matrix: (Units=1/GPa)
#
#
# Indices 1 2 3 4 5 6 
#
# 1 0.010182 -0.004651 -0.002589 0.000007 -0.003090 -0.006228
# 2 -0.004651 0.013758 0.000427 0.000841 0.000704 0.008501
# 3 -0.002589 0.000427 0.018646 0.011193 -0.016363 0.002212
# 4 0.000007 0.000841 0.011193 0.030875 -0.009460 -0.002983
# 5 -0.003090 0.000704 -0.016363 -0.009460 0.042929 0.005209
# 6 -0.006228 0.008501 0.002212 -0.002983 0.005209 0.030187
#
#
# Mechanical properties :
#
#
# Convention : Reuss Voigt Hill
#
# Bulk Modulus (GPa) = 34.53161 62.18462 48.35812
# Shear Modulus (GPa) = 29.43624 43.09263 36.26443
#
# Velocity S-wave (km/s) = 3.36635 4.07305 3.73644
# Velocity P-wave (km/s) = 5.32951 6.78670 6.10176
#
# Compressibility (1/GPa) = 0.02895897
#
# Stress axis : x y z
#
# Youngs Moduli (GPa) = 98.21058 72.68484 53.62951
#
# Poissons Ratio (x) = 0.33809 0.13885
# Poissons Ratio (y) = 0.45682 -0.02288
# Poissons Ratio (z) = 0.25428 -0.03101
#
# Static dielectric constant tensor:
#      x y z
#    x 2.017400 0.047460 -0.010280 
#    y 0.047460 2.198750 -0.011050 
#    z -0.010280 -0.011050 2.020640 
# 
# From -- ./inp_files/429151.got.cif
#   From: 2010.05.17/outbox.cif.g08.bks.cpg/sg2_215_cif.got.tgz:429151.got - 2010.06.03 11:33:40.
