data_PCOD9108527
_publ_section_title
;
Structure prediction by ZEFSAII (Michael W. Deem and Ramdas Pophale) SiO2 
 PCOD9108527
Probable space group: P -1
;
_chemical_formula_sum "Si O2"
_cell_formula_units_Z 16
_cell_length_a 13.835622
_cell_length_b 13.349919
_cell_length_c 9.663807
_cell_angle_alpha 146.807907
_cell_angle_beta 58.914542
_cell_angle_gamma 133.279725
_cell_volume 703.978055
_symmetry_space_group_name_H-M "P -1"
_symmetry_group_IT_number 2
_symmetry_cell_setting 'triclinic'
loop_
_space_group_symop_operation_xyz
x,y,z
-x,-y,-z
loop_
_atom_site_type_symbol
_atom_site_label
_atom_site_fract_x
_atom_site_fract_y
_atom_site_fract_z
Si Si1 0.631269 0.055164 0.547990
Si Si2 0.556650 0.641309 0.986538
Si Si3 0.834404 0.496074 0.257879
Si Si4 0.384901 0.995487 0.177679
Si Si5 0.077489 0.599001 0.330329
Si Si6 0.194570 0.279025 0.221458
Si Si7 0.042126 0.814455 0.880892
Si Si8 0.382361 0.419526 0.609670
O O1 0.585589 0.993511 0.668230
O O2 0.767806 0.288699 0.698831
O O3 0.500000 0.000000 0.500000
O O4 0.654448 0.883614 0.252733
O O5 0.653198 0.586647 0.776191
O O6 0.444727 0.580487 0.883111
O O7 0.500000 0.500000 0.000000
O O8 0.825137 0.552334 0.488305
O O9 0.747995 0.577021 0.336215
O O10 0.995500 0.610664 0.272759
O O11 0.750565 0.239288 0.009382
O O12 0.356740 0.184274 0.389496
O O13 0.500000 0.000000 0.000000
O O14 0.079898 0.724028 0.614167
O O15 0.999250 0.348295 0.148707
O O16 0.092839 0.193348 0.069993
O O17 0.155836 0.069477 0.101555
O O18 0.500000 0.500000 0.500000
#
# Coordination Sequence:
#
# PCOD9108527 Si02
#       8
#     2   2   2   2   2   2   2   2
#     4  12  28  46  73 103 142 184 240 311 360 419
#     4  12  24  43  68 105 143 179 241 300 353 412
#     4  11  25  43  71  99 142 188 239 284 347 439
#     4  12  26  47  72 105 145 193 242 291 363 431
#     4  10  23  43  67 104 143 183 239 294 361 428
#     4  10  20  40  69 102 140 184 237 290 352 428
#     4   9  20  39  68 103 141 184 230 293 358 426
#     4  12  24  45  71 106 142 191 239 291 350 428
#
# _framework density 22.727982000000001
#
# number of rings (size 3 to 8) (size 9 to 14) (size 15 to 20)
#    0.000    1.000    5.000    0.750    3.500    2.500 
#    0.000    0.625    0.000    0.000    0.000    0.000 
#    0.000    0.000    0.000    0.000    0.000    0.000 
#
# Total GULP energy -89225.392266 kJ/mol
# GULP energy per Si atom -5576.587017 kJ/mol
# Density = 2.267625 g / cm^3
# Si number density = 22.727982 Si / 1000 Ang^3
#
#
#
# Elastic Constant Matrix: (Units=GPa)
#
#
# Indices 1 2 3 4 5 6 
#
# 1 138.4350 76.4062 13.4583 1.1775 16.1436 2.0517
# 2 76.4062 104.2481 33.1736 9.4732 6.3710 -8.0950
# 3 13.4583 33.1736 94.3848 8.7457 11.9766 -11.8430
# 4 1.1775 9.4732 8.7457 33.9912 -9.7539 -2.3448
# 5 16.1436 6.3710 11.9766 -9.7539 33.5027 1.3749
# 6 2.0517 -8.0950 -11.8430 -2.3448 1.3749 31.4639
#
#
#
# Elastic Compliance Matrix: (Units=1/GPa)
#
#
# Indices 1 2 3 4 5 6 
#
# 1 0.013359 -0.010353 0.002024 0.000291 -0.005003 -0.002533
# 2 -0.010353 0.019114 -0.004802 -0.002895 0.002085 0.003479
# 3 0.002024 -0.004802 0.013592 -0.003740 -0.006163 0.003739
# 4 0.000291 -0.002895 -0.003740 0.034560 0.011813 -0.000112
# 5 -0.005003 0.002085 -0.006163 0.011813 0.037596 -0.002220
# 6 -0.002533 0.003479 0.003739 -0.000112 -0.002220 0.034339
#
#
# Mechanical properties :
#
#
# Convention : Reuss Voigt Hill
#
# Bulk Modulus (GPa) = 50.49486 64.79380 57.64433
# Shear Modulus (GPa) = 26.96531 34.06021 30.51276
#
# Velocity S-wave (km/s) = 3.44821 3.87538 3.66802
# Velocity P-wave (km/s) = 6.17404 6.97101 6.58460
#
# Compressibility (1/GPa) = 0.01980399
#
# Stress axis : x y z
#
# Youngs Moduli (GPa) = 74.85355 52.31723 73.57417
#
# Poissons Ratio (x) = 0.54163 -0.14891
# Poissons Ratio (y) = 0.77495 0.35328
# Poissons Ratio (z) = -0.15150 0.25121
#
# Static dielectric constant tensor:
#      x y z
#    x 2.178820 0.089760 -0.062020 
#    y 0.089760 1.848870 -0.066300 
#    z -0.062020 -0.066300 1.972010 
# 
# From -- ./inp_files/308757.got.cif
#   From: 2010.05.17/outbox.cif.g08.bks.cpg/sg2_155_cif.got.tgz:308757.got - 2010.06.03 11:33:40.
