data_PCOD9108169
_publ_section_title
;
Structure prediction by ZEFSAII (Michael W. Deem and Ramdas Pophale) SiO2 
 PCOD9108169
Probable space group: P -1
;
_chemical_formula_sum "Si O2"
_cell_formula_units_Z 16
_cell_length_a 8.996510
_cell_length_b 18.271511
_cell_length_c 13.244137
_cell_angle_alpha 22.402797
_cell_angle_beta 91.305177
_cell_angle_gamma 79.873393
_cell_volume 710.175017
_symmetry_space_group_name_H-M "P -1"
_symmetry_group_IT_number 2
_symmetry_cell_setting 'triclinic'
loop_
_space_group_symop_operation_xyz
x,y,z
-x,-y,-z
loop_
_atom_site_type_symbol
_atom_site_label
_atom_site_fract_x
_atom_site_fract_y
_atom_site_fract_z
Si Si1 0.529459 0.357193 0.524888
Si Si2 0.811721 0.872764 0.228303
Si Si3 0.861002 0.851523 0.966578
Si Si4 0.705661 0.645382 0.654204
Si Si5 0.056163 0.165968 0.243937
Si Si6 0.805677 0.304722 0.476042
Si Si7 0.190016 0.384150 0.096659
Si Si8 0.774766 0.564645 0.453959
O O1 0.436084 0.338675 0.445838
O O2 0.648087 0.449203 0.366809
O O3 0.382801 0.461743 0.475637
O O4 0.673734 0.116336 0.877199
O O5 0.748327 0.835244 0.382608
O O6 0.802479 0.698373 0.375242
O O7 0.009039 0.804397 0.327376
O O8 0.755952 0.728250 0.152828
O O9 0.051890 0.677847 0.238025
O O10 0.880938 0.872300 0.821354
O O11 0.794688 0.094203 0.702929
O O12 0.676404 0.660419 0.754269
O O13 0.880344 0.409169 0.934757
O O14 0.197772 0.177259 0.302057
O O15 0.000000 0.000000 0.500000
O O16 0.805626 0.452820 0.194712
O O17 0.000000 0.500000 0.000000
#
# Coordination Sequence:
#
# PCOD9108169 Si02
#       8
#     2   2   2   2   2   2   2   2
#     4  11  23  39  65  98 128 174 210 264 319 369
#     4  11  20  40  65  92 126 171 213 261 307 387
#     4  11  21  35  63  94 125 169 211 255 324 376
#     4  10  20  40  67  89 127 166 218 259 309 382
#     4  11  21  38  68  93 125 163 215 261 324 378
#     4  12  23  36  68  97 128 163 228 260 311 384
#     4  10  20  41  63  94 119 169 216 270 304 373
#     4  10  21  40  61  85 133 170 210 257 316 378
#
# _framework density 22.529657
#
# number of rings (size 3 to 8) (size 9 to 14) (size 15 to 20)
#    0.000    1.250    6.250    3.375    0.000    0.500 
#    0.000    0.625    0.000    4.500    0.000    0.000 
#    0.000    0.000    0.000    0.000    0.000    0.000 
#
# Total GULP energy -89354.815391 kJ/mol
# GULP energy per Si atom -5584.675962 kJ/mol
# Density = 2.247838 g / cm^3
# Si number density = 22.529657 Si / 1000 Ang^3
#
#
#
# Elastic Constant Matrix: (Units=GPa)
#
#
# Indices 1 2 3 4 5 6 
#
# 1 -1824.5456-1670.5589 450.1547 -862.1936 846.1700 633.0964
# 2 -1670.5589-1421.5589 421.3191 -755.2643 733.7758 565.0967
# 3 450.1547 421.3191 -32.0496 228.7921 -211.3491 -156.0880
# 4 -862.1936 -755.2643 228.7921 -362.6723 381.7052 289.2104
# 5 846.1700 733.7758 -211.3491 381.7052 -335.7944 -273.6746
# 6 633.0964 565.0967 -156.0880 289.2104 -273.6746 -175.9161
#
#
#
# Elastic Compliance Matrix: (Units=1/GPa)
#
#
# Indices 1 2 3 4 5 6 
#
# 1 0.011103 -0.006085 0.005194 -0.006682 0.000408 0.004184
# 2 -0.006085 0.014948 0.000218 -0.008225 0.008452 -0.000747
# 3 0.005194 0.000218 0.013745 -0.005583 -0.000681 -0.000923
# 4 -0.006682 -0.008225 -0.005583 0.032609 0.003089 0.003291
# 5 0.000408 0.008452 -0.000681 0.003089 0.027981 -0.009229
# 6 0.004184 -0.000747 -0.000923 0.003291 -0.009229 0.027559
#
#
# Mechanical properties :
#
#
# Convention : Reuss Voigt Hill
#
# Bulk Modulus (GPa) = 26.00783 -541.81379 -257.90298
# Shear Modulus (GPa) = 35.18459 -340.14783 -152.48162
#
# Velocity S-wave (km/s) = 3.95612 -12.30063 -8.23573
# Velocity P-wave (km/s) = 5.69533 21.04167 14.32332
#
# Compressibility (1/GPa) = 0.03844996
#
# Stress axis : x y z
#
# Youngs Moduli (GPa) = 90.06468 66.90055 72.75164
#
# Poissons Ratio (x) = 0.40709 -0.37788
# Poissons Ratio (y) = 0.54804 -0.01585
# Poissons Ratio (z) = -0.46781 -0.01457
#
# Static dielectric constant tensor:
#      x y z
#    x 1.918110 0.000400 -0.007750 
#    y 0.000400 1.954680 0.117800 
#    z -0.007750 0.117800 1.979650 
# 
# From -- ./inp_files/508071.got.cif
#   From: 2010.05.17/outbox.cif.g08.bks.cpg/sg2_255_cif.got.tgz:508071.got - 2010.06.03 11:33:40.
