data_PCOD9108222
_publ_section_title
;
Structure prediction by ZEFSAII (Michael W. Deem and Ramdas Pophale) SiO2 
 PCOD9108222
Probable space group: P -1
;
_chemical_formula_sum "Si O2"
_cell_formula_units_Z 14
_cell_length_a 18.362195
_cell_length_b 8.136546
_cell_length_c 8.346424
_cell_angle_alpha 35.117597
_cell_angle_beta 51.362873
_cell_angle_gamma 59.971964
_cell_volume 560.180424
_symmetry_space_group_name_H-M "P -1"
_symmetry_group_IT_number 2
_symmetry_cell_setting 'triclinic'
loop_
_space_group_symop_operation_xyz
x,y,z
-x,-y,-z
loop_
_atom_site_type_symbol
_atom_site_label
_atom_site_fract_x
_atom_site_fract_y
_atom_site_fract_z
Si Si1 0.869270 0.238219 0.401883
Si Si2 0.413808 0.627312 0.124947
Si Si3 0.066401 0.273831 0.669543
Si Si4 0.752503 0.927849 0.567983
Si Si5 0.529114 0.744143 0.395579
Si Si6 0.082170 0.158172 0.094957
Si Si7 0.666348 0.345524 0.111454
O O1 0.969841 0.123998 0.291296
O O2 0.778601 0.106303 0.546728
O O3 0.873153 0.122342 0.671338
O O4 0.880998 0.568717 0.072795
O O5 0.397924 0.397697 0.469583
O O6 0.500000 0.500000 0.000000
O O7 0.333608 0.660938 0.075860
O O8 0.437895 0.929302 0.938347
O O9 0.155142 0.243448 0.461356
O O10 0.000000 0.500000 0.500000
O O11 0.105015 0.279378 0.792474
O O12 0.000000 0.000000 0.000000
O O13 0.736229 0.147800 0.269848
O O14 0.674741 0.678328 0.886935
O O15 0.500000 0.500000 0.500000
O O16 0.433044 0.780688 0.595183
#
# Coordination Sequence:
#
# PCOD9108222 Si02
#       7
#     2   2   2   2   2   2   2
#     4  10  21  37  60  83 114 157 198 256 314 375
#     4  10  20  40  67  93 128 171 212 249 308 397
#     4  12  24  40  61  88 117 160 216 266 305 371
#     4  12  24  40  61  91 126 164 206 267 326 367
#     4  11  22  41  69 100 125 167 218 260 305 384
#     4  10  21  38  59  83 110 152 213 256 305 369
#     4  11  23  41  62  92 128 166 205 254 325 388
#
# _framework density 24.991948000000001
#
# number of rings (size 3 to 8) (size 9 to 14) (size 15 to 20)
#    0.000    1.143    1.429    7.286    4.000    0.000 
#    0.000    8.571    0.000    0.000    0.000    0.000 
#    0.000    0.000    0.000    0.000    0.000    0.000 
#
# Total GULP energy -78158.376454 kJ/mol
# GULP energy per Si atom -5582.741175 kJ/mol
# Density = 2.493507 g / cm^3
# Si number density = 24.991948 Si / 1000 Ang^3
#
#
#
# Elastic Constant Matrix: (Units=GPa)
#
#
# Indices 1 2 3 4 5 6 
#
# 1 92.3331 13.4038 33.3439 -17.7478 19.2651 8.5919
# 2 13.4038 34.1821 11.4623 -13.8673 10.9594 -1.7171
# 3 33.3439 11.4623 125.6494 -38.3643 13.5838 -2.9087
# 4 -17.7478 -13.8673 -38.3643 39.8748 0.3321 -4.8759
# 5 19.2651 10.9594 13.5838 0.3321 50.0069 -6.8608
# 6 8.5919 -1.7171 -2.9087 -4.8759 -6.8608 26.9478
#
#
#
# Elastic Compliance Matrix: (Units=1/GPa)
#
#
# Indices 1 2 3 4 5 6 
#
# 1 0.014100 -0.002371 -0.002330 0.002551 -0.005083 -0.005731
# 2 -0.002371 0.038253 0.002831 0.015567 -0.007746 0.004343
# 3 -0.002330 0.002831 0.012505 0.012471 -0.002674 0.003849
# 4 0.002551 0.015567 0.012471 0.044641 -0.007006 0.007818
# 5 -0.005083 -0.007746 -0.002674 -0.007006 0.025249 0.005999
# 6 -0.005731 0.004343 0.003849 0.007818 0.005999 0.042570
#
#
# Mechanical properties :
#
#
# Convention : Reuss Voigt Hill
#
# Bulk Modulus (GPa) = 16.36197 40.95385 28.65791
# Shear Modulus (GPa) = 24.82252 36.29623 30.55937
#
# Velocity S-wave (km/s) = 3.15496 3.81506 3.50060
# Velocity P-wave (km/s) = 4.45340 5.98570 5.27548
#
# Compressibility (1/GPa) = 0.06111735
#
# Stress axis : x y z
#
# Youngs Moduli (GPa) = 70.92204 26.14198 79.96962
#
# Poissons Ratio (x) = 0.06198 0.18630
# Poissons Ratio (y) = 0.16816 -0.22636
# Poissons Ratio (z) = 0.16522 -0.07400
#
# Static dielectric constant tensor:
#      x y z
#    x 2.098160 0.112650 -0.005830 
#    y 0.112650 2.112980 0.002780 
#    z -0.005830 0.002780 1.968340 
# 
# From -- ./inp_files/218445.got.cif
#   From: 2010.05.17/outbox.cif.g08.bks.cpg/sg2_110_cif.got.tgz:218445.got - 2010.06.03 11:33:40.
