data_PCOD9108921
_publ_section_title
;
Structure prediction by ZEFSAII (Michael W. Deem and Ramdas Pophale) SiO2 
 PCOD9108921
Probable space group: P -1
;
_chemical_formula_sum "Si O2"
_cell_formula_units_Z 16
_cell_length_a 8.469438
_cell_length_b 23.060483
_cell_length_c 8.754495
_cell_angle_alpha 132.355397
_cell_angle_beta 51.342678
_cell_angle_gamma 145.482401
_cell_volume 706.050753
_symmetry_space_group_name_H-M "P -1"
_symmetry_group_IT_number 2
_symmetry_cell_setting 'triclinic'
loop_
_space_group_symop_operation_xyz
x,y,z
-x,-y,-z
loop_
_atom_site_type_symbol
_atom_site_label
_atom_site_fract_x
_atom_site_fract_y
_atom_site_fract_z
Si Si1 0.920823 0.938314 0.598385
Si Si2 0.910490 0.279688 0.508860
Si Si3 0.695527 0.231543 0.234339
Si Si4 0.242727 0.435628 0.862876
Si Si5 0.980264 0.766589 0.204845
Si Si6 0.521326 0.592376 0.720639
Si Si7 0.500489 0.092825 0.647394
Si Si8 0.873708 0.422045 0.291990
O O1 0.617928 0.884029 0.747037
O O2 0.921694 0.843269 0.399576
O O3 0.000000 0.000000 0.500000
O O4 0.174937 0.028648 0.721683
O O5 0.816136 0.294427 0.435944
O O6 0.651248 0.160692 0.520804
O O7 0.019451 0.365218 0.731542
O O8 0.173623 0.297248 0.327037
O O9 0.671000 0.299859 0.262251
O O10 0.924182 0.234142 0.024390
O O11 0.473552 0.556459 0.862318
O O12 0.256990 0.349910 0.768013
O O13 0.128214 0.447910 0.100484
O O14 0.275058 0.821485 0.208722
O O15 0.500000 0.500000 0.500000
O O16 0.285721 0.575970 0.743230
O O17 0.500000 0.000000 0.500000
O O18 0.000000 0.500000 0.500000
#
# Coordination Sequence:
#
# PCOD9108921 Si02
#       8
#     2   2   2   2   2   2   2   2
#     4  11  22  41  67  92 124 167 210 260 324 369
#     4  10  20  41  59  89 128 158 209 258 310 378
#     4  11  24  41  62  95 129 162 211 267 310 374
#     4   9  20  41  65  86 126 167 205 252 314 376
#     4   9  22  42  62  93 129 160 211 263 315 376
#     4  10  21  36  62  87 119 167 203 247 314 372
#     4   9  19  38  64  84 122 167 202 261 314 367
#     4  11  23  41  63  93 127 161 213 264 302 378
#
# _framework density 22.661262000000001
#
# number of rings (size 3 to 8) (size 9 to 14) (size 15 to 20)
#    0.000    2.000    1.250    1.875    7.000    1.000 
#    4.500    3.750    0.000    0.000    0.000    0.000 
#    0.000    0.000    0.000    0.000    0.000    0.000 
#
# Total GULP energy -89109.962537 kJ/mol
# GULP energy per Si atom -5569.372659 kJ/mol
# Density = 2.260968 g / cm^3
# Si number density = 22.661262 Si / 1000 Ang^3
#
#
#
# Elastic Constant Matrix: (Units=GPa)
#
#
# Indices 1 2 3 4 5 6 
#
# 1 68.6682 23.7542 15.9407 6.6874 8.7345 -11.3449
# 2 23.7542 105.3684 23.6939 -18.8520 6.2673 -2.0667
# 3 15.9407 23.6939 67.5888 -10.1557 19.0363 -15.9362
# 4 6.6874 -18.8520 -10.1557 21.7658 -6.6312 5.3011
# 5 8.7345 6.2673 19.0363 -6.6312 29.2539 2.6120
# 6 -11.3449 -2.0667 -15.9362 5.3011 2.6120 45.8649
#
#
#
# Elastic Compliance Matrix: (Units=1/GPa)
#
#
# Indices 1 2 3 4 5 6 
#
# 1 0.021216 -0.007017 -0.001032 -0.017472 -0.008753 0.007091
# 2 -0.007017 0.014243 -0.003525 0.015522 0.005250 -0.004412
# 3 -0.001032 -0.003525 0.022253 0.001518 -0.013781 0.007927
# 4 -0.017472 0.015522 0.001518 0.074327 0.018891 -0.012762
# 5 -0.008753 0.005250 -0.013781 0.018891 0.049971 -0.011746
# 6 0.007091 -0.004412 0.007927 -0.012762 -0.011746 0.028257
#
#
# Mechanical properties :
#
#
# Convention : Reuss Voigt Hill
#
# Bulk Modulus (GPa) = 28.93062 40.93367 34.93214
# Shear Modulus (GPa) = 20.41347 31.25938 25.83643
#
# Velocity S-wave (km/s) = 3.00460 3.71808 3.38022
# Velocity P-wave (km/s) = 4.98308 6.04439 5.53922
#
# Compressibility (1/GPa) = 0.03456546
#
# Stress axis : x y z
#
# Youngs Moduli (GPa) = 47.13380 70.20834 44.93800
#
# Poissons Ratio (x) = 0.49266 0.04636
# Poissons Ratio (y) = 0.33075 0.15839
# Poissons Ratio (z) = 0.04863 0.24746
#
# Static dielectric constant tensor:
#      x y z
#    x 1.904990 0.060740 0.033840 
#    y 0.060740 1.948500 -0.023280 
#    z 0.033840 -0.023280 1.862290 
# 
# From -- ./inp_files/226451.got.cif
#   From: 2010.05.17/outbox.cif.g08.bks.cpg/sg2_114_cif.got.tgz:226451.got - 2010.06.03 11:33:40.
