data_PCOD9108237
_publ_section_title
;
Structure prediction by ZEFSAII (Michael W. Deem and Ramdas Pophale) SiO2 
 PCOD9108237
Probable space group: P -1
;
_chemical_formula_sum "Si O2"
_cell_formula_units_Z 14
_cell_length_a 9.229524
_cell_length_b 8.921534
_cell_length_c 13.941011
_cell_angle_alpha 138.045712
_cell_angle_beta 80.799349
_cell_angle_gamma 117.350278
_cell_volume 648.919016
_symmetry_space_group_name_H-M "P -1"
_symmetry_group_IT_number 2
_symmetry_cell_setting 'triclinic'
loop_
_space_group_symop_operation_xyz
x,y,z
-x,-y,-z
loop_
_atom_site_type_symbol
_atom_site_label
_atom_site_fract_x
_atom_site_fract_y
_atom_site_fract_z
Si Si1 0.804954 0.278191 0.447147
Si Si2 0.621464 0.959891 0.833665
Si Si3 0.259017 0.552323 0.741514
Si Si4 0.428650 0.209498 0.905935
Si Si5 0.236603 0.300687 0.416914
Si Si6 0.153944 0.947200 0.969970
Si Si7 0.093162 0.048030 0.615745
O O1 0.731881 0.472170 0.553297
O O2 0.000000 0.500000 0.500000
O O3 0.692782 0.037840 0.270542
O O4 0.820807 0.127016 0.464375
O O5 0.453222 0.787086 0.833442
O O6 0.636933 0.799138 0.667989
O O7 0.781571 0.029663 0.916988
O O8 0.590086 0.179873 0.900527
O O9 0.252143 0.426135 0.579122
O O10 0.221546 0.356080 0.739373
O O11 0.133152 0.668149 0.808998
O O12 0.500000 0.500000 0.000000
O O13 0.307202 0.152246 0.983181
O O14 0.042830 0.049223 0.328939
O O15 0.000000 0.000000 0.000000
O O16 0.000000 0.000000 0.500000
#
# Coordination Sequence:
#
# PCOD9108237 Si02
#       7
#     2   2   2   2   2   2   2
#     4  10  21  38  68  96 131 171 226 265 334 390
#     4  11  24  41  68  94 135 175 218 278 339 396
#     4  10  20  42  65  91 130 168 218 273 337 389
#     4  11  25  45  69  99 137 177 225 278 337 394
#     4  10  20  40  67  94 126 169 224 268 331 392
#     4  11  26  43  64  94 133 181 224 268 336 411
#     4   9  21  35  62  92 126 169 214 270 324 385
#
# _framework density 21.574342000000001
#
# number of rings (size 3 to 8) (size 9 to 14) (size 15 to 20)
#    0.000    1.714    2.857    2.143    8.000    1.143 
#    0.000    3.571    0.000    0.000    0.000    0.000 
#    0.000    0.000    0.000    0.000    0.000    0.000 
#
# Total GULP energy -78007.400008 kJ/mol
# GULP energy per Si atom -5571.957143 kJ/mol
# Density = 2.152524 g / cm^3
# Si number density = 21.574342 Si / 1000 Ang^3
#
#
#
# Elastic Constant Matrix: (Units=GPa)
#
#
# Indices 1 2 3 4 5 6 
#
# 1 132.5726 49.0100 52.0906 8.5023 -32.9420 -33.4120
# 2 49.0100 147.4598 45.5673 43.1194 -28.1281 -33.5523
# 3 52.0906 45.5673 101.7480 10.8419 -19.2549 -9.3534
# 4 8.5023 43.1194 10.8419 40.0138 -10.7471 -3.7894
# 5 -32.9420 -28.1281 -19.2549 -10.7471 43.7017 2.5175
# 6 -33.4120 -33.5523 -9.3534 -3.7894 2.5175 36.4311
#
#
#
# Elastic Compliance Matrix: (Units=1/GPa)
#
#
# Indices 1 2 3 4 5 6 
#
# 1 0.014407 0.001078 -0.005141 0.000689 0.008746 0.012353
# 2 0.001078 0.015173 -0.003894 -0.013033 0.004951 0.012265
# 3 -0.005141 -0.003894 0.013687 0.001194 0.000212 -0.004678
# 4 0.000689 -0.013033 0.001194 0.038568 0.002558 -0.007230
# 5 0.008746 0.004951 0.000212 0.002558 0.032772 0.010637
# 6 0.012353 0.012265 -0.004678 -0.007230 0.010637 0.047386
#
#
# Mechanical properties :
#
#
# Convention : Reuss Voigt Hill
#
# Bulk Modulus (GPa) = 36.55916 75.01292 55.78604
# Shear Modulus (GPa) = 26.73443 39.70349 33.21896
#
# Velocity S-wave (km/s) = 3.52401 4.29454 3.92821
# Velocity P-wave (km/s) = 5.79143 7.70946 6.81823
#
# Compressibility (1/GPa) = 0.02735293
#
# Stress axis : x y z
#
# Youngs Moduli (GPa) = 69.40992 65.90853 73.06216
#
# Poissons Ratio (x) = -0.07105 0.37563
# Poissons Ratio (y) = -0.07483 0.28448
# Poissons Ratio (z) = 0.35686 0.25663
#
# Static dielectric constant tensor:
#      x y z
#    x 1.881290 -0.005500 0.106630 
#    y -0.005500 1.798980 0.050880 
#    z 0.106630 0.050880 1.948220 
# 
# From -- ./inp_files/494084.got.cif
#   From: 2010.05.17/outbox.cif.g08.bks.cpg/sg2_248_cif.got.tgz:494084.got - 2010.06.03 11:33:40.
