data_PCOD9108440
_publ_section_title
;
Structure prediction by ZEFSAII (Michael W. Deem and Ramdas Pophale) SiO2 
 PCOD9108440
Probable space group: P -1
;
_chemical_formula_sum "Si O2"
_cell_formula_units_Z 16
_cell_length_a 10.074000
_cell_length_b 10.075962
_cell_length_c 16.478866
_cell_angle_alpha 107.754106
_cell_angle_beta 33.212957
_cell_angle_gamma 112.876352
_cell_volume 843.472619
_symmetry_space_group_name_H-M "P -1"
_symmetry_group_IT_number 2
_symmetry_cell_setting 'triclinic'
loop_
_space_group_symop_operation_xyz
x,y,z
-x,-y,-z
loop_
_atom_site_type_symbol
_atom_site_label
_atom_site_fract_x
_atom_site_fract_y
_atom_site_fract_z
Si Si1 0.638189 0.333877 0.656057
Si Si2 0.339233 0.305007 0.964190
Si Si3 0.167682 0.018250 0.095039
Si Si4 0.545339 0.831089 0.866692
Si Si5 0.192667 0.333607 0.420854
Si Si6 0.772590 0.402652 0.893396
Si Si7 0.389135 0.134448 0.601009
Si Si8 0.294019 0.351139 0.561939
O O1 0.426512 0.294361 0.825935
O O2 0.689282 0.503096 0.640341
O O3 0.558285 0.241635 0.599024
O O4 0.895833 0.306880 0.553320
O O5 0.592486 0.360296 0.899156
O O6 0.190459 0.154252 0.050137
O O7 0.196186 0.429918 0.071809
O O8 0.265785 0.079602 0.145534
O O9 0.887831 0.922672 0.230217
O O10 0.362453 0.928102 0.950388
O O11 0.694402 0.775039 0.709856
O O12 0.373792 0.694231 0.976878
O O13 0.254651 0.324606 0.481673
O O14 0.032706 0.366458 0.735981
O O15 0.370782 0.223178 0.545696
O O16 0.500000 0.000000 0.500000
O O17 0.500000 0.500000 0.500000
#
# Coordination Sequence:
#
# PCOD9108440 Si02
#       8
#     2   2   2   2   2   2   2   2
#     4  11  23  42  65 101 133 167 223 277 322 382
#     4  10  21  38  69  96 127 173 218 271 319 384
#     4  10  23  40  64  93 137 170 215 260 334 400
#     4  10  20  41  67  96 124 177 217 272 316 384
#     4  11  23  41  72  99 128 166 231 276 319 381
#     4  10  20  40  68  96 128 170 226 263 322 382
#     4  12  27  45  63  94 140 179 209 269 345 392
#     4  12  25  44  66 100 133 173 220 271 325 397
#
# _framework density 18.969197999999999
#
# number of rings (size 3 to 8) (size 9 to 14) (size 15 to 20)
#    0.000    1.250    5.000    0.750    1.750    1.500 
#    2.250    3.750    0.000    0.000    0.000    0.000 
#    0.000    0.000    0.000    0.000    0.000    0.000 
#
# Total GULP energy -89457.539762 kJ/mol
# GULP energy per Si atom -5591.096235 kJ/mol
# Density = 1.892602 g / cm^3
# Si number density = 18.969198 Si / 1000 Ang^3
#
#
#
# Elastic Constant Matrix: (Units=GPa)
#
#
# Indices 1 2 3 4 5 6 
#
# 1 95.1422 37.2204 39.4162 8.5854 11.4169 -7.7610
# 2 37.2204 90.8854 24.0134 19.3798 -4.0295 -13.1446
# 3 39.4162 24.0134 82.6905 23.3405 11.2127 0.3314
# 4 8.5854 19.3798 23.3405 37.1074 1.8057 -3.1557
# 5 11.4169 -4.0295 11.2127 1.8057 23.4216 -1.8404
# 6 -7.7610 -13.1446 0.3314 -3.1557 -1.8404 28.5018
#
#
#
# Elastic Compliance Matrix: (Units=1/GPa)
#
#
# Indices 1 2 3 4 5 6 
#
# 1 0.015757 -0.005599 -0.006101 0.003554 -0.005856 0.001795
# 2 -0.005599 0.016068 -0.001224 -0.006185 0.007001 0.005667
# 3 -0.006101 -0.001224 0.018970 -0.009930 -0.005861 -0.003924
# 4 0.003554 -0.006185 -0.009930 0.035817 -0.000634 0.002155
# 5 -0.005856 0.007001 -0.005861 -0.000634 0.049991 0.004860
# 6 0.001795 0.005667 -0.003924 0.002155 0.004860 0.038786
#
#
# Mechanical properties :
#
#
# Convention : Reuss Voigt Hill
#
# Bulk Modulus (GPa) = 40.08301 52.22423 46.15362
# Shear Modulus (GPa) = 23.86033 29.01071 26.43552
#
# Velocity S-wave (km/s) = 3.55046 3.91494 3.73715
# Velocity P-wave (km/s) = 6.16313 6.93012 6.55785
#
# Compressibility (1/GPa) = 0.02494823
#
# Stress axis : x y z
#
# Youngs Moduli (GPa) = 63.46402 62.23539 52.71412
#
# Poissons Ratio (x) = 0.34844 0.32162
# Poissons Ratio (y) = 0.35532 0.06450
# Poissons Ratio (z) = 0.38721 0.07615
#
# Static dielectric constant tensor:
#      x y z
#    x 1.642340 -0.003470 -0.004170 
#    y -0.003470 1.643850 -0.003970 
#    z -0.004170 -0.003970 1.621540 
# 
# From -- ./inp_files/242546.got.cif
#   From: 2010.05.17/outbox.cif.g08.bks.cpg/sg2_122_cif.got.tgz:242546.got - 2010.06.03 11:33:40.
