data_PCOD9108498
_publ_section_title
;
Structure prediction by ZEFSAII (Michael W. Deem and Ramdas Pophale) SiO2 
 PCOD9108498
Probable space group: P -1
;
_chemical_formula_sum "Si O2"
_cell_formula_units_Z 16
_cell_length_a 18.700021
_cell_length_b 8.174593
_cell_length_c 11.954683
_cell_angle_alpha 88.803463
_cell_angle_beta 157.267923
_cell_angle_gamma 91.932723
_cell_volume 705.519932
_symmetry_space_group_name_H-M "P -1"
_symmetry_group_IT_number 2
_symmetry_cell_setting 'triclinic'
loop_
_space_group_symop_operation_xyz
x,y,z
-x,-y,-z
loop_
_atom_site_type_symbol
_atom_site_label
_atom_site_fract_x
_atom_site_fract_y
_atom_site_fract_z
Si Si1 0.988806 0.520384 0.851927
Si Si2 0.970575 0.154844 0.731346
Si Si3 0.400167 0.585318 0.455497
Si Si4 0.189617 0.101472 0.745965
Si Si5 0.220739 0.162936 0.525191
Si Si6 0.425725 0.410197 0.071990
Si Si7 0.620658 0.919067 0.771187
Si Si8 0.614880 0.271552 0.131098
O O1 0.973215 0.334534 0.787973
O O2 0.848677 0.658170 0.610495
O O3 0.191615 0.592601 0.114878
O O4 0.000000 0.500000 0.000000
O O5 0.806471 0.182822 0.404619
O O6 0.175146 0.118990 0.982798
O O7 0.890874 0.994148 0.686377
O O8 0.500000 0.500000 0.500000
O O9 0.448844 0.510818 0.648139
O O10 0.488967 0.761684 0.602341
O O11 0.188035 0.135192 0.610574
O O12 0.252595 0.293165 0.866382
O O13 0.333588 0.011738 0.039089
O O14 0.000000 0.000000 0.500000
O O15 0.442016 0.168058 0.831214
O O16 0.552051 0.307050 0.169154
O O17 0.359658 0.557331 0.898079
O O18 0.500000 0.000000 0.500000
#
# Coordination Sequence:
#
# PCOD9108498 Si02
#       8
#     2   2   2   2   2   2   2   2
#     4  12  26  46  73 102 149 194 243 299 362 432
#     4  12  23  42  71 105 137 185 247 290 355 441
#     4  11  22  42  62  98 137 185 238 291 350 433
#     4  10  20  40  68  98 138 185 234 293 359 422
#     4  11  24  44  71 103 143 186 237 308 361 421
#     4   9  20  40  68  94 140 189 231 298 363 414
#     4  11  24  45  66  97 145 189 235 290 362 431
#     4  10  20  42  67 100 135 179 242 298 361 427
#
# _framework density 22.67831
#
# number of rings (size 3 to 8) (size 9 to 14) (size 15 to 20)
#    0.000    1.250    2.500    4.875    0.000    0.500 
#    4.500    5.625    0.000    0.000    0.000    0.000 
#    0.000    0.000    0.000    0.000    0.000    0.000 
#
# Total GULP energy -89071.640614 kJ/mol
# GULP energy per Si atom -5566.977538 kJ/mol
# Density = 2.262669 g / cm^3
# Si number density = 22.678310 Si / 1000 Ang^3
#
#
#
# Elastic Constant Matrix: (Units=GPa)
#
#
# Indices 1 2 3 4 5 6 
#
# 1 71.9997 35.5068 52.4983 -13.2774 -3.7196 9.8806
# 2 35.5068 107.5548 55.5515 7.2580 0.0366 8.9877
# 3 52.4983 55.5515 141.3319 -4.8454 8.8321 2.6237
# 4 -13.2774 7.2580 -4.8454 51.4239 9.8928 5.6138
# 5 -3.7196 0.0366 8.8321 9.8928 49.8081 3.7451
# 6 9.8806 8.9877 2.6237 5.6138 3.7451 32.3948
#
#
#
# Elastic Compliance Matrix: (Units=1/GPa)
#
#
# Indices 1 2 3 4 5 6 
#
# 1 0.022928 -0.003927 -0.006776 0.006141 0.002199 -0.006673
# 2 -0.003927 0.012890 -0.003758 -0.003225 0.001128 -0.001646
# 3 -0.006776 -0.003758 0.011194 0.000081 -0.002692 0.002500
# 4 0.006141 -0.003225 0.000081 0.022701 -0.003725 -0.004488
# 5 0.002199 0.001128 -0.002692 -0.003725 0.021655 -0.002624
# 6 -0.006673 -0.001646 0.002500 -0.004488 -0.002624 0.034240
#
#
# Mechanical properties :
#
#
# Convention : Reuss Voigt Hill
#
# Bulk Modulus (GPa) = 55.28012 67.55552 61.41782
# Shear Modulus (GPa) = 31.14079 38.54734 34.84407
#
# Velocity S-wave (km/s) = 3.70963 4.12727 3.92401
# Velocity P-wave (km/s) = 6.54042 7.25022 6.90445
#
# Compressibility (1/GPa) = 0.01808969
#
# Stress axis : x y z
#
# Youngs Moduli (GPa) = 43.61425 77.58058 89.32996
#
# Poissons Ratio (x) = 0.30465 0.60533
# Poissons Ratio (y) = 0.17127 0.33573
# Poissons Ratio (z) = 0.29554 0.29157
#
# Static dielectric constant tensor:
#      x y z
#    x 1.991130 -0.044330 -0.107430 
#    y -0.044330 1.958840 -0.015870 
#    z -0.107430 -0.015870 1.999400 
# 
# From -- ./inp_files/470007.got.cif
#   From: 2010.05.17/outbox.cif.g08.bks.cpg/sg2_236_cif.got.tgz:470007.got - 2010.06.03 11:33:40.
