data_PCOD9108664
_publ_section_title
;
Structure prediction by ZEFSAII (Michael W. Deem and Ramdas Pophale) SiO2 
 PCOD9108664
Probable space group: P -1
;
_chemical_formula_sum "Si O2"
_cell_formula_units_Z 10
_cell_length_a 15.860625
_cell_length_b 13.158663
_cell_length_c 6.106855
_cell_angle_alpha 49.940799
_cell_angle_beta 37.565059
_cell_angle_gamma 29.821548
_cell_volume 382.305159
_symmetry_space_group_name_H-M "P -1"
_symmetry_group_IT_number 2
_symmetry_cell_setting 'triclinic'
loop_
_space_group_symop_operation_xyz
x,y,z
-x,-y,-z
loop_
_atom_site_type_symbol
_atom_site_label
_atom_site_fract_x
_atom_site_fract_y
_atom_site_fract_z
Si Si1 0.384423 0.705480 0.332009
Si Si2 0.108298 0.419140 0.136075
Si Si3 0.086934 0.725742 0.789780
Si Si4 0.211472 0.049276 0.526835
Si Si5 0.406209 0.926999 0.737438
O O1 0.232983 0.743891 0.411017
O O2 0.801120 0.497366 0.160667
O O3 0.253620 0.891078 0.514323
O O4 0.520014 0.721486 0.910530
O O5 0.852141 0.889064 0.935077
O O6 0.000000 0.500000 0.500000
O O7 0.219024 0.193805 0.221836
O O8 0.000000 0.500000 0.000000
O O9 0.500000 0.500000 0.500000
O O10 0.014813 0.796607 0.093511
O O11 0.395212 0.914317 0.520764
O O12 0.500000 0.000000 0.500000
#
# Coordination Sequence:
#
# PCOD9108664 Si02
#       5
#     2   2   2   2   2
#     4  12  25  43  68 102 140 183 241 299 363 428
#     4  10  20  40  70 107 136 187 240 297 359 438
#     4   9  22  45  68 102 134 183 239 297 363 425
#     4   9  23  42  71  95 141 188 233 294 362 436
#     4  10  24  43  69  98 140 180 240 289 365 431
#
# _framework density 26.157115999999998
#
# number of rings (size 3 to 8) (size 9 to 14) (size 15 to 20)
#    1.200    0.800    0.000    2.400    2.800    1.600 
#    7.200    0.000    0.000    0.000    0.000    0.000 
#    0.000    0.000    0.000    0.000    0.000    0.000 
#
# Total GULP energy -55706.516194 kJ/mol
# GULP energy per Si atom -5570.651619 kJ/mol
# Density = 2.609758 g / cm^3
# Si number density = 26.157116 Si / 1000 Ang^3
#
#
#
# Elastic Constant Matrix: (Units=GPa)
#
#
# Indices 1 2 3 4 5 6 
#
# 1 168.0156 71.2481 58.9345 -24.3760 -17.2798 38.4139
# 2 71.2481 199.9412 66.7300 -46.9187 0.0740 33.3199
# 3 58.9345 66.7300 96.2160 -33.6660 -6.6187 12.1833
# 4 -24.3760 -46.9187 -33.6660 55.1723 10.4332 -7.6131
# 5 -17.2798 0.0740 -6.6187 10.4332 51.2872 -13.7195
# 6 38.4139 33.3199 12.1833 -7.6131 -13.7195 56.0080
#
#
#
# Elastic Compliance Matrix: (Units=1/GPa)
#
#
# Indices 1 2 3 4 5 6 
#
# 1 0.008985 -0.001207 -0.004197 -0.000477 0.001450 -0.004242
# 2 -0.001207 0.008056 -0.003030 0.004504 -0.002618 -0.003335
# 3 -0.004197 -0.003030 0.017002 0.006193 0.000014 0.001828
# 4 -0.000477 0.004504 0.006193 0.026296 -0.005084 -0.001371
# 5 0.001450 -0.002618 0.000014 -0.005084 0.022463 0.005371
# 6 -0.004242 -0.003335 0.001828 -0.001371 0.005371 0.023480
#
#
# Mechanical properties :
#
#
# Convention : Reuss Voigt Hill
#
# Bulk Modulus (GPa) = 58.21983 95.33311 76.77647
# Shear Modulus (GPa) = 38.79726 50.31086 44.55406
#
# Velocity S-wave (km/s) = 3.85546 4.39043 4.13161
# Velocity P-wave (km/s) = 6.49042 7.88838 7.22330
#
# Compressibility (1/GPa) = 0.01717628
#
# Stress axis : x y z
#
# Youngs Moduli (GPa) = 111.29202 124.12405 58.81690
#
# Poissons Ratio (x) = 0.14979 0.24684
# Poissons Ratio (y) = 0.13430 0.17823
# Poissons Ratio (z) = 0.46707 0.37612
#
# Static dielectric constant tensor:
#      x y z
#    x 2.110560 -0.145610 -0.009150 
#    y -0.145610 2.092960 0.108080 
#    z -0.009150 0.108080 2.319230 
# 
# From -- ./inp_files/25985.got.cif
#   From: 2010.05.17/outbox.cif.g08.bks.cpg/sg2_13_cif.got.tgz:25985.got - 2010.06.03 11:33:40.
