data_PCOD9108025
_publ_section_title
;
Structure prediction by ZEFSAII (Michael W. Deem and Ramdas Pophale) SiO2 
 PCOD9108025
Probable space group: P -1
;
_chemical_formula_sum "Si O2"
_cell_formula_units_Z 12
_cell_length_a 8.876893
_cell_length_b 13.356185
_cell_length_c 7.487007
_cell_angle_alpha 124.602201
_cell_angle_beta 80.806902
_cell_angle_gamma 62.093710
_cell_volume 523.665957
_symmetry_space_group_name_H-M "P -1"
_symmetry_group_IT_number 2
_symmetry_cell_setting 'triclinic'
loop_
_space_group_symop_operation_xyz
x,y,z
-x,-y,-z
loop_
_atom_site_type_symbol
_atom_site_label
_atom_site_fract_x
_atom_site_fract_y
_atom_site_fract_z
Si Si1 0.457891 0.900651 0.797868
Si Si2 0.697729 0.240547 0.814934
Si Si3 0.812485 0.166363 0.096681
Si Si4 0.286562 0.040691 0.609687
Si Si5 0.255506 0.604179 0.365424
Si Si6 0.905307 0.660345 0.295295
O O1 0.678333 0.748875 0.506637
O O2 0.281990 0.027423 0.810049
O O3 0.374164 0.831897 0.854457
O O4 0.500000 0.000000 0.000000
O O5 0.686026 0.106500 0.629310
O O6 0.851860 0.167269 0.881319
O O7 0.473610 0.414987 0.100622
O O8 0.754535 0.320784 0.369094
O O9 0.754716 0.285442 0.673527
O O10 0.000000 0.000000 0.000000
O O11 0.123453 0.211456 0.705533
O O12 0.500000 0.000000 0.500000
O O13 0.062315 0.619760 0.379007
O O14 0.000000 0.500000 0.000000
#
# Coordination Sequence:
#
# PCOD9108025 Si02
#       6
#     2   2   2   2   2   2
#     4  11  23  43  66 101 140 177 231 287 340 413
#     4  11  24  43  71 101 137 184 227 285 346 404
#     4  12  25  42  70 103 139 178 235 282 344 414
#     4  10  20  40  66  94 135 180 223 276 340 407
#     4  11  24  44  69  99 142 178 232 283 340 414
#     4  11  25  44  71  99 135 185 232 281 352 411
#
# _framework density 22.915369999999999
#
# number of rings (size 3 to 8) (size 9 to 14) (size 15 to 20)
#    0.000    1.000    1.667    6.500    4.667    1.333 
#    0.000    1.667    0.000    0.000    0.000    0.000 
#    0.000    0.000    0.000    0.000    0.000    0.000 
#
# Total GULP energy -67205.043659 kJ/mol
# GULP energy per Si atom -5600.420305 kJ/mol
# Density = 2.286321 g / cm^3
# Si number density = 22.915370 Si / 1000 Ang^3
#
#
#
# Elastic Constant Matrix: (Units=GPa)
#
#
# Indices 1 2 3 4 5 6 
#
# 1 105.9534 17.6779 38.4407 8.3726 19.4252 6.0809
# 2 17.6779 85.6235 27.1540 2.9004 18.1037 1.6929
# 3 38.4407 27.1540 129.0672 13.2570 39.7700 7.0244
# 4 8.3726 2.9004 13.2570 49.5968 1.0120 4.6181
# 5 19.4252 18.1037 39.7700 1.0120 54.8936 -5.9597
# 6 6.0809 1.6929 7.0244 4.6181 -5.9597 40.8345
#
#
#
# Elastic Compliance Matrix: (Units=1/GPa)
#
#
# Indices 1 2 3 4 5 6 
#
# 1 0.010959 -0.001061 -0.002231 -0.001021 -0.002044 -0.001387
# 2 -0.001061 0.012995 -0.001492 -0.000073 -0.002886 -0.000537
# 3 -0.002231 -0.001492 0.011262 -0.002185 -0.007091 -0.002331
# 4 -0.001021 -0.000073 -0.002185 0.021048 0.001402 -0.001645
# 5 -0.002044 -0.002886 -0.007091 0.001402 0.025570 0.005217
# 6 -0.001387 -0.000537 -0.002331 -0.001645 0.005217 0.026066
#
#
# Mechanical properties :
#
#
# Convention : Reuss Voigt Hill
#
# Bulk Modulus (GPa) = 38.98744 54.13212 46.55978
# Shear Modulus (GPa) = 39.67701 44.88977 42.28339
#
# Velocity S-wave (km/s) = 4.16559 4.43079 4.30024
# Velocity P-wave (km/s) = 6.33931 7.06044 6.70957
#
# Compressibility (1/GPa) = 0.02564929
#
# Stress axis : x y z
#
# Youngs Moduli (GPa) = 91.24511 76.95543 88.79117
#
# Poissons Ratio (x) = 0.08166 0.19807
# Poissons Ratio (y) = 0.09682 0.13245
# Poissons Ratio (z) = 0.20354 0.11480
#
# Static dielectric constant tensor:
#      x y z
#    x 1.915030 -0.027070 -0.053920 
#    y -0.027070 1.872750 -0.037760 
#    z -0.053920 -0.037760 1.831870 
# 
# From -- ./inp_files/78578.got.cif
#   From: 2010.05.17/outbox.cif.g08.bks.cpg/sg2_40_cif.got.tgz:78578.got - 2010.06.03 11:33:40.
