data_PCOD9108776
_publ_section_title
;
Structure prediction by ZEFSAII (Michael W. Deem and Ramdas Pophale) SiO2 
 PCOD9108776
Probable space group: P -1
;
_chemical_formula_sum "Si O2"
_cell_formula_units_Z 12
_cell_length_a 8.872627
_cell_length_b 8.071320
_cell_length_c 8.542840
_cell_angle_alpha 69.745398
_cell_angle_beta 92.619775
_cell_angle_gamma 101.195727
_cell_volume 562.878329
_symmetry_space_group_name_H-M "P -1"
_symmetry_group_IT_number 2
_symmetry_cell_setting 'triclinic'
loop_
_space_group_symop_operation_xyz
x,y,z
-x,-y,-z
loop_
_atom_site_type_symbol
_atom_site_label
_atom_site_fract_x
_atom_site_fract_y
_atom_site_fract_z
Si Si1 0.247827 0.325087 0.903480
Si Si2 0.190801 0.270985 0.285455
Si Si3 0.321086 0.936201 0.547757
Si Si4 0.541188 0.428757 0.690502
Si Si5 0.914235 0.404812 0.374792
Si Si6 0.393312 0.051008 0.842111
O O1 0.417673 0.435833 0.823132
O O2 0.131926 0.440001 0.786692
O O3 0.254995 0.138504 0.876163
O O4 0.217444 0.278777 0.097878
O O5 0.299259 0.453579 0.291970
O O6 0.022495 0.291964 0.324050
O O7 0.240202 0.097305 0.426085
O O8 0.235512 0.744726 0.541708
O O9 0.500000 0.000000 0.500000
O O10 0.324434 0.920106 0.743333
O O11 0.500000 0.500000 0.500000
O O12 0.515441 0.218004 0.725089
O O13 0.000000 0.500000 0.500000
O O14 0.500000 0.000000 0.000000
#
# Coordination Sequence:
#
# PCOD9108776 Si02
#       6
#     2   2   2   2   2   2
#     4  10  24  43  66 101 133 182 222 277 337 406
#     4  12  23  44  66 102 137 179 222 283 335 404
#     4  12  26  44  72 101 132 180 231 276 334 406
#     4  10  20  40  71  94 136 171 231 267 340 387
#     4  12  27  45  68  98 140 181 223 279 346 397
#     4  10  23  42  69 101 133 172 232 282 325 396
#
# _framework density 21.318992999999999
#
# number of rings (size 3 to 8) (size 9 to 14) (size 15 to 20)
#    1.000    0.000    1.667    5.500    4.667    0.000 
#    0.000    1.667    0.000    0.000    0.000    0.000 
#    0.000    0.000    0.000    0.000    0.000    0.000 
#
# Total GULP energy -66905.600567 kJ/mol
# GULP energy per Si atom -5575.466714 kJ/mol
# Density = 2.127047 g / cm^3
# Si number density = 21.318993 Si / 1000 Ang^3
#
#
#
# Elastic Constant Matrix: (Units=GPa)
#
#
# Indices 1 2 3 4 5 6 
#
# 1 90.9422 20.3733 37.5377 6.8603 1.5596 -15.7783
# 2 20.3733 91.4983 31.5957 14.2002 8.2225 15.4957
# 3 37.5377 31.5957 130.9052 0.7639 8.2366 -1.6689
# 4 6.8603 14.2002 0.7639 33.0707 -10.8513 7.9952
# 5 1.5596 8.2225 8.2366 -10.8513 38.6415 -2.7727
# 6 -15.7783 15.4957 -1.6689 7.9952 -2.7727 39.4117
#
#
#
# Elastic Compliance Matrix: (Units=1/GPa)
#
#
# Indices 1 2 3 4 5 6 
#
# 1 0.014602 -0.002846 -0.003404 -0.003449 0.000315 0.007543
# 2 -0.002846 0.014772 -0.002510 -0.005678 -0.004534 -0.006221
# 3 -0.003404 -0.002510 0.009269 0.001335 -0.000952 -0.000321
# 4 -0.003449 -0.005678 0.001335 0.038601 0.011464 -0.006116
# 5 0.000315 -0.004534 -0.000952 0.011464 0.030374 0.001680
# 6 0.007543 -0.006221 -0.000321 -0.006116 0.001680 0.032184
#
#
# Mechanical properties :
#
#
# Convention : Reuss Voigt Hill
#
# Bulk Modulus (GPa) = 47.34253 54.70656 51.02454
# Shear Modulus (GPa) = 30.42040 37.14738 33.78389
#
# Velocity S-wave (km/s) = 3.78155 4.17880 3.98513
# Velocity P-wave (km/s) = 6.42820 6.99999 6.72018
#
# Compressibility (1/GPa) = 0.02112266
#
# Stress axis : x y z
#
# Youngs Moduli (GPa) = 68.48400 67.69561 107.88632
#
# Poissons Ratio (x) = 0.19269 0.36721
# Poissons Ratio (y) = 0.19493 0.27080
# Poissons Ratio (z) = 0.23310 0.16992
#
# Static dielectric constant tensor:
#      x y z
#    x 1.820080 0.005910 0.024640 
#    y 0.005910 1.860660 0.128670 
#    z 0.024640 0.128670 1.914460 
# 
# From -- ./inp_files/145044.got.cif
#   From: 2010.05.17/outbox.cif.g08.bks.cpg/sg2_73_cif.got.tgz:145044.got - 2010.06.03 11:33:40.
