data_PCOD9108036
_publ_section_title
;
Structure prediction by ZEFSAII (Michael W. Deem and Ramdas Pophale) SiO2 
 PCOD9108036
Probable space group: P -1
;
_chemical_formula_sum "Si O2"
_cell_formula_units_Z 14
_cell_length_a 5.432827
_cell_length_b 16.223618
_cell_length_c 11.024846
_cell_angle_alpha 132.950513
_cell_angle_beta 127.211348
_cell_angle_gamma 60.211914
_cell_volume 560.431662
_symmetry_space_group_name_H-M "P -1"
_symmetry_group_IT_number 2
_symmetry_cell_setting 'triclinic'
loop_
_space_group_symop_operation_xyz
x,y,z
-x,-y,-z
loop_
_atom_site_type_symbol
_atom_site_label
_atom_site_fract_x
_atom_site_fract_y
_atom_site_fract_z
Si Si1 0.443778 0.828449 0.103045
Si Si2 0.765025 0.385933 0.296914
Si Si3 0.904047 0.276960 0.905078
Si Si4 0.241395 0.800051 0.538032
Si Si5 0.643858 0.667229 0.691718
Si Si6 0.292156 0.561790 0.184169
Si Si7 0.392196 0.066374 0.409147
O O1 0.818236 0.790878 0.162907
O O2 0.308016 0.798545 0.162205
O O3 0.355962 0.963179 0.201242
O O4 0.283748 0.745345 0.883540
O O5 0.634104 0.392431 0.399288
O O6 0.550040 0.465708 0.219226
O O7 0.127147 0.393628 0.401853
O O8 0.665781 0.371892 0.861339
O O9 0.116260 0.328246 0.120884
O O10 0.502550 0.785828 0.708060
O O11 0.220858 0.669210 0.361842
O O12 0.373079 0.863028 0.524307
O O13 0.926064 0.857855 0.565925
O O14 0.000000 0.500000 0.000000
O O15 0.500000 0.000000 0.500000
#
# Coordination Sequence:
#
# PCOD9108036 Si02
#       7
#     2   2   2   2   2   2   2
#     4  10  20  40  66  95 129 174 221 274 329 390
#     4  10  23  41  70  98 137 181 225 274 332 399
#     4  10  21  40  66 100 135 177 225 271 331 396
#     4  12  28  45  70 104 137 177 225 279 343 405
#     4  10  22  44  64  99 143 174 222 274 339 403
#     4  12  24  45  71 103 134 180 233 279 332 404
#     4  12  25  46  70  99 139 177 225 281 339 397
#
# _framework density 24.980743
#
# number of rings (size 3 to 8) (size 9 to 14) (size 15 to 20)
#    0.000    1.143    2.857    3.857    0.000    5.714 
#    0.000   17.143    0.000    0.000    0.000    0.000 
#    0.000    0.000    0.000    0.000    0.000    0.000 
#
# Total GULP energy -78215.387529 kJ/mol
# GULP energy per Si atom -5586.813395 kJ/mol
# Density = 2.492389 g / cm^3
# Si number density = 24.980743 Si / 1000 Ang^3
#
#
#
# Elastic Constant Matrix: (Units=GPa)
#
#
# Indices 1 2 3 4 5 6 
#
# 1 224.3622 50.1088 15.3206 7.4695 18.5369 0.6641
# 2 50.1088 88.4462 37.5183 -2.4246 5.8706 -11.7001
# 3 15.3206 37.5183 90.7235 15.2293 -6.6556 -4.0717
# 4 7.4695 -2.4246 15.2293 50.6538 -2.8914 -2.1007
# 5 18.5369 5.8706 -6.6556 -2.8914 24.7686 5.1240
# 6 0.6641 -11.7001 -4.0717 -2.1007 5.1240 53.9546
#
#
#
# Elastic Compliance Matrix: (Units=1/GPa)
#
#
# Indices 1 2 3 4 5 6 
#
# 1 0.005442 -0.003085 0.000303 -0.001249 -0.003313 -0.000447
# 2 -0.003085 0.016943 -0.007176 0.003348 -0.004006 0.003681
# 3 0.000303 -0.007176 0.015054 -0.004663 0.005202 -0.001099
# 4 -0.001249 0.003348 -0.004663 0.021602 0.001179 0.001119
# 5 -0.003313 -0.004006 0.005202 0.001179 0.046329 -0.004789
# 6 -0.000447 0.003681 -0.001099 0.001119 -0.004789 0.019753
#
#
# Mechanical properties :
#
#
# Convention : Reuss Voigt Hill
#
# Bulk Modulus (GPa) = 57.06861 67.71417 62.39139
# Shear Modulus (GPa) = 33.13868 45.91433 39.52650
#
# Velocity S-wave (km/s) = 3.64616 4.29183 3.98210
# Velocity P-wave (km/s) = 6.37343 7.19202 6.79506
#
# Compressibility (1/GPa) = 0.01752277
#
# Stress axis : x y z
#
# Youngs Moduli (GPa) = 183.75252 59.02105 66.42740
#
# Poissons Ratio (x) = 0.18210 -0.02016
# Poissons Ratio (y) = 0.56695 0.47670
# Poissons Ratio (z) = -0.05576 0.42355
#
# Static dielectric constant tensor:
#      x y z
#    x 2.033200 0.026340 -0.067590 
#    y 0.026340 2.029500 0.025940 
#    z -0.067590 0.025940 2.101090 
# 
# From -- ./inp_files/368128.got.cif
#   From: 2010.05.17/outbox.cif.g08.bks.cpg/sg2_185_cif.got.tgz:368128.got - 2010.06.03 11:33:40.
