data_PCOD9108488
_publ_section_title
;
Structure prediction by ZEFSAII (Michael W. Deem and Ramdas Pophale) SiO2 
 PCOD9108488
Probable space group: P -1
;
_chemical_formula_sum "Si O2"
_cell_formula_units_Z 16
_cell_length_a 12.475119
_cell_length_b 15.145829
_cell_length_c 8.699888
_cell_angle_alpha 77.983509
_cell_angle_beta 86.903416
_cell_angle_gamma 28.093774
_cell_volume 726.523021
_symmetry_space_group_name_H-M "P -1"
_symmetry_group_IT_number 2
_symmetry_cell_setting 'triclinic'
loop_
_space_group_symop_operation_xyz
x,y,z
-x,-y,-z
loop_
_atom_site_type_symbol
_atom_site_label
_atom_site_fract_x
_atom_site_fract_y
_atom_site_fract_z
Si Si1 0.285255 0.705738 0.848814
Si Si2 0.770957 0.109086 0.444305
Si Si3 0.278679 0.518487 0.799778
Si Si4 0.625233 0.003882 0.800919
Si Si5 0.861106 0.835012 0.510199
Si Si6 0.241857 0.898653 0.200215
Si Si7 0.983792 0.412088 0.967126
Si Si8 0.110103 0.343043 0.659616
O O1 0.368708 0.725860 0.728548
O O2 0.204417 0.678196 0.768781
O O3 0.500000 0.500000 0.000000
O O4 0.032381 0.923464 0.864271
O O5 0.674328 0.173387 0.601468
O O6 0.832401 0.963149 0.430342
O O7 0.000000 0.000000 0.500000
O O8 0.559860 0.301297 0.839103
O O9 0.189651 0.521679 0.943664
O O10 0.125577 0.608670 0.628686
O O11 0.701235 0.940753 0.637518
O O12 0.757973 0.824415 0.940307
O O13 0.728709 0.017382 0.861599
O O14 0.345629 0.211189 0.758758
O O15 0.809291 0.806394 0.385782
O O16 0.000000 0.500000 0.000000
O O17 0.936574 0.449752 0.775413
O O18 0.000000 0.500000 0.500000
#
# Coordination Sequence:
#
# PCOD9108488 Si02
#       8
#     2   2   2   2   2   2   2   2
#     4  11  23  45  65  97 138 167 226 286 332 406
#     4   9  18  42  68  93 129 175 222 274 340 395
#     4  11  22  44  68  93 135 183 218 273 345 399
#     4  10  20  43  64  92 137 175 216 270 341 406
#     4  10  20  40  68  98 133 174 229 284 327 399
#     4  10  20  41  72  94 128 179 221 267 342 405
#     4  11  23  43  66  91 138 184 219 269 342 405
#     4  12  24  39  65 104 134 174 235 275 328 399
#
# _framework density 22.022703
#
# number of rings (size 3 to 8) (size 9 to 14) (size 15 to 20)
#    0.000    1.500    5.000    3.750    0.000    1.000 
#   11.250    0.000    0.000    0.000    0.000    0.000 
#    0.000    0.000    0.000    0.000    0.000    0.000 
#
# Total GULP energy -89295.103925 kJ/mol
# GULP energy per Si atom -5580.943995 kJ/mol
# Density = 2.197258 g / cm^3
# Si number density = 22.022703 Si / 1000 Ang^3
#
#
#
# Elastic Constant Matrix: (Units=GPa)
#
#
# Indices 1 2 3 4 5 6 
#
# 1 73.1790 15.8619 32.2295 0.9103 -26.4362 20.0358
# 2 15.8619 107.0353 34.0400 -6.3344 -21.4359 -2.8741
# 3 32.2295 34.0400 113.4287 -19.8225 -33.8506 8.8519
# 4 0.9103 -6.3344 -19.8225 32.0144 8.2941 9.9992
# 5 -26.4362 -21.4359 -33.8506 8.2941 36.2664 -11.4987
# 6 20.0358 -2.8741 8.8519 9.9992 -11.4987 41.9764
#
#
#
# Elastic Compliance Matrix: (Units=1/GPa)
#
#
# Indices 1 2 3 4 5 6 
#
# 1 0.020493 -0.000274 -0.002488 -0.003541 0.011597 -0.005255
# 2 -0.000274 0.011223 -0.002064 -0.001637 0.005945 0.003353
# 3 -0.002488 -0.002064 0.013735 0.006503 0.007909 -0.001233
# 4 -0.003541 -0.001637 0.006503 0.041933 -0.011138 -0.012833
# 5 0.011597 0.005945 0.007909 -0.011138 0.052738 0.010303
# 6 -0.005255 0.003353 -0.001233 -0.012833 0.010303 0.032700
#
#
# Mechanical properties :
#
#
# Convention : Reuss Voigt Hill
#
# Bulk Modulus (GPa) = 27.93296 50.87844 39.40570
# Shear Modulus (GPa) = 25.71921 36.15219 30.93570
#
# Velocity S-wave (km/s) = 3.42109 4.05605 3.75202
# Velocity P-wave (km/s) = 5.32131 6.71478 6.05824
#
# Compressibility (1/GPa) = 0.03580000
#
# Stress axis : x y z
#
# Youngs Moduli (GPa) = 48.79769 89.09912 72.80494
#
# Poissons Ratio (x) = 0.02438 0.18116
# Poissons Ratio (y) = 0.01335 0.15026
# Poissons Ratio (z) = 0.12143 0.18389
#
# Static dielectric constant tensor:
#      x y z
#    x 1.830730 -0.021650 0.026790 
#    y -0.021650 1.822880 0.022300 
#    z 0.026790 0.022300 1.878820 
# 
# From -- ./inp_files/272502.got.cif
#   From: 2010.05.17/outbox.cif.g08.bks.cpg/sg2_137_cif.got.tgz:272502.got - 2010.06.03 11:33:40.
