data_PCOD9108688
_publ_section_title
;
Structure prediction by ZEFSAII (Michael W. Deem and Ramdas Pophale) SiO2 
 PCOD9108688
Probable space group: P -1
;
_chemical_formula_sum "Si O2"
_cell_formula_units_Z 16
_cell_length_a 7.954000
_cell_length_b 4.882066
_cell_length_c 17.535652
_cell_angle_alpha 77.130914
_cell_angle_beta 115.854621
_cell_angle_gamma 108.328519
_cell_volume 578.769384
_symmetry_space_group_name_H-M "P -1"
_symmetry_group_IT_number 2
_symmetry_cell_setting 'triclinic'
loop_
_space_group_symop_operation_xyz
x,y,z
-x,-y,-z
loop_
_atom_site_type_symbol
_atom_site_label
_atom_site_fract_x
_atom_site_fract_y
_atom_site_fract_z
Si Si1 0.883382 0.896918 0.210385
Si Si2 0.881904 0.249306 0.544885
Si Si3 0.252913 0.741844 0.947889
Si Si4 0.422440 0.088546 0.100094
Si Si5 0.918040 0.709426 0.649343
Si Si6 0.837240 0.745654 0.852806
Si Si7 0.550426 0.678337 0.258801
Si Si8 0.513644 0.389920 0.423831
O O1 0.742882 0.661986 0.250617
O O2 0.750422 0.947225 0.111571
O O3 0.941586 0.185741 0.258930
O O4 0.083771 0.952064 0.199007
O O5 0.894184 0.403011 0.622152
O O6 0.665236 0.193096 0.472639
O O7 0.000000 0.500000 0.500000
O O8 0.968192 0.972096 0.582780
O O9 0.023132 0.607467 0.905184
O O10 0.410666 0.677905 0.924907
O O11 0.337197 0.823198 0.042431
O O12 0.508488 0.974722 0.200215
O O13 0.236868 0.193563 0.082693
O O14 0.708122 0.745352 0.630795
O O15 0.647403 0.550675 0.788356
O O16 0.583288 0.631106 0.357222
O O17 0.500000 0.500000 0.500000
#
# Coordination Sequence:
#
# PCOD9108688 Si02
#       8
#     2   2   2   2   2   2   2   2
#     4   9  21  42  62  94 138 171 230 296 340 434
#     4  11  24  41  67  99 134 181 234 294 360 427
#     4   8  19  41  62 100 140 165 239 286 338 433
#     4  10  20  40  70  93 135 185 216 295 351 414
#     4  11  22  45  65  96 140 180 233 291 359 425
#     4  10  21  41  63  95 136 172 229 278 355 415
#     4  11  22  43  63  96 129 176 236 278 350 429
#     4  10  22  42  65  93 133 175 233 290 352 425
#
# _framework density 27.644863000000001
#
# number of rings (size 3 to 8) (size 9 to 14) (size 15 to 20)
#    0.750    1.250    1.250    1.875    0.000    3.500 
#   15.750    5.625    0.000    0.000    0.000    0.000 
#    0.000    0.000    0.000    0.000    0.000    0.000 
#
# Total GULP energy -89234.073578 kJ/mol
# GULP energy per Si atom -5577.129599 kJ/mol
# Density = 2.758194 g / cm^3
# Si number density = 27.644863 Si / 1000 Ang^3
#
#
#
# Elastic Constant Matrix: (Units=GPa)
#
#
# Indices 1 2 3 4 5 6 
#
# 1 176.4463 45.9697 37.9676 7.0863 -0.3351 45.1117
# 2 45.9697 101.5102 28.7361 11.1806 -0.2997 6.5628
# 3 37.9676 28.7361 125.1354 -3.5600 1.2023 -2.2426
# 4 7.0863 11.1806 -3.5600 35.6766 5.3762 6.8013
# 5 -0.3351 -0.2997 1.2023 5.3762 50.3456 4.6291
# 6 45.1117 6.5628 -2.2426 6.8013 4.6291 41.8465
#
#
#
# Elastic Compliance Matrix: (Units=1/GPa)
#
#
# Indices 1 2 3 4 5 6 
#
# 1 0.009545 -0.003062 -0.002367 0.000615 0.000969 -0.010143
# 2 -0.003062 0.012077 -0.001921 -0.003776 0.000328 0.001881
# 3 -0.002367 -0.001921 0.009257 0.001495 -0.000701 0.003183
# 4 0.000615 -0.003776 0.001495 0.030560 -0.002891 -0.004638
# 5 0.000969 0.000328 -0.000701 -0.002891 0.020466 -0.002927
# 6 -0.010143 0.001881 0.003183 -0.004638 -0.002927 0.035785
#
#
# Mechanical properties :
#
#
# Convention : Reuss Voigt Hill
#
# Bulk Modulus (GPa) = 61.80582 69.82654 65.81618
# Shear Modulus (GPa) = 36.28949 44.93499 40.61224
#
# Velocity S-wave (km/s) = 3.62705 4.03604 3.83700
# Velocity P-wave (km/s) = 6.32031 6.85805 6.59466
#
# Compressibility (1/GPa) = 0.01617971
#
# Stress axis : x y z
#
# Youngs Moduli (GPa) = 104.76926 82.80290 108.02789
#
# Poissons Ratio (x) = 0.25351 0.25565
# Poissons Ratio (y) = 0.32076 0.20755
# Poissons Ratio (z) = 0.24794 0.15909
#
# Static dielectric constant tensor:
#      x y z
#    x 2.349960 0.001870 -0.019050 
#    y 0.001870 2.217530 -0.107270 
#    z -0.019050 -0.107270 2.253430 
# 
# From -- ./inp_files/553453.got.cif
#   From: 2010.05.17/outbox.cif.g08.bks.cpg/sg2_277_cif.got.tgz:553453.got - 2010.06.03 11:33:40.
