data_PCOD9108543
_publ_section_title
;
Structure prediction by ZEFSAII (Michael W. Deem and Ramdas Pophale) SiO2 
 PCOD9108543
Probable space group: P -1
;
_chemical_formula_sum "Si O2"
_cell_formula_units_Z 16
_cell_length_a 9.799795
_cell_length_b 16.888057
_cell_length_c 9.297907
_cell_angle_alpha 149.538991
_cell_angle_beta 106.984063
_cell_angle_gamma 64.955521
_cell_volume 697.820357
_symmetry_space_group_name_H-M "P -1"
_symmetry_group_IT_number 2
_symmetry_cell_setting 'triclinic'
loop_
_space_group_symop_operation_xyz
x,y,z
-x,-y,-z
loop_
_atom_site_type_symbol
_atom_site_label
_atom_site_fract_x
_atom_site_fract_y
_atom_site_fract_z
Si Si1 0.483564 0.090348 0.489266
Si Si2 0.717812 0.226978 0.902748
Si Si3 0.034369 0.735627 0.186174
Si Si4 0.447560 0.156256 0.124188
Si Si5 0.030558 0.970397 0.135620
Si Si6 0.494752 0.559239 0.314955
Si Si7 0.101564 0.302599 0.197595
Si Si8 0.290052 0.426304 0.866674
O O1 0.609352 0.176887 0.679776
O O2 0.326725 0.235591 0.624444
O O3 0.500000 0.000000 0.500000
O O4 0.530377 0.935737 0.159945
O O5 0.851476 0.231796 0.845258
O O6 0.794408 0.114997 0.887213
O O7 0.610956 0.409315 0.206548
O O8 0.019089 0.864134 0.515092
O O9 0.120172 0.545245 0.965622
O O10 0.897964 0.741036 0.042802
O O11 0.551063 0.266071 0.348843
O O12 0.270314 0.270429 0.258582
O O13 0.500000 0.000000 0.000000
O O14 0.955088 0.833152 0.948794
O O15 0.000000 0.000000 0.000000
O O16 0.596447 0.577055 0.236791
O O17 0.352893 0.513560 0.148446
O O18 0.000000 0.500000 0.500000
#
# Coordination Sequence:
#
# PCOD9108543 Si02
#       8
#     2   2   2   2   2   2   2   2
#     4  11  23  39  57  90 131 165 197 257 324 372
#     4   9  19  41  63  82 118 168 208 245 310 380
#     4  10  20  40  69  85 118 168 218 251 308 383
#     4  12  23  36  64  96 124 155 214 259 306 365
#     4  11  23  40  63  92 124 162 213 266 313 374
#     4   9  18  35  63  86 114 151 203 255 291 362
#     4  11  24  43  68  96 125 169 215 263 314 377
#     4   9  18  37  60  88 115 158 205 250 301 366
#
# _framework density 22.928536000000001
#
# number of rings (size 3 to 8) (size 9 to 14) (size 15 to 20)
#    0.000    1.750    1.250    6.000    1.750    1.000 
#    4.500    1.875    0.000    0.000    0.000    0.000 
#    0.000    0.000    0.000    0.000    0.000    0.000 
#
# Total GULP energy -89231.730540 kJ/mol
# GULP energy per Si atom -5576.983159 kJ/mol
# Density = 2.287635 g / cm^3
# Si number density = 22.928536 Si / 1000 Ang^3
#
#
#
# Elastic Constant Matrix: (Units=GPa)
#
#
# Indices 1 2 3 4 5 6 
#
# 1 10.7035 12.4783 8.6260 -2.6918 2.5097 -8.0666
# 2 12.4783 135.1584 25.8103 1.3487 -29.0001 -19.4996
# 3 8.6260 25.8103 107.6338 1.4311 1.9179 -7.8621
# 4 -2.6918 1.3487 1.4311 42.7719 -3.3101 1.2986
# 5 2.5097 -29.0001 1.9179 -3.3101 16.7458 -2.8717
# 6 -8.0666 -19.4996 -7.8621 1.2986 -2.8717 23.3008
#
#
#
# Elastic Compliance Matrix: (Units=1/GPa)
#
#
# Indices 1 2 3 4 5 6 
#
# 1 0.156979 -0.021098 -0.004581 0.005695 -0.053572 0.028224
# 2 -0.021098 0.021329 -0.003129 0.000998 0.043186 0.014757
# 3 -0.004581 -0.003129 0.010431 -0.000988 -0.006364 -0.001414
# 4 0.005695 0.000998 -0.000988 0.024154 0.006085 0.001878
# 5 -0.053572 0.043186 -0.006364 0.006085 0.150231 0.033623
# 6 0.028224 0.014757 -0.001414 0.001878 0.033623 0.068599
#
#
# Mechanical properties :
#
#
# Convention : Reuss Voigt Hill
#
# Bulk Modulus (GPa) = 7.62632 38.59166 23.10899
# Shear Modulus (GPa) = 9.38005 30.33578 19.85791
#
# Velocity S-wave (km/s) = 2.02481 3.64133 2.94611
# Velocity P-wave (km/s) = 2.96645 5.87766 4.65547
#
# Compressibility (1/GPa) = 0.13112480
#
# Stress axis : x y z
#
# Youngs Moduli (GPa) = 6.37028 46.88431 95.86408
#
# Poissons Ratio (x) = 0.98914 0.43916
# Poissons Ratio (y) = 0.13440 0.29993
# Poissons Ratio (z) = 0.02918 0.14669
#
# Static dielectric constant tensor:
#      x y z
#    x 1.934900 -0.042040 0.018720 
#    y -0.042040 1.929710 -0.037140 
#    z 0.018720 -0.037140 1.872280 
# 
# From -- ./inp_files/189390.got.cif
#   From: 2010.05.17/outbox.cif.g08.bks.cpg/sg2_95_cif.got.tgz:189390.got - 2010.06.03 11:33:40.
