data_PCOD9108373
_publ_section_title
;
Structure prediction by ZEFSAII (Michael W. Deem and Ramdas Pophale) SiO2 
 PCOD9108373
Probable space group: P -1
;
_chemical_formula_sum "Si O2"
_cell_formula_units_Z 15
_cell_length_a 9.022989
_cell_length_b 10.025893
_cell_length_c 12.512662
_cell_angle_alpha 52.142870
_cell_angle_beta 103.844585
_cell_angle_gamma 135.298655
_cell_volume 587.807775
_symmetry_space_group_name_H-M "P -1"
_symmetry_group_IT_number 2
_symmetry_cell_setting 'triclinic'
loop_
_space_group_symop_operation_xyz
x,y,z
-x,-y,-z
loop_
_atom_site_type_symbol
_atom_site_label
_atom_site_fract_x
_atom_site_fract_y
_atom_site_fract_z
Si Si1 0.165206 0.860003 0.260353
Si Si2 0.809826 0.755058 0.397161
Si Si3 0.774220 0.389051 0.910320
Si Si4 0.388545 0.448578 0.320661
Si Si5 0.084564 0.834652 0.889240
Si Si6 0.000000 0.000000 0.000000
Si Si7 0.885454 0.373838 0.338979
Si Si8 0.567379 0.840394 0.656198
O O1 0.000083 0.801570 0.350689
O O2 0.079687 0.605567 0.336836
O O3 0.142926 0.967225 0.105022
O O4 0.397311 0.065336 0.263226
O O5 0.595350 0.557815 0.377937
O O6 0.796717 0.691512 0.549396
O O7 0.840814 0.981540 0.284065
O O8 0.597222 0.361287 0.830289
O O9 0.861290 0.559325 0.945038
O O10 0.988483 0.553267 0.785718
O O11 0.738236 0.167176 0.047937
O O12 0.355722 0.283548 0.304187
O O13 0.029062 0.915678 0.935472
O O14 0.701335 0.375688 0.302129
O O15 0.717181 0.088005 0.487034
#
# Coordination Sequence:
#
# PCOD9108373 Si02
#       8
#     2   2   2   2   2   1   2   2
#     4  11  21  42  65  93 126 176 208 276 320 386
#     4  10  22  39  67  91 134 166 223 265 329 380
#     4  11  23  42  67  94 135 167 225 263 335 380
#     4  11  22  41  64  99 127 176 216 272 323 401
#     4  10  22  41  65  94 128 180 208 280 318 392
#     4  10  20  40  68  90 128 168 228 252 328 384
#     4  11  23  43  63  99 132 164 218 280 313 402
#     4  11  24  40  68  95 130 172 222 260 340 382
#
# _framework density 25.518547000000002
#
# number of rings (size 3 to 8) (size 9 to 14) (size 15 to 20)
#    0.000    1.333    2.667    3.600    0.000    2.133 
#    4.800    6.000    0.000    0.000    0.000    0.000 
#    0.000    0.000    0.000    0.000    0.000    0.000 
#
# Total GULP energy -83608.053269 kJ/mol
# GULP energy per Si atom -5573.870218 kJ/mol
# Density = 2.546047 g / cm^3
# Si number density = 25.518547 Si / 1000 Ang^3
#
#
#
# Elastic Constant Matrix: (Units=GPa)
#
#
# Indices 1 2 3 4 5 6 
#
# 1 47.8655 14.1997 13.5364 3.2891 -4.8937 -15.2894
# 2 14.1997 124.1759 19.7580 7.2512 -6.6233 -19.5747
# 3 13.5364 19.7580 88.7850 6.2626 22.7800 -5.9668
# 4 3.2891 7.2512 6.2626 30.8073 -3.8384 6.1109
# 5 -4.8937 -6.6233 22.7800 -3.8384 37.1518 -2.1822
# 6 -15.2894 -19.5747 -5.9668 6.1109 -2.1822 34.5357
#
#
#
# Elastic Compliance Matrix: (Units=1/GPa)
#
#
# Indices 1 2 3 4 5 6 
#
# 1 0.027108 0.000199 -0.004886 -0.003527 0.006962 0.012334
# 2 0.000199 0.009663 -0.002471 -0.002527 0.003343 0.005797
# 3 -0.004886 -0.002471 0.015542 -0.003229 -0.011006 -0.001002
# 4 -0.003527 -0.002527 -0.003229 0.036553 0.004269 -0.009750
# 5 0.006962 0.003343 -0.011006 0.004269 0.035889 0.004588
# 6 0.012334 0.005797 -0.001002 -0.009750 0.004588 0.039543
#
#
# Mechanical properties :
#
#
# Convention : Reuss Voigt Hill
#
# Bulk Modulus (GPa) = 26.31683 39.53496 32.92589
# Shear Modulus (GPa) = 26.13956 34.72111 30.43034
#
# Velocity S-wave (km/s) = 3.20400 3.69266 3.45698
# Velocity P-wave (km/s) = 4.90129 5.80580 5.37261
#
# Compressibility (1/GPa) = 0.03799850
#
# Stress axis : x y z
#
# Youngs Moduli (GPa) = 36.88882 103.48662 64.34044
#
# Poissons Ratio (x) = -0.02061 0.31437
# Poissons Ratio (y) = -0.00735 0.15897
# Poissons Ratio (z) = 0.18024 0.25569
#
# Static dielectric constant tensor:
#      x y z
#    x 2.059110 0.113190 0.035350 
#    y 0.113190 2.034180 -0.027090 
#    z 0.035350 -0.027090 2.035360 
# 
# From -- ./inp_files/188318.got.cif
#   From: 2010.05.17/outbox.cif.g08.bks.cpg/sg2_95_cif.got.tgz:188318.got - 2010.06.03 11:33:40.
