data_PCOD9108454
_publ_section_title
;
Structure prediction by ZEFSAII (Michael W. Deem and Ramdas Pophale) SiO2 
 PCOD9108454
Probable space group: P -1
;
_chemical_formula_sum "Si O2"
_cell_formula_units_Z 14
_cell_length_a 10.674780
_cell_length_b 10.857726
_cell_length_c 11.367009
_cell_angle_alpha 28.841005
_cell_angle_beta 112.767947
_cell_angle_gamma 98.838150
_cell_volume 532.701066
_symmetry_space_group_name_H-M "P -1"
_symmetry_group_IT_number 2
_symmetry_cell_setting 'triclinic'
loop_
_space_group_symop_operation_xyz
x,y,z
-x,-y,-z
loop_
_atom_site_type_symbol
_atom_site_label
_atom_site_fract_x
_atom_site_fract_y
_atom_site_fract_z
Si Si1 0.388202 0.575036 0.786432
Si Si2 0.628855 0.205053 0.646836
Si Si3 0.650956 0.129069 0.147570
Si Si4 0.664547 0.664329 0.415771
Si Si5 0.131656 0.011607 0.458485
Si Si6 0.116940 0.727825 0.003452
Si Si7 0.923079 0.836080 0.185070
O O1 0.384877 0.795517 0.498578
O O2 0.226292 0.724322 0.661657
O O3 0.500000 0.500000 0.000000
O O4 0.480020 0.283155 0.996477
O O5 0.670801 0.467268 0.476053
O O6 0.472142 0.298148 0.578350
O O7 0.761117 0.940579 0.975619
O O8 0.646963 0.980793 0.146748
O O9 0.744238 0.313355 0.998755
O O10 0.748515 0.947953 0.445291
O O11 0.817379 0.495911 0.683054
O O12 0.034208 0.249449 0.131135
O O13 0.000000 0.000000 0.500000
O O14 0.079012 0.028196 0.801103
O O15 0.000000 0.500000 0.500000
O O16 0.000000 0.000000 0.000000
#
# Coordination Sequence:
#
# PCOD9108454 Si02
#       7
#     2   2   2   2   2   2   2
#     4  10  20  40  68  96 136 180 233 292 355 427
#     4  10  22  42  65 101 144 184 236 295 365 434
#     4  10  21  39  68  95 133 181 236 297 351 436
#     4  10  22  39  64 102 135 181 235 291 368 429
#     4   9  20  39  65  93 130 186 232 297 360 427
#     4  10  21  41  65  94 140 178 234 295 355 426
#     4  11  26  44  69 106 149 193 242 303 366 440
#
# _framework density 26.281153
#
# number of rings (size 3 to 8) (size 9 to 14) (size 15 to 20)
#    0.000    2.000    1.429    0.857    4.000    3.429 
#    0.000    2.857    6.286    0.000    0.000    0.000 
#    0.000    0.000    0.000    0.000    0.000    0.000 
#
# Total GULP energy -78069.701007 kJ/mol
# GULP energy per Si atom -5576.407215 kJ/mol
# Density = 2.622134 g / cm^3
# Si number density = 26.281153 Si / 1000 Ang^3
#
#
#
# Elastic Constant Matrix: (Units=GPa)
#
#
# Indices 1 2 3 4 5 6 
#
# 1 118.5715 24.1241 39.0366 -0.3466 21.5823 -20.0192
# 2 24.1241 92.2081 55.6236 2.9338 9.2960 -13.2317
# 3 39.0366 55.6236 158.5975 19.3352 39.6649 3.4089
# 4 -0.3466 2.9338 19.3352 65.0231 4.3307 6.4689
# 5 21.5823 9.2960 39.6649 4.3307 42.8153 1.1165
# 6 -20.0192 -13.2317 3.4089 6.4689 1.1165 34.7872
#
#
#
# Elastic Compliance Matrix: (Units=1/GPa)
#
#
# Indices 1 2 3 4 5 6 
#
# 1 0.010885 -0.000556 -0.001636 0.000211 -0.004036 0.006303
# 2 -0.000556 0.015167 -0.005922 0.000335 0.002286 0.005894
# 3 -0.001636 -0.005922 0.011089 -0.002155 -0.007850 -0.003628
# 4 0.000211 0.000335 -0.002155 0.016245 0.000241 -0.002568
# 5 -0.004036 0.002286 -0.007850 0.000241 0.032188 -0.001762
# 6 0.006303 0.005894 -0.003628 -0.002568 -0.001762 0.035505
#
#
# Mechanical properties :
#
#
# Convention : Reuss Voigt Hill
#
# Bulk Modulus (GPa) = 47.81650 67.43839 57.62745
# Shear Modulus (GPa) = 34.65507 45.23130 39.94319
#
# Velocity S-wave (km/s) = 3.63523 4.15306 3.90274
# Velocity P-wave (km/s) = 5.98779 6.97949 6.50257
#
# Compressibility (1/GPa) = 0.02091328
#
# Stress axis : x y z
#
# Youngs Moduli (GPa) = 91.86984 65.93048 90.18113
#
# Poissons Ratio (x) = 0.03668 0.14752
# Poissons Ratio (y) = 0.05111 0.53404
# Poissons Ratio (z) = 0.15028 0.39043
#
# Static dielectric constant tensor:
#      x y z
#    x 2.103980 0.006980 -0.021470 
#    y 0.006980 2.149810 -0.033660 
#    z -0.021470 -0.033660 2.183490 
# 
# From -- ./inp_files/427270.got.cif
#   From: 2010.05.17/outbox.cif.g08.bks.cpg/sg2_214_cif.got.tgz:427270.got - 2010.06.03 11:33:40.
