data_PCOD9108476
_publ_section_title
;
Structure prediction by ZEFSAII (Michael W. Deem and Ramdas Pophale) SiO2 
 PCOD9108476
Probable space group: P -1
;
_chemical_formula_sum "Si O2"
_cell_formula_units_Z 16
_cell_length_a 21.568069
_cell_length_b 6.459965
_cell_length_c 5.310292
_cell_angle_alpha 93.372033
_cell_angle_beta 120.773844
_cell_angle_gamma 82.185148
_cell_volume 629.743798
_symmetry_space_group_name_H-M "P -1"
_symmetry_group_IT_number 2
_symmetry_cell_setting 'triclinic'
loop_
_space_group_symop_operation_xyz
x,y,z
-x,-y,-z
loop_
_atom_site_type_symbol
_atom_site_label
_atom_site_fract_x
_atom_site_fract_y
_atom_site_fract_z
Si Si1 0.401377 0.721795 0.816756
Si Si2 0.012584 0.861482 0.765369
Si Si3 0.839370 0.432412 0.894754
Si Si4 0.133255 0.314633 0.530297
Si Si5 0.263407 0.029046 0.768406
Si Si6 0.656126 0.604577 0.030386
Si Si7 0.705043 0.238658 0.760167
Si Si8 0.482548 0.255010 0.543999
O O1 0.330728 0.873184 0.781729
O O2 0.380923 0.755953 0.487087
O O3 0.387274 0.488805 0.841899
O O4 0.476318 0.754391 0.100398
O O5 0.093233 0.741726 0.922881
O O6 0.951642 0.704199 0.625577
O O7 0.000000 0.000000 0.500000
O O8 0.000000 0.000000 0.000000
O O9 0.839091 0.592580 0.143067
O O10 0.853950 0.541778 0.670785
O O11 0.765730 0.319549 0.714516
O O12 0.177512 0.082721 0.550639
O O13 0.269210 0.980008 0.074555
O O14 0.290751 0.242022 0.754003
O O15 0.702445 0.411580 0.982281
O O16 0.600988 0.713569 0.716310
O O17 0.500000 0.500000 0.500000
O O18 0.500000 0.000000 0.500000
#
# Coordination Sequence:
#
# PCOD9108476 Si02
#       8
#     2   2   2   2   2   2   2   2
#     4  10  23  39  66  93 133 184 233 298 362 437
#     4  12  26  46  72 104 143 185 239 293 352 430
#     4  12  26  46  71 102 143 185 240 290 358 436
#     4  12  26  45  72 102 141 190 233 293 362 429
#     4  11  23  40  66  96 135 180 235 290 359 432
#     4  10  21  43  63  93 137 176 238 292 366 431
#     4  11  25  40  65 100 134 180 238 296 356 433
#     4  10  20  40  68  97 136 189 242 305 378 452
#
# _framework density 25.407157000000002
#
# number of rings (size 3 to 8) (size 9 to 14) (size 15 to 20)
#    0.000    1.000    2.500    3.750    5.250    1.500 
#    0.000    0.625    0.000    0.000    0.000    0.000 
#    0.000    0.000    0.000    0.000    0.000    0.000 
#
# Total GULP energy -89125.580106 kJ/mol
# GULP energy per Si atom -5570.348757 kJ/mol
# Density = 2.534933 g / cm^3
# Si number density = 25.407157 Si / 1000 Ang^3
#
#
#
# Elastic Constant Matrix: (Units=GPa)
#
#
# Indices 1 2 3 4 5 6 
#
# 1 69.6100 42.0859 19.6559 -10.3634 3.9902 -6.9480
# 2 42.0859 90.7776 23.9571 -12.8086 -9.4062 -6.1648
# 3 19.6559 23.9571 111.8720 -17.2817 8.9530 0.3917
# 4 -10.3634 -12.8086 -17.2817 43.8753 1.4195 5.5774
# 5 3.9902 -9.4062 8.9530 1.4195 40.7362 -1.7085
# 6 -6.9480 -6.1648 0.3917 5.5774 -1.7085 48.0260
#
#
#
# Elastic Compliance Matrix: (Units=1/GPa)
#
#
# Indices 1 2 3 4 5 6 
#
# 1 0.021089 -0.009570 -0.001075 0.001705 -0.004036 0.001490
# 2 -0.009570 0.016827 -0.002107 0.001550 0.005266 0.000800
# 3 -0.001075 -0.002107 0.010336 0.003421 -0.002814 -0.001008
# 4 0.001705 0.001550 0.003421 0.025374 -0.001554 -0.002584
# 5 -0.004036 0.005266 -0.002814 -0.001554 0.026885 0.001252
# 6 0.001490 0.000800 -0.001008 -0.002584 0.001252 0.021493
#
#
# Mechanical properties :
#
#
# Convention : Reuss Voigt Hill
#
# Bulk Modulus (GPa) = 43.95709 49.29527 46.62618
# Shear Modulus (GPa) = 32.23924 38.96489 35.60206
#
# Velocity S-wave (km/s) = 3.56603 3.92039 3.74740
# Velocity P-wave (km/s) = 5.85611 6.31956 6.09225
#
# Compressibility (1/GPa) = 0.02274946
#
# Stress axis : x y z
#
# Youngs Moduli (GPa) = 47.41759 59.42668 96.74849
#
# Poissons Ratio (x) = 0.56872 0.10398
# Poissons Ratio (y) = 0.45379 0.20383
# Poissons Ratio (z) = 0.05096 0.12520
#
# Static dielectric constant tensor:
#      x y z
#    x 2.202900 -0.074400 -0.276470 
#    y -0.074400 2.095040 0.099230 
#    z -0.276470 0.099230 2.268530 
# 
# From -- ./inp_files/12768.got.cif
#   From: 2010.05.17/outbox.cif.g08.bks.cpg/sg2_7_cif.got.tgz:12768.got - 2010.06.03 11:33:40.
