data_PCOD9108386
_publ_section_title
;
Structure prediction by ZEFSAII (Michael W. Deem and Ramdas Pophale) SiO2 
 PCOD9108386
Probable space group: P -1
;
_chemical_formula_sum "Si O2"
_cell_formula_units_Z 16
_cell_length_a 7.641202
_cell_length_b 13.067576
_cell_length_c 8.275473
_cell_angle_alpha 62.969882
_cell_angle_beta 61.303583
_cell_angle_gamma 80.911849
_cell_volume 643.732349
_symmetry_space_group_name_H-M "P -1"
_symmetry_group_IT_number 2
_symmetry_cell_setting 'triclinic'
loop_
_space_group_symop_operation_xyz
x,y,z
-x,-y,-z
loop_
_atom_site_type_symbol
_atom_site_label
_atom_site_fract_x
_atom_site_fract_y
_atom_site_fract_z
Si Si1 0.499272 0.892067 0.955577
Si Si2 0.258446 0.715523 0.564019
Si Si3 0.083212 0.407622 0.350327
Si Si4 0.572881 0.555402 0.596200
Si Si5 0.870380 0.341867 0.989170
Si Si6 0.565360 0.661700 0.978539
Si Si7 0.786319 0.032001 0.507763
Si Si8 0.106341 0.895201 0.952562
O O1 0.578106 0.764592 0.032746
O O2 0.270312 0.872125 0.027692
O O3 0.621952 0.935766 0.710009
O O4 0.500000 0.000000 0.000000
O O5 0.475418 0.675957 0.536160
O O6 0.130936 0.668031 0.810225
O O7 0.262564 0.851087 0.466446
O O8 0.133966 0.661142 0.506766
O O9 0.200568 0.427611 0.452943
O O10 0.242652 0.340413 0.221195
O O11 0.059845 0.531236 0.190297
O O12 0.500000 0.500000 0.500000
O O13 0.467518 0.464589 0.836393
O O14 0.638043 0.323408 0.044316
O O15 0.987877 0.233793 0.952266
O O16 0.801917 0.058309 0.292349
O O17 0.000000 0.000000 0.500000
O O18 0.000000 0.000000 0.000000
#
# Coordination Sequence:
#
# PCOD9108386 Si02
#       8
#     2   2   2   2   2   2   2   2
#     4  11  24  42  67  98 130 180 226 273 336 390
#     4  11  22  39  68  94 127 168 218 266 328 398
#     4  11  20  40  68  96 124 168 216 263 332 404
#     4  11  24  41  63  97 134 163 209 275 336 386
#     4   9  18  37  65  95 125 164 218 272 321 398
#     4  10  20  40  68  92 124 172 219 269 330 400
#     4  11  24  44  64  96 136 172 226 278 327 397
#     4  10  22  42  66  97 133 176 224 276 332 398
#
# _framework density 24.855052000000001
#
# number of rings (size 3 to 8) (size 9 to 14) (size 15 to 20)
#    0.000    1.500    2.500    3.000    1.750    1.500 
#    4.500    0.000    0.000    0.000    0.000    0.000 
#    0.000    0.000    0.000    0.000    0.000    0.000 
#
# Total GULP energy -89439.336194 kJ/mol
# GULP energy per Si atom -5589.958512 kJ/mol
# Density = 2.479848 g / cm^3
# Si number density = 24.855052 Si / 1000 Ang^3
#
#
#
# Elastic Constant Matrix: (Units=GPa)
#
#
# Indices 1 2 3 4 5 6 
#
# 1 90.0921 11.2110 10.8064 -9.3912 19.0003 5.6033
# 2 11.2110 145.3208 14.9444 -11.9549 8.9095 -18.2585
# 3 10.8064 14.9444 66.6357 -6.7279 6.5671 -2.2564
# 4 -9.3912 -11.9549 -6.7279 34.4910 3.9448 12.6373
# 5 19.0003 8.9095 6.5671 3.9448 21.9998 3.5842
# 6 5.6033 -18.2585 -2.2564 12.6373 3.5842 41.2163
#
#
#
# Elastic Compliance Matrix: (Units=1/GPa)
#
#
# Indices 1 2 3 4 5 6 
#
# 1 0.014841 -0.000110 -0.000514 0.006498 -0.013308 -0.002929
# 2 -0.000110 0.007758 -0.001095 0.001684 -0.003541 0.003183
# 3 -0.000514 -0.001095 0.016093 0.003174 -0.004466 -0.000119
# 4 0.006498 0.001684 0.003174 0.037132 -0.012224 -0.010286
# 5 -0.013308 -0.003541 -0.004466 -0.012224 0.062178 -0.001663
# 6 -0.002929 0.003183 -0.000119 -0.010286 -0.001663 0.029362
#
#
# Mechanical properties :
#
#
# Convention : Reuss Voigt Hill
#
# Bulk Modulus (GPa) = 28.36557 41.77468 35.07013
# Shear Modulus (GPa) = 27.38933 37.21389 32.30161
#
# Velocity S-wave (km/s) = 3.32318 3.87361 3.60891
# Velocity P-wave (km/s) = 5.11487 6.07044 5.61303
#
# Compressibility (1/GPa) = 0.03525400
#
# Stress axis : x y z
#
# Youngs Moduli (GPa) = 67.38015 128.89919 62.14071
#
# Poissons Ratio (x) = 0.01414 0.03193
# Poissons Ratio (y) = 0.00739 0.06806
# Poissons Ratio (z) = 0.03462 0.14119
#
# Static dielectric constant tensor:
#      x y z
#    x 1.767830 -0.037900 -0.039300 
#    y -0.037900 2.067700 0.058740 
#    z -0.039300 0.058740 1.945930 
# 
# From -- ./inp_files/184850.got.cif
#   From: 2010.05.17/outbox.cif.g08.bks.cpg/sg2_93_cif.got.tgz:184850.got - 2010.06.03 11:33:40.
