data_PCOD9108125
_publ_section_title
;
Structure prediction by ZEFSAII (Michael W. Deem and Ramdas Pophale) SiO2 
 PCOD9108125
Probable space group: P -1
;
_chemical_formula_sum "Si O2"
_cell_formula_units_Z 16
_cell_length_a 11.596176
_cell_length_b 16.426637
_cell_length_c 8.886796
_cell_angle_alpha 75.630505
_cell_angle_beta 96.619503
_cell_angle_gamma 153.184456
_cell_volume 717.588408
_symmetry_space_group_name_H-M "P -1"
_symmetry_group_IT_number 2
_symmetry_cell_setting 'triclinic'
loop_
_space_group_symop_operation_xyz
x,y,z
-x,-y,-z
loop_
_atom_site_type_symbol
_atom_site_label
_atom_site_fract_x
_atom_site_fract_y
_atom_site_fract_z
Si Si1 0.439768 0.883986 0.725157
Si Si2 0.195043 0.772381 0.022574
Si Si3 0.939090 0.017054 0.339056
Si Si4 0.665280 0.683883 0.005591
Si Si5 0.141372 0.602567 0.317351
Si Si6 0.140918 0.901725 0.086983
Si Si7 0.623048 0.963835 0.412865
Si Si8 0.493761 0.716559 0.172322
O O1 0.469409 0.845585 0.600832
O O2 0.730088 0.061195 0.766388
O O3 0.352044 0.919799 0.640518
O O4 0.236286 0.742325 0.895848
O O5 0.051013 0.619240 0.190419
O O6 0.070245 0.783533 0.007905
O O7 0.500000 0.000000 0.000000
O O8 0.166679 0.169263 0.176836
O O9 0.869700 0.064537 0.374041
O O10 0.679854 0.818355 0.298228
O O11 0.000000 0.000000 0.500000
O O12 0.500000 0.500000 0.000000
O O13 0.497894 0.644738 0.086051
O O14 0.879158 0.786903 0.110898
O O15 0.430919 0.820891 0.311875
O O16 0.208625 0.560917 0.259052
O O17 0.000000 0.500000 0.500000
O O18 0.361040 0.110166 0.966641
#
# Coordination Sequence:
#
# PCOD9108125 Si02
#       8
#     2   2   2   2   2   2   2   2
#     4  10  18  33  65  92 116 156 214 256 294 363
#     4  10  16  35  64  86 116 163 208 244 300 380
#     4  10  22  40  67  92 122 166 214 257 304 371
#     4  11  25  44  62  93 126 163 214 268 313 373
#     4  11  21  39  58  93 132 159 191 261 326 367
#     4  10  18  37  72  88 115 167 221 250 305 375
#     4  10  21  36  58  97 126 152 210 261 298 367
#     4  10  21  42  68  87 122 171 214 252 308 387
#
# _framework density 22.296904999999999
#
# number of rings (size 3 to 8) (size 9 to 14) (size 15 to 20)
#    0.000    1.750    5.000    3.000    3.500    0.000 
#   11.250    1.250    0.000    0.000    0.000    0.000 
#    0.000    0.000    0.000    0.000    0.000    0.000 
#
# Total GULP energy -89132.171692 kJ/mol
# GULP energy per Si atom -5570.760731 kJ/mol
# Density = 2.224616 g / cm^3
# Si number density = 22.296905 Si / 1000 Ang^3
#
#
#
# Elastic Constant Matrix: (Units=GPa)
#
#
# Indices 1 2 3 4 5 6 
#
# 1 147.2452 14.5212 61.3144 -0.2383 -20.4404 -9.8626
# 2 14.5212 53.3429 16.0226 11.3192 2.4623 -11.9168
# 3 61.3144 16.0226 99.8178 -0.3342 -2.3406 -12.5618
# 4 -0.2383 11.3192 -0.3342 29.7670 0.0930 -2.7267
# 5 -20.4404 2.4623 -2.3406 0.0930 46.2337 10.2284
# 6 -9.8626 -11.9168 -12.5618 -2.7267 10.2284 15.7054
#
#
#
# Elastic Compliance Matrix: (Units=1/GPa)
#
#
# Indices 1 2 3 4 5 6 
#
# 1 0.009998 -0.001917 -0.006120 0.000432 0.004920 -0.003200
# 2 -0.001917 0.026244 -0.000526 -0.008013 -0.007003 0.021459
# 3 -0.006120 -0.000526 0.015139 0.001334 -0.004329 0.010918
# 4 0.000432 -0.008013 0.001334 0.036792 0.000289 0.001458
# 5 0.004920 -0.007003 -0.004329 0.000289 0.029447 -0.024815
# 6 -0.003200 0.021459 0.010918 0.001458 -0.024815 0.103093
#
#
# Mechanical properties :
#
#
# Convention : Reuss Voigt Hill
#
# Bulk Modulus (GPa) = 29.19191 53.79136 41.49164
# Shear Modulus (GPa) = 20.05969 32.24439 26.15204
#
# Velocity S-wave (km/s) = 3.00269 3.80694 3.42848
# Velocity P-wave (km/s) = 5.01421 6.59554 5.85847
#
# Compressibility (1/GPa) = 0.03425607
#
# Stress axis : x y z
#
# Youngs Moduli (GPa) = 100.02002 38.10406 66.05638
#
# Poissons Ratio (x) = 0.07305 0.40424
# Poissons Ratio (y) = 0.19175 0.03472
# Poissons Ratio (z) = 0.61208 0.02003
#
# Static dielectric constant tensor:
#      x y z
#    x 1.914270 0.006900 -0.037620 
#    y 0.006900 1.903970 0.018510 
#    z -0.037620 0.018510 1.908340 
# 
# From -- ./inp_files/279309.got.cif
#   From: 2010.05.17/outbox.cif.g08.bks.cpg/sg2_140_cif.got.tgz:279309.got - 2010.06.03 11:33:40.
