data_PCOD9108486
_publ_section_title
;
Structure prediction by ZEFSAII (Michael W. Deem and Ramdas Pophale) SiO2 
 PCOD9108486
Probable space group: P -1
;
_chemical_formula_sum "Si O2"
_cell_formula_units_Z 16
_cell_length_a 8.420132
_cell_length_b 15.814047
_cell_length_c 9.614454
_cell_angle_alpha 37.552035
_cell_angle_beta 81.212644
_cell_angle_gamma 66.341788
_cell_volume 682.620729
_symmetry_space_group_name_H-M "P -1"
_symmetry_group_IT_number 2
_symmetry_cell_setting 'triclinic'
loop_
_space_group_symop_operation_xyz
x,y,z
-x,-y,-z
loop_
_atom_site_type_symbol
_atom_site_label
_atom_site_fract_x
_atom_site_fract_y
_atom_site_fract_z
Si Si1 0.195760 0.892994 0.674897
Si Si2 0.217665 0.301058 0.473443
Si Si3 0.750143 0.136251 0.817465
Si Si4 0.663113 0.747241 0.178963
Si Si5 0.542607 0.030393 0.614015
Si Si6 0.667897 0.456112 0.434795
Si Si7 0.601291 0.471181 0.877425
Si Si8 0.946250 0.885283 0.342226
O O1 0.332779 0.890966 0.543189
O O2 0.183342 0.995222 0.679600
O O3 0.262570 0.711444 0.934621
O O4 0.000000 0.000000 0.500000
O O5 0.211971 0.280969 0.666625
O O6 0.379198 0.152701 0.569209
O O7 0.276447 0.437952 0.266887
O O8 0.050113 0.284749 0.443090
O O9 0.536149 0.195674 0.793186
O O10 0.789580 0.274896 0.691480
O O11 0.857570 0.117124 0.683400
O O12 0.849125 0.977531 0.095105
O O13 0.728761 0.585637 0.295225
O O14 0.638611 0.877035 0.898538
O O15 0.500000 0.000000 0.500000
O O16 0.500000 0.500000 0.500000
O O17 0.569376 0.472129 0.279709
O O18 0.500000 0.500000 0.000000
#
# Coordination Sequence:
#
# PCOD9108486 Si02
#       8
#     2   2   2   2   2   2   2   2
#     4  12  28  46  69  99 142 185 224 278 355 416
#     4  12  24  42  69 105 132 175 236 289 334 405
#     4  10  21  41  68  96 135 183 221 275 344 411
#     4  11  23  40  74  99 133 177 241 283 335 405
#     4  12  23  44  69 102 139 180 230 284 337 405
#     4  10  20  40  68  98 131 177 230 279 331 405
#     4  12  25  43  72 101 135 182 236 284 335 410
#     4  11  25  41  67 100 146 177 219 288 351 402
#
# _framework density 23.439077000000001
#
# number of rings (size 3 to 8) (size 9 to 14) (size 15 to 20)
#    0.000    0.750    6.250    2.625    3.500    1.000 
#    2.250    1.250    0.000    0.000    0.000    0.000 
#    0.000    0.000    0.000    0.000    0.000    0.000 
#
# Total GULP energy -89152.256957 kJ/mol
# GULP energy per Si atom -5572.016060 kJ/mol
# Density = 2.338573 g / cm^3
# Si number density = 23.439077 Si / 1000 Ang^3
#
#
#
# Elastic Constant Matrix: (Units=GPa)
#
#
# Indices 1 2 3 4 5 6 
#
# 1 41.4164 18.3176 30.1851 -5.1351 -9.4964 17.6082
# 2 18.3176 118.7321 57.5364 2.5181 -8.1203 28.7868
# 3 30.1851 57.5364 121.4379 -10.4637 -21.3631 26.0371
# 4 -5.1351 2.5181 -10.4637 55.3379 -1.3949 -2.8583
# 5 -9.4964 -8.1203 -21.3631 -1.3949 33.4669 -4.0270
# 6 17.6082 28.7868 26.0371 -2.8583 -4.0270 40.9791
#
#
#
# Elastic Compliance Matrix: (Units=1/GPa)
#
#
# Indices 1 2 3 4 5 6 
#
# 1 0.033761 0.000200 -0.005127 0.001728 0.005132 -0.010765
# 2 0.000200 0.012114 -0.004872 -0.001771 -0.000874 -0.005710
# 3 -0.005127 -0.004872 0.013521 0.002334 0.005823 -0.002231
# 4 0.001728 -0.001771 0.002334 0.018843 0.002404 0.000569
# 5 0.005132 -0.000874 0.005823 0.002404 0.034736 -0.001710
# 6 -0.010765 -0.005710 -0.002231 0.000569 -0.001710 0.034329
#
#
# Mechanical properties :
#
#
# Convention : Reuss Voigt Hill
#
# Bulk Modulus (GPa) = 25.12580 54.85162 39.98871
# Shear Modulus (GPa) = 27.75218 37.65993 32.70605
#
# Velocity S-wave (km/s) = 3.44468 4.01273 3.73951
# Velocity P-wave (km/s) = 5.15403 6.70239 5.97854
#
# Compressibility (1/GPa) = 0.03979972
#
# Stress axis : x y z
#
# Youngs Moduli (GPa) = 29.62031 82.54683 73.95982
#
# Poissons Ratio (x) = -0.01653 0.37917
# Poissons Ratio (y) = -0.00593 0.36030
# Poissons Ratio (z) = 0.15185 0.40213
#
# Static dielectric constant tensor:
#      x y z
#    x 1.861750 -0.052540 -0.037010 
#    y -0.052540 1.942770 -0.022680 
#    z -0.037010 -0.022680 1.907970 
# 
# From -- ./inp_files/205142.got.cif
#   From: 2010.05.17/outbox.cif.g08.bks.cpg/sg2_103_cif.got.tgz:205142.got - 2010.06.03 11:33:40.
