data_PCOD9108267
_publ_section_title
;
Structure prediction by ZEFSAII (Michael W. Deem and Ramdas Pophale) SiO2 
 PCOD9108267
Probable space group: P -1
;
_chemical_formula_sum "Si O2"
_cell_formula_units_Z 16
_cell_length_a 8.318625
_cell_length_b 11.787057
_cell_length_c 14.172958
_cell_angle_alpha 126.738299
_cell_angle_beta 44.272036
_cell_angle_gamma 107.339188
_cell_volume 756.035808
_symmetry_space_group_name_H-M "P -1"
_symmetry_group_IT_number 2
_symmetry_cell_setting 'triclinic'
loop_
_space_group_symop_operation_xyz
x,y,z
-x,-y,-z
loop_
_atom_site_type_symbol
_atom_site_label
_atom_site_fract_x
_atom_site_fract_y
_atom_site_fract_z
Si Si1 0.563621 0.017769 0.090644
Si Si2 0.439298 0.577186 0.462430
Si Si3 0.983193 0.161868 0.254643
Si Si4 0.020596 0.752205 0.370586
Si Si5 0.752462 0.684242 0.629426
Si Si6 0.101048 0.375901 0.820079
Si Si7 0.362201 0.948262 0.321590
Si Si8 0.269111 0.067091 0.691337
O O1 0.486992 0.190290 0.227643
O O2 0.398016 0.950692 0.195724
O O3 0.500000 0.000000 0.000000
O O4 0.833360 0.929777 0.942672
O O5 0.500000 0.500000 0.500000
O O6 0.253505 0.730905 0.630138
O O7 0.314447 0.467829 0.403445
O O8 0.664940 0.599575 0.320151
O O9 0.119246 0.258564 0.308695
O O10 0.905391 0.040488 0.291216
O O11 0.241900 0.818904 0.337308
O O12 0.919211 0.680736 0.466179
O O13 0.064623 0.647518 0.209677
O O14 0.814792 0.896822 0.501885
O O15 0.157760 0.226104 0.779828
O O16 0.000000 0.500000 0.000000
O O17 0.617351 0.932552 0.252792
O O18 0.500000 0.000000 0.500000
#
# Coordination Sequence:
#
# PCOD9108267 Si02
#       8
#     2   2   2   2   2   2   2   2
#     4   9  22  39  64 103 128 166 221 283 334 396
#     4  12  25  45  66  94 139 180 225 273 343 413
#     4  11  24  42  69  98 133 175 225 279 339 401
#     4  10  20  40  67  96 127 177 224 267 340 400
#     4  10  22  42  68  95 132 179 223 272 342 409
#     4  12  28  44  66 101 138 181 220 286 342 394
#     4  10  21  38  70  98 131 171 224 281 328 397
#     4  12  23  43  69  98 130 168 232 277 329 402
#
# _framework density 21.163018999999998
#
# number of rings (size 3 to 8) (size 9 to 14) (size 15 to 20)
#    0.000    1.250    3.750    1.125    8.750    2.500 
#    0.000    0.625    0.000    0.000    0.000    0.000 
#    0.000    0.000    0.000    0.000    0.000    0.000 
#
# Total GULP energy -89393.232675 kJ/mol
# GULP energy per Si atom -5587.077042 kJ/mol
# Density = 2.111485 g / cm^3
# Si number density = 21.163019 Si / 1000 Ang^3
#
#
#
# Elastic Constant Matrix: (Units=GPa)
#
#
# Indices 1 2 3 4 5 6 
#
# 1 55.7686 5.2371 10.6147 -1.3357 8.0389 1.8773
# 2 5.2371 103.0941 22.2643 6.7420 -7.6055 10.7233
# 3 10.6147 22.2643 119.1055 7.0630 -1.7243 -8.5141
# 4 -1.3357 6.7420 7.0630 24.9797 -4.1788 -3.7734
# 5 8.0389 -7.6055 -1.7243 -4.1788 31.5613 0.4727
# 6 1.8773 10.7233 -8.5141 -3.7734 0.4727 35.3803
#
#
#
# Elastic Compliance Matrix: (Units=1/GPa)
#
#
# Indices 1 2 3 4 5 6 
#
# 1 0.019129 -0.000919 -0.001723 0.000758 -0.005072 -0.001002
# 2 -0.000919 0.010974 -0.002070 -0.002629 0.002479 -0.004089
# 3 -0.001723 -0.002070 0.009237 -0.001699 0.000178 0.002758
# 4 0.000758 -0.002629 -0.001699 0.042777 0.004672 0.004848
# 5 -0.005072 0.002479 0.000178 0.004672 0.034208 -0.000398
# 6 -0.001002 -0.004089 0.002758 0.004848 -0.000398 0.030743
#
#
# Mechanical properties :
#
#
# Convention : Reuss Voigt Hill
#
# Bulk Modulus (GPa) = 33.42798 39.35558 36.39178
# Shear Modulus (GPa) = 30.03688 34.37441 32.20565
#
# Velocity S-wave (km/s) = 3.77146 4.03459 3.90524
# Velocity P-wave (km/s) = 5.89873 6.35143 6.12926
#
# Compressibility (1/GPa) = 0.02991506
#
# Stress axis : x y z
#
# Youngs Moduli (GPa) = 52.27788 91.12745 108.26183
#
# Poissons Ratio (x) = 0.08376 0.18653
# Poissons Ratio (y) = 0.04805 0.22409
# Poissons Ratio (z) = 0.09007 0.18862
#
# Static dielectric constant tensor:
#      x y z
#    x 1.862380 -0.003440 -0.003080 
#    y -0.003440 1.749890 0.005560 
#    z -0.003080 0.005560 1.761240 
# 
# From -- ./inp_files/217119.got.cif
#   From: 2010.05.17/outbox.cif.g08.bks.cpg/sg2_109_cif.got.tgz:217119.got - 2010.06.03 11:33:40.
