data_PCOD9108152
_publ_section_title
;
Structure prediction by ZEFSAII (Michael W. Deem and Ramdas Pophale) SiO2 
 PCOD9108152
Probable space group: P -1
;
_chemical_formula_sum "Si O2"
_cell_formula_units_Z 14
_cell_length_a 8.695305
_cell_length_b 13.110301
_cell_length_c 10.471710
_cell_angle_alpha 71.781936
_cell_angle_beta 119.085725
_cell_angle_gamma 141.893128
_cell_volume 638.372877
_symmetry_space_group_name_H-M "P -1"
_symmetry_group_IT_number 2
_symmetry_cell_setting 'triclinic'
loop_
_space_group_symop_operation_xyz
x,y,z
-x,-y,-z
loop_
_atom_site_type_symbol
_atom_site_label
_atom_site_fract_x
_atom_site_fract_y
_atom_site_fract_z
Si Si1 0.822866 0.366415 0.090676
Si Si2 0.662826 0.689690 0.490144
Si Si3 0.939967 0.196942 0.572134
Si Si4 0.419735 0.938313 0.301583
Si Si5 0.256674 0.057037 0.029735
Si Si6 0.164851 0.887660 0.803228
Si Si7 0.098256 0.496658 0.409418
O O1 0.503537 0.244109 0.004367
O O2 0.848615 0.248299 0.140068
O O3 0.939155 0.460604 0.235459
O O4 0.000000 0.500000 0.000000
O O5 0.500000 0.500000 0.500000
O O6 0.420267 0.656989 0.444794
O O7 0.814567 0.768790 0.382120
O O8 0.905135 0.804243 0.647530
O O9 0.865270 0.205751 0.679574
O O10 0.013548 0.333414 0.461734
O O11 0.657462 0.022406 0.466518
O O12 0.386550 0.046976 0.200933
O O13 0.552353 0.950885 0.221169
O O14 0.167967 0.939063 0.924075
O O15 0.000000 0.000000 0.000000
O O16 0.000000 0.500000 0.500000
#
# Coordination Sequence:
#
# PCOD9108152 Si02
#       7
#     2   2   2   2   2   2   2
#     4  11  23  43  63  91 127 169 210 256 317 381
#     4   9  17  36  60  87 115 156 204 246 313 360
#     4   9  17  34  60  84 110 150 202 249 293 369
#     4   9  17  35  61  83 111 153 202 243 308 356
#     4  11  24  40  61  90 129 164 208 259 310 379
#     4  10  20  40  67  86 120 169 204 254 315 374
#     4  11  22  35  60  88 126 159 202 261 311 365
#
# _framework density 21.930755999999999
#
# number of rings (size 3 to 8) (size 9 to 14) (size 15 to 20)
#    0.000    2.000    5.714    1.714    2.000    3.429 
#    0.000    0.714    0.000    6.000    0.000    0.000 
#    0.000    0.000    0.000    0.000    0.000    0.000 
#
# Total GULP energy -77976.329844 kJ/mol
# GULP energy per Si atom -5569.737846 kJ/mol
# Density = 2.188084 g / cm^3
# Si number density = 21.930756 Si / 1000 Ang^3
#
#
#
# Elastic Constant Matrix: (Units=GPa)
#
#
# Indices 1 2 3 4 5 6 
#
# 1 98.4350 52.6461 45.0578 5.4679 -37.0223 44.6902
# 2 52.6461 121.8345 50.2020 -12.5640 -13.9774 45.5810
# 3 45.0578 50.2020 95.8306 -3.1656 -31.1242 11.9284
# 4 5.4679 -12.5640 -3.1656 38.8622 8.1109 0.2479
# 5 -37.0223 -13.9774 -31.1242 8.1109 34.8153 -10.5473
# 6 44.6902 45.5810 11.9284 0.2479 -10.5473 41.4232
#
#
#
# Elastic Compliance Matrix: (Units=1/GPa)
#
#
# Indices 1 2 3 4 5 6 
#
# 1 0.040125 -0.000743 -0.004674 -0.012540 0.031074 -0.033139
# 2 -0.000743 0.020896 -0.011156 0.008372 -0.010933 -0.021813
# 3 -0.004674 -0.011156 0.021428 -0.004498 0.015323 0.015077
# 4 -0.012540 0.008372 -0.004498 0.034448 -0.022086 -0.000218
# 5 0.031074 -0.010933 0.015323 -0.022086 0.074131 -0.006899
# 6 -0.033139 -0.021813 0.015077 -0.000218 -0.006899 0.077799
#
#
# Mechanical properties :
#
#
# Convention : Reuss Voigt Hill
#
# Bulk Modulus (GPa) = 20.28283 67.99020 44.13652
# Shear Modulus (GPa) = 15.70318 34.23309 24.96813
#
# Velocity S-wave (km/s) = 2.67878 3.95519 3.37782
# Velocity P-wave (km/s) = 4.34010 7.20608 5.94828
#
# Compressibility (1/GPa) = 0.04930278
#
# Stress axis : x y z
#
# Youngs Moduli (GPa) = 24.92228 47.85707 46.66705
#
# Poissons Ratio (x) = 0.03554 0.21812
# Poissons Ratio (y) = 0.01851 0.52063
# Poissons Ratio (z) = 0.11648 0.53391
#
# Static dielectric constant tensor:
#      x y z
#    x 1.924960 0.000640 0.002610 
#    y 0.000640 1.879100 0.010220 
#    z 0.002610 0.010220 1.832600 
# 
# From -- ./inp_files/215003.got.cif
#   From: 2010.05.17/outbox.cif.g08.bks.cpg/sg2_108_cif.got.tgz:215003.got - 2010.06.03 11:33:40.
