data_PCOD9108787
_publ_section_title
;
Structure prediction by ZEFSAII (Michael W. Deem and Ramdas Pophale) SiO2 
 PCOD9108787
Probable space group: P -1
;
_chemical_formula_sum "Si O2"
_cell_formula_units_Z 14
_cell_length_a 19.834407
_cell_length_b 9.029792
_cell_length_c 7.687833
_cell_angle_alpha 80.244299
_cell_angle_beta 135.060114
_cell_angle_gamma 133.285777
_cell_volume 558.643640
_symmetry_space_group_name_H-M "P -1"
_symmetry_group_IT_number 2
_symmetry_cell_setting 'triclinic'
loop_
_space_group_symop_operation_xyz
x,y,z
-x,-y,-z
loop_
_atom_site_type_symbol
_atom_site_label
_atom_site_fract_x
_atom_site_fract_y
_atom_site_fract_z
Si Si1 0.374306 0.421112 0.159536
Si Si2 0.815675 0.425947 0.109200
Si Si3 0.173850 0.800618 0.259294
Si Si4 0.641128 0.745825 0.328127
Si Si5 0.467738 0.949347 0.744505
Si Si6 0.130424 0.859054 0.806800
Si Si7 0.267811 0.444041 0.297395
O O1 0.500000 0.500000 0.500000
O O2 0.507532 0.660471 0.227498
O O3 0.284557 0.410302 0.134394
O O4 0.253389 0.145197 0.904440
O O5 0.833798 0.269088 0.146961
O O6 0.946271 0.646412 0.448176
O O7 0.850083 0.566880 0.967599
O O8 0.629724 0.200982 0.884355
O O9 0.312612 0.858607 0.451843
O O10 0.226369 0.951873 0.503840
O O11 0.158348 0.903230 0.056389
O O12 0.000000 0.500000 0.000000
O O13 0.740467 0.723858 0.579769
O O14 0.500000 0.500000 0.000000
O O15 0.413054 0.717591 0.610625
O O16 0.500000 0.000000 0.000000
#
# Coordination Sequence:
#
# PCOD9108787 Si02
#       7
#     2   2   2   2   2   2   2
#     4  10  20  40  71  97 136 180 228 283 346 416
#     4  11  24  40  72 104 135 184 233 291 346 419
#     4  12  25  45  72 100 142 186 232 293 356 424
#     4  11  24  43  70 103 143 187 228 287 364 421
#     4  12  25  43  69 103 142 183 233 288 353 421
#     4  11  23  44  70 102 138 180 236 283 351 422
#     4  11  22  40  68  98 132 178 235 281 341 416
#
# _framework density 25.060701000000002
#
# number of rings (size 3 to 8) (size 9 to 14) (size 15 to 20)
#    0.000    0.857    4.286    4.714    2.000    2.857 
#    0.000    0.714    0.000    0.000    0.000    0.000 
#    0.000    0.000    0.000    0.000    0.000    0.000 
#
# Total GULP energy -77961.677110 kJ/mol
# GULP energy per Si atom -5568.691222 kJ/mol
# Density = 2.500366 g / cm^3
# Si number density = 25.060701 Si / 1000 Ang^3
#
#
#
# Elastic Constant Matrix: (Units=GPa)
#
#
# Indices 1 2 3 4 5 6 
#
# 1 57.2095 11.5675 35.9927 16.1869 -7.1261 -28.3996
# 2 11.5675 100.9861 40.8327 25.1282 9.4854 -32.6056
# 3 35.9927 40.8327 155.5210 23.1522 -2.9974 -20.2810
# 4 16.1869 25.1282 23.1522 51.6994 -3.7405 -12.4658
# 5 -7.1261 9.4854 -2.9974 -3.7405 45.2553 10.4063
# 6 -28.3996 -32.6056 -20.2810 -12.4658 10.4063 37.0367
#
#
#
# Elastic Compliance Matrix: (Units=1/GPa)
#
#
# Indices 1 2 3 4 5 6 
#
# 1 0.037724 0.011766 -0.006360 -0.006611 -0.005575 0.035143
# 2 0.011766 0.020991 -0.004093 -0.006536 -0.009259 0.025663
# 3 -0.006360 -0.004093 0.008543 -0.000822 0.001382 -0.004467
# 4 -0.006611 -0.006536 -0.000822 0.024219 0.003201 -0.004021
# 5 -0.005575 -0.009259 0.001382 0.003201 0.027744 -0.018388
# 6 0.035143 0.025663 -0.004467 -0.004021 -0.018388 0.077907
#
#
# Mechanical properties :
#
#
# Convention : Reuss Voigt Hill
#
# Bulk Modulus (GPa) = 14.30954 54.50029 34.40491
# Shear Modulus (GPa) = 22.95706 41.81986 32.38846
#
# Velocity S-wave (km/s) = 3.02993 4.08946 3.59890
# Velocity P-wave (km/s) = 4.23827 6.64024 5.57026
#
# Compressibility (1/GPa) = 0.06988346
#
# Stress axis : x y z
#
# Youngs Moduli (GPa) = 26.50850 47.63852 117.05328
#
# Poissons Ratio (x) = -0.56052 0.74447
# Poissons Ratio (y) = -0.31190 0.47914
# Poissons Ratio (z) = 0.16860 0.19500
#
# Static dielectric constant tensor:
#      x y z
#    x 0.705560 -0.173630 0.118600 
#    y -0.173630 2.038260 -0.008380 
#    z 0.118600 -0.008380 1.940330 
# 
# From -- ./inp_files/343589.got.cif
#   From: 2010.05.17/outbox.cif.g08.bks.cpg/sg2_172_cif.got.tgz:343589.got - 2010.06.03 11:33:40.
