data_PCOD9108595
_publ_section_title
;
Structure prediction by ZEFSAII (Michael W. Deem and Ramdas Pophale) SiO2 
 PCOD9108595
Probable space group: P -1
;
_chemical_formula_sum "Si O2"
_cell_formula_units_Z 16
_cell_length_a 7.333826
_cell_length_b 7.051882
_cell_length_c 16.885327
_cell_angle_alpha 132.584043
_cell_angle_beta 90.389459
_cell_angle_gamma 80.231861
_cell_volume 626.590431
_symmetry_space_group_name_H-M "P -1"
_symmetry_group_IT_number 2
_symmetry_cell_setting 'triclinic'
loop_
_space_group_symop_operation_xyz
x,y,z
-x,-y,-z
loop_
_atom_site_type_symbol
_atom_site_label
_atom_site_fract_x
_atom_site_fract_y
_atom_site_fract_z
Si Si1 0.686038 0.121634 0.031313
Si Si2 0.125858 0.443216 0.170336
Si Si3 0.881449 0.706418 0.695352
Si Si4 0.827760 0.576190 0.085549
Si Si5 0.337641 0.866673 0.277247
Si Si6 0.590247 0.724849 0.379177
Si Si7 0.274498 0.830804 0.773424
Si Si8 0.928406 0.795343 0.494810
O O1 0.711216 0.348875 0.033584
O O2 0.724907 0.214839 0.145320
O O3 0.500000 0.000000 0.000000
O O4 0.842024 0.858129 0.940359
O O5 0.143831 0.428519 0.259806
O O6 0.279951 0.593710 0.181612
O O7 0.933616 0.591995 0.173423
O O8 0.067371 0.829900 0.737062
O O9 0.911466 0.466780 0.563951
O O10 0.703411 0.940078 0.742154
O O11 0.705532 0.868587 0.151205
O O12 0.000000 0.500000 0.000000
O O13 0.525729 0.791028 0.307656
O O14 0.184630 0.040656 0.387468
O O15 0.567298 0.432864 0.324994
O O16 0.798183 0.691142 0.401480
O O17 0.500000 0.000000 0.500000
O O18 0.000000 0.000000 0.500000
#
# Coordination Sequence:
#
# PCOD9108595 Si02
#       8
#     2   2   2   2   2   2   2   2
#     4  12  27  44  68 104 152 185 231 302 367 425
#     4  12  23  41  70 100 138 181 240 292 346 431
#     4  11  22  39  71 101 130 185 238 294 349 426
#     4  12  24  45  76 106 137 192 250 293 352 434
#     4  11  22  41  67  98 136 179 231 293 361 418
#     4   9  22  43  69  97 142 180 228 297 355 420
#     4  11  22  44  71 101 139 188 237 292 360 425
#     4  10  20  40  69  96 134 180 234 292 350 424
#
# _framework density 25.535019999999999
#
# number of rings (size 3 to 8) (size 9 to 14) (size 15 to 20)
#    0.000    1.000    5.000    2.250    0.000    0.500 
#    0.000    4.375    2.750    0.000    0.000    0.000 
#    0.000    0.000    0.000    0.000    0.000    0.000 
#
# Total GULP energy -89316.222771 kJ/mol
# GULP energy per Si atom -5582.263923 kJ/mol
# Density = 2.547690 g / cm^3
# Si number density = 25.535020 Si / 1000 Ang^3
#
#
#
# Elastic Constant Matrix: (Units=GPa)
#
#
# Indices 1 2 3 4 5 6 
#
# 1 76.2218 34.9371 25.7704 16.0949 1.8561 6.9828
# 2 34.9371 176.0230 53.6482 45.2005 -11.1914 2.3727
# 3 25.7704 53.6482 103.4806 40.6461 -7.6816 -2.8011
# 4 16.0949 45.2005 40.6461 55.7212 -6.6948 1.5742
# 5 1.8561 -11.1914 -7.6816 -6.6948 38.2843 10.3695
# 6 6.9828 2.3727 -2.8011 1.5742 10.3695 40.9642
#
#
#
# Elastic Compliance Matrix: (Units=1/GPa)
#
#
# Indices 1 2 3 4 5 6 
#
# 1 0.015385 -0.002083 -0.002516 -0.001026 -0.001423 -0.002274
# 2 -0.002083 0.007826 -0.001765 -0.004280 0.001397 -0.000408
# 3 -0.002516 -0.001765 0.014630 -0.008491 0.000594 0.001707
# 4 -0.001026 -0.004280 -0.008491 0.028268 0.002550 -0.001890
# 5 -0.001423 0.001397 0.000594 0.002550 0.029132 -0.007270
# 6 -0.002274 -0.000408 0.001707 -0.001890 -0.007270 0.026852
#
#
# Mechanical properties :
#
#
# Convention : Reuss Voigt Hill
#
# Bulk Modulus (GPa) = 39.81893 64.93744 52.37818
# Shear Modulus (GPa) = 34.91826 43.08526 39.00176
#
# Velocity S-wave (km/s) = 3.70194 4.11213 3.91241
# Velocity P-wave (km/s) = 5.82238 6.93052 6.40048
#
# Compressibility (1/GPa) = 0.02511369
#
# Stress axis : x y z
#
# Youngs Moduli (GPa) = 65.00015 127.78434 68.35045
#
# Poissons Ratio (x) = 0.26621 0.17194
# Poissons Ratio (y) = 0.13542 0.12061
# Poissons Ratio (z) = 0.16352 0.22549
#
# Static dielectric constant tensor:
#      x y z
#    x 1.662050 -0.136200 -0.540640 
#    y -0.136200 2.095690 -0.033760 
#    z -0.540640 -0.033760 1.662100 
# 
# From -- ./inp_files/553944.got.cif
#   From: 2010.05.17/outbox.cif.g08.bks.cpg/sg2_277_cif.got.tgz:553944.got - 2010.06.03 11:33:40.
