data_PCOD9108167
_publ_section_title
;
Structure prediction by ZEFSAII (Michael W. Deem and Ramdas Pophale) SiO2 
 PCOD9108167
Probable space group: P -1
;
_chemical_formula_sum "Si O2"
_cell_formula_units_Z 16
_cell_length_a 16.086007
_cell_length_b 9.230789
_cell_length_c 12.348575
_cell_angle_alpha 78.810262
_cell_angle_beta 68.805538
_cell_angle_gamma 29.053197
_cell_volume 799.506728
_symmetry_space_group_name_H-M "P -1"
_symmetry_group_IT_number 2
_symmetry_cell_setting 'triclinic'
loop_
_space_group_symop_operation_xyz
x,y,z
-x,-y,-z
loop_
_atom_site_type_symbol
_atom_site_label
_atom_site_fract_x
_atom_site_fract_y
_atom_site_fract_z
Si Si1 0.150255 0.192678 0.539033
Si Si2 0.442937 0.619208 0.835369
Si Si3 0.295235 0.358232 0.016223
Si Si4 0.462341 0.214638 0.537980
Si Si5 0.090992 0.163821 0.809694
Si Si6 0.748083 0.287164 0.897408
Si Si7 0.822932 0.315481 0.198239
Si Si8 0.615959 0.375465 0.571426
O O1 0.098785 0.229102 0.680626
O O2 0.000000 0.500000 0.500000
O O3 0.340573 0.010883 0.477368
O O4 0.186296 0.984732 0.491836
O O5 0.621431 0.435331 0.832725
O O6 0.524786 0.437185 0.711075
O O7 0.261731 0.975231 0.829983
O O8 0.357629 0.634823 0.962778
O O9 0.259281 0.529801 0.101978
O O10 0.113391 0.518371 0.088791
O O11 0.268888 0.477829 0.895538
O O12 0.500000 0.000000 0.000000
O O13 0.308415 0.455680 0.670867
O O14 0.397083 0.429579 0.447172
O O15 0.500000 0.000000 0.500000
O O16 0.140830 0.914110 0.807458
O O17 0.966893 0.926726 0.846362
O O18 0.500000 0.500000 0.500000
#
# Coordination Sequence:
#
# PCOD9108167 Si02
#       8
#     2   2   2   2   2   2   2   2
#     4  11  24  41  66  98 123 171 225 267 319 392
#     4  11  19  39  69  91 122 164 226 261 318 387
#     4  11  24  38  62  97 127 169 212 269 320 378
#     4  11  24  41  64  93 131 168 211 270 332 377
#     4  11  19  43  70  88 124 175 220 261 315 400
#     4  10  23  38  66  96 123 167 216 269 322 381
#     4  11  21  43  65  91 130 171 218 259 328 392
#     4  10  20  40  67  89 124 177 215 261 323 387
#
# _framework density 20.012338
#
# number of rings (size 3 to 8) (size 9 to 14) (size 15 to 20)
#    0.000    1.250    6.250    1.500    1.750    2.000 
#    2.250    3.125    0.000    0.000    0.000    0.000 
#    0.000    0.000    0.000    0.000    0.000    0.000 
#
# Total GULP energy -89160.798805 kJ/mol
# GULP energy per Si atom -5572.549925 kJ/mol
# Density = 1.996679 g / cm^3
# Si number density = 20.012338 Si / 1000 Ang^3
#
#
#
# Elastic Constant Matrix: (Units=GPa)
#
#
# Indices 1 2 3 4 5 6 
#
# 1 63.8171 45.1296 20.9858 -0.9033 0.7765 -9.9050
# 2 45.1296 180.1424 50.9910 -5.3614 -1.4380 -17.1386
# 3 20.9858 50.9910 111.4144 2.1513 -0.7384 -18.7018
# 4 -0.9033 -5.3614 2.1513 30.2538 -3.4305 4.4482
# 5 0.7765 -1.4380 -0.7384 -3.4305 19.4888 0.4520
# 6 -9.9050 -17.1386 -18.7018 4.4482 0.4520 37.7841
#
#
#
# Elastic Compliance Matrix: (Units=1/GPa)
#
#
# Indices 1 2 3 4 5 6 
#
# 1 0.019556 -0.004321 -0.001261 -0.000629 -0.001317 0.002632
# 2 -0.004321 0.007463 -0.002478 0.001339 0.000845 0.000858
# 3 -0.001261 -0.002478 0.011099 -0.001910 -0.000147 0.004266
# 4 -0.000629 0.001339 -0.001910 0.034808 0.006287 -0.004676
# 5 -0.001317 0.000845 -0.000147 0.006287 0.052560 -0.001404
# 6 0.002632 0.000858 0.004266 -0.004676 -0.001404 0.030224
#
#
# Mechanical properties :
#
#
# Convention : Reuss Voigt Hill
#
# Bulk Modulus (GPa) = 45.45731 65.50961 55.48346
# Shear Modulus (GPa) = 27.90752 33.38983 30.64867
#
# Velocity S-wave (km/s) = 3.73837 4.08911 3.91767
# Velocity P-wave (km/s) = 6.43412 7.42295 6.94615
#
# Compressibility (1/GPa) = 0.02199866
#
# Stress axis : x y z
#
# Youngs Moduli (GPa) = 51.13579 133.98723 90.09808
#
# Poissons Ratio (x) = 0.57897 0.11358
# Poissons Ratio (y) = 0.22096 0.22327
# Poissons Ratio (z) = 0.06446 0.33203
#
# Static dielectric constant tensor:
#      x y z
#    x 1.779480 -0.006940 -0.028070 
#    y -0.006940 1.659640 0.024990 
#    z -0.028070 0.024990 1.734350 
# 
# From -- ./inp_files/447352.got.cif
#   From: 2010.05.17/outbox.cif.g08.bks.cpg/sg2_224_cif.got.tgz:447352.got - 2010.06.03 11:33:40.
