data_PCOD9108318
_publ_section_title
;
Structure prediction by ZEFSAII (Michael W. Deem and Ramdas Pophale) SiO2 
 PCOD9108318
Probable space group: P -1
;
_chemical_formula_sum "Si O2"
_cell_formula_units_Z 16
_cell_length_a 8.497696
_cell_length_b 12.561091
_cell_length_c 14.681936
_cell_angle_alpha 68.176294
_cell_angle_beta 118.472067
_cell_angle_gamma 60.689883
_cell_volume 737.339611
_symmetry_space_group_name_H-M "P -1"
_symmetry_group_IT_number 2
_symmetry_cell_setting 'triclinic'
loop_
_space_group_symop_operation_xyz
x,y,z
-x,-y,-z
loop_
_atom_site_type_symbol
_atom_site_label
_atom_site_fract_x
_atom_site_fract_y
_atom_site_fract_z
Si Si1 0.920758 0.339196 0.031568
Si Si2 0.191615 0.086778 0.365506
Si Si3 0.014018 0.809117 0.522709
Si Si4 0.162096 0.639111 0.323037
Si Si5 0.582312 0.736143 0.805778
Si Si6 0.916316 0.911083 0.999352
Si Si7 0.187479 0.281825 0.629960
Si Si8 0.480821 0.306558 0.393482
O O1 0.025234 0.223801 0.188693
O O2 0.193617 0.282634 0.089500
O O3 0.888497 0.262086 0.967981
O O4 0.655345 0.570128 0.910512
O O5 0.992107 0.192190 0.369587
O O6 0.500000 0.000000 0.500000
O O7 0.297609 0.901508 0.432234
O O8 0.325012 0.689645 0.597742
O O9 0.889328 0.754337 0.468120
O O10 0.764389 0.037851 0.354199
O O11 0.500000 0.500000 0.500000
O O12 0.228262 0.488772 0.332484
O O13 0.949857 0.719852 0.323844
O O14 0.001980 0.809214 0.153038
O O15 0.650315 0.691811 0.730311
O O16 0.555110 0.097713 0.808806
O O17 0.000000 0.000000 0.000000
O O18 0.000000 0.500000 0.500000
#
# Coordination Sequence:
#
# PCOD9108318 Si02
#       8
#     2   2   2   2   2   2   2   2
#     4  11  22  39  69 100 137 175 229 285 354 413
#     4  11  21  38  66 101 130 177 225 280 346 416
#     4  11  23  44  67  99 146 176 237 283 354 427
#     4  12  26  47  74 100 139 194 246 290 364 419
#     4  10  20  40  67  99 134 180 216 292 350 411
#     4  12  27  48  70 104 148 189 243 299 353 432
#     4  12  27  46  73 106 142 191 242 300 356 427
#     4  11  23  42  69  98 138 186 229 290 353 423
#
# _framework density 21.699632999999999
#
# number of rings (size 3 to 8) (size 9 to 14) (size 15 to 20)
#    0.000    0.750    6.250    2.625    5.250    0.000 
#    0.000    2.500    0.000    0.000    0.000    0.000 
#    0.000    0.000    0.000    0.000    0.000    0.000 
#
# Total GULP energy -89421.740688 kJ/mol
# GULP energy per Si atom -5588.858793 kJ/mol
# Density = 2.165024 g / cm^3
# Si number density = 21.699633 Si / 1000 Ang^3
#
#
#
# Elastic Constant Matrix: (Units=GPa)
#
#
# Indices 1 2 3 4 5 6 
#
# 1 83.7416 26.2280 43.1218 -1.9146 -12.7666 15.3216
# 2 26.2280 102.9426 33.7052 -12.9160 -12.0892 24.6456
# 3 43.1218 33.7052 127.8058 -14.1841 -39.6244 13.6443
# 4 -1.9146 -12.9160 -14.1841 23.7805 9.2624 1.0299
# 5 -12.7666 -12.0892 -39.6244 9.2624 51.3187 -3.2771
# 6 15.3216 24.6456 13.6443 1.0299 -3.2771 35.1553
#
#
#
# Elastic Compliance Matrix: (Units=1/GPa)
#
#
# Indices 1 2 3 4 5 6 
#
# 1 0.015509 -0.001880 -0.004599 -0.002386 0.000066 -0.003580
# 2 -0.001880 0.013448 -0.001289 0.006762 -0.000046 -0.008310
# 3 -0.004599 -0.001289 0.012600 0.003565 0.007549 -0.001383
# 4 -0.002386 0.006762 0.003565 0.050210 -0.005764 -0.007092
# 5 0.000066 -0.000046 0.007549 -0.005764 0.026342 -0.000302
# 6 -0.003580 -0.008310 -0.001383 -0.007092 -0.000302 0.036548
#
#
# Mechanical properties :
#
#
# Convention : Reuss Voigt Hill
#
# Bulk Modulus (GPa) = 38.43090 57.84445 48.13768
# Shear Modulus (GPa) = 27.95403 36.14658 32.05031
#
# Velocity S-wave (km/s) = 3.59308 4.08581 3.84734
# Velocity P-wave (km/s) = 5.91291 6.99809 6.47826
#
# Compressibility (1/GPa) = 0.02602073
#
# Stress axis : x y z
#
# Youngs Moduli (GPa) = 64.47793 74.36235 79.36693
#
# Poissons Ratio (x) = 0.13981 0.36501
# Poissons Ratio (y) = 0.12123 0.10228
# Poissons Ratio (z) = 0.29654 0.09583
#
# Static dielectric constant tensor:
#      x y z
#    x 1.784310 0.023200 0.018230 
#    y 0.023200 1.791170 0.005690 
#    z 0.018230 0.005690 1.873940 
# 
# From -- ./inp_files/500305.got.cif
#   From: 2010.05.17/outbox.cif.g08.bks.cpg/sg2_251_cif.got.tgz:500305.got - 2010.06.03 11:33:40.
