data_PCOD9108426
_publ_section_title
;
Structure prediction by ZEFSAII (Michael W. Deem and Ramdas Pophale) SiO2 
 PCOD9108426
Probable space group: P -1
;
_chemical_formula_sum "Si O2"
_cell_formula_units_Z 16
_cell_length_a 16.898021
_cell_length_b 10.968981
_cell_length_c 16.999940
_cell_angle_alpha 31.930263
_cell_angle_beta 30.008597
_cell_angle_gamma 34.129847
_cell_volume 780.451197
_symmetry_space_group_name_H-M "P -1"
_symmetry_group_IT_number 2
_symmetry_cell_setting 'triclinic'
loop_
_space_group_symop_operation_xyz
x,y,z
-x,-y,-z
loop_
_atom_site_type_symbol
_atom_site_label
_atom_site_fract_x
_atom_site_fract_y
_atom_site_fract_z
Si Si1 0.673311 0.809142 0.494127
Si Si2 0.039983 0.243402 0.851398
Si Si3 0.573243 0.036794 0.998949
Si Si4 0.202036 0.740906 0.262075
Si Si5 0.517067 0.220966 0.644263
Si Si6 0.807870 0.831655 0.536321
Si Si7 0.701217 0.512413 0.922508
Si Si8 0.714628 0.029159 0.095024
O O1 0.814729 0.755718 0.334040
O O2 0.683978 0.536324 0.660262
O O3 0.743415 0.894238 0.467508
O O4 0.500000 0.000000 0.500000
O O5 0.865789 0.457112 0.866057
O O6 0.120513 0.190979 0.896592
O O7 0.000000 0.000000 0.000000
O O8 0.448415 0.278687 0.019716
O O9 0.566421 0.819838 0.180358
O O10 0.750717 0.079816 0.815535
O O11 0.500000 0.000000 0.000000
O O12 0.009101 0.755440 0.412228
O O13 0.248110 0.848778 0.082615
O O14 0.500000 0.500000 0.500000
O O15 0.712782 0.058610 0.551151
O O16 0.425123 0.095295 0.729903
O O17 0.748249 0.617590 0.742507
O O18 0.668451 0.259444 0.069510
#
# Coordination Sequence:
#
# PCOD9108426 Si02
#       8
#     2   2   2   2   2   2   2   2
#     4  12  24  36  63 104 137 166 205 274 327 382
#     4  10  21  36  57 100 134 157 213 262 328 376
#     4  10  25  44  65  91 129 175 222 265 327 389
#     4  11  23  42  67  97 132 171 218 266 332 391
#     4  10  24  45  64  88 129 176 219 264 327 392
#     4  11  21  41  67  96 130 171 216 265 332 390
#     4  10  20  40  68  95 130 172 210 271 325 393
#     4  10  21  41  66  96 128 170 213 266 328 393
#
# _framework density 20.500959999999999
#
# number of rings (size 3 to 8) (size 9 to 14) (size 15 to 20)
#    0.000    1.500    2.500    2.625    5.250    3.500 
#    4.500    2.500    0.000    0.000    0.000    0.000 
#    0.000    0.000    0.000    0.000    0.000    0.000 
#
# Total GULP energy -89197.619305 kJ/mol
# GULP energy per Si atom -5574.851207 kJ/mol
# Density = 2.045430 g / cm^3
# Si number density = 20.500960 Si / 1000 Ang^3
#
#
#
# Elastic Constant Matrix: (Units=GPa)
#
#
# Indices 1 2 3 4 5 6 
#
# 1 125.2279 30.3291 44.6070 -6.4474 -6.8446 -21.9917
# 2 30.3291 67.8800 53.2770 -11.7934 -9.4792 -24.4051
# 3 44.6070 53.2770 113.2151 -16.0669 -11.9617 -8.1045
# 4 -6.4474 -11.7934 -16.0669 30.9265 -6.5677 -3.0456
# 5 -6.8446 -9.4792 -11.9617 -6.5677 28.6908 -7.5987
# 6 -21.9917 -24.4051 -8.1045 -3.0456 -7.5987 37.8586
#
#
#
# Elastic Compliance Matrix: (Units=1/GPa)
#
#
# Indices 1 2 3 4 5 6 
#
# 1 0.010553 0.002098 -0.003741 0.002743 0.004338 0.007774
# 2 0.002098 0.040647 -0.013422 0.016137 0.019933 0.029847
# 3 -0.003741 -0.013422 0.016389 0.001923 0.000052 -0.007152
# 4 0.002743 0.016137 0.001923 0.047007 0.023062 0.020818
# 5 0.004338 0.019933 0.000052 0.023062 0.055279 0.028331
# 6 0.007774 0.029847 -0.007152 0.020818 0.028331 0.056000
#
#
# Mechanical properties :
#
#
# Convention : Reuss Voigt Hill
#
# Bulk Modulus (GPa) = 26.69495 62.52771 44.61133
# Shear Modulus (GPa) = 18.62244 31.36917 24.99580
#
# Velocity S-wave (km/s) = 3.01719 3.91593 3.49556
# Velocity P-wave (km/s) = 5.01871 7.14228 6.17250
#
# Compressibility (1/GPa) = 0.03746027
#
# Stress axis : x y z
#
# Youngs Moduli (GPa) = 94.75601 24.60201 61.01493
#
# Poissons Ratio (x) = -0.05163 0.22829
# Poissons Ratio (y) = -0.19885 0.81893
# Poissons Ratio (z) = 0.35453 0.33020
#
# Static dielectric constant tensor:
#      x y z
#    x 1.844380 -0.082150 0.021420 
#    y -0.082150 1.808760 -0.015700 
#    z 0.021420 -0.015700 1.788500 
# 
# From -- ./inp_files/575912.got.cif
#   From: 2010.05.17/outbox.cif.g08.bks.cpg/sg2_288_cif.got.tgz:575912.got - 2010.06.03 11:33:40.
