data_PCOD9108390
_publ_section_title
;
Structure prediction by ZEFSAII (Michael W. Deem and Ramdas Pophale) SiO2 
 PCOD9108390
Probable space group: P -1
;
_chemical_formula_sum "Si O2"
_cell_formula_units_Z 16
_cell_length_a 19.758322
_cell_length_b 8.118212
_cell_length_c 11.696302
_cell_angle_alpha 39.016618
_cell_angle_beta 35.087379
_cell_angle_gamma 56.585713
_cell_volume 659.893914
_symmetry_space_group_name_H-M "P -1"
_symmetry_group_IT_number 2
_symmetry_cell_setting 'triclinic'
loop_
_space_group_symop_operation_xyz
x,y,z
-x,-y,-z
loop_
_atom_site_type_symbol
_atom_site_label
_atom_site_fract_x
_atom_site_fract_y
_atom_site_fract_z
Si Si1 0.429618 0.122473 0.314815
Si Si2 0.206341 0.312249 0.414106
Si Si3 0.603891 0.499151 0.265942
Si Si4 0.948405 0.255003 0.043483
Si Si5 0.455758 0.571795 0.213996
Si Si6 0.164610 0.137352 0.307949
Si Si7 0.968201 0.391963 0.474151
Si Si8 0.813960 0.432326 0.344181
O O1 0.318689 0.241491 0.358560
O O2 0.475521 0.311784 0.257202
O O3 0.390617 0.814522 0.573305
O O4 0.518160 0.188075 0.046305
O O5 0.209807 0.282152 0.289350
O O6 0.170412 0.584896 0.355112
O O7 0.097446 0.061807 0.734322
O O8 0.500000 0.500000 0.500000
O O9 0.549260 0.607223 0.169476
O O10 0.736131 0.688132 0.007661
O O11 0.855878 0.358882 0.200187
O O12 0.955755 0.407423 0.832306
O O13 0.080220 0.330820 0.879738
O O14 0.320256 0.527354 0.475573
O O15 0.021417 0.134782 0.513170
O O16 0.176968 0.835018 0.454927
O O17 0.000000 0.500000 0.500000
#
# Coordination Sequence:
#
# PCOD9108390 Si02
#       8
#     2   2   2   2   2   2   2   2
#     4  11  24  45  71  98 136 176 221 282 330 393
#     4  10  20  40  68  92 128 172 220 274 326 393
#     4  12  26  41  71 102 132 178 225 272 334 402
#     4  10  21  39  64  91 127 170 227 264 329 398
#     4  11  25  45  68  99 137 175 223 276 336 392
#     4  10  22  39  61  97 135 166 224 274 326 392
#     4  10  21  36  60  92 126 165 213 272 326 387
#     4  10  23  41  64  92 132 176 213 279 333 385
#
# _framework density 24.246321999999999
#
# number of rings (size 3 to 8) (size 9 to 14) (size 15 to 20)
#    0.000    1.500    1.250    3.000    5.250    2.500 
#    0.000    1.250    2.750    0.000    0.000    0.000 
#    0.000    0.000    0.000    0.000    0.000    0.000 
#
# Total GULP energy -89405.983252 kJ/mol
# GULP energy per Si atom -5587.873953 kJ/mol
# Density = 2.419114 g / cm^3
# Si number density = 24.246322 Si / 1000 Ang^3
#
#
#
# Elastic Constant Matrix: (Units=GPa)
#
#
# Indices 1 2 3 4 5 6 
#
# 1 44.0056 21.7976 -1.7218 23.3863 3.7502 0.6766
# 2 21.7976 73.7420 9.9098 17.6329 -13.3817 -9.4413
# 3 -1.7218 9.9098 91.8998 18.0217 -5.7205 -5.4879
# 4 23.3863 17.6329 18.0217 41.6982 -2.6560 -5.5117
# 5 3.7502 -13.3817 -5.7205 -2.6560 40.0192 9.9852
# 6 0.6766 -9.4413 -5.4879 -5.5117 9.9852 33.1239
#
#
#
# Elastic Compliance Matrix: (Units=1/GPa)
#
#
# Indices 1 2 3 4 5 6 
#
# 1 0.039391 -0.008869 0.005286 -0.021576 -0.006298 -0.004148
# 2 -0.008869 0.018142 -0.001307 -0.001344 0.005835 0.003153
# 3 0.005286 -0.001307 0.012693 -0.007848 0.000305 0.000224
# 4 -0.021576 -0.001344 -0.007848 0.040822 0.001920 0.004971
# 5 -0.006298 0.005835 0.000305 0.001920 0.029370 -0.006692
# 6 -0.004148 0.003153 0.000224 0.004971 -0.006692 0.034055
#
#
# Mechanical properties :
#
#
# Convention : Reuss Voigt Hill
#
# Bulk Modulus (GPa) = 16.54404 29.95760 23.25082
# Shear Modulus (GPa) = 24.46153 34.94574 29.70363
#
# Velocity S-wave (km/s) = 3.17973 3.80054 3.50391
# Velocity P-wave (km/s) = 4.50766 5.62504 5.09707
#
# Compressibility (1/GPa) = 0.06044472
#
# Stress axis : x y z
#
# Youngs Moduli (GPa) = 25.38641 55.12087 78.78437
#
# Poissons Ratio (x) = 0.48886 -0.41643
# Poissons Ratio (y) = 0.22515 0.10300
# Poissons Ratio (z) = -0.13418 0.07206
#
# Static dielectric constant tensor:
#      x y z
#    x 2.049280 -0.030510 -0.004130 
#    y -0.030510 1.953890 0.024140 
#    z -0.004130 0.024140 1.974780 
# 
# From -- ./inp_files/469751.got.cif
#   From: 2010.05.17/outbox.cif.g08.bks.cpg/sg2_235_cif.got.tgz:469751.got - 2010.06.03 11:33:40.
