data_PCOD9108349
_publ_section_title
;
Structure prediction by ZEFSAII (Michael W. Deem and Ramdas Pophale) SiO2 
 PCOD9108349
Probable space group: P -1
;
_chemical_formula_sum "Si O2"
_cell_formula_units_Z 12
_cell_length_a 15.082394
_cell_length_b 7.105260
_cell_length_c 6.786262
_cell_angle_alpha 86.875236
_cell_angle_beta 45.130150
_cell_angle_gamma 96.730102
_cell_volume 502.037519
_symmetry_space_group_name_H-M "P -1"
_symmetry_group_IT_number 2
_symmetry_cell_setting 'triclinic'
loop_
_space_group_symop_operation_xyz
x,y,z
-x,-y,-z
loop_
_atom_site_type_symbol
_atom_site_label
_atom_site_fract_x
_atom_site_fract_y
_atom_site_fract_z
Si Si1 0.551644 0.235703 0.931684
Si Si2 0.907767 0.631045 0.723620
Si Si3 0.221571 0.653206 0.736690
Si Si4 0.363403 0.922556 0.817830
Si Si5 0.286696 0.209625 0.217977
Si Si6 0.072142 0.890903 0.740848
O O1 0.655307 0.326555 0.599457
O O2 0.618327 0.237159 0.039193
O O3 0.419260 0.306080 0.109853
O O4 0.500000 0.000000 0.000000
O O5 0.812287 0.664779 0.699614
O O6 0.000000 0.500000 0.500000
O O7 0.995481 0.826771 0.663961
O O8 0.824129 0.534935 0.048099
O O9 0.261373 0.824041 0.824213
O O10 0.105773 0.699425 0.789677
O O11 0.500000 0.000000 0.500000
O O12 0.323701 0.103453 0.971819
O O13 0.207515 0.035283 0.480992
O O14 0.000000 0.000000 0.000000
#
# Coordination Sequence:
#
# PCOD9108349 Si02
#       6
#     2   2   2   2   2   2
#     4  10  20  40  68 103 134 179 237 289 350 417
#     4  12  28  45  68 106 149 186 231 295 358 407
#     4  12  23  42  71 100 145 177 229 300 357 402
#     4  11  19  40  72 102 136 184 231 286 350 425
#     4  11  22  44  70 100 140 181 246 282 343 434
#     4  12  24  46  73  98 137 196 246 279 337 430
#
# _framework density 23.902593
#
# number of rings (size 3 to 8) (size 9 to 14) (size 15 to 20)
#    0.000    0.667    6.667    4.000    0.000    0.667 
#    0.000    0.833    0.000    0.000    0.000    0.000 
#    0.000    0.000    0.000    0.000    0.000    0.000 
#
# Total GULP energy -67188.516451 kJ/mol
# GULP energy per Si atom -5599.043038 kJ/mol
# Density = 2.384819 g / cm^3
# Si number density = 23.902593 Si / 1000 Ang^3
#
#
#
# Elastic Constant Matrix: (Units=GPa)
#
#
# Indices 1 2 3 4 5 6 
#
# 1 94.0699 49.8202 15.6078 -8.5876 -6.4587 -17.9870
# 2 49.8202 63.3976 25.3924 11.8802 -5.9852 -9.2485
# 3 15.6078 25.3924 124.6639 0.1334 -10.9909 0.8137
# 4 -8.5876 11.8802 0.1334 48.5658 -7.6073 1.2210
# 5 -6.4587 -5.9852 -10.9909 -7.6073 36.8869 -3.7383
# 6 -17.9870 -9.2485 0.8137 1.2210 -3.7383 53.5955
#
#
#
# Elastic Compliance Matrix: (Units=1/GPa)
#
#
# Indices 1 2 3 4 5 6 
#
# 1 0.022163 -0.018659 0.001298 0.008923 0.003510 0.004240
# 2 -0.018659 0.034439 -0.004805 -0.011957 -0.001585 -0.000084
# 3 0.001298 -0.004805 0.009056 0.001777 0.002472 -0.000399
# 4 0.008923 -0.011957 0.001777 0.025944 0.005573 0.000702
# 5 0.003510 -0.001585 0.002472 0.005573 0.029638 0.002807
# 6 0.004240 -0.000084 -0.000399 0.000702 0.002807 0.020253
#
#
# Mechanical properties :
#
#
# Convention : Reuss Voigt Hill
#
# Bulk Modulus (GPa) = 46.88854 51.53023 49.20939
# Shear Modulus (GPa) = 25.91562 40.56371 33.23966
#
# Velocity S-wave (km/s) = 3.29632 4.12399 3.73316
# Velocity P-wave (km/s) = 5.84352 6.65444 6.26212
#
# Compressibility (1/GPa) = 0.02132717
#
# Stress axis : x y z
#
# Youngs Moduli (GPa) = 45.12007 29.03656 110.41806
#
# Poissons Ratio (x) = 0.54178 -0.14331
# Poissons Ratio (y) = 0.84188 0.53058
# Poissons Ratio (z) = -0.05856 0.13953
#
# Static dielectric constant tensor:
#      x y z
#    x 1.727700 0.163870 0.157020 
#    y 0.163870 1.772170 -0.172290 
#    z 0.157020 -0.172290 1.733590 
# 
# From -- ./inp_files/86298.got.cif
#   From: 2010.05.17/outbox.cif.g08.bks.cpg/sg2_44_cif.got.tgz:86298.got - 2010.06.03 11:33:40.
