data_PCOD9108141
_publ_section_title
;
Structure prediction by ZEFSAII (Michael W. Deem and Ramdas Pophale) SiO2 
 PCOD9108141
Probable space group: P -1
;
_chemical_formula_sum "Si O2"
_cell_formula_units_Z 14
_cell_length_a 13.205707
_cell_length_b 11.231592
_cell_length_c 10.510510
_cell_angle_alpha 125.758892
_cell_angle_beta 134.102503
_cell_angle_gamma 31.892038
_cell_volume 591.347219
_symmetry_space_group_name_H-M "P -1"
_symmetry_group_IT_number 2
_symmetry_cell_setting 'triclinic'
loop_
_space_group_symop_operation_xyz
x,y,z
-x,-y,-z
loop_
_atom_site_type_symbol
_atom_site_label
_atom_site_fract_x
_atom_site_fract_y
_atom_site_fract_z
Si Si1 0.550840 0.131199 0.104847
Si Si2 0.105221 0.692315 0.659644
Si Si3 0.368112 0.956671 0.597806
Si Si4 0.562358 0.826821 0.341696
Si Si5 0.786328 0.080324 0.032218
Si Si6 0.740817 0.388380 0.803391
Si Si7 0.317412 0.533821 0.492934
O O1 0.700327 0.074041 0.085840
O O2 0.325828 0.399205 0.072320
O O3 0.652331 0.090235 0.307097
O O4 0.500000 0.000000 0.000000
O O5 0.225608 0.442708 0.629613
O O6 0.221232 0.737315 0.856877
O O7 0.135329 0.695503 0.537845
O O8 0.848305 0.898492 0.582383
O O9 0.405645 0.100279 0.711376
O O10 0.581200 0.708775 0.575815
O O11 0.500000 0.000000 0.500000
O O12 0.364897 0.871579 0.176236
O O13 0.037746 0.840770 0.086432
O O14 0.524397 0.463302 0.677407
O O15 0.763344 0.367342 0.656659
#
# Coordination Sequence:
#
# PCOD9108141 Si02
#       7
#     2   2   2   2   2   2   2
#     4  11  23  41  68 102 135 166 214 281 336 400
#     4  12  24  43  72  97 128 185 227 270 325 396
#     4  11  23  44  69  99 134 174 221 274 338 391
#     4  12  27  48  65  94 140 182 225 277 324 396
#     4  12  25  45  69 102 133 175 227 273 336 392
#     4  10  22  39  68 102 137 168 209 281 339 392
#     4  10  20  40  67 104 135 163 219 272 334 401
#
# _framework density 23.674752999999999
#
# number of rings (size 3 to 8) (size 9 to 14) (size 15 to 20)
#    0.000    0.857    5.714    1.714    0.000    2.857 
#    2.571    1.429    0.000    0.000    0.000    0.000 
#    0.000    0.000    0.000    0.000    0.000    0.000 
#
# Total GULP energy -78236.308978 kJ/mol
# GULP energy per Si atom -5588.307784 kJ/mol
# Density = 2.362087 g / cm^3
# Si number density = 23.674753 Si / 1000 Ang^3
#
#
#
# Elastic Constant Matrix: (Units=GPa)
#
#
# Indices 1 2 3 4 5 6 
#
# 1 55.2510 -0.4860 -9.5849 9.7652 -4.9114 -1.7398
# 2 -0.4860 100.6206 28.6042 7.1772 3.2860 1.6718
# 3 -9.5849 28.6042 68.5958 5.1852 11.8719 -4.7403
# 4 9.7652 7.1772 5.1852 39.4340 1.7294 9.6691
# 5 -4.9114 3.2860 11.8719 1.7294 27.6920 5.3390
# 6 -1.7398 1.6718 -4.7403 9.6691 5.3390 32.1427
#
#
#
# Elastic Compliance Matrix: (Units=1/GPa)
#
#
# Indices 1 2 3 4 5 6 
#
# 1 0.020041 -0.000537 0.003369 -0.006163 0.001953 0.003139
# 2 -0.000537 0.011423 -0.005018 -0.001031 0.001000 -0.001219
# 3 0.003369 -0.005018 0.019158 -0.003473 -0.007887 0.005623
# 4 -0.006163 -0.001031 -0.003473 0.029929 0.000555 -0.009888
# 5 0.001953 0.001000 -0.007887 0.000555 0.041253 -0.008129
# 6 0.003139 -0.001219 0.005623 -0.009888 -0.008129 0.036499
#
#
# Mechanical properties :
#
#
# Convention : Reuss Voigt Hill
#
# Bulk Modulus (GPa) = 21.62186 29.05930 25.34058
# Shear Modulus (GPa) = 28.07541 33.58267 30.82904
#
# Velocity S-wave (km/s) = 3.44740 3.77039 3.61250
# Velocity P-wave (km/s) = 4.99988 5.59066 5.30350
#
# Compressibility (1/GPa) = 0.04624949
#
# Stress axis : x y z
#
# Youngs Moduli (GPa) = 49.89825 87.53986 52.19867
#
# Poissons Ratio (x) = 0.04703 -0.17586
# Poissons Ratio (y) = 0.02681 0.26193
# Poissons Ratio (z) = -0.16811 0.43927
#
# Static dielectric constant tensor:
#      x y z
#    x 1.953070 0.015480 -0.051630 
#    y 0.015480 1.874420 0.046750 
#    z -0.051630 0.046750 1.953600 
# 
# From -- ./inp_files/185472.got.cif
#   From: 2010.05.17/outbox.cif.g08.bks.cpg/sg2_93_cif.got.tgz:185472.got - 2010.06.03 11:33:40.
