data_PCOD9108865
_publ_section_title
;
Structure prediction by ZEFSAII (Michael W. Deem and Ramdas Pophale) SiO2 
 PCOD9108865
Probable space group: P -1
;
_chemical_formula_sum "Si O2"
_cell_formula_units_Z 13
_cell_length_a 12.865304
_cell_length_b 11.006950
_cell_length_c 12.881818
_cell_angle_alpha 34.186470
_cell_angle_beta 142.104911
_cell_angle_gamma 146.380899
_cell_volume 537.203599
_symmetry_space_group_name_H-M "P -1"
_symmetry_group_IT_number 2
_symmetry_cell_setting 'triclinic'
loop_
_space_group_symop_operation_xyz
x,y,z
-x,-y,-z
loop_
_atom_site_type_symbol
_atom_site_label
_atom_site_fract_x
_atom_site_fract_y
_atom_site_fract_z
Si Si1 0.000000 0.000000 0.000000
Si Si2 0.779922 0.576565 0.409173
Si Si3 0.957616 0.141198 0.187686
Si Si4 0.729032 0.148206 0.543841
Si Si5 0.954131 0.541536 0.150946
Si Si6 0.648739 0.043722 0.177641
Si Si7 0.374568 0.219663 0.456978
O O1 0.152550 0.937534 0.229317
O O2 0.940243 0.755474 0.050587
O O3 0.793866 0.438063 0.414485
O O4 0.559311 0.429092 0.388205
O O5 0.918588 0.547892 0.622179
O O6 0.856147 0.867460 0.244897
O O7 0.844066 0.079117 0.250315
O O8 0.191195 0.257793 0.300153
O O9 0.935480 0.329935 0.961315
O O10 0.500000 0.000000 0.500000
O O11 0.720901 0.045719 0.494957
O O12 0.735647 0.309340 0.116947
O O13 0.562503 0.825129 0.349506
O O14 0.500000 0.000000 0.000000
#
# Coordination Sequence:
#
# PCOD9108865 Si02
#       7
#     1   2   2   2   2   2   2
#     4  10  20  40  74 104 138 184 230 306 364 422
#     4  10  24  44  72 104 139 183 233 296 365 425
#     4  12  25  44  71 100 139 189 234 288 353 424
#     4   9  20  40  70 105 140 184 236 295 367 432
#     4  11  24  46  70 105 142 178 243 292 356 434
#     4  12  28  46  69 102 145 193 240 291 352 425
#     4  11  23  45  70 101 142 183 238 295 350 424
#
# _framework density 24.199393000000001
#
# number of rings (size 3 to 8) (size 9 to 14) (size 15 to 20)
#    0.000    1.231    3.077    1.846    2.154    2.462 
#    0.000    0.000    0.000    9.231    0.000    0.000 
#    0.000    0.000    0.000    0.000    0.000    0.000 
#
# Total GULP energy -72551.841305 kJ/mol
# GULP energy per Si atom -5580.910870 kJ/mol
# Density = 2.414431 g / cm^3
# Si number density = 24.199393 Si / 1000 Ang^3
#
#
#
# Elastic Constant Matrix: (Units=GPa)
#
#
# Indices 1 2 3 4 5 6 
#
# 1 78.8895 18.9592 20.7765 15.6190 14.5348 23.6282
# 2 18.9592 107.7755 34.6003 9.5511 2.9300 0.8979
# 3 20.7765 34.6003 85.8955 15.3242 -1.4357 12.2311
# 4 15.6190 9.5511 15.3242 37.0541 -1.1849 -3.6008
# 5 14.5348 2.9300 -1.4357 -1.1849 32.9658 -2.1364
# 6 23.6282 0.8979 12.2311 -3.6008 -2.1364 45.2731
#
#
#
# Elastic Compliance Matrix: (Units=1/GPa)
#
#
# Indices 1 2 3 4 5 6 
#
# 1 0.020598 -0.002119 -0.001002 -0.009173 -0.010021 -0.011640
# 2 -0.002119 0.010986 -0.004200 -0.000008 -0.000094 0.002018
# 3 -0.001002 -0.004200 0.015037 -0.005051 0.001042 -0.003809
# 4 -0.009173 -0.000008 -0.005051 0.034012 0.005639 0.009124
# 5 -0.010021 -0.000094 0.001042 0.005639 0.035468 0.007073
# 6 -0.011640 0.002018 -0.003809 0.009124 0.007073 0.030211
#
#
# Mechanical properties :
#
#
# Convention : Reuss Voigt Hill
#
# Bulk Modulus (GPa) = 31.27136 46.80360 39.03748
# Shear Modulus (GPa) = 29.13488 36.27357 32.70422
#
# Velocity S-wave (km/s) = 3.47356 3.87582 3.68019
# Velocity P-wave (km/s) = 5.38869 6.27791 5.85022
#
# Compressibility (1/GPa) = 0.03197815
#
# Stress axis : x y z
#
# Youngs Moduli (GPa) = 48.54840 91.02207 66.50175
#
# Poissons Ratio (x) = 0.19292 0.06663
# Poissons Ratio (y) = 0.10290 0.27933
# Poissons Ratio (z) = 0.04864 0.38232
#
# Static dielectric constant tensor:
#      x y z
#    x 1.975910 -0.041240 0.005720 
#    y -0.041240 1.967760 -0.018020 
#    z 0.005720 -0.018020 1.881490 
# 
# From -- ./inp_files/455165.got.cif
#   From: 2010.05.17/outbox.cif.g08.bks.cpg/sg2_228_cif.got.tgz:455165.got - 2010.06.03 11:33:40.
