data_PCOD9108396
_publ_section_title
;
Structure prediction by ZEFSAII (Michael W. Deem and Ramdas Pophale) SiO2 
 PCOD9108396
Probable space group: P -1
;
_chemical_formula_sum "Si O2"
_cell_formula_units_Z 16
_cell_length_a 14.213729
_cell_length_b 12.116306
_cell_length_c 8.746619
_cell_angle_alpha 100.233143
_cell_angle_beta 89.351071
_cell_angle_gamma 30.874123
_cell_volume 719.549480
_symmetry_space_group_name_H-M "P -1"
_symmetry_group_IT_number 2
_symmetry_cell_setting 'triclinic'
loop_
_space_group_symop_operation_xyz
x,y,z
-x,-y,-z
loop_
_atom_site_type_symbol
_atom_site_label
_atom_site_fract_x
_atom_site_fract_y
_atom_site_fract_z
Si Si1 0.486765 0.184876 0.024650
Si Si2 0.836708 0.715101 0.755479
Si Si3 0.400692 0.969463 0.671462
Si Si4 0.386456 0.722150 0.132211
Si Si5 0.049090 0.282099 0.554151
Si Si6 0.982723 0.109555 0.395404
Si Si7 0.360889 0.439762 0.652332
Si Si8 0.210699 0.401264 0.844148
O O1 0.528173 0.139932 0.190584
O O2 0.565858 0.220298 0.962227
O O3 0.277862 0.366258 0.004870
O O4 0.631557 0.943801 0.889540
O O5 0.851845 0.778411 0.620870
O O6 0.880713 0.546722 0.650302
O O7 0.998087 0.579239 0.846295
O O8 0.546000 0.753475 0.503061
O O9 0.194602 0.136989 0.657513
O O10 0.355067 0.151526 0.717656
O O11 0.477614 0.664604 0.278755
O O12 0.163272 0.924255 0.226744
O O13 0.500000 0.500000 0.000000
O O14 0.981722 0.228941 0.511761
O O15 0.777058 0.325961 0.367004
O O16 0.000000 0.000000 0.500000
O O17 0.233113 0.495288 0.779419
#
# Coordination Sequence:
#
# PCOD9108396 Si02
#       8
#     2   2   2   2   2   2   2   2
#     4  11  23  41  63  99 143 176 223 278 344 403
#     4  10  20  40  68  92 136 175 220 278 336 411
#     4  11  23  38  66 105 139 176 219 280 340 410
#     4  11  26  49  70  94 135 184 230 282 347 399
#     4  10  20  41  65 100 129 177 225 277 342 397
#     4  12  26  45  70 101 131 176 238 283 331 404
#     4  11  23  44  71  94 135 178 232 279 336 406
#     4  10  21  39  64  99 134 179 222 266 340 412
#
# _framework density 22.236135999999998
#
# number of rings (size 3 to 8) (size 9 to 14) (size 15 to 20)
#    0.000    1.250    3.750    1.500    3.500    4.000 
#    2.250    0.000    0.000    0.000    0.000    0.000 
#    0.000    0.000    0.000    0.000    0.000    0.000 
#
# Total GULP energy -89424.324054 kJ/mol
# GULP energy per Si atom -5589.020253 kJ/mol
# Density = 2.218553 g / cm^3
# Si number density = 22.236136 Si / 1000 Ang^3
#
#
#
# Elastic Constant Matrix: (Units=GPa)
#
#
# Indices 1 2 3 4 5 6 
#
# 1 50.0478 19.7156 22.7562 2.6932 2.3506 5.0522
# 2 19.7156 102.8219 22.3165 -14.2593 2.3731 -0.4354
# 3 22.7562 22.3165 64.5310 -23.7285 15.5211 -6.5368
# 4 2.6932 -14.2593 -23.7285 31.1968 -2.7994 1.1340
# 5 2.3506 2.3731 15.5211 -2.7994 24.3076 -5.6711
# 6 5.0522 -0.4354 -6.5368 1.1340 -5.6711 41.1695
#
#
#
# Elastic Compliance Matrix: (Units=1/GPa)
#
#
# Indices 1 2 3 4 5 6 
#
# 1 0.031116 -0.004720 -0.017670 -0.017598 0.005439 -0.005440
# 2 -0.004720 0.011445 -0.000324 0.005399 0.000294 0.000541
# 3 -0.017670 -0.000324 0.036609 0.027490 -0.017342 0.004832
# 4 -0.017598 0.005399 0.027490 0.056001 -0.009044 0.003793
# 5 0.005439 0.000294 -0.017342 -0.009044 0.051533 0.003930
# 6 -0.005440 0.000541 0.004832 0.003793 0.003930 0.026167
#
#
# Mechanical properties :
#
#
# Convention : Reuss Voigt Hill
#
# Bulk Modulus (GPa) = 29.63844 38.55301 34.09572
# Shear Modulus (GPa) = 18.54958 29.50895 24.02926
#
# Velocity S-wave (km/s) = 2.89140 3.64685 3.29088
# Velocity P-wave (km/s) = 4.95023 5.92523 5.45954
#
# Compressibility (1/GPa) = 0.03373997
#
# Stress axis : x y z
#
# Youngs Moduli (GPa) = 32.13832 87.37279 27.31575
#
# Poissons Ratio (x) = 0.41241 0.48268
# Poissons Ratio (y) = 0.15170 0.00886
# Poissons Ratio (z) = 0.56790 0.02834
#
# Static dielectric constant tensor:
#      x y z
#    x 1.829550 -0.039210 -0.010880 
#    y -0.039210 1.889490 -0.041920 
#    z -0.010880 -0.041920 1.856670 
# 
# From -- ./inp_files/273207.got.cif
#   From: 2010.05.17/outbox.cif.g08.bks.cpg/sg2_137_cif.got.tgz:273207.got - 2010.06.03 11:33:40.
