data_PCOD9108322
_publ_section_title
;
Structure prediction by ZEFSAII (Michael W. Deem and Ramdas Pophale) SiO2 
 PCOD9108322
Probable space group: P -1
;
_chemical_formula_sum "Si O2"
_cell_formula_units_Z 14
_cell_length_a 17.568158
_cell_length_b 24.328005
_cell_length_c 12.237612
_cell_angle_alpha 27.377786
_cell_angle_beta 145.045103
_cell_angle_gamma 164.337252
_cell_volume 622.358626
_symmetry_space_group_name_H-M "P -1"
_symmetry_group_IT_number 2
_symmetry_cell_setting 'triclinic'
loop_
_space_group_symop_operation_xyz
x,y,z
-x,-y,-z
loop_
_atom_site_type_symbol
_atom_site_label
_atom_site_fract_x
_atom_site_fract_y
_atom_site_fract_z
Si Si1 0.423776 0.760056 0.609253
Si Si2 0.614112 0.726066 0.253371
Si Si3 0.372723 0.567767 0.487162
Si Si4 0.227218 0.792522 0.628777
Si Si5 0.802487 0.825011 0.967203
Si Si6 0.455361 0.097198 0.728864
Si Si7 0.857686 0.520843 0.002754
O O1 0.335159 0.707476 0.472722
O O2 0.189527 0.556820 0.790023
O O3 0.622393 0.033617 0.393993
O O4 0.616751 0.794348 0.781853
O O5 0.500000 0.500000 0.500000
O O6 0.515113 0.690124 0.319172
O O7 0.443174 0.666444 0.066954
O O8 0.960742 0.007929 0.144125
O O9 0.397642 0.452153 0.762255
O O10 0.501549 0.768484 0.366406
O O11 0.025017 0.317726 0.508340
O O12 0.081274 0.545125 0.885150
O O13 0.500000 0.000000 0.500000
O O14 0.000000 0.000000 0.000000
O O15 0.500000 0.000000 0.000000
O O16 0.119698 0.825697 0.770029
#
# Coordination Sequence:
#
# PCOD9108322 Si02
#       7
#     2   2   2   2   2   2   2
#     4  11  24  44  71  98 135 174 229 283 334 400
#     4  12  23  41  75 103 131 173 229 288 334 392
#     4  12  25  43  66 102 139 177 223 274 342 405
#     4  10  20  40  68 100 124 170 230 280 329 384
#     4  12  21  44  73 102 131 170 225 288 339 387
#     4  12  28  45  62  96 146 185 218 270 339 413
#     4  11  23  42  68  99 134 176 227 279 338 394
#
# _framework density 22.495069999999998
#
# number of rings (size 3 to 8) (size 9 to 14) (size 15 to 20)
#    0.000    0.571    5.714    2.571    2.000    3.429 
#    0.000    5.000    0.000    0.000    0.000    0.000 
#    0.000    0.000    0.000    0.000    0.000    0.000 
#
# Total GULP energy -78339.530570 kJ/mol
# GULP energy per Si atom -5595.680755 kJ/mol
# Density = 2.244387 g / cm^3
# Si number density = 22.495070 Si / 1000 Ang^3
#
#
#
# Elastic Constant Matrix: (Units=GPa)
#
#
# Indices 1 2 3 4 5 6 
#
# 1 175.0322 30.7759 50.2804 -4.2286 -7.2304 -16.7106
# 2 30.7759 32.8625 2.1621 0.1463 0.6630 6.1760
# 3 50.2804 2.1621 92.2413 5.2458 0.3274 -11.0516
# 4 -4.2286 0.1463 5.2458 42.0919 1.4307 6.0456
# 5 -7.2304 0.6630 0.3274 1.4307 46.1388 -8.3732
# 6 -16.7106 6.1760 -11.0516 6.0456 -8.3732 34.5246
#
#
#
# Elastic Compliance Matrix: (Units=1/GPa)
#
#
# Indices 1 2 3 4 5 6 
#
# 1 0.009197 -0.009385 -0.004204 0.000634 0.002546 0.005291
# 2 -0.009385 0.041427 0.002667 0.000485 -0.004320 -0.012232
# 3 -0.004204 0.002667 0.013465 -0.002406 -0.000330 0.002139
# 4 0.000634 0.000485 -0.002406 0.024938 -0.001628 -0.005312
# 5 0.002546 -0.004320 -0.000330 -0.001628 0.023624 0.007914
# 6 0.005291 -0.012232 0.002139 -0.005312 0.007914 0.037248
#
#
# Mechanical properties :
#
#
# Convention : Reuss Voigt Hill
#
# Bulk Modulus (GPa) = 23.67205 51.84144 37.75675
# Shear Modulus (GPa) = 26.90719 39.01224 32.95971
#
# Velocity S-wave (km/s) = 3.46227 4.16896 3.83194
# Velocity P-wave (km/s) = 5.15065 6.80216 6.03318
#
# Compressibility (1/GPa) = 0.04224391
#
# Stress axis : x y z
#
# Youngs Moduli (GPa) = 108.73433 24.13885 74.26837
#
# Poissons Ratio (x) = 0.22654 0.31225
# Poissons Ratio (y) = 1.02044 -0.19806
# Poissons Ratio (z) = 0.45715 -0.06437
#
# Static dielectric constant tensor:
#      x y z
#    x 1.827010 0.015790 -0.021420 
#    y 0.015790 1.853410 -0.002720 
#    z -0.021420 -0.002720 1.864390 
# 
# From -- ./inp_files/187729.got.cif
#   From: 2010.05.17/outbox.cif.g08.bks.cpg/sg2_94_cif.got.tgz:187729.got - 2010.06.03 11:33:40.
