data_PCOD9108853
_publ_section_title
;
Structure prediction by ZEFSAII (Michael W. Deem and Ramdas Pophale) SiO2 
 PCOD9108853
Probable space group: P -1
;
_chemical_formula_sum "Si O2"
_cell_formula_units_Z 12
_cell_length_a 5.463925
_cell_length_b 7.633189
_cell_length_c 18.575439
_cell_angle_alpha 38.297478
_cell_angle_beta 110.310850
_cell_angle_gamma 116.490998
_cell_volume 429.716017
_symmetry_space_group_name_H-M "P -1"
_symmetry_group_IT_number 2
_symmetry_cell_setting 'triclinic'
loop_
_space_group_symop_operation_xyz
x,y,z
-x,-y,-z
loop_
_atom_site_type_symbol
_atom_site_label
_atom_site_fract_x
_atom_site_fract_y
_atom_site_fract_z
Si Si1 0.363022 0.702224 0.123102
Si Si2 0.833625 0.280510 0.662330
Si Si3 0.261733 0.370718 0.076823
Si Si4 0.613231 0.726636 0.296863
Si Si5 0.895444 0.261985 0.262915
Si Si6 0.567662 0.956517 0.602395
O O1 0.381903 0.474571 0.134801
O O2 0.525538 0.755601 0.197462
O O3 0.036770 0.597965 0.141504
O O4 0.500000 0.000000 0.000000
O O5 0.824166 0.987436 0.805616
O O6 0.683517 0.202175 0.596433
O O7 0.661398 0.450156 0.633426
O O8 0.146779 0.419840 0.633091
O O9 0.500000 0.500000 0.000000
O O10 0.000000 0.500000 0.000000
O O11 0.737097 0.032304 0.257839
O O12 0.175495 0.178140 0.331890
O O13 0.713918 0.226443 0.326619
O O14 0.500000 0.000000 0.500000
#
# Coordination Sequence:
#
# PCOD9108853 Si02
#       6
#     2   2   2   2   2   2
#     4  12  25  40  68  96 131 185 219 258 331 392
#     4  10  20  42  62  88 131 164 207 281 314 372
#     4  12  25  40  62  88 129 172 211 262 317 375
#     4  10  22  41  63  90 127 172 216 261 321 381
#     4  10  23  42  64  95 137 164 215 283 315 387
#     4  10  20  40  73  97 121 175 221 267 342 386
#
# _framework density 27.925416999999999
#
# number of rings (size 3 to 8) (size 9 to 14) (size 15 to 20)
#    0.000    1.333    3.333    3.500    2.333    2.667 
#    0.000    5.833    0.000   24.000    0.000    0.000 
#    0.000    0.000    0.000    0.000    0.000    0.000 
#
# Total GULP energy -67140.308090 kJ/mol
# GULP energy per Si atom -5595.025674 kJ/mol
# Density = 2.786186 g / cm^3
# Si number density = 27.925417 Si / 1000 Ang^3
#
#
#
# Elastic Constant Matrix: (Units=GPa)
#
#
# Indices 1 2 3 4 5 6 
#
# 1 266.5317 53.6749 102.6735 37.4691 -42.0311 17.5816
# 2 53.6749 158.2783 53.7050 32.5156 -22.8797 -0.6379
# 3 102.6735 53.7050 165.5022 50.1675 -35.1215 5.9366
# 4 37.4691 32.5156 50.1675 44.4702 -3.3203 -9.3329
# 5 -42.0311 -22.8797 -35.1215 -3.3203 55.6203 3.3056
# 6 17.5816 -0.6379 5.9366 -9.3329 3.3056 41.0525
#
#
#
# Elastic Compliance Matrix: (Units=1/GPa)
#
#
# Indices 1 2 3 4 5 6 
#
# 1 0.005561 -0.000271 -0.001711 -0.002973 0.003014 -0.003057
# 2 -0.000271 0.007976 -0.000123 -0.005516 0.002742 -0.001217
# 3 -0.001711 -0.000123 0.012599 -0.013188 0.006097 -0.004580
# 4 -0.002973 -0.005516 -0.013188 0.046121 -0.010950 0.014462
# 5 0.003014 0.002742 0.006097 -0.010950 0.024975 -0.006630
# 6 -0.003057 -0.001217 -0.004580 0.014462 -0.006630 0.030133
#
#
# Mechanical properties :
#
#
# Convention : Reuss Voigt Hill
#
# Bulk Modulus (GPa) = 45.60630 112.26877 78.93754
# Shear Modulus (GPa) = 36.00139 53.57919 44.79029
#
# Velocity S-wave (km/s) = 3.59444 4.38500 4.00925
# Velocity P-wave (km/s) = 5.79599 8.11960 7.05413
#
# Compressibility (1/GPa) = 0.02192680
#
# Stress axis : x y z
#
# Youngs Moduli (GPa) = 179.83726 125.37462 79.36855
#
# Poissons Ratio (x) = 0.03396 0.13582
# Poissons Ratio (y) = 0.04871 0.00973
# Poissons Ratio (z) = 0.30774 0.01537
#
# Static dielectric constant tensor:
#      x y z
#    x 2.236700 0.011710 0.042760 
#    y 0.011710 2.191120 -0.178130 
#    z 0.042760 -0.178130 2.353190 
# 
# From -- ./inp_files/546445.got.cif
#   From: 2010.05.17/outbox.cif.g08.bks.cpg/sg2_274_cif.got.tgz:546445.got - 2010.06.03 11:33:40.
