data_PCOD9108207
_publ_section_title
;
Structure prediction by ZEFSAII (Michael W. Deem and Ramdas Pophale) SiO2 
 PCOD9108207
Probable space group: P -1
;
_chemical_formula_sum "Si O2"
_cell_formula_units_Z 16
_cell_length_a 7.871816
_cell_length_b 15.228070
_cell_length_c 8.171156
_cell_angle_alpha 118.731570
_cell_angle_beta 62.334778
_cell_angle_gamma 116.732572
_cell_volume 727.599646
_symmetry_space_group_name_H-M "P -1"
_symmetry_group_IT_number 2
_symmetry_cell_setting 'triclinic'
loop_
_space_group_symop_operation_xyz
x,y,z
-x,-y,-z
loop_
_atom_site_type_symbol
_atom_site_label
_atom_site_fract_x
_atom_site_fract_y
_atom_site_fract_z
Si Si1 0.493577 0.293502 0.922047
Si Si2 0.289123 0.508634 0.830231
Si Si3 0.724227 0.741262 0.680569
Si Si4 0.362575 0.881060 0.468370
Si Si5 0.116616 0.310482 0.929865
Si Si6 0.631104 0.423049 0.499750
Si Si7 0.111016 0.716187 0.654962
Si Si8 0.023009 0.118607 0.556141
O O1 0.530750 0.202752 0.715441
O O2 0.335870 0.337609 0.936526
O O3 0.682255 0.387806 0.981056
O O4 0.386684 0.243027 0.092057
O O5 0.134511 0.407544 0.887612
O O6 0.517080 0.495147 0.708116
O O7 0.251473 0.525189 0.670335
O O8 0.560637 0.664955 0.568875
O O9 0.911671 0.700453 0.619015
O O10 0.816698 0.844180 0.626847
O O11 0.257228 0.830494 0.640538
O O12 0.183835 0.872754 0.414999
O O13 0.500000 0.000000 0.500000
O O14 0.082496 0.202852 0.749753
O O15 0.959461 0.292706 0.132761
O O16 0.769042 0.370003 0.495481
O O17 0.000000 0.000000 0.500000
#
# Coordination Sequence:
#
# PCOD9108207 Si02
#       8
#     2   2   2   2   2   2   2   2
#     4  10  22  42  66  93 129 170 216 260 319 381
#     4  10  21  38  66  97 129 176 212 262 316 378
#     4   9  21  42  64  94 134 165 211 270 316 385
#     4  11  25  45  67  93 125 167 219 270 322 387
#     4  11  22  41  65  96 134 168 213 265 319 382
#     4  10  20  40  67  92 135 172 216 258 320 376
#     4  10  24  41  65  96 129 172 217 260 325 385
#     4  11  24  41  66  96 126 166 212 271 331 380
#
# _framework density 21.990113000000001
#
# number of rings (size 3 to 8) (size 9 to 14) (size 15 to 20)
#    0.000    1.750    1.250    1.875    5.250    1.500 
#    0.000   15.625    0.000    0.000    0.000    0.000 
#    0.000    0.000    0.000    0.000    0.000    0.000 
#
# Total GULP energy -89422.050181 kJ/mol
# GULP energy per Si atom -5588.878136 kJ/mol
# Density = 2.194006 g / cm^3
# Si number density = 21.990113 Si / 1000 Ang^3
#
#
#
# Elastic Constant Matrix: (Units=GPa)
#
#
# Indices 1 2 3 4 5 6 
#
# 1 54.2124 38.9381 28.0414 -14.9421 -3.1300 -1.4805
# 2 38.9381 160.9763 55.6457 -11.8835 7.6145 0.8044
# 3 28.0414 55.6457 71.0447 -1.5385 3.6961 7.4044
# 4 -14.9421 -11.8835 -1.5385 25.3735 0.8798 3.3172
# 5 -3.1300 7.6145 3.6961 0.8798 25.9490 5.7585
# 6 -1.4805 0.8044 7.4044 3.3172 5.7585 32.7896
#
#
#
# Elastic Compliance Matrix: (Units=1/GPa)
#
#
# Indices 1 2 3 4 5 6 
#
# 1 0.030189 -0.003122 -0.009522 0.015413 0.005141 0.001128
# 2 -0.003122 0.009317 -0.006013 0.002089 -0.002599 0.001233
# 3 -0.009522 -0.006013 0.022956 -0.006385 -0.001423 -0.004570
# 4 0.015413 0.002089 -0.006385 0.049446 0.001172 -0.003122
# 5 0.005141 -0.002599 -0.001423 0.001172 0.041593 -0.006806
# 6 0.001128 0.001233 -0.004570 -0.003122 -0.006806 0.033061
#
#
# Mechanical properties :
#
#
# Convention : Reuss Voigt Hill
#
# Bulk Modulus (GPa) = 39.76450 59.05376 49.40913
# Shear Modulus (GPa) = 21.52770 27.72965 24.62868
#
# Velocity S-wave (km/s) = 3.13225 3.55492 3.35025
# Velocity P-wave (km/s) = 5.58600 6.61535 6.12235
#
# Compressibility (1/GPa) = 0.02514806
#
# Stress axis : x y z
#
# Youngs Moduli (GPa) = 33.12459 107.33172 43.56185
#
# Poissons Ratio (x) = 0.33509 0.41478
# Poissons Ratio (y) = 0.10341 0.26195
# Poissons Ratio (z) = 0.31540 0.64542
#
# Static dielectric constant tensor:
#      x y z
#    x 1.801100 0.062850 0.024060 
#    y 0.062850 1.600950 -0.218900 
#    z 0.024060 -0.218900 1.663450 
# 
# From -- ./inp_files/203595.got.cif
#   From: 2010.05.17/outbox.cif.g08.bks.cpg/sg2_102_cif.got.tgz:203595.got - 2010.06.03 11:33:40.
