data_PCOD9108909
_publ_section_title
;
Structure prediction by ZEFSAII (Michael W. Deem and Ramdas Pophale) SiO2 
 PCOD9108909
Probable space group: P -1
;
_chemical_formula_sum "Si O2"
_cell_formula_units_Z 14
_cell_length_a 18.415553
_cell_length_b 21.388429
_cell_length_c 8.356945
_cell_angle_alpha 41.069415
_cell_angle_beta 131.712803
_cell_angle_gamma 161.923882
_cell_volume 649.382936
_symmetry_space_group_name_H-M "P -1"
_symmetry_group_IT_number 2
_symmetry_cell_setting 'triclinic'
loop_
_space_group_symop_operation_xyz
x,y,z
-x,-y,-z
loop_
_atom_site_type_symbol
_atom_site_label
_atom_site_fract_x
_atom_site_fract_y
_atom_site_fract_z
Si Si1 0.061312 0.264427 0.428946
Si Si2 0.192583 0.206713 0.517517
Si Si3 0.207329 0.566703 0.246257
Si Si4 0.359714 0.892813 0.666866
Si Si5 0.101092 0.176613 0.974688
Si Si6 0.516347 0.812764 0.535238
Si Si7 0.497339 0.589917 0.014587
O O1 0.135092 0.257573 0.412329
O O2 0.213853 0.495033 0.250579
O O3 0.069197 0.215403 0.703589
O O4 0.788642 0.052064 0.405138
O O5 0.442150 0.454059 0.319079
O O6 0.000000 0.000000 0.500000
O O7 0.153069 0.088234 0.817037
O O8 0.338669 0.650298 0.437944
O O9 0.923952 0.329878 0.332696
O O10 0.335622 0.776864 0.964033
O O11 0.500000 0.000000 0.500000
O O12 0.499624 0.103512 0.554121
O O13 0.252501 0.217132 0.073202
O O14 0.275593 0.380086 0.968531
O O15 0.492374 0.697397 0.833940
#
# Coordination Sequence:
#
# PCOD9108909 Si02
#       7
#     2   2   2   2   2   2   2
#     4  11  22  40  65  90 127 170 208 251 302 365
#     4  10  22  36  56  87 124 167 211 250 294 350
#     4  10  23  45  66  93 126 157 201 256 316 368
#     4  10  24  45  69  95 120 155 203 257 315 382
#     4  10  20  41  58  84 130 166 207 255 293 356
#     4  11  22  42  66  92 126 163 202 255 314 367
#     4  10  21  37  61  88 123 167 208 250 305 352
#
# _framework density 21.558928000000002
#
# number of rings (size 3 to 8) (size 9 to 14) (size 15 to 20)
#    0.000    1.714    2.857    0.857    2.000    1.143 
#    2.571    0.000    0.000    0.000    0.000    0.000 
#    0.000    0.000    0.000    0.000    0.000    0.000 
#
# Total GULP energy -78138.885378 kJ/mol
# GULP energy per Si atom -5581.348956 kJ/mol
# Density = 2.150986 g / cm^3
# Si number density = 21.558928 Si / 1000 Ang^3
#
#
#
# Elastic Constant Matrix: (Units=GPa)
#
#
# Indices 1 2 3 4 5 6 
#
# 1 100.6290 10.5918 25.1685 -3.9401 17.5141 -17.6906
# 2 10.5918 78.9598 21.3713 1.1784 4.4782 -5.3005
# 3 25.1685 21.3713 119.5573 -10.5650 19.1407 -2.7195
# 4 -3.9401 1.1784 -10.5650 28.8062 -1.9572 4.3103
# 5 17.5141 4.4782 19.1407 -1.9572 37.6518 -8.6924
# 6 -17.6906 -5.3005 -2.7195 4.3103 -8.6924 17.6789
#
#
#
# Elastic Compliance Matrix: (Units=1/GPa)
#
#
# Indices 1 2 3 4 5 6 
#
# 1 0.012893 -0.000233 -0.002127 -0.000898 -0.002253 0.011616
# 2 -0.000233 0.013683 -0.002598 -0.002146 0.000691 0.004332
# 3 -0.002127 -0.002598 0.010289 0.003959 -0.004800 -0.004650
# 4 -0.000898 -0.002146 0.003959 0.037656 -0.001937 -0.011066
# 5 -0.002253 0.000691 -0.004800 -0.001937 0.033086 0.013954
# 6 0.011616 0.004332 -0.004650 -0.011066 0.013954 0.078330
#
#
# Mechanical properties :
#
#
# Convention : Reuss Voigt Hill
#
# Bulk Modulus (GPa) = 37.10814 45.93438 41.52126
# Shear Modulus (GPa) = 24.40971 32.96168 28.68569
#
# Velocity S-wave (km/s) = 3.36852 3.91437 3.65166
# Velocity P-wave (km/s) = 5.69025 6.46393 6.08939
#
# Compressibility (1/GPa) = 0.02694826
#
# Stress axis : x y z
#
# Youngs Moduli (GPa) = 77.56121 73.08392 97.19209
#
# Poissons Ratio (x) = 0.01702 0.20672
# Poissons Ratio (y) = 0.01806 0.25255
# Poissons Ratio (z) = 0.16497 0.18991
#
# Static dielectric constant tensor:
#      x y z
#    x 1.816010 -0.038680 -0.024590 
#    y -0.038680 1.798730 0.000790 
#    z -0.024590 0.000790 1.812510 
# 
# From -- ./inp_files/337482.got.cif
#   From: 2010.05.17/outbox.cif.g08.bks.cpg/sg2_169_cif.got.tgz:337482.got - 2010.06.03 11:33:40.
