data_PCOD9108187
_publ_section_title
;
Structure prediction by ZEFSAII (Michael W. Deem and Ramdas Pophale) SiO2 
 PCOD9108187
Probable space group: P -1
;
_chemical_formula_sum "Si O2"
_cell_formula_units_Z 14
_cell_length_a 24.854980
_cell_length_b 24.483626
_cell_length_c 8.280587
_cell_angle_alpha 141.371871
_cell_angle_beta 139.563250
_cell_angle_gamma 11.593620
_cell_volume 631.842250
_symmetry_space_group_name_H-M "P -1"
_symmetry_group_IT_number 2
_symmetry_cell_setting 'triclinic'
loop_
_space_group_symop_operation_xyz
x,y,z
-x,-y,-z
loop_
_atom_site_type_symbol
_atom_site_label
_atom_site_fract_x
_atom_site_fract_y
_atom_site_fract_z
Si Si1 0.608568 0.293406 0.273060
Si Si2 0.096420 0.721361 0.938574
Si Si3 0.360547 0.230871 0.771147
Si Si4 0.841749 0.807737 0.719278
Si Si5 0.202145 0.882268 0.345845
Si Si6 0.740984 0.758686 0.117964
Si Si7 0.289121 0.595520 0.777995
O O1 0.500000 0.500000 0.500000
O O2 0.723529 0.161087 0.407547
O O3 0.361240 0.481825 0.089153
O O4 0.862552 0.028697 0.124457
O O5 0.955522 0.779614 0.829873
O O6 0.191126 0.621526 0.739771
O O7 0.292526 0.286431 0.932618
O O8 0.087738 0.519882 0.717482
O O9 0.500000 0.000000 0.500000
O O10 0.586629 0.073620 0.869737
O O11 0.753655 0.831563 0.428795
O O12 0.407447 0.718643 0.309559
O O13 0.255789 0.723980 0.085595
O O14 0.902393 0.205228 0.354430
O O15 0.000000 0.500000 0.000000
O O16 0.500000 0.000000 0.000000
#
# Coordination Sequence:
#
# PCOD9108187 Si02
#       7
#     2   2   2   2   2   2   2
#     4  12  24  40  63  91 117 161 220 269 298 365
#     4  12  25  41  62  90 127 166 206 264 323 357
#     4  10  20  40  67  91 125 165 206 240 296 382
#     4  11  23  42  62  92 130 169 202 249 316 378
#     4  10  21  37  59  85 113 151 212 259 305 362
#     4  11  21  38  67  99 121 159 207 253 292 366
#     4  10  21  37  60  84 116 158 197 257 317 370
#
# _framework density 22.157430000000002
#
# number of rings (size 3 to 8) (size 9 to 14) (size 15 to 20)
#    0.000    1.143    1.429    7.286    4.000    0.000 
#    0.000    8.571    0.000    0.000    0.000    0.000 
#    0.000    0.000    0.000    0.000    0.000    0.000 
#
# Total GULP energy -78313.910792 kJ/mol
# GULP energy per Si atom -5593.850771 kJ/mol
# Density = 2.210700 g / cm^3
# Si number density = 22.157430 Si / 1000 Ang^3
#
#
#
# Elastic Constant Matrix: (Units=GPa)
#
#
# Indices 1 2 3 4 5 6 
#
# 1 136.0653 28.7059 31.7236 -9.8041 -17.6817 -26.8760
# 2 28.7059 133.5383 27.8660 -24.2887 -13.9319 -11.5218
# 3 31.7236 27.8660 40.1165 -21.3465 -18.4512 2.3264
# 4 -9.8041 -24.2887 -21.3465 36.1329 0.9221 -8.5254
# 5 -17.6817 -13.9319 -18.4512 0.9221 22.7723 0.0229
# 6 -26.8760 -11.5218 2.3264 -8.5254 0.0229 49.7853
#
#
#
# Elastic Compliance Matrix: (Units=1/GPa)
#
#
# Indices 1 2 3 4 5 6 
#
# 1 0.010656 0.000020 -0.008574 -0.000774 0.001364 0.006024
# 2 0.000020 0.009714 -0.001578 0.006294 0.004421 0.003408
# 3 -0.008574 -0.001578 0.082466 0.043531 0.057433 -0.001419
# 4 -0.000774 0.006294 0.043531 0.058621 0.036137 0.009026
# 5 0.001364 0.004421 0.057433 0.036137 0.092743 0.005221
# 6 0.006024 0.003408 -0.001419 0.009026 0.005221 0.025737
#
#
# Mechanical properties :
#
#
# Convention : Reuss Voigt Hill
#
# Bulk Modulus (GPa) = 12.11096 54.03453 33.07275
# Shear Modulus (GPa) = 15.25673 36.49974 25.87824
#
# Velocity S-wave (km/s) = 2.62689 4.06309 3.42120
# Velocity P-wave (km/s) = 3.83125 6.81551 5.52855
#
# Compressibility (1/GPa) = 0.08256985
#
# Stress axis : x y z
#
# Youngs Moduli (GPa) = 93.84645 102.94797 12.12628
#
# Poissons Ratio (x) = -0.00205 0.10397
# Poissons Ratio (y) = -0.00187 0.01914
# Poissons Ratio (z) = 0.80466 0.16247
#
# Static dielectric constant tensor:
#      x y z
#    x 1.864120 -0.015470 0.032880 
#    y -0.015470 1.772320 0.024460 
#    z 0.032880 0.024460 1.835070 
# 
# From -- ./inp_files/357915.got.cif
#   From: 2010.05.17/outbox.cif.g08.bks.cpg/sg2_179_cif.got.tgz:357915.got - 2010.06.03 11:33:40.
