data_PCOD9108101
_publ_section_title
;
Structure prediction by ZEFSAII (Michael W. Deem and Ramdas Pophale) SiO2 
 PCOD9108101
Probable space group: P -1
;
_chemical_formula_sum "Si O2"
_cell_formula_units_Z 16
_cell_length_a 6.490151
_cell_length_b 11.722795
_cell_length_c 12.207696
_cell_angle_alpha 57.629916
_cell_angle_beta 92.764729
_cell_angle_gamma 80.790734
_cell_volume 764.300558
_symmetry_space_group_name_H-M "P -1"
_symmetry_group_IT_number 2
_symmetry_cell_setting 'triclinic'
loop_
_space_group_symop_operation_xyz
x,y,z
-x,-y,-z
loop_
_atom_site_type_symbol
_atom_site_label
_atom_site_fract_x
_atom_site_fract_y
_atom_site_fract_z
Si Si1 0.419416 0.449294 0.138552
Si Si2 0.291277 0.851650 0.384944
Si Si3 0.023651 0.887224 0.686662
Si Si4 0.758954 0.758339 0.895677
Si Si5 0.824894 0.351089 0.352519
Si Si6 0.010260 0.603346 0.172781
Si Si7 0.627161 0.992038 0.256713
Si Si8 0.996164 0.886455 0.151929
O O1 0.319981 0.320903 0.166109
O O2 0.615859 0.404849 0.246870
O O3 0.231378 0.556198 0.138360
O O4 0.500000 0.500000 0.000000
O O5 0.248452 0.711576 0.506268
O O6 0.528142 0.872346 0.369683
O O7 0.182975 0.876252 0.250491
O O8 0.167108 0.978299 0.392976
O O9 0.041548 0.778990 0.645337
O O10 0.964531 0.809828 0.833588
O O11 0.235702 0.939736 0.689554
O O12 0.569847 0.888383 0.849434
O O13 0.829034 0.655551 0.050214
O O14 0.951582 0.472922 0.300047
O O15 0.011960 0.736053 0.178136
O O16 0.781948 0.933437 0.192060
O O17 0.000000 0.000000 0.000000
#
# Coordination Sequence:
#
# PCOD9108101 Si02
#       8
#     2   2   2   2   2   2   2   2
#     4  12  24  39  64 100 138 169 212 264 330 393
#     4  10  25  43  66  97 131 174 223 268 318 385
#     4  10  20  40  66  98 134 169 212 269 333 387
#     4  11  21  39  66 101 131 167 213 275 325 383
#     4  12  24  41  65  99 135 176 215 265 331 392
#     4  12  26  41  66  97 137 176 215 268 329 382
#     4  10  22  42  70  95 129 168 219 273 322 381
#     4  11  26  47  70  94 128 171 223 271 322 387
#
# _framework density 20.934170999999999
#
# number of rings (size 3 to 8) (size 9 to 14) (size 15 to 20)
#    0.000    1.000    3.750    3.750    1.750    6.000 
#    0.000    1.250    0.000    0.000    0.000    0.000 
#    0.000    0.000    0.000    0.000    0.000    0.000 
#
# Total GULP energy -89449.138788 kJ/mol
# GULP energy per Si atom -5590.571174 kJ/mol
# Density = 2.088652 g / cm^3
# Si number density = 20.934171 Si / 1000 Ang^3
#
#
#
# Elastic Constant Matrix: (Units=GPa)
#
#
# Indices 1 2 3 4 5 6 
#
# 1 85.7090 30.5267 28.0946 2.2113 -27.2428 22.1436
# 2 30.5267 139.2301 23.3598 -0.1044 -16.1408 15.5443
# 3 28.0946 23.3598 102.7959 -15.9010 -29.3987 21.3342
# 4 2.2113 -0.1044 -15.9010 19.3762 13.3003 -5.9520
# 5 -27.2428 -16.1408 -29.3987 13.3003 33.1635 -7.3167
# 6 22.1436 15.5443 21.3342 -5.9520 -7.3167 26.3495
#
#
#
# Elastic Compliance Matrix: (Units=1/GPa)
#
#
# Indices 1 2 3 4 5 6 
#
# 1 0.027807 -0.000219 0.001330 -0.030369 0.031123 -0.022534
# 2 -0.000219 0.008271 -0.000400 -0.004562 0.004398 -0.004181
# 3 0.001330 -0.000400 0.014911 0.001267 0.011519 -0.009470
# 4 -0.030369 -0.004562 0.001267 0.109505 -0.062324 0.034617
# 5 0.031123 0.004398 0.011519 -0.062324 0.086883 -0.028029
# 6 -0.022534 -0.004181 -0.009470 0.034617 -0.028029 0.067059
#
#
# Mechanical properties :
#
#
# Convention : Reuss Voigt Hill
#
# Bulk Modulus (GPa) = 19.07980 54.63305 36.85642
# Shear Modulus (GPa) = 15.12930 32.16143 23.64536
#
# Velocity S-wave (km/s) = 2.69124 3.92383 3.36446
# Velocity P-wave (km/s) = 4.33486 6.83248 5.72162
#
# Compressibility (1/GPa) = 0.05241146
#
# Stress axis : x y z
#
# Youngs Moduli (GPa) = 35.96161 120.90987 67.06459
#
# Poissons Ratio (x) = 0.02647 -0.08919
# Poissons Ratio (y) = 0.00787 0.02681
# Poissons Ratio (z) = -0.04782 0.04834
#
# Static dielectric constant tensor:
#      x y z
#    x 1.768410 0.015660 -0.024530 
#    y 0.015660 1.754060 -0.022260 
#    z -0.024530 -0.022260 1.777320 
# 
# From -- ./inp_files/69877.got.cif
#   From: 2010.05.17/outbox.cif.g08.bks.cpg/sg2_35_cif.got.tgz:69877.got - 2010.06.03 11:33:40.
