data_PCOD9108260
_publ_section_title
;
Structure prediction by ZEFSAII (Michael W. Deem and Ramdas Pophale) SiO2 
 PCOD9108260
Probable space group: P -1
;
_chemical_formula_sum "Si O2"
_cell_formula_units_Z 16
_cell_length_a 9.465242
_cell_length_b 11.429592
_cell_length_c 12.263503
_cell_angle_alpha 36.853482
_cell_angle_beta 108.722292
_cell_angle_gamma 118.073671
_cell_volume 698.217792
_symmetry_space_group_name_H-M "P -1"
_symmetry_group_IT_number 2
_symmetry_cell_setting 'triclinic'
loop_
_space_group_symop_operation_xyz
x,y,z
-x,-y,-z
loop_
_atom_site_type_symbol
_atom_site_label
_atom_site_fract_x
_atom_site_fract_y
_atom_site_fract_z
Si Si1 0.881647 0.728968 0.942660
Si Si2 0.280393 0.697264 0.857675
Si Si3 0.375166 0.789830 0.573071
Si Si4 0.898432 0.985635 0.379077
Si Si5 0.432622 0.360612 0.434190
Si Si6 0.872107 0.069100 0.982972
Si Si7 0.557042 0.823821 0.196140
Si Si8 0.658753 0.939172 0.821162
O O1 0.464056 0.809086 0.863585
O O2 0.735086 0.768025 0.935883
O O3 0.817977 0.550742 0.965489
O O4 0.014376 0.731099 0.066110
O O5 0.277536 0.680733 0.736169
O O6 0.189529 0.845722 0.762815
O O7 0.479292 0.677677 0.621915
O O8 0.293352 0.876960 0.394567
O O9 0.500000 0.000000 0.500000
O O10 0.020999 0.054698 0.258627
O O11 0.757434 0.758691 0.519197
O O12 0.000000 0.000000 0.500000
O O13 0.519737 0.393511 0.724683
O O14 0.744680 0.056325 0.865168
O O15 0.748984 0.910592 0.157273
O O16 0.000000 0.000000 0.000000
O O17 0.516205 0.749317 0.366926
O O18 0.500000 0.000000 0.000000
#
# Coordination Sequence:
#
# PCOD9108260 Si02
#       8
#     2   2   2   2   2   2   2   2
#     4  11  24  41  66 100 140 177 224 288 355 409
#     4  11  24  42  68 100 134 183 235 282 337 429
#     4  10  20  40  67  95 133 173 237 281 334 405
#     4  12  25  44  65  96 142 178 224 293 361 413
#     4  11  24  45  69 102 138 181 234 293 344 422
#     4  10  23  41  66  98 139 172 220 294 347 406
#     4  11  25  45  75  98 134 187 240 285 347 430
#     4  10  21  41  67  96 132 183 234 278 340 423
#
# _framework density 22.915488
#
# number of rings (size 3 to 8) (size 9 to 14) (size 15 to 20)
#    0.000    1.250    3.750    2.250    5.250    2.000 
#    0.000    0.625    0.000    0.000    0.000    0.000 
#    0.000    0.000    0.000    0.000    0.000    0.000 
#
# Total GULP energy -89234.291863 kJ/mol
# GULP energy per Si atom -5577.143241 kJ/mol
# Density = 2.286333 g / cm^3
# Si number density = 22.915488 Si / 1000 Ang^3
#
#
#
# Elastic Constant Matrix: (Units=GPa)
#
#
# Indices 1 2 3 4 5 6 
#
# 1 113.2378 36.5017 17.3713 -8.1076 -1.7505 11.4275
# 2 36.5017 130.7666 19.9740 -7.5387 19.7316 21.7868
# 3 17.3713 19.9740 67.5824 6.4374 5.4982 5.5181
# 4 -8.1076 -7.5387 6.4374 45.6655 -0.5241 -2.1936
# 5 -1.7505 19.7316 5.4982 -0.5241 30.9623 13.1392
# 6 11.4275 21.7868 5.5181 -2.1936 13.1392 40.3006
#
#
#
# Elastic Compliance Matrix: (Units=1/GPa)
#
#
# Indices 1 2 3 4 5 6 
#
# 1 0.010429 -0.002652 -0.002163 0.001649 0.003684 -0.002339
# 2 -0.002652 0.009926 -0.001743 0.001228 -0.005010 -0.002675
# 3 -0.002163 -0.001743 0.016325 -0.003006 -0.001861 -0.000237
# 4 0.001649 0.001228 -0.003006 0.022843 0.000010 0.000520
# 5 0.003684 -0.005010 -0.001861 0.000010 0.040869 -0.011405
# 6 -0.002339 -0.002675 -0.000237 0.000520 -0.011405 0.030702
#
#
# Mechanical properties :
#
#
# Convention : Reuss Voigt Hill
#
# Bulk Modulus (GPa) = 42.43631 51.03119 46.73375
# Shear Modulus (GPa) = 32.88115 39.23499 36.05807
#
# Velocity S-wave (km/s) = 3.79210 4.14232 3.97107
# Velocity P-wave (km/s) = 6.14265 6.72280 6.43926
#
# Compressibility (1/GPa) = 0.02356473
#
# Stress axis : x y z
#
# Youngs Moduli (GPa) = 95.89084 100.74411 61.25664
#
# Poissons Ratio (x) = 0.26716 0.13247
# Poissons Ratio (y) = 0.25429 0.10677
# Poissons Ratio (z) = 0.20737 0.17559
#
# Static dielectric constant tensor:
#      x y z
#    x 1.893240 -0.002600 -0.061670 
#    y -0.002600 1.877990 0.004260 
#    z -0.061670 0.004260 2.101580 
# 
# From -- ./inp_files/392134.got.cif
#   From: 2010.05.17/outbox.cif.g08.bks.cpg/sg2_197_cif.got.tgz:392134.got - 2010.06.03 11:33:40.
