data_PCOD9108817
_publ_section_title
;
Structure prediction by ZEFSAII (Michael W. Deem and Ramdas Pophale) SiO2 
 PCOD9108817
Probable space group: P -1
;
_chemical_formula_sum "Si O2"
_cell_formula_units_Z 15
_cell_length_a 12.362314
_cell_length_b 9.075199
_cell_length_c 8.687148
_cell_angle_alpha 101.055110
_cell_angle_beta 86.649317
_cell_angle_gamma 47.376006
_cell_volume 679.480334
_symmetry_space_group_name_H-M "P -1"
_symmetry_group_IT_number 2
_symmetry_cell_setting 'triclinic'
loop_
_space_group_symop_operation_xyz
x,y,z
-x,-y,-z
loop_
_atom_site_type_symbol
_atom_site_label
_atom_site_fract_x
_atom_site_fract_y
_atom_site_fract_z
Si Si1 0.357986 0.423863 0.579001
Si Si2 0.614495 0.709640 0.101453
Si Si3 0.706488 0.343190 0.804440
Si Si4 0.872594 0.622656 0.908248
Si Si5 0.931926 0.407213 0.549059
Si Si6 0.000000 0.000000 0.500000
Si Si7 0.589964 0.298851 0.301845
Si Si8 0.295420 0.953984 0.057679
O O1 0.373177 0.337148 0.728420
O O2 0.227093 0.470154 0.502429
O O3 0.517743 0.274804 0.442656
O O4 0.319209 0.640841 0.641607
O O5 0.441255 0.899109 0.101863
O O6 0.681335 0.502594 0.959246
O O7 0.717681 0.743086 0.038629
O O8 0.558440 0.496092 0.737314
O O9 0.704647 0.197482 0.877684
O O10 0.856446 0.191618 0.658276
O O11 0.899671 0.476514 0.744303
O O12 0.854189 0.801753 0.866296
O O13 0.000000 0.500000 0.000000
O O14 0.000000 0.500000 0.500000
O O15 0.025333 0.159619 0.482267
O O16 0.682585 0.112656 0.135432
#
# Coordination Sequence:
#
# PCOD9108817 Si02
#       8
#     2   2   2   2   2   1   2   2
#     4  11  21  40  71 105 146 177 232 312 347 421
#     4  11  21  43  71 105 140 181 236 291 358 430
#     4  11  20  43  70 103 139 181 239 291 350 439
#     4  12  27  48  65  97 148 188 238 295 354 436
#     4  12  26  47  67 101 149 192 240 300 360 435
#     4  12  24  44  74  96 146 202 228 296 376 418
#     4  10  20  40  72 110 141 174 244 298 353 423
#     4  11  22  44  75 103 135 189 235 297 359 428
#
# _framework density 22.075693999999999
#
# number of rings (size 3 to 8) (size 9 to 14) (size 15 to 20)
#    0.000    0.800    5.333    3.600    0.000    1.067 
#    0.000    4.000    0.000    0.000    0.000    0.000 
#    0.000    0.000    0.000    0.000    0.000    0.000 
#
# Total GULP energy -83601.131392 kJ/mol
# GULP energy per Si atom -5573.408759 kJ/mol
# Density = 2.202545 g / cm^3
# Si number density = 22.075694 Si / 1000 Ang^3
#
#
#
# Elastic Constant Matrix: (Units=GPa)
#
#
# Indices 1 2 3 4 5 6 
#
# 1 109.5984 21.5019 36.4099 -15.2736 8.4974 11.4228
# 2 21.5019 108.1140 37.1114 5.8448 8.7406 20.1296
# 3 36.4099 37.1114 136.9878 -9.2536 15.6405 -1.7651
# 4 -15.2736 5.8448 -9.2536 31.5977 3.1940 -4.3333
# 5 8.4974 8.7406 15.6405 3.1940 35.9543 -8.6625
# 6 11.4228 20.1296 -1.7651 -4.3333 -8.6625 29.2819
#
#
#
# Elastic Compliance Matrix: (Units=1/GPa)
#
#
# Indices 1 2 3 4 5 6 
#
# 1 0.011326 -0.000712 -0.002216 0.004675 -0.002979 -0.004252
# 2 -0.000712 0.013131 -0.003414 -0.004876 -0.003701 -0.010771
# 3 -0.002216 -0.003414 0.009301 0.002988 -0.002091 0.003595
# 4 0.004675 -0.004876 0.002988 0.036847 -0.002980 0.006280
# 5 -0.002979 -0.003701 -0.002091 -0.002980 0.033754 0.013125
# 6 -0.004252 -0.010771 0.003595 0.006280 0.013125 0.048243
#
#
# Mechanical properties :
#
#
# Convention : Reuss Voigt Hill
#
# Bulk Modulus (GPa) = 47.45201 60.52740 53.98971
# Shear Modulus (GPa) = 29.01741 36.67858 32.84800
#
# Velocity S-wave (km/s) = 3.62947 4.08056 3.86161
# Velocity P-wave (km/s) = 6.25347 7.04833 6.66276
#
# Compressibility (1/GPa) = 0.02107392
#
# Stress axis : x y z
#
# Youngs Moduli (GPa) = 88.29358 76.15431 107.51793
#
# Poissons Ratio (x) = 0.05422 0.23828
# Poissons Ratio (y) = 0.06287 0.36704
# Poissons Ratio (z) = 0.19568 0.25997
#
# Static dielectric constant tensor:
#      x y z
#    x 1.865590 0.022960 -0.010610 
#    y 0.022960 1.791090 -0.002070 
#    z -0.010610 -0.002070 1.825860 
# 
# From -- ./inp_files/244566.got.cif
#   From: 2010.05.17/outbox.cif.g08.bks.cpg/sg2_123_cif.got.tgz:244566.got - 2010.06.03 11:33:40.
