data_PCOD9108532
_publ_section_title
;
Structure prediction by ZEFSAII (Michael W. Deem and Ramdas Pophale) SiO2 
 PCOD9108532
Probable space group: P -1
;
_chemical_formula_sum "Si O2"
_cell_formula_units_Z 16
_cell_length_a 8.593032
_cell_length_b 14.059064
_cell_length_c 8.364260
_cell_angle_alpha 116.067167
_cell_angle_beta 44.419336
_cell_angle_gamma 101.667277
_cell_volume 625.209168
_symmetry_space_group_name_H-M "P -1"
_symmetry_group_IT_number 2
_symmetry_cell_setting 'triclinic'
loop_
_space_group_symop_operation_xyz
x,y,z
-x,-y,-z
loop_
_atom_site_type_symbol
_atom_site_label
_atom_site_fract_x
_atom_site_fract_y
_atom_site_fract_z
Si Si1 0.855288 0.061795 0.308750
Si Si2 0.338466 0.971448 0.896443
Si Si3 0.823050 0.421506 0.550825
Si Si4 0.914515 0.769255 0.934027
Si Si5 0.710588 0.766143 0.421695
Si Si6 0.390492 0.472353 0.724749
Si Si7 0.521789 0.176158 0.904729
Si Si8 0.847422 0.323337 0.807468
O O1 0.709626 0.009178 0.246650
O O2 0.701100 0.121296 0.601571
O O3 0.948654 0.150337 0.196880
O O4 0.080283 0.987212 0.159653
O O5 0.501917 0.857052 0.693697
O O6 0.445542 0.070862 0.957496
O O7 0.574341 0.479787 0.733152
O O8 0.819439 0.352574 0.663320
O O9 0.000000 0.500000 0.500000
O O10 0.915621 0.343557 0.278291
O O11 0.820914 0.799128 0.200555
O O12 0.699167 0.760247 0.974197
O O13 0.647026 0.649979 0.346124
O O14 0.907460 0.746662 0.394169
O O15 0.500000 0.500000 0.500000
O O16 0.180943 0.564625 0.993012
O O17 0.653993 0.257589 0.958258
#
# Coordination Sequence:
#
# PCOD9108532 Si02
#       8
#     2   2   2   2   2   2   2   2
#     4  10  20  40  69 104 137 184 241 281 341 411
#     4  10  23  38  70 103 139 187 231 289 338 418
#     4  12  23  42  71 102 136 182 233 288 354 409
#     4  11  22  40  71 102 137 182 232 288 339 416
#     4  12  25  44  68 104 140 184 238 285 347 416
#     4  12  26  49  73 101 139 184 236 289 349 419
#     4  11  22  43  68 103 144 180 237 285 346 411
#     4  12  26  45  69 101 146 179 229 294 351 415
#
# _framework density 25.591436999999999
#
# number of rings (size 3 to 8) (size 9 to 14) (size 15 to 20)
#    0.000    0.750    2.500    5.625    3.500    0.500 
#    0.000    0.625    0.000    0.000    0.000    0.000 
#    0.000    0.000    0.000    0.000    0.000    0.000 
#
# Total GULP energy -89658.806018 kJ/mol
# GULP energy per Si atom -5603.675376 kJ/mol
# Density = 2.553319 g / cm^3
# Si number density = 25.591437 Si / 1000 Ang^3
#
#
#
# Elastic Constant Matrix: (Units=GPa)
#
#
# Indices 1 2 3 4 5 6 
#
# 1 100.2555 49.1598 15.1778 -7.7040 -19.2512 -3.1504
# 2 49.1598 135.0440 30.1193 1.4236 -13.3684 16.1505
# 3 15.1778 30.1193 107.0177 16.7096 -4.5700 -12.2845
# 4 -7.7040 1.4236 16.7096 50.6388 -4.4774 -1.8177
# 5 -19.2512 -13.3684 -4.5700 -4.4774 46.2375 1.4609
# 6 -3.1504 16.1505 -12.2845 -1.8177 1.4609 53.1031
#
#
#
# Elastic Compliance Matrix: (Units=1/GPa)
#
#
# Indices 1 2 3 4 5 6 
#
# 1 0.013453 -0.004588 -0.000641 0.002851 0.004424 0.002021
# 2 -0.004588 0.010232 -0.002624 -0.000185 0.000898 -0.004022
# 3 -0.000641 -0.002624 0.011088 -0.003601 -0.000380 0.003212
# 4 0.002851 -0.000185 -0.003601 0.021631 0.002871 0.000054
# 5 0.004424 0.000898 -0.000380 0.002871 0.023990 -0.000660
# 6 0.002021 -0.004022 0.003212 0.000054 -0.000660 0.020938
#
#
# Mechanical properties :
#
#
# Convention : Reuss Voigt Hill
#
# Bulk Modulus (GPa) = 52.44270 59.02565 55.73418
# Shear Modulus (GPa) = 40.52060 46.51990 43.52025
#
# Velocity S-wave (km/s) = 3.98347 4.26818 4.12828
# Velocity P-wave (km/s) = 6.45710 6.88509 6.67453
#
# Compressibility (1/GPa) = 0.01906843
#
# Stress axis : x y z
#
# Youngs Moduli (GPa) = 74.33040 97.72995 90.18547
#
# Poissons Ratio (x) = 0.44842 0.05780
# Poissons Ratio (y) = 0.34105 0.23660
# Poissons Ratio (z) = 0.04764 0.25640
#
# Static dielectric constant tensor:
#      x y z
#    x 2.029840 0.003190 0.019710 
#    y 0.003190 2.070760 -0.002530 
#    z 0.019710 -0.002530 1.963980 
# 
# From -- ./inp_files/208102.got.cif
#   From: 2010.05.17/outbox.cif.g08.bks.cpg/sg2_105_cif.got.tgz:208102.got - 2010.06.03 11:33:40.
