data_PCOD9108607
_publ_section_title
;
Structure prediction by ZEFSAII (Michael W. Deem and Ramdas Pophale) SiO2 
 PCOD9108607
Probable space group: P -1
;
_chemical_formula_sum "Si O2"
_cell_formula_units_Z 16
_cell_length_a 18.113653
_cell_length_b 6.706503
_cell_length_c 10.184768
_cell_angle_alpha 72.686175
_cell_angle_beta 145.108544
_cell_angle_gamma 115.908025
_cell_volume 632.143172
_symmetry_space_group_name_H-M "P -1"
_symmetry_group_IT_number 2
_symmetry_cell_setting 'triclinic'
loop_
_space_group_symop_operation_xyz
x,y,z
-x,-y,-z
loop_
_atom_site_type_symbol
_atom_site_label
_atom_site_fract_x
_atom_site_fract_y
_atom_site_fract_z
Si Si1 0.105952 0.189627 0.030338
Si Si2 0.398120 0.525671 0.463347
Si Si3 0.865983 0.562750 0.292821
Si Si4 0.111310 0.962838 0.822354
Si Si5 0.938362 0.485683 0.766977
Si Si6 0.457343 0.230670 0.801920
Si Si7 0.315504 0.749403 0.684916
Si Si8 0.664118 0.223937 0.883717
O O1 0.244835 0.341360 0.273393
O O2 0.088013 0.172170 0.679301
O O3 0.010790 0.334564 0.826039
O O4 0.000000 0.000000 0.000000
O O5 0.500000 0.500000 0.500000
O O6 0.453278 0.463040 0.693113
O O7 0.377449 0.746562 0.332694
O O8 0.777031 0.418332 0.308889
O O9 0.000000 0.500000 0.500000
O O10 0.762917 0.464713 0.038387
O O11 0.153019 0.065529 0.007523
O O12 0.237802 0.919391 0.945484
O O13 0.000000 0.500000 0.000000
O O14 0.991537 0.727995 0.728199
O O15 0.773136 0.359793 0.550769
O O16 0.539429 0.154762 0.818275
O O17 0.323448 0.005644 0.661488
O O18 0.536390 0.252723 0.050923
#
# Coordination Sequence:
#
# PCOD9108607 Si02
#       8
#     2   2   2   2   2   2   2   2
#     4  12  23  41  69 106 141 182 227 296 367 411
#     4  10  20  40  69  98 139 181 234 288 352 423
#     4  11  23  41  68  98 141 185 228 290 360 425
#     4  12  23  41  70 102 142 179 231 293 356 423
#     4  12  25  43  70 109 139 175 236 297 361 429
#     4   9  21  42  73  97 140 193 232 292 351 428
#     4  10  22  43  69 100 136 185 238 284 358 423
#     4  10  21  41  68 102 133 179 241 286 353 426
#
# _framework density 25.310722999999999
#
# number of rings (size 3 to 8) (size 9 to 14) (size 15 to 20)
#    0.000    1.250    3.750    2.250    0.000    2.000 
#    0.000    4.375    2.750    0.000    0.000    0.000 
#    0.000    0.000    0.000    0.000    0.000    0.000 
#
# Total GULP energy -89310.579907 kJ/mol
# GULP energy per Si atom -5581.911244 kJ/mol
# Density = 2.525311 g / cm^3
# Si number density = 25.310723 Si / 1000 Ang^3
#
#
#
# Elastic Constant Matrix: (Units=GPa)
#
#
# Indices 1 2 3 4 5 6 
#
# 1 60.3285 20.4370 11.9504 6.9958 5.4313 -11.4999
# 2 20.4370 163.7824 48.2961 -18.0774 9.3123 -2.5682
# 3 11.9504 48.2961 128.6567 -16.0120 -11.1567 -4.0355
# 4 6.9958 -18.0774 -16.0120 47.1929 3.4612 2.6287
# 5 5.4313 9.3123 -11.1567 3.4612 38.2448 -8.4665
# 6 -11.4999 -2.5682 -4.0355 2.6287 -8.4665 37.5700
#
#
#
# Elastic Compliance Matrix: (Units=1/GPa)
#
#
# Indices 1 2 3 4 5 6 
#
# 1 0.019340 -0.002366 -0.001365 -0.004489 -0.000895 0.005724
# 2 -0.002366 0.007595 -0.002583 0.002661 -0.002795 -0.001298
# 3 -0.001365 -0.002583 0.009481 0.002101 0.003641 0.001097
# 4 -0.004489 0.002661 0.002101 0.023929 -0.002260 -0.003150
# 5 -0.000895 -0.002795 0.003641 -0.002260 0.029723 0.006782
# 6 0.005724 -0.001298 0.001097 -0.003150 0.006782 0.030147
#
#
# Mechanical properties :
#
#
# Convention : Reuss Voigt Hill
#
# Bulk Modulus (GPa) = 42.03869 57.12608 49.58239
# Shear Modulus (GPa) = 35.51845 42.74048 39.12947
#
# Velocity S-wave (km/s) = 3.75012 4.11375 3.93614
# Velocity P-wave (km/s) = 5.94948 6.72182 6.34741
#
# Compressibility (1/GPa) = 0.02378761
#
# Stress axis : x y z
#
# Youngs Moduli (GPa) = 51.70622 131.66842 105.47543
#
# Poissons Ratio (x) = 0.31147 0.14400
# Poissons Ratio (y) = 0.12231 0.27247
# Poissons Ratio (z) = 0.07059 0.34013
#
# Static dielectric constant tensor:
#      x y z
#    x 2.103110 -0.010750 -0.064140 
#    y -0.010750 2.039710 -0.037930 
#    z -0.064140 -0.037930 2.194210 
# 
# From -- ./inp_files/474644.got.cif
#   From: 2010.05.17/outbox.cif.g08.bks.cpg/sg2_238_cif.got.tgz:474644.got - 2010.06.03 11:33:40.
