data_PCOD9108161
_publ_section_title
;
Structure prediction by ZEFSAII (Michael W. Deem and Ramdas Pophale) SiO2 
 PCOD9108161
Probable space group: P -1
;
_chemical_formula_sum "Si O2"
_cell_formula_units_Z 14
_cell_length_a 12.516357
_cell_length_b 14.101146
_cell_length_c 5.632907
_cell_angle_alpha 93.843017
_cell_angle_beta 106.111872
_cell_angle_gamma 40.611778
_cell_volume 605.098614
_symmetry_space_group_name_H-M "P -1"
_symmetry_group_IT_number 2
_symmetry_cell_setting 'triclinic'
loop_
_space_group_symop_operation_xyz
x,y,z
-x,-y,-z
loop_
_atom_site_type_symbol
_atom_site_label
_atom_site_fract_x
_atom_site_fract_y
_atom_site_fract_z
Si Si1 0.268932 0.399416 0.086562
Si Si2 0.726345 0.877250 0.296538
Si Si3 0.138141 0.289983 0.158371
Si Si4 0.215162 0.938642 0.238048
Si Si5 0.528308 0.121585 0.898708
Si Si6 0.877559 0.135702 0.259645
Si Si7 0.445885 0.633294 0.614295
O O1 0.246785 0.318872 0.224338
O O2 0.374058 0.294176 0.902160
O O3 0.382759 0.414912 0.242111
O O4 0.069129 0.555683 0.936628
O O5 0.820747 0.793850 0.587811
O O6 0.651104 0.029065 0.194383
O O7 0.822799 0.780846 0.092492
O O8 0.556883 0.921934 0.222298
O O9 0.316788 0.790237 0.420976
O O10 0.355801 0.922885 0.253252
O O11 0.168115 0.914892 0.964420
O O12 0.029508 0.102240 0.240571
O O13 0.691945 0.301801 0.248616
O O14 0.000000 0.000000 0.500000
O O15 0.500000 0.500000 0.500000
#
# Coordination Sequence:
#
# PCOD9108161 Si02
#       7
#     2   2   2   2   2   2   2
#     4  10  22  42  68  94 136 185 219 275 346 417
#     4  10  23  42  67 107 139 171 225 294 334 413
#     4  10  23  44  67 102 144 178 227 276 351 417
#     4  10  20  40  67  88 125 175 220 276 343 404
#     4  10  21  40  70  97 129 175 226 274 349 409
#     4   9  20  41  62  90 121 168 222 278 335 399
#     4  11  23  41  64  97 132 174 233 282 334 404
#
# _framework density 23.136723
#
# number of rings (size 3 to 8) (size 9 to 14) (size 15 to 20)
#    0.000    2.000    1.429    0.857    0.000   13.143 
#    7.714    0.000    0.000    0.000    0.000    0.000 
#    0.000    0.000    0.000    0.000    0.000    0.000 
#
# Total GULP energy -78043.365375 kJ/mol
# GULP energy per Si atom -5574.526098 kJ/mol
# Density = 2.308406 g / cm^3
# Si number density = 23.136723 Si / 1000 Ang^3
#
#
#
# Elastic Constant Matrix: (Units=GPa)
#
#
# Indices 1 2 3 4 5 6 
#
# 1 118.8749 80.1426 27.0615 15.4313 14.9003 -29.7817
# 2 80.1426 146.2613 37.2673 12.4300 -0.2645 -36.8266
# 3 27.0615 37.2673 75.4114 -6.3849 -8.4204 -5.2622
# 4 15.4313 12.4300 -6.3849 26.4878 -3.6245 1.8657
# 5 14.9003 -0.2645 -8.4204 -3.6245 32.9583 2.5745
# 6 -29.7817 -36.8266 -5.2622 1.8657 2.5745 37.7857
#
#
#
# Elastic Compliance Matrix: (Units=1/GPa)
#
#
# Indices 1 2 3 4 5 6 
#
# 1 0.019189 -0.005256 -0.006007 -0.012617 -0.012471 0.010638
# 2 -0.005256 0.013465 -0.004577 -0.004951 0.000100 0.008581
# 3 -0.006007 -0.004577 0.019228 0.012134 0.009533 -0.007767
# 4 -0.012617 -0.004951 0.012134 0.053724 0.015986 -0.016821
# 5 -0.012471 0.000100 0.009533 0.015986 0.041111 -0.011994
# 6 0.010638 0.008581 -0.007767 -0.016821 -0.011994 0.043779
#
#
# Mechanical properties :
#
#
# Convention : Reuss Voigt Hill
#
# Bulk Modulus (GPa) = 49.50094 69.94337 59.72215
# Shear Modulus (GPa) = 21.84277 32.51810 27.18044
#
# Velocity S-wave (km/s) = 3.07591 3.75303 3.43122
# Velocity P-wave (km/s) = 5.83579 7.00546 6.44720
#
# Compressibility (1/GPa) = 0.02020164
#
# Stress axis : x y z
#
# Youngs Moduli (GPa) = 52.11329 74.26903 52.00728
#
# Poissons Ratio (x) = 0.39033 0.31241
# Poissons Ratio (y) = 0.27389 0.23805
# Poissons Ratio (z) = 0.31305 0.33995
#
# Static dielectric constant tensor:
#      x y z
#    x 1.996960 -0.006000 -0.084840 
#    y -0.006000 1.864630 0.011030 
#    z -0.084840 0.011030 1.988100 
# 
# From -- ./inp_files/78204.got.cif
#   From: 2010.05.17/outbox.cif.g08.bks.cpg/sg2_40_cif.got.tgz:78204.got - 2010.06.03 11:33:40.
