data_PCOD9108014
_publ_section_title
;
Structure prediction by ZEFSAII (Michael W. Deem and Ramdas Pophale) SiO2 
 PCOD9108014
Probable space group: P -1
;
_chemical_formula_sum "Si O2"
_cell_formula_units_Z 15
_cell_length_a 7.945538
_cell_length_b 9.081602
_cell_length_c 12.766903
_cell_angle_alpha 77.343215
_cell_angle_beta 121.345950
_cell_angle_gamma 128.104708
_cell_volume 611.941308
_symmetry_space_group_name_H-M "P -1"
_symmetry_group_IT_number 2
_symmetry_cell_setting 'triclinic'
loop_
_space_group_symop_operation_xyz
x,y,z
-x,-y,-z
loop_
_atom_site_type_symbol
_atom_site_label
_atom_site_fract_x
_atom_site_fract_y
_atom_site_fract_z
Si Si1 0.313215 0.459521 0.541696
Si Si2 0.519524 0.167416 0.536762
Si Si3 0.000000 0.000000 0.000000
Si Si4 0.731351 0.743590 0.242799
Si Si5 0.963619 0.720191 0.869559
Si Si6 0.967248 0.862243 0.628246
Si Si7 0.288462 0.613565 0.999585
Si Si8 0.921990 0.254443 0.795487
O O1 0.500000 0.500000 0.500000
O O2 0.326055 0.644124 0.514343
O O3 0.380345 0.419209 0.680895
O O4 0.052514 0.264493 0.453365
O O5 0.249563 0.117170 0.468710
O O6 0.672198 0.221827 0.685816
O O7 0.500000 0.000000 0.500000
O O8 0.111462 0.898727 0.111602
O O9 0.070843 0.142275 0.099844
O O10 0.576654 0.709667 0.091287
O O11 0.968653 0.767940 0.270857
O O12 0.800427 0.930861 0.293598
O O13 0.909475 0.735057 0.731142
O O14 0.810924 0.514842 0.907455
O O15 0.233345 0.764928 0.955067
O O16 0.134006 0.462158 0.880622
#
# Coordination Sequence:
#
# PCOD9108014 Si02
#       8
#     2   2   1   2   2   2   2   2
#     4  10  24  41  68  92 129 179 223 275 344 397
#     4  11  21  42  68  94 130 175 222 271 335 406
#     4  10  20  40  66  94 130 174 218 272 330 396
#     4  12  23  42  67  99 140 172 227 288 331 398
#     4  10  20  41  65  94 128 180 229 268 331 407
#     4  11  22  42  66  97 135 174 223 280 337 396
#     4  10  23  39  67  95 133 180 228 275 332 398
#     4  11  23  41  66  98 135 177 227 273 335 399
#
# _framework density 24.512156000000001
#
# number of rings (size 3 to 8) (size 9 to 14) (size 15 to 20)
#    0.000    1.333    2.667    3.200    0.000    7.467 
#    0.000    0.000    0.000    0.000    0.000    0.000 
#    0.000    0.000    0.000    0.000    0.000    0.000 
#
# Total GULP energy -83549.457470 kJ/mol
# GULP energy per Si atom -5569.963831 kJ/mol
# Density = 2.445636 g / cm^3
# Si number density = 24.512156 Si / 1000 Ang^3
#
#
#
# Elastic Constant Matrix: (Units=GPa)
#
#
# Indices 1 2 3 4 5 6 
#
# 1 33.8133 1.2088 5.5601 6.1112 9.8988 -9.6187
# 2 1.2088 137.8242 31.1738 7.5967 11.8050 -30.7820
# 3 5.5601 31.1738 155.2778 13.0235 17.7612 2.0080
# 4 6.1112 7.5967 13.0235 35.8143 2.5145 -11.4906
# 5 9.8988 11.8050 17.7612 2.5145 36.3961 -1.5614
# 6 -9.6187 -30.7820 2.0080 -11.4906 -1.5614 32.7902
#
#
#
# Elastic Compliance Matrix: (Units=1/GPa)
#
#
# Indices 1 2 3 4 5 6 
#
# 1 0.036635 0.003823 -0.000956 -0.001740 -0.010046 0.013306
# 2 0.003823 0.010461 -0.002200 0.001856 -0.002990 0.011584
# 3 -0.000956 -0.002200 0.007544 -0.003232 -0.002659 -0.004067
# 4 -0.001740 0.001856 -0.003232 0.033208 -0.000286 0.013053
# 5 -0.010046 -0.002990 -0.002659 -0.000286 0.032317 -0.004152
# 6 0.013306 0.011584 -0.004067 0.013053 -0.004152 0.049900
#
#
# Mechanical properties :
#
#
# Convention : Reuss Voigt Hill
#
# Bulk Modulus (GPa) = 17.86582 44.75564 31.31073
# Shear Modulus (GPa) = 26.68229 40.26496 33.47362
#
# Velocity S-wave (km/s) = 3.30287 4.05736 3.69940
# Velocity P-wave (km/s) = 4.67436 6.34411 5.57214
#
# Compressibility (1/GPa) = 0.05597279
#
# Stress axis : x y z
#
# Youngs Moduli (GPa) = 27.29607 95.59385 132.55858
#
# Poissons Ratio (x) = -0.36548 0.12678
# Poissons Ratio (y) = -0.10436 0.29169
# Poissons Ratio (z) = 0.02611 0.21035
#
# Static dielectric constant tensor:
#      x y z
#    x 2.094410 0.103500 0.047120 
#    y 0.103500 2.007960 0.050200 
#    z 0.047120 0.050200 1.948740 
# 
# From -- ./inp_files/381837.got.cif
#   From: 2010.05.17/outbox.cif.g08.bks.cpg/sg2_191_cif.got.tgz:381837.got - 2010.06.03 11:33:40.
