data_PCOD9108479
_publ_section_title
;
Structure prediction by ZEFSAII (Michael W. Deem and Ramdas Pophale) SiO2 
 PCOD9108479
Probable space group: P -1
;
_chemical_formula_sum "Si O2"
_cell_formula_units_Z 16
_cell_length_a 9.928063
_cell_length_b 9.349909
_cell_length_c 9.426486
_cell_angle_alpha 99.789831
_cell_angle_beta 63.262105
_cell_angle_gamma 122.650709
_cell_volume 654.891320
_symmetry_space_group_name_H-M "P -1"
_symmetry_group_IT_number 2
_symmetry_cell_setting 'triclinic'
loop_
_space_group_symop_operation_xyz
x,y,z
-x,-y,-z
loop_
_atom_site_type_symbol
_atom_site_label
_atom_site_fract_x
_atom_site_fract_y
_atom_site_fract_z
Si Si1 0.158908 0.214723 0.838935
Si Si2 0.111547 0.095207 0.256489
Si Si3 0.214312 0.621400 0.255479
Si Si4 0.995494 0.696154 0.850588
Si Si5 0.603759 0.122133 0.337969
Si Si6 0.636554 0.467240 0.352801
Si Si7 0.077584 0.330949 0.515606
Si Si8 0.621793 0.883034 0.074227
O O1 0.308419 0.414800 0.790666
O O2 0.252645 0.136799 0.873626
O O3 0.999877 0.227732 0.985772
O O4 0.064928 0.085921 0.730251
O O5 0.104863 0.228903 0.174654
O O6 0.107076 0.182234 0.419953
O O7 0.281304 0.090238 0.118905
O O8 0.111768 0.506189 0.147697
O O9 0.156033 0.480986 0.384863
O O10 0.422141 0.720554 0.145959
O O11 0.126356 0.729095 0.364450
O O12 0.187501 0.774099 0.706291
O O13 0.562813 0.268864 0.351624
O O14 0.500000 0.000000 0.500000
O O15 0.591486 0.025003 0.182686
O O16 0.500000 0.500000 0.500000
O O17 0.813027 0.570249 0.381068
#
# Coordination Sequence:
#
# PCOD9108479 Si02
#       8
#     2   2   2   2   2   2   2   2
#     4  11  22  42  66  96 140 168 215 268 332 399
#     4  10  21  39  66  95 133 170 219 275 319 383
#     4  10  21  37  65  99 128 163 223 282 311 382
#     4  10  20  40  68  98 126 175 219 266 334 375
#     4  12  23  40  69  97 128 165 229 272 311 390
#     4  12  27  42  64  99 133 175 213 271 334 393
#     4  10  22  39  61  93 132 171 218 263 337 374
#     4  11  22  40  70 102 126 169 226 270 326 377
#
# _framework density 24.431535
#
# number of rings (size 3 to 8) (size 9 to 14) (size 15 to 20)
#    0.000    1.250    3.750    3.000    3.500    6.500 
#    0.000    0.000    0.000    2.250    0.000    0.000 
#    0.000    0.000    0.000    0.000    0.000    0.000 
#
# Total GULP energy -89294.073214 kJ/mol
# GULP energy per Si atom -5580.879576 kJ/mol
# Density = 2.437593 g / cm^3
# Si number density = 24.431535 Si / 1000 Ang^3
#
#
#
# Elastic Constant Matrix: (Units=GPa)
#
#
# Indices 1 2 3 4 5 6 
#
# 1 40.3813 21.4587 32.5159 3.8692 -23.0258 10.5614
# 2 21.4587 151.7092 67.0408 17.1675 -21.4915 -9.4980
# 3 32.5159 67.0408 106.6343 24.8610 -34.1032 -8.5187
# 4 3.8692 17.1675 24.8610 43.7297 10.0587 -7.8783
# 5 -23.0258 -21.4915 -34.1032 10.0587 39.7851 -1.4972
# 6 10.5614 -9.4980 -8.5187 -7.8783 -1.4972 41.4204
#
#
#
# Elastic Compliance Matrix: (Units=1/GPa)
#
#
# Indices 1 2 3 4 5 6 
#
# 1 0.048205 -0.000852 -0.005260 -0.009226 0.024720 -0.014430
# 2 -0.000852 0.009183 -0.005365 -0.000264 -0.000021 0.001168
# 3 -0.005260 -0.005365 0.023889 -0.014713 0.018363 0.002889
# 4 -0.009226 -0.000264 -0.014713 0.039611 -0.027891 0.005792
# 5 0.024720 -0.000021 0.018363 -0.027891 0.062012 -0.005595
# 6 -0.014430 0.001168 0.002889 0.005792 -0.005595 0.029584
#
#
# Mechanical properties :
#
#
# Convention : Reuss Voigt Hill
#
# Bulk Modulus (GPa) = 17.14563 60.08397 38.61480
# Shear Modulus (GPa) = 19.61718 36.83434 28.22576
#
# Velocity S-wave (km/s) = 2.83670 3.88707 3.40266
# Velocity P-wave (km/s) = 4.21453 6.69267 5.59259
#
# Compressibility (1/GPa) = 0.05832390
#
# Stress axis : x y z
#
# Youngs Moduli (GPa) = 20.74456 108.89537 41.86103
#
# Poissons Ratio (x) = 0.09274 0.22017
# Poissons Ratio (y) = 0.01767 0.22460
# Poissons Ratio (z) = 0.10911 0.58426
#
# Static dielectric constant tensor:
#      x y z
#    x 2.023030 -0.002740 0.038370 
#    y -0.002740 1.942610 0.000850 
#    z 0.038370 0.000850 2.076670 
# 
# From -- ./inp_files/317929.got.cif
#   From: 2010.05.17/outbox.cif.g08.bks.cpg/sg2_159_cif.got.tgz:317929.got - 2010.06.03 11:33:40.
