data_PCOD9108652
_publ_section_title
;
Structure prediction by ZEFSAII (Michael W. Deem and Ramdas Pophale) SiO2 
 PCOD9108652
Probable space group: P -1
;
_chemical_formula_sum "Si O2"
_cell_formula_units_Z 15
_cell_length_a 14.443411
_cell_length_b 11.017306
_cell_length_c 17.000646
_cell_angle_alpha 149.203544
_cell_angle_beta 154.708277
_cell_angle_gamma 31.841903
_cell_volume 557.952373
_symmetry_space_group_name_H-M "P -1"
_symmetry_group_IT_number 2
_symmetry_cell_setting 'triclinic'
loop_
_space_group_symop_operation_xyz
x,y,z
-x,-y,-z
loop_
_atom_site_type_symbol
_atom_site_label
_atom_site_fract_x
_atom_site_fract_y
_atom_site_fract_z
Si Si1 0.838578 0.226468 0.055907
Si Si2 0.000000 0.000000 0.500000
Si Si3 0.304767 0.776403 0.768090
Si Si4 0.533971 0.908252 0.653924
Si Si5 0.759564 0.713863 0.161976
Si Si6 0.914231 0.171092 0.777705
Si Si7 0.277937 0.245550 0.450911
Si Si8 0.139796 0.468538 0.205774
O O1 0.768334 0.482764 0.094816
O O2 0.024355 0.237384 0.270340
O O3 0.618402 0.147807 0.865264
O O4 0.000000 0.000000 0.000000
O O5 0.199180 0.852443 0.643649
O O6 0.785779 0.944557 0.358243
O O7 0.300458 0.503710 0.640012
O O8 0.565505 0.760576 0.974315
O O9 0.153257 0.982645 0.826772
O O10 0.282435 0.953475 0.451766
O O11 0.700865 0.745554 0.622410
O O12 0.621430 0.717410 0.685874
O O13 0.004164 0.681260 0.283933
O O14 0.839071 0.398965 0.784221
O O15 0.968359 0.302979 0.971144
O O16 0.500000 0.000000 0.500000
#
# Coordination Sequence:
#
# PCOD9108652 Si02
#       8
#     2   1   2   2   2   2   2   2
#     4  10  20  40  70 104 125 171 237 288 332 395
#     4  12  24  42  70 102 142 172 232 290 346 396
#     4  12  25  44  69 104 140 176 232 290 346 405
#     4  11  23  44  70  99 136 183 232 282 341 419
#     4  12  23  45  72 104 134 178 236 293 339 400
#     4  11  27  42  64 101 145 188 220 281 351 416
#     4  11  23  43  77 101 133 181 236 293 339 405
#     4  11  23  46  67  98 140 187 238 272 341 422
#
# _framework density 26.884014000000001
#
# number of rings (size 3 to 8) (size 9 to 14) (size 15 to 20)
#    0.000    0.800    5.333    3.200    1.867    1.067 
#    4.800    3.333    0.000    0.000    0.000    0.000 
#    0.000    0.000    0.000    0.000    0.000    0.000 
#
# Total GULP energy -83780.447176 kJ/mol
# GULP energy per Si atom -5585.363145 kJ/mol
# Density = 2.682282 g / cm^3
# Si number density = 26.884014 Si / 1000 Ang^3
#
#
#
# Elastic Constant Matrix: (Units=GPa)
#
#
# Indices 1 2 3 4 5 6 
#
# 1 41.8744 27.6530 11.4531 -5.3693 -9.8419 -5.8247
# 2 27.6530 175.6513 74.8878 -1.7661 -6.4907 24.4806
# 3 11.4531 74.8878 240.1295 -8.7774 -2.2858 6.9891
# 4 -5.3693 -1.7661 -8.7774 54.5794 8.9100 2.0713
# 5 -9.8419 -6.4907 -2.2858 8.9100 27.5713 0.9683
# 6 -5.8247 24.4806 6.9891 2.0713 0.9683 34.8504
#
#
#
# Elastic Compliance Matrix: (Units=1/GPa)
#
#
# Indices 1 2 3 4 5 6 
#
# 1 0.031274 -0.005928 0.000221 0.001089 0.009117 0.009029
# 2 -0.005928 0.008456 -0.002181 -0.000424 0.000058 -0.006470
# 3 0.000221 -0.002181 0.004843 0.000757 -0.000297 0.000561
# 4 0.001089 -0.000424 0.000757 0.019532 -0.005937 -0.000668
# 5 0.009117 0.000058 -0.000297 -0.005937 0.041405 0.000745
# 6 0.009029 -0.006470 0.000561 -0.000668 0.000745 0.034654
#
#
# Mechanical properties :
#
#
# Convention : Reuss Voigt Hill
#
# Bulk Modulus (GPa) = 34.72736 76.18257 55.45497
# Shear Modulus (GPa) = 30.20454 46.31098 38.25776
#
# Velocity S-wave (km/s) = 3.35552 4.15495 3.77645
# Velocity P-wave (km/s) = 5.28755 7.17058 6.29982
#
# Compressibility (1/GPa) = 0.02879574
#
# Stress axis : x y z
#
# Youngs Moduli (GPa) = 31.97574 118.26267 206.50242
#
# Poissons Ratio (x) = 0.70108 -0.04563
# Poissons Ratio (y) = 0.18956 0.45037
# Poissons Ratio (z) = -0.00707 0.25793
#
# Static dielectric constant tensor:
#      x y z
#    x 2.199670 0.020610 0.023930 
#    y 0.020610 2.143060 0.131970 
#    z 0.023930 0.131970 2.248810 
# 
# From -- ./inp_files/577944.got.cif
#   From: 2010.05.17/outbox.cif.g08.bks.cpg/sg2_289_cif.got.tgz:577944.got - 2010.06.03 11:33:40.
