data_PCOD9108676
_publ_section_title
;
Structure prediction by ZEFSAII (Michael W. Deem and Ramdas Pophale) SiO2 
 PCOD9108676
Probable space group: P -1
;
_chemical_formula_sum "Si O2"
_cell_formula_units_Z 16
_cell_length_a 15.185884
_cell_length_b 9.856578
_cell_length_c 8.190597
_cell_angle_alpha 133.522156
_cell_angle_beta 51.493184
_cell_angle_gamma 115.880361
_cell_volume 695.580496
_symmetry_space_group_name_H-M "P -1"
_symmetry_group_IT_number 2
_symmetry_cell_setting 'triclinic'
loop_
_space_group_symop_operation_xyz
x,y,z
-x,-y,-z
loop_
_atom_site_type_symbol
_atom_site_label
_atom_site_fract_x
_atom_site_fract_y
_atom_site_fract_z
Si Si1 0.827874 0.733385 0.209124
Si Si2 0.756520 0.889451 0.108137
Si Si3 0.607275 0.973371 0.072461
Si Si4 0.154249 0.978188 0.318429
Si Si5 0.122295 0.480339 0.434519
Si Si6 0.480127 0.706055 0.765250
Si Si7 0.233996 0.661405 0.158912
Si Si8 0.075083 0.805063 0.952400
O O1 0.946062 0.792074 0.037324
O O2 0.834756 0.817654 0.449652
O O3 0.740075 0.823786 0.259242
O O4 0.808137 0.513292 0.047011
O O5 0.826242 0.726160 0.796953
O O6 0.638569 0.925231 0.182329
O O7 0.839410 0.068295 0.145376
O O8 0.728138 0.047644 0.931848
O O9 0.570005 0.791977 0.860477
O O10 0.527364 0.141552 0.246986
O O11 0.157619 0.837194 0.349770
O O12 0.069605 0.901136 0.216598
O O13 0.210305 0.592915 0.311150
O O14 0.000000 0.500000 0.500000
O O15 0.113762 0.590831 0.706508
O O16 0.500000 0.500000 0.500000
O O17 0.362716 0.701457 0.997794
#
# Coordination Sequence:
#
# PCOD9108676 Si02
#       8
#     2   2   2   2   2   2   2   2
#     4  11  21  36  55  86 124 162 205 247 298 353
#     4  10  22  37  62  86 124 164 207 248 298 365
#     4   9  21  40  61  95 115 154 204 248 312 371
#     4  10  22  36  58  88 122 154 206 258 300 359
#     4  11  22  40  59  86 127 173 205 244 297 360
#     4  10  20  40  70  89 122 156 196 260 322 363
#     4  10  22  38  61  90 119 161 205 250 309 365
#     4  11  22  36  58  86 118 172 210 244 300 350
#
# _framework density 23.002369999999999
#
# number of rings (size 3 to 8) (size 9 to 14) (size 15 to 20)
#    0.000    1.750    2.500    2.250    1.750    5.500 
#    0.000    2.500    0.000   29.250    0.000    0.000 
#    0.000    0.000    0.000    0.000    0.000    0.000 
#
# Total GULP energy -89227.898663 kJ/mol
# GULP energy per Si atom -5576.743666 kJ/mol
# Density = 2.295002 g / cm^3
# Si number density = 23.002370 Si / 1000 Ang^3
#
#
#
# Elastic Constant Matrix: (Units=GPa)
#
#
# Indices 1 2 3 4 5 6 
#
# 1 84.6709 24.6097 11.7058 4.2824 7.4012 9.9303
# 2 24.6097 50.9936 -2.5429 16.3209 -1.8735 8.2293
# 3 11.7058 -2.5429 82.0697 17.5533 15.8755 -11.4772
# 4 4.2824 16.3209 17.5533 35.5135 4.0665 -1.5379
# 5 7.4012 -1.8735 15.8755 4.0665 24.9897 1.8817
# 6 9.9303 8.2293 -11.4772 -1.5379 1.8817 18.9765
#
#
#
# Elastic Compliance Matrix: (Units=1/GPa)
#
#
# Indices 1 2 3 4 5 6 
#
# 1 0.015380 -0.007852 -0.003465 0.003550 -0.003058 -0.006148
# 2 -0.007852 0.030162 0.002954 -0.015441 0.005902 -0.009021
# 3 -0.003465 0.002954 0.018069 -0.008242 -0.009776 0.011762
# 4 0.003550 -0.015441 -0.008242 0.039466 -0.003652 0.003414
# 5 -0.003058 0.005902 -0.009776 -0.003652 0.049076 -0.012034
# 6 -0.006148 -0.009021 0.011762 0.003414 -0.012034 0.068410
#
#
# Mechanical properties :
#
#
# Convention : Reuss Voigt Hill
#
# Bulk Modulus (GPa) = 21.32849 31.69770 26.51309
# Shear Modulus (GPa) = 19.76936 28.16006 23.96471
#
# Velocity S-wave (km/s) = 2.93482 3.50269 3.23125
# Velocity P-wave (km/s) = 4.55814 5.49259 5.04704
#
# Compressibility (1/GPa) = 0.04688565
#
# Stress axis : x y z
#
# Youngs Moduli (GPa) = 65.01819 33.15477 55.34286
#
# Poissons Ratio (x) = 0.26032 0.19174
# Poissons Ratio (y) = 0.51051 -0.16347
# Poissons Ratio (z) = 0.22526 -0.09793
#
# Static dielectric constant tensor:
#      x y z
#    x 1.944460 -0.036910 -0.018390 
#    y -0.036910 1.852130 -0.019100 
#    z -0.018390 -0.019100 1.919200 
# 
# From -- ./inp_files/308728.got.cif
#   From: 2010.05.17/outbox.cif.g08.bks.cpg/sg2_155_cif.got.tgz:308728.got - 2010.06.03 11:33:40.
