data_PCOD9108209
_publ_section_title
;
Structure prediction by ZEFSAII (Michael W. Deem and Ramdas Pophale) SiO2 
 PCOD9108209
Probable space group: P -1
;
_chemical_formula_sum "Si O2"
_cell_formula_units_Z 14
_cell_length_a 8.945814
_cell_length_b 12.331227
_cell_length_c 24.286114
_cell_angle_alpha 148.940743
_cell_angle_beta 151.568717
_cell_angle_gamma 42.564937
_cell_volume 656.528876
_symmetry_space_group_name_H-M "P -1"
_symmetry_group_IT_number 2
_symmetry_cell_setting 'triclinic'
loop_
_space_group_symop_operation_xyz
x,y,z
-x,-y,-z
loop_
_atom_site_type_symbol
_atom_site_label
_atom_site_fract_x
_atom_site_fract_y
_atom_site_fract_z
Si Si1 0.224781 0.820737 0.451534
Si Si2 0.911884 0.301105 0.959366
Si Si3 0.257806 0.283586 0.958943
Si Si4 0.388818 0.985586 0.686843
Si Si5 0.551422 0.170328 0.638935
Si Si6 0.383407 0.481587 0.268819
Si Si7 0.375440 0.041659 0.127645
O O1 0.370494 0.638109 0.384433
O O2 0.863426 0.837687 0.324896
O O3 0.279221 0.810008 0.529808
O O4 0.374778 0.051474 0.580501
O O5 0.723554 0.087770 0.820437
O O6 0.203162 0.257702 0.995098
O O7 0.709162 0.466819 0.933550
O O8 0.033364 0.421179 0.105590
O O9 0.515870 0.154592 0.957568
O O10 0.917493 0.205550 0.788829
O O11 0.434267 0.934396 0.742849
O O12 0.453474 0.385109 0.671162
O O13 0.500000 0.000000 0.500000
O O14 0.476824 0.254175 0.218994
O O15 0.000000 0.000000 0.000000
#
# Coordination Sequence:
#
# PCOD9108209 Si02
#       7
#     2   2   2   2   2   2   2
#     4  10  22  40  68  93 124 161 219 266 303 366
#     4  10  20  40  67  93 116 166 221 267 301 357
#     4  10  22  38  65  92 124 162 220 264 303 363
#     4  11  22  40  66  94 126 166 209 265 312 363
#     4   9  17  38  62  88 118 158 214 260 295 360
#     4  10  22  39  62  93 128 166 203 256 322 374
#     4  12  25  40  59  98 137 167 198 254 327 385
#
# _framework density 21.324271
#
# number of rings (size 3 to 8) (size 9 to 14) (size 15 to 20)
#    0.000    1.714    2.857    2.571    2.000    2.286 
#    0.000    6.429    0.000    0.000    0.000    0.000 
#    0.000    0.000    0.000    0.000    0.000    0.000 
#
# Total GULP energy -78032.302628 kJ/mol
# GULP energy per Si atom -5573.735902 kJ/mol
# Density = 2.127574 g / cm^3
# Si number density = 21.324271 Si / 1000 Ang^3
#
#
#
# Elastic Constant Matrix: (Units=GPa)
#
#
# Indices 1 2 3 4 5 6 
#
# 1 75.6129 41.5953 11.7376 9.1774 -6.5531 -10.9888
# 2 41.5953 59.9939 11.6428 7.5838 -8.4646 1.4962
# 3 11.7376 11.6428 65.3652 -1.3353 -15.8824 2.9274
# 4 9.1774 7.5838 -1.3353 11.5141 -5.8075 -0.8412
# 5 -6.5531 -8.4646 -15.8824 -5.8075 25.0110 4.5727
# 6 -10.9888 1.4962 2.9274 -0.8412 4.5727 34.2350
#
#
#
# Elastic Compliance Matrix: (Units=1/GPa)
#
#
# Indices 1 2 3 4 5 6 
#
# 1 0.025036 -0.016186 -0.003687 -0.011938 -0.005775 0.009537
# 2 -0.016186 0.029562 -0.000763 -0.004367 0.005596 -0.007277
# 3 -0.003687 -0.000763 0.020388 0.013374 0.015680 -0.004659
# 4 -0.011938 -0.004367 0.013374 0.116518 0.032077 -0.006206
# 5 -0.005775 0.005596 0.015680 0.032077 0.059711 -0.010626
# 6 0.009537 -0.007277 -0.004659 -0.006206 -0.010626 0.034254
#
#
# Mechanical properties :
#
#
# Convention : Reuss Voigt Hill
#
# Bulk Modulus (GPa) = 29.66049 36.76926 33.21488
# Shear Modulus (GPa) = 14.79380 23.21845 19.00612
#
# Velocity S-wave (km/s) = 2.63678 3.30332 2.98869
# Velocity P-wave (km/s) = 4.81763 5.64177 5.24591
#
# Compressibility (1/GPa) = 0.03371488
#
# Stress axis : x y z
#
# Youngs Moduli (GPa) = 39.94200 33.82734 49.04769
#
# Poissons Ratio (x) = 0.54754 0.18083
# Poissons Ratio (y) = 0.64652 0.03740
# Poissons Ratio (z) = 0.14726 0.02579
#
# Static dielectric constant tensor:
#      x y z
#    x 1.817180 0.041940 0.014680 
#    y 0.041940 1.783590 -0.016770 
#    z 0.014680 -0.016770 1.796980 
# 
# From -- ./inp_files/225968.got.cif
#   From: 2010.05.17/outbox.cif.g08.bks.cpg/sg2_113_cif.got.tgz:225968.got - 2010.06.03 11:33:40.
