data_PCOD9108698
_publ_section_title
;
Structure prediction by ZEFSAII (Michael W. Deem and Ramdas Pophale) SiO2 
 PCOD9108698
Probable space group: P -1
;
_chemical_formula_sum "Si O2"
_cell_formula_units_Z 16
_cell_length_a 9.454631
_cell_length_b 17.800893
_cell_length_c 14.601517
_cell_angle_alpha 146.915676
_cell_angle_beta 141.633402
_cell_angle_gamma 40.482643
_cell_volume 792.696676
_symmetry_space_group_name_H-M "P -1"
_symmetry_group_IT_number 2
_symmetry_cell_setting 'triclinic'
loop_
_space_group_symop_operation_xyz
x,y,z
-x,-y,-z
loop_
_atom_site_type_symbol
_atom_site_label
_atom_site_fract_x
_atom_site_fract_y
_atom_site_fract_z
Si Si1 0.777897 0.470916 0.628023
Si Si2 0.097955 0.028862 0.201057
Si Si3 0.266298 0.100934 0.170621
Si Si4 0.184296 0.200108 0.592647
Si Si5 0.785923 0.936127 0.337337
Si Si6 0.200304 0.371245 0.018859
Si Si7 0.998198 0.575755 0.675043
Si Si8 0.571584 0.303064 0.978156
O O1 0.500000 0.500000 0.500000
O O2 0.787738 0.585366 0.826959
O O3 0.914487 0.488762 0.623174
O O4 0.918964 0.313371 0.578995
O O5 0.125583 0.109973 0.205049
O O6 0.185289 0.107129 0.408099
O O7 0.262272 0.863007 0.105566
O O8 0.833597 0.009544 0.052693
O O9 0.189148 0.261841 0.256243
O O10 0.542973 0.033848 0.267403
O O11 0.246644 0.093293 0.601971
O O12 0.365987 0.296695 0.794311
O O13 0.858039 0.777793 0.168622
O O14 0.000000 0.000000 0.500000
O O15 0.439282 0.344879 0.051513
O O16 0.000000 0.500000 0.000000
O O17 0.000000 0.500000 0.500000
O O18 0.256051 0.599033 0.850310
#
# Coordination Sequence:
#
# PCOD9108698 Si02
#       8
#     2   2   2   2   2   2   2   2
#     4  12  27  43  69  98 135 185 228 271 346 415
#     4  10  20  40  70  95 129 165 221 278 343 395
#     4  10  22  40  66  96 127 172 216 275 340 390
#     4  11  23  43  66 100 126 176 227 282 338 408
#     4  11  25  41  66  97 135 178 223 277 345 397
#     4  11  22  47  67  96 139 182 221 279 346 416
#     4  11  25  44  66 102 137 177 228 285 335 405
#     4  10  21  41  71  94 131 169 225 279 343 396
#
# _framework density 20.184263999999999
#
# number of rings (size 3 to 8) (size 9 to 14) (size 15 to 20)
#    0.000    1.250    5.000    1.875    3.500    3.500 
#    0.000    1.250    0.000    0.000    0.000    0.000 
#    0.000    0.000    0.000    0.000    0.000    0.000 
#
# Total GULP energy -89338.658908 kJ/mol
# GULP energy per Si atom -5583.666182 kJ/mol
# Density = 2.013832 g / cm^3
# Si number density = 20.184264 Si / 1000 Ang^3
#
#
#
# Elastic Constant Matrix: (Units=GPa)
#
#
# Indices 1 2 3 4 5 6 
#
# 1 74.4371 4.7163 55.7612 -14.0843 0.0806 -9.5667
# 2 4.7163 90.6963 21.8977 -18.6380 14.4982 -19.6227
# 3 55.7612 21.8977 115.5682 -25.6881 -8.5753 -8.4626
# 4 -14.0843 -18.6380 -25.6881 36.0660 -3.8213 0.9630
# 5 0.0806 14.4982 -8.5753 -3.8213 47.9343 -8.3181
# 6 -9.5667 -19.6227 -8.4626 0.9630 -8.3181 27.5118
#
#
#
# Elastic Compliance Matrix: (Units=1/GPa)
#
#
# Indices 1 2 3 4 5 6 
#
# 1 0.022491 0.003641 -0.010565 0.002788 -0.001668 0.006566
# 2 0.003641 0.015644 -0.002583 0.007088 -0.002807 0.010533
# 3 -0.010565 -0.002583 0.016008 0.006379 0.004253 0.000471
# 4 0.002788 0.007088 0.006379 0.037166 0.003288 0.007681
# 5 -0.001668 -0.002807 0.004253 0.003288 0.023741 0.005789
# 6 0.006566 0.010533 0.000471 0.007681 0.005789 0.047771
#
#
# Mechanical properties :
#
#
# Convention : Reuss Voigt Hill
#
# Bulk Modulus (GPa) = 28.46512 49.49467 38.97989
# Shear Modulus (GPa) = 25.83404 35.52419 30.67911
#
# Velocity S-wave (km/s) = 3.58146 4.19978 3.90289
# Velocity P-wave (km/s) = 5.58890 6.93485 6.29793
#
# Compressibility (1/GPa) = 0.03513072
#
# Stress axis : x y z
#
# Youngs Moduli (GPa) = 44.46233 63.92105 62.46959
#
# Poissons Ratio (x) = -0.23276 0.65999
# Poissons Ratio (y) = -0.16191 0.16133
# Poissons Ratio (z) = 0.46974 0.16508
#
# Static dielectric constant tensor:
#      x y z
#    x 1.718790 -0.012820 0.024350 
#    y -0.012820 1.727260 -0.009420 
#    z 0.024350 -0.009420 1.674490 
# 
# From -- ./inp_files/314244.got.cif
#   From: 2010.05.17/outbox.cif.g08.bks.cpg/sg2_158_cif.got.tgz:314244.got - 2010.06.03 11:33:40.
