data_PCOD9108670
_publ_section_title
;
Structure prediction by ZEFSAII (Michael W. Deem and Ramdas Pophale) SiO2 
 PCOD9108670
Probable space group: P -1
;
_chemical_formula_sum "Si O2"
_cell_formula_units_Z 13
_cell_length_a 11.500722
_cell_length_b 9.264142
_cell_length_c 11.252338
_cell_angle_alpha 74.365748
_cell_angle_beta 153.053376
_cell_angle_gamma 96.158138
_cell_volume 498.305160
_symmetry_space_group_name_H-M "P -1"
_symmetry_group_IT_number 2
_symmetry_cell_setting 'triclinic'
loop_
_space_group_symop_operation_xyz
x,y,z
-x,-y,-z
loop_
_atom_site_type_symbol
_atom_site_label
_atom_site_fract_x
_atom_site_fract_y
_atom_site_fract_z
Si Si1 0.220489 0.398569 0.406248
Si Si2 0.159158 0.759857 0.022057
Si Si3 0.804624 0.678289 0.330156
Si Si4 0.061455 0.079444 0.769793
Si Si5 0.423644 0.656286 0.639166
Si Si6 0.500000 0.500000 0.000000
Si Si7 0.733300 0.863764 0.804935
O O1 0.183963 0.329427 0.518044
O O2 0.244216 0.571118 0.419312
O O3 0.987683 0.366886 0.122803
O O4 0.522424 0.309185 0.656450
O O5 0.002496 0.841103 0.978656
O O6 0.101775 0.895738 0.838659
O O7 0.878171 0.820726 0.306305
O O8 0.000000 0.500000 0.500000
O O9 0.523472 0.670430 0.025681
O O10 0.766818 0.179280 0.521503
O O11 0.240053 0.094619 0.043004
O O12 0.526016 0.546981 0.871363
O O13 0.650995 0.703695 0.765950
O O14 0.500000 0.000000 0.500000
#
# Coordination Sequence:
#
# PCOD9108670 Si02
#       7
#     2   2   2   2   2   1   2
#     4  11  29  48  73 115 156 196 243 328 391 440
#     4  12  29  49  70 112 167 191 249 318 388 450
#     4  11  23  43  78 107 144 193 261 313 367 454
#     4  12  25  46  80 107 142 209 260 308 371 457
#     4  11  25  43  81 108 144 200 260 304 376 451
#     4  10  20  40  70 114 140 172 258 318 358 426
#     4  12  26  48  78 110 149 205 261 308 366 463
#
# _framework density 26.088432000000001
#
# number of rings (size 3 to 8) (size 9 to 14) (size 15 to 20)
#    0.000    0.615    6.154    1.385    8.615    2.462 
#    0.000    0.000    0.000    0.000    0.000    0.000 
#    0.000    0.000    0.000    0.000    0.000    0.000 
#
# Total GULP energy -72596.617463 kJ/mol
# GULP energy per Si atom -5584.355189 kJ/mol
# Density = 2.602905 g / cm^3
# Si number density = 26.088432 Si / 1000 Ang^3
#
#
#
# Elastic Constant Matrix: (Units=GPa)
#
#
# Indices 1 2 3 4 5 6 
#
# 1 115.9001 29.7556 40.4104 -2.8627 -1.9687 25.4944
# 2 29.7556 137.4465 33.1631 8.9438 -2.7490 32.9229
# 3 40.4104 33.1631 98.2339 -8.0517 4.8226 6.0850
# 4 -2.8627 8.9438 -8.0517 39.6180 -1.6098 -10.5059
# 5 -1.9687 -2.7490 4.8226 -1.6098 30.3271 1.5745
# 6 25.4944 32.9229 6.0850 -10.5059 1.5745 52.5005
#
#
#
# Elastic Compliance Matrix: (Units=1/GPa)
#
#
# Indices 1 2 3 4 5 6 
#
# 1 0.011383 0.000057 -0.004572 -0.001478 0.001672 -0.005379
# 2 0.000057 0.010112 -0.003474 -0.004768 0.001581 -0.006968
# 3 -0.004572 -0.003474 0.013470 0.004071 -0.002731 0.003734
# 4 -0.001478 -0.004768 0.004071 0.029457 -0.000086 0.009133
# 5 0.001672 0.001581 -0.002731 -0.000086 0.033786 -0.002518
# 6 -0.005379 -0.006968 0.003734 0.009133 -0.002518 0.027500
#
#
# Mechanical properties :
#
#
# Convention : Reuss Voigt Hill
#
# Bulk Modulus (GPa) = 52.66758 62.02652 57.34705
# Shear Modulus (GPa) = 33.78054 41.03921 37.40988
#
# Velocity S-wave (km/s) = 3.60230 3.97051 3.79088
# Velocity P-wave (km/s) = 6.12650 6.69679 6.41799
#
# Compressibility (1/GPa) = 0.01898701
#
# Stress axis : x y z
#
# Youngs Moduli (GPa) = 87.85304 98.88757 74.24038
#
# Poissons Ratio (x) = -0.00563 0.33941
# Poissons Ratio (y) = -0.00500 0.25792
# Poissons Ratio (z) = 0.40164 0.34355
#
# Static dielectric constant tensor:
#      x y z
#    x 2.061710 -0.010150 -0.002940 
#    y -0.010150 2.038850 -0.014820 
#    z -0.002940 -0.014820 2.111450 
# 
# From -- ./inp_files/416995.got.cif
#   From: 2010.05.17/outbox.cif.g08.bks.cpg/sg2_209_cif.got.tgz:416995.got - 2010.06.03 11:33:40.
