data_PCOD9108463
_publ_section_title
;
Structure prediction by ZEFSAII (Michael W. Deem and Ramdas Pophale) SiO2 
 PCOD9108463
Probable space group: P -1
;
_chemical_formula_sum "Si O2"
_cell_formula_units_Z 16
_cell_length_a 14.646209
_cell_length_b 18.491377
_cell_length_c 24.353725
_cell_angle_alpha 160.997271
_cell_angle_beta 159.258904
_cell_angle_gamma 30.791359
_cell_volume 742.212195
_symmetry_space_group_name_H-M "P -1"
_symmetry_group_IT_number 2
_symmetry_cell_setting 'triclinic'
loop_
_space_group_symop_operation_xyz
x,y,z
-x,-y,-z
loop_
_atom_site_type_symbol
_atom_site_label
_atom_site_fract_x
_atom_site_fract_y
_atom_site_fract_z
Si Si1 0.531658 0.281436 0.326298
Si Si2 0.963429 0.479641 0.400166
Si Si3 0.255617 0.047285 0.098147
Si Si4 0.249951 0.768042 0.052113
Si Si5 0.466060 0.346817 0.207756
Si Si6 0.366820 0.829587 0.501285
Si Si7 0.636404 0.643710 0.252665
Si Si8 0.948645 0.040312 0.363298
O O1 0.500000 0.500000 0.500000
O O2 0.462550 0.300599 0.237687
O O3 0.826522 0.238276 0.463144
O O4 0.347329 0.071725 0.104298
O O5 0.232267 0.589507 0.598136
O O6 0.000000 0.500000 0.500000
O O7 0.732846 0.601534 0.337082
O O8 0.880455 0.209894 0.147813
O O9 0.506477 0.125322 0.334729
O O10 0.049695 0.210585 0.106775
O O11 0.352674 0.697321 0.117998
O O12 0.419321 0.014158 0.306259
O O13 0.332087 0.585455 0.926151
O O14 0.344080 0.566929 0.286943
O O15 0.291540 0.134951 0.925703
O O16 0.100768 0.915959 0.403036
O O17 0.845253 0.845197 0.485148
#
# Coordination Sequence:
#
# PCOD9108463 Si02
#       8
#     2   2   2   2   2   2   2   2
#     4  12  25  43  67 102 137 182 230 280 341 415
#     4  12  25  42  69  99 135 181 233 276 344 406
#     4  12  23  41  66 101 134 168 233 283 336 394
#     4  10  20  40  68  97 130 169 219 290 336 394
#     4  12  24  47  68  96 144 186 226 276 344 419
#     4  11  22  42  71  99 132 181 233 286 336 402
#     4  10  21  39  66  98 130 170 223 275 344 395
#     4  11  25  42  68  99 140 184 227 277 350 404
#
# _framework density 21.557178
#
# number of rings (size 3 to 8) (size 9 to 14) (size 15 to 20)
#    0.000    0.750    5.000    3.375    1.750    0.500 
#    0.000    3.125    0.000    0.000    0.000    0.000 
#    0.000    0.000    0.000    0.000    0.000    0.000 
#
# Total GULP energy -89475.179194 kJ/mol
# GULP energy per Si atom -5592.198700 kJ/mol
# Density = 2.150811 g / cm^3
# Si number density = 21.557178 Si / 1000 Ang^3
#
#
#
# Elastic Constant Matrix: (Units=GPa)
#
#
# Indices 1 2 3 4 5 6 
#
# 1 86.8085 49.6627 18.2343 -16.6843 -9.9762 23.0958
# 2 49.6627 147.4662 40.1961 -14.2182 -16.6853 32.9955
# 3 18.2343 40.1961 85.3303 3.8295 -5.9810 4.4982
# 4 -16.6843 -14.2182 3.8295 35.5918 6.3469 -5.7079
# 5 -9.9762 -16.6853 -5.9810 6.3469 26.1947 2.1703
# 6 23.0958 32.9955 4.4982 -5.7079 2.1703 31.4939
#
#
#
# Elastic Compliance Matrix: (Units=1/GPa)
#
#
# Indices 1 2 3 4 5 6 
#
# 1 0.017159 -0.002121 -0.002106 0.005157 0.004233 -0.009417
# 2 -0.002121 0.011807 -0.004182 0.001384 0.006284 -0.010399
# 3 -0.002106 -0.004182 0.014167 -0.003743 0.000411 0.003195
# 4 0.005157 0.001384 -0.003743 0.032826 -0.006101 0.001672
# 5 0.004233 0.006284 0.000411 -0.006101 0.046528 -0.014059
# 6 -0.009417 -0.010399 0.003195 0.001672 -0.014059 0.050368
#
#
# Mechanical properties :
#
#
# Convention : Reuss Voigt Hill
#
# Bulk Modulus (GPa) = 38.00099 59.53236 48.76668
# Shear Modulus (GPa) = 25.19599 32.75688 28.97643
#
# Velocity S-wave (km/s) = 3.42248 3.90235 3.67026
# Velocity P-wave (km/s) = 5.76924 6.92679 6.37434
#
# Compressibility (1/GPa) = 0.02631510
#
# Stress axis : x y z
#
# Youngs Moduli (GPa) = 58.27941 84.69744 70.58447
#
# Poissons Ratio (x) = 0.17967 0.14863
# Poissons Ratio (y) = 0.12363 0.29517
# Poissons Ratio (z) = 0.12272 0.35419
#
# Static dielectric constant tensor:
#      x y z
#    x 1.776800 0.013440 0.002810 
#    y 0.013440 1.802220 -0.004850 
#    z 0.002810 -0.004850 1.819470 
# 
# From -- ./inp_files/352217.got.cif
#   From: 2010.05.17/outbox.cif.g08.bks.cpg/sg2_177_cif.got.tgz:352217.got - 2010.06.03 11:33:40.
