data_PCOD9108786
_publ_section_title
;
Structure prediction by ZEFSAII (Michael W. Deem and Ramdas Pophale) SiO2 
 PCOD9108786
Probable space group: P -1
;
_chemical_formula_sum "Si O2"
_cell_formula_units_Z 13
_cell_length_a 8.975395
_cell_length_b 11.900480
_cell_length_c 7.943191
_cell_angle_alpha 67.126149
_cell_angle_beta 74.542479
_cell_angle_gamma 123.682758
_cell_volume 505.784351
_symmetry_space_group_name_H-M "P -1"
_symmetry_group_IT_number 2
_symmetry_cell_setting 'triclinic'
loop_
_space_group_symop_operation_xyz
x,y,z
-x,-y,-z
loop_
_atom_site_type_symbol
_atom_site_label
_atom_site_fract_x
_atom_site_fract_y
_atom_site_fract_z
Si Si1 0.509511 0.235904 0.584175
Si Si2 0.652520 0.205375 0.893718
Si Si3 0.064669 0.917216 0.758537
Si Si4 0.264017 0.090997 0.245683
Si Si5 0.500000 0.500000 0.500000
Si Si6 0.908930 0.337830 0.235366
Si Si7 0.047315 0.315643 0.554820
O O1 0.614049 0.276494 0.712848
O O2 0.544594 0.396794 0.440475
O O3 0.648568 0.221208 0.436699
O O4 0.235966 0.046793 0.783501
O O5 0.909958 0.307140 0.748113
O O6 0.522960 0.193008 0.093386
O O7 0.500000 0.000000 0.000000
O O8 0.068768 0.776835 0.802169
O O9 0.812213 0.831309 0.877999
O O10 0.195693 0.058723 0.479656
O O11 0.105442 0.891440 0.331884
O O12 0.284361 0.405657 0.497601
O O13 0.042334 0.393196 0.340384
O O14 0.000000 0.500000 0.000000
#
# Coordination Sequence:
#
# PCOD9108786 Si02
#       7
#     2   2   2   2   1   2   2
#     4  11  24  43  64  98 134 181 218 280 337 395
#     4   9  20  40  65  97 129 168 228 274 333 397
#     4  10  20  40  71  97 134 173 222 279 337 396
#     4   9  18  39  71  99 127 171 226 283 330 395
#     4  12  24  44  66  92 144 180 218 278 334 396
#     4  10  23  44  67 100 134 178 225 276 337 401
#     4   9  20  43  68  94 138 178 219 277 337 393
#
# _framework density 25.702653000000002
#
# number of rings (size 3 to 8) (size 9 to 14) (size 15 to 20)
#    0.000    2.154    1.538    1.385    0.000    4.308 
#   13.846    0.769    0.000    0.000    0.000    0.000 
#    0.000    0.000    0.000    0.000    0.000    0.000 
#
# Total GULP energy -72503.766560 kJ/mol
# GULP energy per Si atom -5577.212812 kJ/mol
# Density = 2.564415 g / cm^3
# Si number density = 25.702653 Si / 1000 Ang^3
#
#
#
# Elastic Constant Matrix: (Units=GPa)
#
#
# Indices 1 2 3 4 5 6 
#
# 1 208.0182 38.7768 44.5601 -0.3056 -12.6117 0.8635
# 2 38.7768 80.0957 4.0301 -0.9362 2.5148 -7.7818
# 3 44.5601 4.0301 58.9409 4.4820 -6.8019 1.8807
# 4 -0.3056 -0.9362 4.4820 28.5284 -8.8000 1.9930
# 5 -12.6117 2.5148 -6.8019 -8.8000 20.7759 2.9203
# 6 0.8635 -7.7818 1.8807 1.9930 2.9203 58.3536
#
#
#
# Elastic Compliance Matrix: (Units=1/GPa)
#
#
# Indices 1 2 3 4 5 6 
#
# 1 0.006576 -0.003118 -0.004443 0.001882 0.003799 -0.000624
# 2 -0.003118 0.014274 0.000925 -0.001126 -0.004099 0.002163
# 3 -0.004443 0.000925 0.020813 -0.002287 0.003115 -0.000559
# 4 0.001882 -0.001126 -0.002287 0.041219 0.018330 -0.002429
# 5 0.003799 -0.004099 0.003115 0.018330 0.060330 -0.004348
# 6 -0.000624 0.002163 -0.000559 -0.002429 -0.004348 0.017753
#
#
# Mechanical properties :
#
#
# Convention : Reuss Voigt Hill
#
# Bulk Modulus (GPa) = 35.22298 57.97654 46.59976
# Shear Modulus (GPa) = 27.21802 38.84409 33.03106
#
# Velocity S-wave (km/s) = 3.25769 3.89175 3.58875
# Velocity P-wave (km/s) = 5.28052 6.54216 5.94490
#
# Compressibility (1/GPa) = 0.02839055
#
# Stress axis : x y z
#
# Youngs Moduli (GPa) = 152.06888 70.05849 48.04658
#
# Poissons Ratio (x) = 0.21844 0.21347
# Poissons Ratio (y) = 0.47416 -0.04444
# Poissons Ratio (z) = 0.67565 -0.06480
#
# Static dielectric constant tensor:
#      x y z
#    x 2.001640 0.005440 0.022370 
#    y 0.005440 2.127730 -0.061480 
#    z 0.022370 -0.061480 2.143310 
# 
# From -- ./inp_files/185831.got.cif
#   From: 2010.05.17/outbox.cif.g08.bks.cpg/sg2_93_cif.got.tgz:185831.got - 2010.06.03 11:33:40.
