data_PCOD9108528
_publ_section_title
;
Structure prediction by ZEFSAII (Michael W. Deem and Ramdas Pophale) SiO2 
 PCOD9108528
Probable space group: P -1
;
_chemical_formula_sum "Si O2"
_cell_formula_units_Z 14
_cell_length_a 8.008037
_cell_length_b 16.299818
_cell_length_c 6.020551
_cell_angle_alpha 58.022804
_cell_angle_beta 67.567405
_cell_angle_gamma 60.989705
_cell_volume 574.669943
_symmetry_space_group_name_H-M "P -1"
_symmetry_group_IT_number 2
_symmetry_cell_setting 'triclinic'
loop_
_space_group_symop_operation_xyz
x,y,z
-x,-y,-z
loop_
_atom_site_type_symbol
_atom_site_label
_atom_site_fract_x
_atom_site_fract_y
_atom_site_fract_z
Si Si1 0.446898 0.120257 0.292571
Si Si2 0.863272 0.717229 0.029904
Si Si3 0.890251 0.511425 0.286623
Si Si4 0.782717 0.338893 0.380143
Si Si5 0.312145 0.968526 0.082694
Si Si6 0.655883 0.206416 0.362817
Si Si7 0.018198 0.817137 0.136384
O O1 0.244032 0.175847 0.197520
O O2 0.467095 0.195756 0.363380
O O3 0.500000 0.000000 0.500000
O O4 0.608557 0.112509 0.039243
O O5 0.893591 0.748924 0.214908
O O6 0.071082 0.661200 0.892099
O O7 0.761297 0.633794 0.181218
O O8 0.774846 0.432567 0.416204
O O9 0.000000 0.500000 0.500000
O O10 0.000000 0.500000 0.000000
O O11 0.616612 0.310018 0.379392
O O12 0.888298 0.232955 0.612456
O O13 0.263430 0.904378 0.393317
O O14 0.132022 0.066166 0.954649
O O15 0.500000 0.000000 0.000000
O O16 0.817008 0.199851 0.107156
#
# Coordination Sequence:
#
# PCOD9108528 Si02
#       7
#     2   2   2   2   2   2   2
#     4  12  23  40  61  91 132 172 220 268 327 400
#     4  10  21  37  65  98 124 170 220 276 331 393
#     4  10  20  40  69 103 133 170 226 286 336 400
#     4  10  22  39  65  93 124 167 218 272 334 394
#     4  12  23  38  61  91 124 170 217 267 325 394
#     4  11  25  40  58  89 133 169 213 270 331 393
#     4  11  21  40  63  90 125 167 217 267 331 393
#
# _framework density 24.361813000000001
#
# number of rings (size 3 to 8) (size 9 to 14) (size 15 to 20)
#    0.000    1.143    4.286    2.143    0.000    4.571 
#    0.000    0.714    0.000    3.429    0.000    0.000 
#    0.000    0.000    0.000    0.000    0.000    0.000 
#
# Total GULP energy -77957.380807 kJ/mol
# GULP energy per Si atom -5568.384343 kJ/mol
# Density = 2.430636 g / cm^3
# Si number density = 24.361813 Si / 1000 Ang^3
#
#
#
# Elastic Constant Matrix: (Units=GPa)
#
#
# Indices 1 2 3 4 5 6 
#
# 1 56.5056 39.8298 7.2822 5.1055 1.0237 46.7401
# 2 39.8298 87.5788 14.0024 1.0700 -11.9305 45.6373
# 3 7.2822 14.0024 80.6381 9.1205 -6.8240 -0.1449
# 4 5.1055 1.0700 9.1205 35.2147 -1.6297 -2.6358
# 5 1.0237 -11.9305 -6.8240 -1.6297 28.7292 5.9260
# 6 46.7401 45.6373 -0.1449 -2.6358 5.9260 50.9334
#
#
#
# Elastic Compliance Matrix: (Units=1/GPa)
#
#
# Indices 1 2 3 4 5 6 
#
# 1 0.098629 0.016614 -0.007799 -0.019891 0.022911 -0.109112
# 2 0.016614 0.031562 -0.004794 -0.004628 0.020639 -0.046181
# 3 -0.007799 -0.004794 0.014062 -0.001543 -0.000834 0.011510
# 4 -0.019891 -0.004628 -0.001543 0.033448 -0.004773 0.024682
# 5 0.022911 0.020639 -0.000834 -0.004773 0.051533 -0.045763
# 6 -0.109112 -0.046181 0.011510 0.024682 -0.045763 0.167776
#
#
# Mechanical properties :
#
#
# Convention : Reuss Voigt Hill
#
# Bulk Modulus (GPa) = 6.56620 38.55015 22.55818
# Shear Modulus (GPa) = 11.37056 33.88266 22.62661
#
# Velocity S-wave (km/s) = 2.16275 3.73340 3.05089
# Velocity P-wave (km/s) = 2.98962 5.86880 4.65728
#
# Compressibility (1/GPa) = 0.15229502
#
# Stress axis : x y z
#
# Youngs Moduli (GPa) = 10.13905 31.68400 71.11142
#
# Poissons Ratio (x) = -0.52641 0.55462
# Poissons Ratio (y) = -0.16845 0.34090
# Poissons Ratio (z) = 0.07908 0.15189
#
# Static dielectric constant tensor:
#      x y z
#    x 2.043270 0.113650 0.009690 
#    y 0.113650 1.993480 0.033170 
#    z 0.009690 0.033170 2.050030 
# 
# From -- ./inp_files/35466.got.cif
#   From: 2010.05.17/outbox.cif.g08.bks.cpg/sg2_18_cif.got.tgz:35466.got - 2010.06.03 11:33:40.
