data_PCOD9108818
_publ_section_title
;
Structure prediction by ZEFSAII (Michael W. Deem and Ramdas Pophale) SiO2 
 PCOD9108818
Probable space group: P -1
;
_chemical_formula_sum "Si O2"
_cell_formula_units_Z 14
_cell_length_a 10.933643
_cell_length_b 9.522156
_cell_length_c 14.387644
_cell_angle_alpha 127.120595
_cell_angle_beta 149.202589
_cell_angle_gamma 59.077517
_cell_volume 611.497948
_symmetry_space_group_name_H-M "P -1"
_symmetry_group_IT_number 2
_symmetry_cell_setting 'triclinic'
loop_
_space_group_symop_operation_xyz
x,y,z
-x,-y,-z
loop_
_atom_site_type_symbol
_atom_site_label
_atom_site_fract_x
_atom_site_fract_y
_atom_site_fract_z
Si Si1 0.297890 0.363368 0.855704
Si Si2 0.354946 0.338973 0.293382
Si Si3 0.117007 0.472150 0.464766
Si Si4 0.129094 0.802945 0.065406
Si Si5 0.234755 0.063376 0.383770
Si Si6 0.565424 0.968464 0.303510
Si Si7 0.651820 0.553909 0.868514
O O1 0.350847 0.170964 0.773249
O O2 0.054539 0.441992 0.688162
O O3 0.500000 0.500000 0.000000
O O4 0.291188 0.356299 0.960111
O O5 0.500000 0.500000 0.500000
O O6 0.248422 0.389023 0.143042
O O7 0.116060 0.276446 0.166807
O O8 0.520242 0.168451 0.325469
O O9 0.172562 0.265607 0.407547
O O10 0.371155 0.567370 0.672521
O O11 0.000000 0.500000 0.500000
O O12 0.312774 0.892061 0.148782
O O13 0.278824 0.646559 0.146385
O O14 0.069270 0.941242 0.162953
O O15 0.245094 0.032913 0.488491
O O16 0.500000 0.000000 0.500000
#
# Coordination Sequence:
#
# PCOD9108818 Si02
#       7
#     2   2   2   2   2   2   2
#     4  12  24  43  75 108 149 192 255 305 363 446
#     4  12  30  46  71 108 156 196 239 314 394 430
#     4  12  22  43  74 110 145 194 243 310 366 437
#     4  11  23  45  76 105 144 193 253 308 362 447
#     4  10  20  40  72 110 141 176 257 309 352 433
#     4  11  23  46  73 112 140 197 255 302 362 454
#     4  12  26  46  70 111 150 194 244 309 378 441
#
# _framework density 22.894597999999998
#
# number of rings (size 3 to 8) (size 9 to 14) (size 15 to 20)
#    0.000    0.571    7.143    1.714    6.000    0.571 
#    0.000    0.714    0.000    0.000    0.000    0.000 
#    0.000    0.000    0.000    0.000    0.000    0.000 
#
# Total GULP energy -78327.449097 kJ/mol
# GULP energy per Si atom -5594.817793 kJ/mol
# Density = 2.284249 g / cm^3
# Si number density = 22.894598 Si / 1000 Ang^3
#
#
#
# Elastic Constant Matrix: (Units=GPa)
#
#
# Indices 1 2 3 4 5 6 
#
# 1 89.9887 51.0614 43.7650 9.0401 -40.3912 -5.9317
# 2 51.0614 193.4720 71.0818 0.1021 -34.4716 -11.7897
# 3 43.7650 71.0818 136.7447 -7.7737 -21.9923 -16.0120
# 4 9.0401 0.1021 -7.7737 45.1594 -6.9990 -10.3014
# 5 -40.3912 -34.4716 -21.9923 -6.9990 52.8723 -0.8006
# 6 -5.9317 -11.7897 -16.0120 -10.3014 -0.8006 36.0198
#
#
#
# Elastic Compliance Matrix: (Units=1/GPa)
#
#
# Indices 1 2 3 4 5 6 
#
# 1 0.019427 -0.001670 -0.003486 -0.002477 0.011985 0.000661
# 2 -0.001670 0.007042 -0.002604 0.000470 0.002311 0.001058
# 3 -0.003486 -0.002604 0.010587 0.003603 0.000586 0.004324
# 4 -0.002477 0.000470 0.003603 0.025804 0.003462 0.008804
# 5 0.011985 0.002311 0.000586 0.003462 0.030348 0.004655
# 6 0.000661 0.001058 0.004324 0.008804 0.004655 0.032761
#
#
# Mechanical properties :
#
#
# Convention : Reuss Voigt Hill
#
# Bulk Modulus (GPa) = 46.42984 83.55796 64.99390
# Shear Modulus (GPa) = 33.63238 43.76344 38.69791
#
# Velocity S-wave (km/s) = 3.83692 4.37683 4.11574
# Velocity P-wave (km/s) = 6.32085 7.88151 7.14393
#
# Compressibility (1/GPa) = 0.02153787
#
# Stress axis : x y z
#
# Youngs Moduli (GPa) = 51.47565 142.00525 94.45252
#
# Poissons Ratio (x) = 0.23709 0.32922
# Poissons Ratio (y) = 0.08594 0.24595
# Poissons Ratio (z) = 0.17942 0.36977
#
# Static dielectric constant tensor:
#      x y z
#    x 1.043060 -0.140000 -0.017000 
#    y -0.140000 1.807500 0.003050 
#    z -0.017000 0.003050 1.913630 
# 
# From -- ./inp_files/516325.got.cif
#   From: 2010.05.17/outbox.cif.g08.bks.cpg/sg2_259_cif.got.tgz:516325.got - 2010.06.03 11:33:40.
