data_PCOD9108995
_publ_section_title
;
Structure prediction by ZEFSAII (Michael W. Deem and Ramdas Pophale) SiO2 
 PCOD9108995
Probable space group: P -1
;
_chemical_formula_sum "Si O2"
_cell_formula_units_Z 16
_cell_length_a 16.061205
_cell_length_b 9.466385
_cell_length_c 21.340884
_cell_angle_alpha 118.453961
_cell_angle_beta 160.551522
_cell_angle_gamma 74.527458
_cell_volume 742.694355
_symmetry_space_group_name_H-M "P -1"
_symmetry_group_IT_number 2
_symmetry_cell_setting 'triclinic'
loop_
_space_group_symop_operation_xyz
x,y,z
-x,-y,-z
loop_
_atom_site_type_symbol
_atom_site_label
_atom_site_fract_x
_atom_site_fract_y
_atom_site_fract_z
Si Si1 0.712049 0.074147 0.886454
Si Si2 0.694391 0.759339 0.222615
Si Si3 0.428875 0.373127 0.508285
Si Si4 0.615730 0.290356 0.505755
Si Si5 0.662479 0.426508 0.938710
Si Si6 0.415391 0.948219 0.001016
Si Si7 0.701449 0.608835 0.445146
Si Si8 0.214055 0.733579 0.560659
O O1 0.640145 0.943896 0.745939
O O2 0.448760 0.911448 0.715216
O O3 0.670551 0.245752 0.882589
O O4 0.060364 0.190421 0.188561
O O5 0.532723 0.655432 0.152441
O O6 0.860000 0.667915 0.291861
O O7 0.478648 0.789512 0.033723
O O8 0.000000 0.000000 0.500000
O O9 0.631473 0.336245 0.600380
O O10 0.483070 0.579374 0.568473
O O11 0.464882 0.380767 0.609801
O O12 0.965725 0.380024 0.748680
O O13 0.496332 0.461273 0.773900
O O14 0.042604 0.830753 0.723785
O O15 0.500000 0.000000 0.000000
O O16 0.637307 0.154346 0.243228
O O17 0.768627 0.449245 0.474637
#
# Coordination Sequence:
#
# PCOD9108995 Si02
#       8
#     2   2   2   2   2   2   2   2
#     4  11  20  42  67  92 121 171 214 257 319 385
#     4  10  20  41  61  89 125 169 210 253 308 376
#     4  10  21  41  68  95 126 160 215 270 317 370
#     4  10  22  41  67  96 122 168 213 263 321 379
#     4  11  24  41  63  93 134 165 211 262 316 374
#     4  11  23  40  63  92 130 167 213 265 312 366
#     4  12  24  41  62  97 132 164 212 267 309 375
#     4  11  23  40  65  90 127 172 213 253 315 380
#
# _framework density 21.543184
#
# number of rings (size 3 to 8) (size 9 to 14) (size 15 to 20)
#    0.000    1.250    5.000    2.625    0.000    4.000 
#    0.000    0.625    0.000    0.000    0.000    0.000 
#    0.000    0.000    0.000    0.000    0.000    0.000 
#
# Total GULP energy -89467.473158 kJ/mol
# GULP energy per Si atom -5591.717072 kJ/mol
# Density = 2.149415 g / cm^3
# Si number density = 21.543184 Si / 1000 Ang^3
#
#
#
# Elastic Constant Matrix: (Units=GPa)
#
#
# Indices 1 2 3 4 5 6 
#
# 1 126.7783 22.1375 -1.8161 2.7236 3.0850 1.6899
# 2 22.1375 40.3190 16.2501 5.2396 -4.3982 0.2022
# 3 -1.8161 16.2501 43.7126 5.6844 3.7883 -7.1967
# 4 2.7236 5.2396 5.6844 27.4385 -4.5281 -8.0792
# 5 3.0850 -4.3982 3.7883 -4.5281 36.5053 2.1676
# 6 1.6899 0.2022 -7.1967 -8.0792 2.1676 29.2578
#
#
#
# Elastic Compliance Matrix: (Units=1/GPa)
#
#
# Indices 1 2 3 4 5 6 
#
# 1 0.009096 -0.006350 0.003020 -0.000561 -0.001932 0.000250
# 2 -0.006350 0.035158 -0.014190 -0.003552 0.006089 -0.004798
# 3 0.003020 -0.014190 0.030306 -0.002761 -0.005871 0.007051
# 4 -0.000561 -0.003552 -0.002761 0.041585 0.004439 0.010532
# 5 -0.001932 0.006089 -0.005871 0.004439 0.029589 -0.002341
# 6 0.000250 -0.004798 0.007051 0.010532 -0.002341 0.039014
#
#
# Mechanical properties :
#
#
# Convention : Reuss Voigt Hill
#
# Bulk Modulus (GPa) = 25.30389 31.55033 28.42711
# Shear Modulus (GPa) = 21.46297 30.25621 25.85959
#
# Velocity S-wave (km/s) = 3.15981 3.75166 3.46838
# Velocity P-wave (km/s) = 5.00836 5.78304 5.40958
#
# Compressibility (1/GPa) = 0.03951962
#
# Stress axis : x y z
#
# Youngs Moduli (GPa) = 109.94278 28.44327 32.99703
#
# Poissons Ratio (x) = 0.18062 -0.09965
# Poissons Ratio (y) = 0.69817 0.46821
# Poissons Ratio (z) = -0.33203 0.40360
#
# Static dielectric constant tensor:
#      x y z
#    x 1.802280 -0.038470 0.003860 
#    y -0.038470 1.773370 0.012450 
#    z 0.003860 0.012450 1.828990 
# 
# From -- ./inp_files/537623.got.cif
#   From: 2010.05.17/outbox.cif.g08.bks.cpg/sg2_269_cif.got.tgz:537623.got - 2010.06.03 11:33:40.
