data_PCOD9108812
_publ_section_title
;
Structure prediction by ZEFSAII (Michael W. Deem and Ramdas Pophale) SiO2 
 PCOD9108812
Probable space group: P -1
;
_chemical_formula_sum "Si O2"
_cell_formula_units_Z 15
_cell_length_a 14.140040
_cell_length_b 9.462793
_cell_length_c 16.308555
_cell_angle_alpha 31.388476
_cell_angle_beta 39.311961
_cell_angle_gamma 54.558311
_cell_volume 698.237564
_symmetry_space_group_name_H-M "P -1"
_symmetry_group_IT_number 2
_symmetry_cell_setting 'triclinic'
loop_
_space_group_symop_operation_xyz
x,y,z
-x,-y,-z
loop_
_atom_site_type_symbol
_atom_site_label
_atom_site_fract_x
_atom_site_fract_y
_atom_site_fract_z
Si Si1 0.938018 0.763595 0.937557
Si Si2 0.155639 0.098506 0.898332
Si Si3 0.500000 0.000000 0.500000
Si Si4 0.776991 0.704534 0.513102
Si Si5 0.289686 0.604458 0.117834
Si Si6 0.676411 0.426361 0.558261
Si Si7 0.365113 0.365536 0.890185
Si Si8 0.366652 0.158930 0.175710
O O1 0.872399 0.722412 0.094022
O O2 0.798975 0.787922 0.959773
O O3 0.072920 0.044002 0.708937
O O4 0.000000 0.500000 0.000000
O O5 0.287997 0.287368 0.659138
O O6 0.200837 0.826469 0.036735
O O7 0.000000 0.000000 0.000000
O O8 0.371363 0.167190 0.467234
O O9 0.623795 0.303831 0.275077
O O10 0.759200 0.530306 0.694621
O O11 0.777041 0.503014 0.534920
O O12 0.274829 0.354641 0.186235
O O13 0.468745 0.770452 0.924263
O O14 0.500214 0.336029 0.751884
O O15 0.707862 0.170975 0.612106
O O16 0.389815 0.249221 0.020526
#
# Coordination Sequence:
#
# PCOD9108812 Si02
#       8
#     2   2   1   2   2   2   2   2
#     4  12  27  44  75 106 147 194 248 296 366 446
#     4  12  29  50  71 110 154 193 240 310 371 432
#     4  10  20  40  72 104 140 190 238 300 348 432
#     4  11  24  46  73 106 148 198 244 293 377 438
#     4  11  27  46  74 110 151 189 249 308 366 431
#     4  11  25  47  78 102 146 194 244 300 372 434
#     4  11  24  42  77 106 147 188 247 301 363 436
#     4  11  25  44  75 112 145 184 254 313 358 431
#
# _framework density 21.482659999999999
#
# number of rings (size 3 to 8) (size 9 to 14) (size 15 to 20)
#    0.000    0.800    5.333    1.200    9.333    3.733 
#    0.000    1.333    0.000    0.000    0.000    0.000 
#    0.000    0.000    0.000    0.000    0.000    0.000 
#
# Total GULP energy -83682.524128 kJ/mol
# GULP energy per Si atom -5578.834942 kJ/mol
# Density = 2.143376 g / cm^3
# Si number density = 21.482660 Si / 1000 Ang^3
#
#
#
# Elastic Constant Matrix: (Units=GPa)
#
#
# Indices 1 2 3 4 5 6 
#
# 1 125.3280 58.5226 43.4345 -6.8409 -5.8404 -5.9254
# 2 58.5226 88.9027 39.9898 -17.5828 11.3912 -0.6228
# 3 43.4345 39.9898 100.8533 -11.9935 2.1026 2.2552
# 4 -6.8409 -17.5828 -11.9935 34.7729 4.3328 -2.7138
# 5 -5.8404 11.3912 2.1026 4.3328 49.4783 -3.0847
# 6 -5.9254 -0.6228 2.2552 -2.7138 -3.0847 13.6973
#
#
#
# Elastic Compliance Matrix: (Units=1/GPa)
#
#
# Indices 1 2 3 4 5 6 
#
# 1 0.013299 -0.008486 -0.002916 -0.002724 0.004277 0.006271
# 2 -0.008486 0.020853 -0.003442 0.008345 -0.006510 -0.001969
# 3 -0.002916 -0.003442 0.012847 0.001921 -0.000469 -0.003258
# 4 -0.002724 0.008345 0.001921 0.034083 -0.005028 0.004505
# 5 0.004277 -0.006510 -0.000469 -0.005028 0.023038 0.005823
# 6 0.006271 -0.001969 -0.003258 0.004505 0.005823 0.078371
#
#
# Mechanical properties :
#
#
# Convention : Reuss Voigt Hill
#
# Bulk Modulus (GPa) = 57.76289 66.55309 62.15799
# Shear Modulus (GPa) = 22.94111 31.13217 27.03664
#
# Velocity S-wave (km/s) = 3.27140 3.81093 3.55143
# Velocity P-wave (km/s) = 6.41997 7.10010 6.76858
#
# Compressibility (1/GPa) = 0.01731215
#
# Stress axis : x y z
#
# Youngs Moduli (GPa) = 75.19230 47.95435 77.83791
#
# Poissons Ratio (x) = 0.40692 0.22699
# Poissons Ratio (y) = 0.63805 0.26791
# Poissons Ratio (z) = 0.21928 0.16506
#
# Static dielectric constant tensor:
#      x y z
#    x 1.764440 0.010400 -0.012830 
#    y 0.010400 1.822060 0.005180 
#    z -0.012830 0.005180 1.763170 
# 
# From -- ./inp_files/382522.got.cif
#   From: 2010.05.17/outbox.cif.g08.bks.cpg/sg2_192_cif.got.tgz:382522.got - 2010.06.03 11:33:40.
