data_PCOD9108634
_publ_section_title
;
Structure prediction by ZEFSAII (Michael W. Deem and Ramdas Pophale) SiO2 
 PCOD9108634
Probable space group: P -1
;
_chemical_formula_sum "Si O2"
_cell_formula_units_Z 16
_cell_length_a 25.339170
_cell_length_b 8.822213
_cell_length_c 25.575496
_cell_angle_alpha 38.603333
_cell_angle_beta 11.140233
_cell_angle_gamma 41.363227
_cell_volume 682.950537
_symmetry_space_group_name_H-M "P -1"
_symmetry_group_IT_number 2
_symmetry_cell_setting 'triclinic'
loop_
_space_group_symop_operation_xyz
x,y,z
-x,-y,-z
loop_
_atom_site_type_symbol
_atom_site_label
_atom_site_fract_x
_atom_site_fract_y
_atom_site_fract_z
Si Si1 0.608109 0.382764 0.347693
Si Si2 0.974665 0.887862 0.744246
Si Si3 0.719960 0.281225 0.678095
Si Si4 0.145785 0.001252 0.283649
Si Si5 0.267855 0.208833 0.514685
Si Si6 0.314673 0.673934 0.826976
Si Si7 0.104177 0.109353 0.963141
Si Si8 0.450693 0.071367 0.770881
O O1 0.539977 0.286911 0.380977
O O2 0.578018 0.666183 0.297522
O O3 0.911150 0.311789 0.080977
O O4 0.411035 0.245231 0.619808
O O5 0.903295 0.015080 0.725724
O O6 0.295501 0.896937 0.442923
O O7 0.845044 0.601062 0.943453
O O8 0.823297 0.000027 0.909617
O O9 0.831482 0.548226 0.477117
O O10 0.872809 0.085190 0.551158
O O11 0.778145 0.233117 0.695316
O O12 0.398267 0.212798 0.995556
O O13 0.461192 0.288523 0.355161
O O14 0.455434 0.104577 0.316876
O O15 0.022653 0.009035 0.828044
O O16 0.109581 0.873293 0.983922
#
# Coordination Sequence:
#
# PCOD9108634 Si02
#       8
#     2   2   2   2   2   2   2   2
#     4  11  25  43  62  92 125 173 217 269 324 382
#     4  11  23  44  68  93 130 177 212 258 324 389
#     4  10  22  39  67 105 132 158 209 274 313 380
#     4  10  20  40  70 101 131 163 211 259 324 375
#     4  12  27  43  66  98 132 171 215 269 326 372
#     4  11  24  41  70  95 125 164 225 274 320 377
#     4  12  25  41  68  90 130 163 225 272 325 372
#     4  11  28  44  63  92 137 174 215 263 320 392
#
# _framework density 23.427758999999998
#
# number of rings (size 3 to 8) (size 9 to 14) (size 15 to 20)
#    0.000    1.000    2.500    3.750    8.750    1.000 
#    0.000    1.250    0.000    0.000    0.000    0.000 
#    0.000    0.000    0.000    0.000    0.000    0.000 
#
# Total GULP energy -89609.254555 kJ/mol
# GULP energy per Si atom -5600.578410 kJ/mol
# Density = 2.337444 g / cm^3
# Si number density = 23.427759 Si / 1000 Ang^3
#
#
#
# Elastic Constant Matrix: (Units=GPa)
#
#
# Indices 1 2 3 4 5 6 
#
# 1 140.9350 44.4618 10.1199 2.8806 15.0767 -13.7529
# 2 44.4618 58.5631 0.0674 13.6107 -4.3435 -14.7277
# 3 10.1199 0.0674 82.4417 16.6515 -1.5052 -2.1124
# 4 2.8806 13.6107 16.6515 29.7673 3.0689 5.4776
# 5 15.0767 -4.3435 -1.5052 3.0689 32.1011 -2.0537
# 6 -13.7529 -14.7277 -2.1124 5.4776 -2.0537 37.9010
#
#
#
# Elastic Compliance Matrix: (Units=1/GPa)
#
#
# Indices 1 2 3 4 5 6 
#
# 1 0.011372 -0.011252 -0.002956 0.006834 -0.007772 -0.001820
# 2 -0.011252 0.035438 0.006555 -0.022759 0.013463 0.014071
# 3 -0.002956 0.006555 0.015201 -0.012478 0.004460 0.004367
# 4 0.006834 -0.022759 -0.012478 0.054549 -0.013090 -0.015652
# 5 -0.007772 0.013463 0.004460 -0.013090 0.038509 0.006639
# 6 -0.001820 0.014071 0.004367 -0.015652 0.006639 0.034057
#
#
# Mechanical properties :
#
#
# Convention : Reuss Voigt Hill
#
# Bulk Modulus (GPa) = 21.41086 43.47089 32.44088
# Shear Modulus (GPa) = 22.72745 35.10660 28.91702
#
# Velocity S-wave (km/s) = 3.11803 3.87525 3.51708
# Velocity P-wave (km/s) = 4.70338 6.21442 5.51093
#
# Compressibility (1/GPa) = 0.04670527
#
# Stress axis : x y z
#
# Youngs Moduli (GPa) = 87.93746 28.21851 65.78588
#
# Poissons Ratio (x) = 0.31753 0.19443
# Poissons Ratio (y) = 0.98951 -0.43126
# Poissons Ratio (z) = 0.25990 -0.18499
#
# Static dielectric constant tensor:
#      x y z
#    x 1.925100 0.007850 -0.027980 
#    y 0.007850 1.859400 -0.020170 
#    z -0.027980 -0.020170 1.865460 
# 
# From -- ./inp_files/621135.got.cif
#   From: 2010.05.17/outbox.cif.g08.bks.cpg/sg2_311_cif.got.tgz:621135.got - 2010.06.03 11:33:40.
