data_PCOD9108079
_publ_section_title
;
Structure prediction by ZEFSAII (Michael W. Deem and Ramdas Pophale) SiO2 
 PCOD9108079
Probable space group: P -1
;
_chemical_formula_sum "Si O2"
_cell_formula_units_Z 14
_cell_length_a 8.443934
_cell_length_b 9.816605
_cell_length_c 12.149719
_cell_angle_alpha 86.381060
_cell_angle_beta 139.832572
_cell_angle_gamma 95.836929
_cell_volume 646.067629
_symmetry_space_group_name_H-M "P -1"
_symmetry_group_IT_number 2
_symmetry_cell_setting 'triclinic'
loop_
_space_group_symop_operation_xyz
x,y,z
-x,-y,-z
loop_
_atom_site_type_symbol
_atom_site_label
_atom_site_fract_x
_atom_site_fract_y
_atom_site_fract_z
Si Si1 0.622659 0.378786 0.635142
Si Si2 0.831760 0.674777 0.146484
Si Si3 0.693998 0.619675 0.330772
Si Si4 0.549769 0.330040 0.235105
Si Si5 0.540962 0.838318 0.608118
Si Si6 0.925693 0.038660 0.715528
Si Si7 0.942032 0.135500 0.393826
O O1 0.500000 0.500000 0.500000
O O2 0.561596 0.379821 0.733124
O O3 0.487757 0.239134 0.519639
O O4 0.907227 0.382078 0.746195
O O5 0.736944 0.652358 0.222277
O O6 0.623937 0.619798 0.953894
O O7 0.886624 0.838927 0.151767
O O8 0.732872 0.457612 0.365806
O O9 0.866651 0.736933 0.477586
O O10 0.404389 0.271710 0.266951
O O11 0.686253 0.201738 0.271435
O O12 0.743473 0.964527 0.711280
O O13 0.268469 0.890969 0.471644
O O14 0.043341 0.918870 0.719674
O O15 0.000000 0.000000 0.500000
#
# Coordination Sequence:
#
# PCOD9108079 Si02
#       7
#     2   2   2   2   2   2   2
#     4  11  23  42  72  96 124 179 229 275 326 393
#     4  11  27  45  63 102 147 172 218 278 344 405
#     4  12  25  45  72 100 135 179 226 278 335 399
#     4  12  26  43  66 100 143 179 212 279 348 399
#     4  10  20  40  66  97 130 169 232 279 326 385
#     4  10  21  40  66  96 129 174 227 282 323 392
#     4  12  22  41  71  97 125 176 236 276 317 395
#
# _framework density 21.669559
#
# number of rings (size 3 to 8) (size 9 to 14) (size 15 to 20)
#    0.000    0.857    5.714    1.714    2.000    1.714 
#    2.571    0.000    0.000    0.000    0.000    0.000 
#    0.000    0.000    0.000    0.000    0.000    0.000 
#
# Total GULP energy -78023.005228 kJ/mol
# GULP energy per Si atom -5573.071802 kJ/mol
# Density = 2.162024 g / cm^3
# Si number density = 21.669559 Si / 1000 Ang^3
#
#
#
# Elastic Constant Matrix: (Units=GPa)
#
#
# Indices 1 2 3 4 5 6 
#
# 1 131.5441 22.0949 44.4534 -0.4552 -6.5419 -15.9926
# 2 22.0949 124.2663 13.0469 8.9894 10.4200 -4.9265
# 3 44.4534 13.0469 50.2950 0.3351 0.2946 0.9897
# 4 -0.4552 8.9894 0.3351 20.2751 0.8327 1.2698
# 5 -6.5419 10.4200 0.2946 0.8327 20.8174 -1.7129
# 6 -15.9926 -4.9265 0.9897 1.2698 -1.7129 43.6162
#
#
#
# Elastic Compliance Matrix: (Units=1/GPa)
#
#
# Indices 1 2 3 4 5 6 
#
# 1 0.012238 -0.001336 -0.010597 0.000537 0.005035 0.004759
# 2 -0.001336 0.009104 -0.001137 -0.003883 -0.004765 0.000490
# 3 -0.010597 -0.001137 0.029659 0.000226 -0.003588 -0.004834
# 4 0.000537 -0.003883 0.000226 0.051164 -0.000081 -0.001739
# 5 0.005035 -0.004765 -0.003588 -0.000081 0.052342 0.003447
# 6 0.004759 0.000490 -0.004834 -0.001739 0.003447 0.025023
#
#
# Mechanical properties :
#
#
# Convention : Reuss Voigt Hill
#
# Bulk Modulus (GPa) = 40.22310 51.69951 45.96131
# Shear Modulus (GPa) = 23.36929 32.04241 27.70585
#
# Velocity S-wave (km/s) = 3.28752 3.84954 3.57958
# Velocity P-wave (km/s) = 5.74567 6.60821 6.19198
#
# Compressibility (1/GPa) = 0.02486133
#
# Stress axis : x y z
#
# Youngs Moduli (GPa) = 81.71048 109.84237 33.71712
#
# Poissons Ratio (x) = 0.14672 0.35730
# Poissons Ratio (y) = 0.10915 0.03833
# Poissons Ratio (z) = 0.86589 0.12488
#
# Static dielectric constant tensor:
#      x y z
#    x 1.917750 -0.004900 -0.002300 
#    y -0.004900 1.793240 -0.005870 
#    z -0.002300 -0.005870 1.765660 
# 
# From -- ./inp_files/239710.got.cif
#   From: 2010.05.17/outbox.cif.g08.bks.cpg/sg2_120_cif.got.tgz:239710.got - 2010.06.03 11:33:40.
