data_PCOD9108329
_publ_section_title
;
Structure prediction by ZEFSAII (Michael W. Deem and Ramdas Pophale) SiO2 
 PCOD9108329
Probable space group: P -1
;
_chemical_formula_sum "Si O2"
_cell_formula_units_Z 16
_cell_length_a 8.477197
_cell_length_b 14.498216
_cell_length_c 11.721850
_cell_angle_alpha 30.322145
_cell_angle_beta 93.523431
_cell_angle_gamma 85.759945
_cell_volume 702.532249
_symmetry_space_group_name_H-M "P -1"
_symmetry_group_IT_number 2
_symmetry_cell_setting 'triclinic'
loop_
_space_group_symop_operation_xyz
x,y,z
-x,-y,-z
loop_
_atom_site_type_symbol
_atom_site_label
_atom_site_fract_x
_atom_site_fract_y
_atom_site_fract_z
Si Si1 0.042546 0.191247 0.336933
Si Si2 0.592481 0.005593 0.378978
Si Si3 0.914174 0.445726 0.667360
Si Si4 0.886780 0.936937 0.969895
Si Si5 0.544723 0.615022 0.130381
Si Si6 0.423392 0.809345 0.392312
Si Si7 0.376637 0.284201 0.721293
Si Si8 0.906354 0.504269 0.165503
O O1 0.225595 0.124741 0.466576
O O2 0.921584 0.319725 0.285701
O O3 0.046731 0.334666 0.080672
O O4 0.000000 0.000000 0.500000
O O5 0.493529 0.934523 0.349788
O O6 0.500000 0.000000 0.500000
O O7 0.582737 0.222485 0.115781
O O8 0.726096 0.519434 0.549389
O O9 0.000000 0.500000 0.500000
O O10 0.967427 0.547729 0.668817
O O11 0.990398 0.223881 0.926127
O O12 0.771869 0.111012 0.711824
O O13 0.755515 0.835621 0.128934
O O14 0.000000 0.000000 0.000000
O O15 0.522069 0.406923 0.336663
O O16 0.551288 0.671606 0.202813
O O17 0.727441 0.594660 0.111494
O O18 0.496893 0.812923 0.265195
#
# Coordination Sequence:
#
# PCOD9108329 Si02
#       8
#     2   2   2   2   2   2   2   2
#     4  11  28  49  76 104 137 183 248 305 355 415
#     4  12  27  50  72 104 144 192 246 298 348 428
#     4  10  20  40  68 100 143 182 228 281 358 425
#     4  11  23  40  70 106 143 192 237 283 359 430
#     4  12  25  45  77 102 143 195 235 290 366 434
#     4  12  27  46  72 106 149 191 235 298 362 424
#     4  11  23  47  68 108 153 181 237 301 354 438
#     4  11  23  47  72 105 144 182 236 304 355 421
#
# _framework density 22.774756
#
# number of rings (size 3 to 8) (size 9 to 14) (size 15 to 20)
#    0.000    0.750    5.000    2.250    3.500    3.500 
#    2.250    0.000    0.000    0.000    0.000    0.000 
#    0.000    0.000    0.000    0.000    0.000    0.000 
#
# Total GULP energy -89546.782436 kJ/mol
# GULP energy per Si atom -5596.673902 kJ/mol
# Density = 2.272292 g / cm^3
# Si number density = 22.774756 Si / 1000 Ang^3
#
#
#
# Elastic Constant Matrix: (Units=GPa)
#
#
# Indices 1 2 3 4 5 6 
#
# 1 51.5758 18.0347 13.4666 2.5277 6.7446 -5.4571
# 2 18.0347 129.6862 31.7968 -8.6928 -0.3728 -12.6413
# 3 13.4666 31.7968 124.8486 -11.1003 11.8318 -6.5093
# 4 2.5277 -8.6928 -11.1003 33.4246 8.2704 -5.8922
# 5 6.7446 -0.3728 11.8318 8.2704 40.9195 -5.4955
# 6 -5.4571 -12.6413 -6.5093 -5.8922 -5.4955 33.5921
#
#
#
# Elastic Compliance Matrix: (Units=1/GPa)
#
#
# Indices 1 2 3 4 5 6 
#
# 1 0.021257 -0.002584 -0.001489 -0.001896 -0.002519 0.001448
# 2 -0.002584 0.008958 -0.001728 0.002270 0.000975 0.003174
# 3 -0.001489 -0.001728 0.009283 0.003689 -0.003059 0.001053
# 4 -0.001896 0.002270 0.003689 0.034682 -0.006909 0.006214
# 5 -0.002519 0.000975 -0.003059 -0.006909 0.027499 0.002652
# 6 0.001448 0.003174 0.001053 0.006214 0.002652 0.032926
#
#
# Mechanical properties :
#
#
# Convention : Reuss Voigt Hill
#
# Bulk Modulus (GPa) = 35.84729 48.07854 41.96291
# Shear Modulus (GPa) = 32.15304 37.77474 34.96389
#
# Velocity S-wave (km/s) = 3.76145 4.07704 3.92242
# Velocity P-wave (km/s) = 5.88547 6.58174 6.24332
#
# Compressibility (1/GPa) = 0.02789611
#
# Stress axis : x y z
#
# Youngs Moduli (GPa) = 47.04371 111.62869 107.72253
#
# Poissons Ratio (x) = 0.28847 0.16040
# Poissons Ratio (y) = 0.12157 0.18613
# Poissons Ratio (z) = 0.07005 0.19288
#
# Static dielectric constant tensor:
#      x y z
#    x 1.777030 -0.015900 0.086740 
#    y -0.015900 1.818440 -0.044680 
#    z 0.086740 -0.044680 1.777470 
# 
# From -- ./inp_files/398202.got.cif
#   From: 2010.05.17/outbox.cif.g08.bks.cpg/sg2_200_cif.got.tgz:398202.got - 2010.06.03 11:33:40.
