data_PCOD9108017
_publ_section_title
;
Structure prediction by ZEFSAII (Michael W. Deem and Ramdas Pophale) SiO2 
 PCOD9108017
Probable space group: P -1
;
_chemical_formula_sum "Si O2"
_cell_formula_units_Z 14
_cell_length_a 8.323718
_cell_length_b 18.810203
_cell_length_c 7.634663
_cell_angle_alpha 140.390787
_cell_angle_beta 75.486395
_cell_angle_gamma 125.494710
_cell_volume 574.198543
_symmetry_space_group_name_H-M "P -1"
_symmetry_group_IT_number 2
_symmetry_cell_setting 'triclinic'
loop_
_space_group_symop_operation_xyz
x,y,z
-x,-y,-z
loop_
_atom_site_type_symbol
_atom_site_label
_atom_site_fract_x
_atom_site_fract_y
_atom_site_fract_z
Si Si1 0.186931 0.515852 0.875118
Si Si2 0.902439 0.036301 0.446279
Si Si3 0.520116 0.764371 0.646036
Si Si4 0.104285 0.927790 0.977998
Si Si5 0.563607 0.229527 0.948505
Si Si6 0.183668 0.298256 0.666932
Si Si7 0.117061 0.711883 0.747779
O O1 0.371038 0.677276 0.065708
O O2 0.252121 0.447707 0.865958
O O3 0.101221 0.426571 0.541682
O O4 0.000000 0.500000 0.000000
O O5 0.645621 0.936414 0.338255
O O6 0.000000 0.000000 0.500000
O O7 0.046552 0.207321 0.702753
O O8 0.966039 0.978105 0.158822
O O9 0.515064 0.728453 0.785386
O O10 0.623094 0.706520 0.406312
O O11 0.287634 0.716243 0.588786
O O12 0.670876 0.933235 0.886307
O O13 0.130864 0.850010 0.978860
O O14 0.986634 0.805814 0.633953
O O15 0.780740 0.272026 0.058513
#
# Coordination Sequence:
#
# PCOD9108017 Si02
#       7
#     2   2   2   2   2   2   2
#     4  11  25  40  58  86 124 156 194 243 299 340
#     4  11  22  38  61  92 120 149 194 247 297 342
#     4   9  17  33  64  87 113 143 209 231 282 339
#     4  10  16  35  62  91 116 152 192 242 288 353
#     4  10  21  41  59  86 119 153 200 238 281 359
#     4  10  19  40  62  84 116 162 190 241 288 355
#     4   9  20  36  63  85 117 160 193 235 287 349
#
# _framework density 24.381810000000002
#
# number of rings (size 3 to 8) (size 9 to 14) (size 15 to 20)
#    0.857    1.143    2.857    1.714    0.000    4.000 
#    0.000    4.286    0.000    0.000    0.000    0.000 
#    0.000    0.000    0.000    0.000    0.000    0.000 
#
# Total GULP energy -77983.043966 kJ/mol
# GULP energy per Si atom -5570.217426 kJ/mol
# Density = 2.432632 g / cm^3
# Si number density = 24.381810 Si / 1000 Ang^3
#
#
#
# Elastic Constant Matrix: (Units=GPa)
#
#
# Indices 1 2 3 4 5 6 
#
# 1 74.0736 26.8748 27.9797 15.2656 -11.1378 -8.0055
# 2 26.8748 153.6481 27.4518 28.6034 -7.1688 -8.7357
# 3 27.9797 27.4518 47.2390 9.9954 6.2325 -1.5121
# 4 15.2656 28.6034 9.9954 29.3110 -7.8423 -3.1979
# 5 -11.1378 -7.1688 6.2325 -7.8423 39.9216 -1.0113
# 6 -8.0055 -8.7357 -1.5121 -3.1979 -1.0113 45.0622
#
#
#
# Elastic Compliance Matrix: (Units=1/GPa)
#
#
# Indices 1 2 3 4 5 6 
#
# 1 0.020207 -0.000160 -0.011765 -0.004237 0.006690 0.003013
# 2 -0.000160 0.008503 -0.003489 -0.006714 0.000734 0.001043
# 3 -0.011765 -0.003489 0.032322 -0.004372 -0.009870 -0.002214
# 4 -0.004237 -0.006714 -0.004372 0.046501 0.007461 0.001266
# 5 0.006690 0.000734 -0.009870 0.007461 0.030110 0.002205
# 6 0.003013 0.001043 -0.002214 0.001266 0.002205 0.022994
#
#
# Mechanical properties :
#
#
# Convention : Reuss Voigt Hill
#
# Bulk Modulus (GPa) = 33.10987 48.84146 40.97567
# Shear Modulus (GPa) = 24.80973 35.70260 30.25616
#
# Velocity S-wave (km/s) = 3.19337 3.83079 3.52651
# Velocity P-wave (km/s) = 5.21594 6.29619 5.78135
#
# Compressibility (1/GPa) = 0.03020248
#
# Stress axis : x y z
#
# Youngs Moduli (GPa) = 49.48800 117.60031 30.93915
#
# Poissons Ratio (x) = 0.01883 0.36400
# Poissons Ratio (y) = 0.00793 0.10796
# Poissons Ratio (z) = 0.58223 0.41036
#
# Static dielectric constant tensor:
#      x y z
#    x 1.927490 -0.059470 0.029170 
#    y -0.059470 2.074870 -0.047760 
#    z 0.029170 -0.047760 2.015440 
# 
# From -- ./inp_files/218861.got.cif
#   From: 2010.05.17/outbox.cif.g08.bks.cpg/sg2_110_cif.got.tgz:218861.got - 2010.06.03 11:33:40.
