data_PCOD9108843
_publ_section_title
;
Structure prediction by ZEFSAII (Michael W. Deem and Ramdas Pophale) SiO2 
 PCOD9108843
Probable space group: P -1
;
_chemical_formula_sum "Si O2"
_cell_formula_units_Z 12
_cell_length_a 9.315003
_cell_length_b 12.831031
_cell_length_c 9.539522
_cell_angle_alpha 144.216944
_cell_angle_beta 50.525881
_cell_angle_gamma 125.166420
_cell_volume 510.016282
_symmetry_space_group_name_H-M "P -1"
_symmetry_group_IT_number 2
_symmetry_cell_setting 'triclinic'
loop_
_space_group_symop_operation_xyz
x,y,z
-x,-y,-z
loop_
_atom_site_type_symbol
_atom_site_label
_atom_site_fract_x
_atom_site_fract_y
_atom_site_fract_z
Si Si1 0.035805 0.663061 0.045986
Si Si2 0.712301 0.815170 0.512883
Si Si3 0.919165 0.406314 0.589222
Si Si4 0.598766 0.102544 0.414307
Si Si5 0.577362 0.415937 0.222119
Si Si6 0.234253 0.154894 0.158558
O O1 0.260593 0.699937 0.956895
O O2 0.957973 0.571392 0.852289
O O3 0.000000 0.500000 0.000000
O O4 0.922779 0.822007 0.331930
O O5 0.567257 0.899342 0.598267
O O6 0.647792 0.598671 0.297840
O O7 0.714723 0.870249 0.735838
O O8 0.708728 0.299868 0.599907
O O9 0.000000 0.500000 0.500000
O O10 0.052407 0.256814 0.386918
O O11 0.500000 0.000000 0.500000
O O12 0.759990 0.014500 0.130677
O O13 0.500000 0.500000 0.500000
O O14 0.402046 0.291758 0.133473
#
# Coordination Sequence:
#
# PCOD9108843 Si02
#       6
#     2   2   2   2   2   2
#     4  10  20  40  73 103 128 172 247 285 322 401
#     4  10  22  44  69  97 130 191 233 275 329 422
#     4  12  26  46  73 102 139 182 229 286 348 409
#     4  12  30  45  64 105 150 179 219 290 362 399
#     4   9  17  37  73  99 123 168 246 273 319 394
#     4  11  23  46  70  99 138 187 228 281 343 423
#
# _framework density 23.528659999999999
#
# number of rings (size 3 to 8) (size 9 to 14) (size 15 to 20)
#    0.000    1.333    5.000    2.000    9.333    0.667 
#    0.000    1.667    0.000    0.000    0.000    0.000 
#    0.000    0.000    0.000    0.000    0.000    0.000 
#
# Total GULP energy -66961.979202 kJ/mol
# GULP energy per Si atom -5580.164933 kJ/mol
# Density = 2.347511 g / cm^3
# Si number density = 23.528660 Si / 1000 Ang^3
#
#
#
# Elastic Constant Matrix: (Units=GPa)
#
#
# Indices 1 2 3 4 5 6 
#
# 1 90.1576 52.1554 19.7568 -7.3572 -2.4634 -3.5470
# 2 52.1554 90.4883 34.0682 -8.4806 18.6420 -10.3267
# 3 19.7568 34.0682 75.4969 -11.8843 2.5675 5.3154
# 4 -7.3572 -8.4806 -11.8843 37.1248 6.2796 11.2128
# 5 -2.4634 18.6420 2.5675 6.2796 47.0916 -7.4958
# 6 -3.5470 -10.3267 5.3154 11.2128 -7.4958 42.0727
#
#
#
# Elastic Compliance Matrix: (Units=1/GPa)
#
#
# Indices 1 2 3 4 5 6 
#
# 1 0.017855 -0.011607 0.000463 0.000281 0.005384 -0.000518
# 2 -0.011607 0.022695 -0.007000 0.001026 -0.008767 0.003641
# 3 0.000463 -0.007000 0.017551 0.005697 0.000223 -0.005375
# 4 0.000281 0.001026 0.005697 0.033397 -0.006837 -0.010563
# 5 0.005384 -0.008767 0.000223 -0.006837 0.026658 0.004845
# 6 -0.000518 0.003641 -0.005375 -0.010563 0.004845 0.028976
#
#
# Mechanical properties :
#
#
# Convention : Reuss Voigt Hill
#
# Bulk Modulus (GPa) = 45.84782 52.01154 48.92968
# Shear Modulus (GPa) = 26.22063 35.26863 30.74463
#
# Velocity S-wave (km/s) = 3.34190 3.87585 3.61874
# Velocity P-wave (km/s) = 5.86680 6.49486 6.18880
#
# Compressibility (1/GPa) = 0.02181129
#
# Stress axis : x y z
#
# Youngs Moduli (GPa) = 56.00814 44.06339 56.97751
#
# Poissons Ratio (x) = 0.51145 -0.02638
# Poissons Ratio (y) = 0.65010 0.39885
# Poissons Ratio (z) = -0.02593 0.30845
#
# Static dielectric constant tensor:
#      x y z
#    x 1.974930 0.100410 0.030410 
#    y 0.100410 2.033120 0.060670 
#    z 0.030410 0.060670 2.088670 
# 
# From -- ./inp_files/191033.got.cif
#   From: 2010.05.17/outbox.cif.g08.bks.cpg/sg2_96_cif.got.tgz:191033.got - 2010.06.03 11:33:40.
