data_PCOD9108411
_publ_section_title
;
Structure prediction by ZEFSAII (Michael W. Deem and Ramdas Pophale) SiO2 
 PCOD9108411
Probable space group: P -1
;
_chemical_formula_sum "Si O2"
_cell_formula_units_Z 13
_cell_length_a 14.724890
_cell_length_b 14.752339
_cell_length_c 8.464824
_cell_angle_alpha 142.173030
_cell_angle_beta 139.117695
_cell_angle_gamma 27.416760
_cell_volume 509.344827
_symmetry_space_group_name_H-M "P -1"
_symmetry_group_IT_number 2
_symmetry_cell_setting 'triclinic'
loop_
_space_group_symop_operation_xyz
x,y,z
-x,-y,-z
loop_
_atom_site_type_symbol
_atom_site_label
_atom_site_fract_x
_atom_site_fract_y
_atom_site_fract_z
Si Si1 0.760484 0.946655 0.339627
Si Si2 0.000000 0.500000 0.500000
Si Si3 0.878925 0.271105 0.670274
Si Si4 0.328655 0.667918 0.196407
Si Si5 0.327906 0.280137 0.919691
Si Si6 0.673493 0.180280 0.063075
Si Si7 0.986191 0.219625 0.252910
O O1 0.662189 0.870506 0.162229
O O2 0.944909 0.822585 0.536325
O O3 0.888340 0.862991 0.231576
O O4 0.623818 0.196821 0.525524
O O5 0.171462 0.372809 0.697660
O O6 0.897181 0.439430 0.369524
O O7 0.812362 0.275995 0.765591
O O8 0.802344 0.193442 0.358394
O O9 0.756877 0.514858 0.813328
O O10 0.512354 0.413771 0.089079
O O11 0.185099 0.766094 0.991436
O O12 0.537340 0.171137 0.971441
O O13 0.818148 0.971482 0.856948
#
# Coordination Sequence:
#
# PCOD9108411 Si02
#       7
#     2   1   2   2   2   2   2
#     4  11  24  39  68 100 135 170 220 279 324 385
#     4  10  20  40  68  94 124 176 208 268 328 384
#     4  11  22  44  69  96 133 179 219 268 327 398
#     4  11  22  43  67  95 132 178 218 263 336 388
#     4  10  22  43  65 101 133 169 226 269 327 389
#     4  11  24  42  72  96 131 177 224 266 322 405
#     4  11  23  43  68  99 131 173 225 265 331 391
#
# _framework density 25.522984999999998
#
# number of rings (size 3 to 8) (size 9 to 14) (size 15 to 20)
#    0.000    1.231    4.615    3.231    0.000    3.077 
#    0.000    4.615    0.000    0.000    0.000    0.000 
#    0.000    0.000    0.000    0.000    0.000    0.000 
#
# Total GULP energy -72547.420822 kJ/mol
# GULP energy per Si atom -5580.570832 kJ/mol
# Density = 2.546489 g / cm^3
# Si number density = 25.522985 Si / 1000 Ang^3
#
#
#
# Elastic Constant Matrix: (Units=GPa)
#
#
# Indices 1 2 3 4 5 6 
#
# 1 152.0756 44.1259 48.1415 16.6897 43.0705 -15.2565
# 2 44.1259 100.6336 18.5395 -17.8164 1.1293 6.8331
# 3 48.1415 18.5395 68.0088 -3.8215 19.8223 6.6758
# 4 16.6897 -17.8164 -3.8215 32.8847 16.6407 4.2820
# 5 43.0705 1.1293 19.8223 16.6407 50.3333 11.4236
# 6 -15.2565 6.8331 6.6758 4.2820 11.4236 45.2853
#
#
#
# Elastic Compliance Matrix: (Units=1/GPa)
#
#
# Indices 1 2 3 4 5 6 
#
# 1 0.016887 -0.008391 -0.008460 -0.010507 -0.010124 0.011750
# 2 -0.008391 0.015889 0.001944 0.012183 0.003757 -0.007611
# 3 -0.008460 0.001944 0.022486 0.010689 -0.003711 -0.006533
# 4 -0.010507 0.012183 0.010689 0.049770 -0.009865 -0.009171
# 5 -0.010124 0.003757 -0.003711 -0.009865 0.035785 -0.011525
# 6 0.011750 -0.007611 -0.006533 -0.009171 -0.011525 0.031927
#
#
# Mechanical properties :
#
#
# Convention : Reuss Voigt Hill
#
# Bulk Modulus (GPa) = 39.29144 60.25910 49.77527
# Shear Modulus (GPa) = 23.69218 39.69476 31.69347
#
# Velocity S-wave (km/s) = 3.05005 3.94795 3.52769
# Velocity P-wave (km/s) = 5.27558 6.66654 6.01143
#
# Compressibility (1/GPa) = 0.02545084
#
# Stress axis : x y z
#
# Youngs Moduli (GPa) = 59.21565 62.93499 44.47247
#
# Poissons Ratio (x) = 0.52806 0.37623
# Poissons Ratio (y) = 0.49686 -0.08648
# Poissons Ratio (z) = 0.50095 -0.12238
#
# Static dielectric constant tensor:
#      x y z
#    x 2.025270 0.044830 -0.006700 
#    y 0.044830 2.029790 0.009530 
#    z -0.006700 0.009530 2.040460 
# 
# From -- ./inp_files/316113.got.cif
#   From: 2010.05.17/outbox.cif.g08.bks.cpg/sg2_159_cif.got.tgz:316113.got - 2010.06.03 11:33:40.
