data_PCOD9108737
_publ_section_title
;
Structure prediction by ZEFSAII (Michael W. Deem and Ramdas Pophale) SiO2 
 PCOD9108737
Probable space group: P -1
;
_chemical_formula_sum "Si O2"
_cell_formula_units_Z 14
_cell_length_a 8.062681
_cell_length_b 8.740784
_cell_length_c 9.317405
_cell_angle_alpha 114.280667
_cell_angle_beta 112.345082
_cell_angle_gamma 68.226560
_cell_volume 535.371977
_symmetry_space_group_name_H-M "P -1"
_symmetry_group_IT_number 2
_symmetry_cell_setting 'triclinic'
loop_
_space_group_symop_operation_xyz
x,y,z
-x,-y,-z
loop_
_atom_site_type_symbol
_atom_site_label
_atom_site_fract_x
_atom_site_fract_y
_atom_site_fract_z
Si Si1 0.511760 0.226844 0.432484
Si Si2 0.564282 0.372644 0.104678
Si Si3 0.098083 0.235498 0.653454
Si Si4 0.808697 0.071253 0.657413
Si Si5 0.188289 0.345353 0.007846
Si Si6 0.711042 0.982972 0.888583
Si Si7 0.775480 0.437933 0.453896
O O1 0.599754 0.181612 0.601927
O O2 0.459340 0.077570 0.265121
O O3 0.665206 0.303044 0.432671
O O4 0.324945 0.373564 0.450514
O O5 0.727977 0.421772 0.266386
O O6 0.500000 0.500000 0.000000
O O7 0.370906 0.402257 0.141908
O O8 0.637631 0.168171 0.012717
O O9 0.227686 0.290311 0.833220
O O10 0.956285 0.170531 0.688740
O O11 0.977181 0.381801 0.566854
O O12 0.179311 0.082854 0.511509
O O13 0.835797 0.008714 0.804171
O O14 0.189318 0.175939 0.037229
O O15 0.000000 0.500000 0.000000
#
# Coordination Sequence:
#
# PCOD9108737 Si02
#       7
#     2   2   2   2   2   2   2
#     4  10  20  40  70  99 134 189 244 286 349 436
#     4  12  28  47  73 112 148 189 245 306 360 430
#     4  10  24  44  68 100 146 185 238 292 369 425
#     4  10  23  40  69 103 136 186 241 299 347 437
#     4  12  28  47  73 108 151 190 239 306 364 428
#     4  12  25  44  77 104 146 190 251 292 370 426
#     4  10  22  42  71  98 142 189 239 291 356 424
#
# _framework density 26.150044000000001
#
# number of rings (size 3 to 8) (size 9 to 14) (size 15 to 20)
#    0.000    1.143    1.429    3.429   12.000    2.857 
#    0.000    2.143    0.000    0.000    0.000    0.000 
#    0.000    0.000    0.000    0.000    0.000    0.000 
#
# Total GULP energy -78449.190203 kJ/mol
# GULP energy per Si atom -5603.513586 kJ/mol
# Density = 2.609053 g / cm^3
# Si number density = 26.150044 Si / 1000 Ang^3
#
#
#
# Elastic Constant Matrix: (Units=GPa)
#
#
# Indices 1 2 3 4 5 6 
#
# 1 79.0230 45.8467 24.7037 -4.2301 12.8423 7.2152
# 2 45.8467 162.4514 64.5667 -27.1683 -7.8453 -2.2500
# 3 24.7037 64.5667 147.6180 -12.7984 9.2601 0.3721
# 4 -4.2301 -27.1683 -12.7984 61.6971 4.8410 -8.3172
# 5 12.8423 -7.8453 9.2601 4.8410 38.3874 -4.2837
# 6 7.2152 -2.2500 0.3721 -8.3172 -4.2837 34.7005
#
#
#
# Elastic Compliance Matrix: (Units=1/GPa)
#
#
# Indices 1 2 3 4 5 6 
#
# 1 0.017522 -0.005548 -0.000152 -0.001402 -0.007368 -0.005247
# 2 -0.005548 0.009905 -0.003414 0.003341 0.004640 0.003206
# 3 -0.000152 -0.003414 0.008505 0.000399 -0.002808 -0.000532
# 4 -0.001402 0.003341 0.000399 0.018373 -0.000724 0.004818
# 5 -0.007368 0.004640 -0.002808 -0.000724 0.030845 0.005497
# 6 -0.005247 0.003206 -0.000532 0.004818 0.005497 0.031956
#
#
# Mechanical properties :
#
#
# Convention : Reuss Voigt Hill
#
# Bulk Modulus (GPa) = 56.47856 73.25852 64.86854
# Shear Modulus (GPa) = 35.40206 43.88869 39.64538
#
# Velocity S-wave (km/s) = 3.68340 4.10120 3.89790
# Velocity P-wave (km/s) = 6.30355 7.10647 6.71702
#
# Compressibility (1/GPa) = 0.01770583
#
# Stress axis : x y z
#
# Youngs Moduli (GPa) = 57.07121 100.95513 117.57987
#
# Poissons Ratio (x) = 0.56006 0.01787
# Poissons Ratio (y) = 0.31661 0.40137
# Poissons Ratio (z) = 0.00867 0.34462
#
# Static dielectric constant tensor:
#      x y z
#    x 2.084030 0.059160 -0.011590 
#    y 0.059160 2.077030 -0.045250 
#    z -0.011590 -0.045250 2.024760 
# 
# From -- ./inp_files/159921.got.cif
#   From: 2010.05.17/outbox.cif.g08.bks.cpg/sg2_80_cif.got.tgz:159921.got - 2010.06.03 11:33:40.
