data_PCOD9108730
_publ_section_title
;
Structure prediction by ZEFSAII (Michael W. Deem and Ramdas Pophale) SiO2 
 PCOD9108730
Probable space group: P -1
;
_chemical_formula_sum "Si O2"
_cell_formula_units_Z 15
_cell_length_a 15.340065
_cell_length_b 11.828827
_cell_length_c 8.574254
_cell_angle_alpha 38.850628
_cell_angle_beta 40.848061
_cell_angle_gamma 40.153803
_cell_volume 577.204661
_symmetry_space_group_name_H-M "P -1"
_symmetry_group_IT_number 2
_symmetry_cell_setting 'triclinic'
loop_
_space_group_symop_operation_xyz
x,y,z
-x,-y,-z
loop_
_atom_site_type_symbol
_atom_site_label
_atom_site_fract_x
_atom_site_fract_y
_atom_site_fract_z
Si Si1 0.964827 0.705642 0.241609
Si Si2 0.253940 0.437157 0.418761
Si Si3 0.526643 0.167240 0.186662
Si Si4 0.393202 0.318742 0.693492
Si Si5 0.330886 0.965142 0.203362
Si Si6 0.000000 0.000000 0.500000
Si Si7 0.167561 0.876910 0.071761
Si Si8 0.182914 0.695701 0.717687
O O1 0.837034 0.696303 0.311953
O O2 0.000000 0.500000 0.500000
O O3 0.117889 0.673250 0.989880
O O4 0.890153 0.930027 0.171713
O O5 0.372776 0.359015 0.202462
O O6 0.349440 0.385499 0.504405
O O7 0.154595 0.672186 0.281402
O O8 0.500000 0.000000 0.500000
O O9 0.579467 0.105940 0.003857
O O10 0.658573 0.196074 0.059969
O O11 0.562476 0.171757 0.657941
O O12 0.334860 0.520612 0.654493
O O13 0.305941 0.191085 0.009585
O O14 0.190047 0.912699 0.447631
O O15 0.084862 0.974730 0.238148
O O16 0.058712 0.745630 0.702315
#
# Coordination Sequence:
#
# PCOD9108730 Si02
#       8
#     2   2   2   2   2   1   2   2
#     4  11  28  49  69 103 144 188 232 293 362 422
#     4  12  25  46  74 105 140 189 239 292 357 424
#     4  12  22  43  74 102 148 188 230 299 353 416
#     4  11  24  42  71 109 138 184 242 294 351 415
#     4  11  24  45  69 107 142 185 238 295 355 407
#     4  10  20  40  70  98 136 178 236 276 336 420
#     4  11  23  45  72 105 136 188 239 287 358 418
#     4  11  24  43  73  97 143 184 235 290 348 423
#
# _framework density 25.987314999999999
#
# number of rings (size 3 to 8) (size 9 to 14) (size 15 to 20)
#    0.000    0.800    5.333    0.800    3.733    3.200 
#    2.400    0.000    0.000    0.000    0.000    0.000 
#    0.000    0.000    0.000    0.000    0.000    0.000 
#
# Total GULP energy -83699.435617 kJ/mol
# GULP energy per Si atom -5579.962374 kJ/mol
# Density = 2.592817 g / cm^3
# Si number density = 25.987315 Si / 1000 Ang^3
#
#
#
# Elastic Constant Matrix: (Units=GPa)
#
#
# Indices 1 2 3 4 5 6 
#
# 1 78.9523 19.9008 31.3935 -10.7898 -1.2422 -11.2658
# 2 19.9008 112.2164 43.6920 -27.5623 -7.1612 -19.4446
# 3 31.3935 43.6920 133.0023 -13.0324 -11.8321 -0.8836
# 4 -10.7898 -27.5623 -13.0324 58.1939 -6.2486 -0.0805
# 5 -1.2422 -7.1612 -11.8321 -6.2486 50.7416 -15.3997
# 6 -11.2658 -19.4446 -0.8836 -0.0805 -15.3997 36.1634
#
#
#
# Elastic Compliance Matrix: (Units=1/GPa)
#
#
# Indices 1 2 3 4 5 6 
#
# 1 0.014999 0.000187 -0.003199 0.002328 0.001563 0.005366
# 2 0.000187 0.013683 -0.003440 0.006268 0.004748 0.009368
# 3 -0.003199 -0.003440 0.009477 0.000002 0.000979 -0.002198
# 4 0.002328 0.006268 0.000002 0.021187 0.005522 0.006494
# 5 0.001563 0.004748 0.000979 0.005522 0.025562 0.013961
# 6 0.005366 0.009368 -0.002198 0.006494 0.013961 0.040267
#
#
# Mechanical properties :
#
#
# Convention : Reuss Voigt Hill
#
# Bulk Modulus (GPa) = 39.59720 57.12708 48.36214
# Shear Modulus (GPa) = 34.13044 44.29876 39.21460
#
# Velocity S-wave (km/s) = 3.62795 4.13320 3.88879
# Velocity P-wave (km/s) = 5.72884 6.69389 6.23008
#
# Compressibility (1/GPa) = 0.02525431
#
# Stress axis : x y z
#
# Youngs Moduli (GPa) = 66.67045 73.08098 105.52321
#
# Poissons Ratio (x) = -0.01366 0.33756
# Poissons Ratio (y) = -0.01246 0.36304
# Poissons Ratio (z) = 0.21327 0.25143
#
# Static dielectric constant tensor:
#      x y z
#    x 2.482080 -0.107580 -0.009110 
#    y -0.107580 2.076080 -0.027930 
#    z -0.009110 -0.027930 2.087640 
# 
# From -- ./inp_files/332683.got.cif
#   From: 2010.05.17/outbox.cif.g08.bks.cpg/sg2_167_cif.got.tgz:332683.got - 2010.06.03 11:33:40.
