data_PCOD9108535
_publ_section_title
;
Structure prediction by ZEFSAII (Michael W. Deem and Ramdas Pophale) SiO2 
 PCOD9108535
Probable space group: P -1
;
_chemical_formula_sum "Si O2"
_cell_formula_units_Z 16
_cell_length_a 8.308159
_cell_length_b 11.811544
_cell_length_c 24.248303
_cell_angle_alpha 158.271713
_cell_angle_beta 49.352876
_cell_angle_gamma 128.092750
_cell_volume 667.792191
_symmetry_space_group_name_H-M "P -1"
_symmetry_group_IT_number 2
_symmetry_cell_setting 'triclinic'
loop_
_space_group_symop_operation_xyz
x,y,z
-x,-y,-z
loop_
_atom_site_type_symbol
_atom_site_label
_atom_site_fract_x
_atom_site_fract_y
_atom_site_fract_z
Si Si1 0.754252 0.492966 0.569435
Si Si2 0.327481 0.859293 0.676294
Si Si3 0.846105 0.712860 0.017907
Si Si4 0.614893 0.451761 0.787281
Si Si5 0.336274 0.715773 0.890246
Si Si6 0.242616 0.917066 0.309159
Si Si7 0.585523 0.042105 0.132553
Si Si8 0.937977 0.432208 0.614646
O O1 0.657942 0.238805 0.434745
O O2 0.765268 0.438944 0.607600
O O3 0.000000 0.500000 0.500000
O O4 0.969928 0.903047 0.556251
O O5 0.137748 0.652636 0.652361
O O6 0.254701 0.200120 0.861643
O O7 0.561113 0.852828 0.647208
O O8 0.744020 0.945919 0.101894
O O9 0.784854 0.371954 0.855977
O O10 0.098987 0.755122 0.982135
O O11 0.432873 0.427895 0.770235
O O12 0.683393 0.197706 0.699630
O O13 0.828611 0.526189 0.737939
O O14 0.545703 0.725715 0.965970
O O15 0.322517 0.728121 0.832174
O O16 0.500000 0.000000 0.000000
O O17 0.372576 0.198881 0.270400
#
# Coordination Sequence:
#
# PCOD9108535 Si02
#       8
#     2   2   2   2   2   2   2   2
#     4  10  24  40  68 105 136 176 236 288 335 400
#     4  11  25  46  69 100 136 189 238 277 342 421
#     4  11  25  42  71 101 141 185 227 292 351 410
#     4  10  22  43  72 101 140 179 223 295 351 407
#     4  10  20  40  69 105 134 175 235 285 339 409
#     4  11  26  46  65 108 145 180 227 287 363 414
#     4  10  21  40  67 106 138 171 238 280 339 414
#     4  11  23  46  74 101 138 184 237 287 343 417
#
# _framework density 23.959548000000002
#
# number of rings (size 3 to 8) (size 9 to 14) (size 15 to 20)
#    0.000    1.500    1.250    3.000   10.500    2.000 
#    2.250    2.500    0.000    0.000    0.000    0.000 
#    0.000    0.000    0.000    0.000    0.000    0.000 
#
# Total GULP energy -89352.596558 kJ/mol
# GULP energy per Si atom -5584.537285 kJ/mol
# Density = 2.390501 g / cm^3
# Si number density = 23.959548 Si / 1000 Ang^3
#
#
#
# Elastic Constant Matrix: (Units=GPa)
#
#
# Indices 1 2 3 4 5 6 
#
# 1 133.9507 35.8461 66.8444 7.2112 -14.8643 -2.5397
# 2 35.8461 62.3145 43.8147 -9.8885 4.0079 -5.9284
# 3 66.8444 43.8147 135.4175 -5.1791 -0.5108 10.8025
# 4 7.2112 -9.8885 -5.1791 28.3592 -0.2214 -11.0023
# 5 -14.8643 4.0079 -0.5108 -0.2214 51.7586 -0.2749
# 6 -2.5397 -5.9284 10.8025 -11.0023 -0.2749 45.1789
#
#
#
# Elastic Compliance Matrix: (Units=1/GPa)
#
#
# Indices 1 2 3 4 5 6 
#
# 1 0.011605 -0.004718 -0.004379 -0.005455 0.003630 -0.000226
# 2 -0.004718 0.025984 -0.006233 0.012021 -0.003337 0.007542
# 3 -0.004379 -0.006233 0.011863 -0.000457 -0.000681 -0.004016
# 4 -0.005455 0.012021 -0.000457 0.045576 -0.002241 0.012465
# 5 0.003630 -0.003337 -0.000681 -0.002241 0.020603 -0.000491
# 6 -0.000226 0.007542 -0.004016 0.012465 -0.000491 0.027104
#
#
# Mechanical properties :
#
#
# Convention : Reuss Voigt Hill
#
# Bulk Modulus (GPa) = 53.21105 69.41037 61.31071
# Shear Modulus (GPa) = 27.83061 37.40451 32.61756
#
# Velocity S-wave (km/s) = 3.41187 3.95543 3.69366
# Velocity P-wave (km/s) = 6.14639 7.06352 6.62085
#
# Compressibility (1/GPa) = 0.01879309
#
# Stress axis : x y z
#
# Youngs Moduli (GPa) = 86.16649 38.48577 84.29418
#
# Poissons Ratio (x) = 0.18156 0.36914
# Poissons Ratio (y) = 0.40649 0.52540
# Poissons Ratio (z) = 0.37734 0.23988
#
# Static dielectric constant tensor:
#      x y z
#    x 1.920210 -0.044930 0.014700 
#    y -0.044930 1.993800 0.005960 
#    z 0.014700 0.005960 1.969790 
# 
# From -- ./inp_files/607354.got.cif
#   From: 2010.05.17/outbox.cif.g08.bks.cpg/sg2_304_cif.got.tgz:607354.got - 2010.06.03 11:33:40.
