data_PCOD9108110
_publ_section_title
;
Structure prediction by ZEFSAII (Michael W. Deem and Ramdas Pophale) SiO2 
 PCOD9108110
Probable space group: P -1
;
_chemical_formula_sum "Si O2"
_cell_formula_units_Z 15
_cell_length_a 5.375371
_cell_length_b 10.126728
_cell_length_c 20.780992
_cell_angle_alpha 37.069610
_cell_angle_beta 74.324288
_cell_angle_gamma 88.812024
_cell_volume 618.406856
_symmetry_space_group_name_H-M "P -1"
_symmetry_group_IT_number 2
_symmetry_cell_setting 'triclinic'
loop_
_space_group_symop_operation_xyz
x,y,z
-x,-y,-z
loop_
_atom_site_type_symbol
_atom_site_label
_atom_site_fract_x
_atom_site_fract_y
_atom_site_fract_z
Si Si1 0.619678 0.272640 0.475718
Si Si2 0.851767 0.304229 0.696151
Si Si3 0.561282 0.109806 0.675495
Si Si4 0.074587 0.943614 0.863221
Si Si5 0.597927 0.619917 0.240284
Si Si6 0.862847 0.795287 0.728113
Si Si7 0.000000 0.000000 0.500000
Si Si8 0.230116 0.505049 0.859246
O O1 0.507707 0.378672 0.381961
O O2 0.859976 0.496251 0.399864
O O3 0.452260 0.171036 0.591353
O O4 0.756353 0.092306 0.509664
O O5 0.691676 0.337820 0.758183
O O6 0.687798 0.316505 0.637907
O O7 0.874745 0.050141 0.797606
O O8 0.314194 0.936661 0.801172
O O9 0.808465 0.017808 0.676074
O O10 0.212498 0.152593 0.823514
O O11 0.922430 0.705744 0.001226
O O12 0.740107 0.589838 0.177227
O O13 0.992147 0.860147 0.623292
O O14 0.545937 0.625950 0.810580
O O15 0.048626 0.672338 0.799954
#
# Coordination Sequence:
#
# PCOD9108110 Si02
#       8
#     2   2   2   2   2   2   1   2
#     4  10  20  40  66  99 134 171 226 281 347 404
#     4  10  22  40  66  96 133 181 224 283 337 399
#     4  10  24  43  63  99 132 182 227 281 335 405
#     4  10  25  42  66  95 136 180 229 277 331 408
#     4  10  22  41  67 100 131 175 224 288 339 404
#     4  11  27  44  72 102 136 183 223 284 339 406
#     4  10  20  46  66 104 138 170 222 278 346 406
#     4  12  26  46  70 102 139 180 229 278 343 402
#
# _framework density 24.255875
#
# number of rings (size 3 to 8) (size 9 to 14) (size 15 to 20)
#    0.000    1.600    1.333    1.600    7.467    8.000 
#    7.200    0.000    0.000    0.000    0.000    0.000 
#    0.000    0.000    0.000    0.000    0.000    0.000 
#
# Total GULP energy -83660.701107 kJ/mol
# GULP energy per Si atom -5577.380074 kJ/mol
# Density = 2.420067 g / cm^3
# Si number density = 24.255875 Si / 1000 Ang^3
#
#
#
# Elastic Constant Matrix: (Units=GPa)
#
#
# Indices 1 2 3 4 5 6 
#
# 1 80.1089 25.2391 33.6954 5.1644 3.5014 -16.4707
# 2 25.2391 85.4847 26.9591 22.3426 2.3774 -13.8493
# 3 33.6954 26.9591 139.8846 18.8754 -5.8413 -1.7826
# 4 5.1644 22.3426 18.8754 37.9591 -7.4860 -4.7291
# 5 3.5014 2.3774 -5.8413 -7.4860 21.8446 0.0795
# 6 -16.4707 -13.8493 -1.7826 -4.7291 0.0795 29.6124
#
#
#
# Elastic Compliance Matrix: (Units=1/GPa)
#
#
# Indices 1 2 3 4 5 6 
#
# 1 0.016568 -0.002796 -0.003692 0.001668 -0.002796 0.007959
# 2 -0.002796 0.016118 -0.001387 -0.008783 -0.004703 0.004509
# 3 -0.003692 -0.001387 0.008757 -0.002956 0.002081 -0.002653
# 4 0.001668 -0.008783 -0.002956 0.035410 0.012025 0.002265
# 5 -0.002796 -0.004703 0.002081 0.012025 0.051422 -0.001847
# 6 0.007959 0.004509 -0.002653 0.002265 -0.001847 0.040513
#
#
# Mechanical properties :
#
#
# Convention : Reuss Voigt Hill
#
# Bulk Modulus (GPa) = 38.92076 53.02950 45.97513
# Shear Modulus (GPa) = 25.89301 32.52218 29.20759
#
# Velocity S-wave (km/s) = 3.27080 3.66566 3.47384
# Velocity P-wave (km/s) = 5.50862 6.31079 5.92330
#
# Compressibility (1/GPa) = 0.02569323
#
# Stress axis : x y z
#
# Youngs Moduli (GPa) = 60.35673 62.04404 114.18875
#
# Poissons Ratio (x) = 0.17347 0.42164
# Poissons Ratio (y) = 0.16875 0.15834
# Poissons Ratio (z) = 0.22287 0.08603
#
# Static dielectric constant tensor:
#      x y z
#    x 2.025850 0.076780 0.020090 
#    y 0.076780 1.960250 -0.049060 
#    z 0.020090 -0.049060 1.918030 
# 
# From -- ./inp_files/64155.got.cif
#   From: 2010.05.17/outbox.cif.g08.bks.cpg/sg2_33_cif.got.tgz:64155.got - 2010.06.03 11:33:40.
