data_PCOD9108121
_publ_section_title
;
Structure prediction by ZEFSAII (Michael W. Deem and Ramdas Pophale) SiO2 
 PCOD9108121
Probable space group: P -1
;
_chemical_formula_sum "Si O2"
_cell_formula_units_Z 14
_cell_length_a 20.442447
_cell_length_b 5.138010
_cell_length_c 5.236228
_cell_angle_alpha 88.572837
_cell_angle_beta 70.130379
_cell_angle_gamma 78.296601
_cell_volume 505.905840
_symmetry_space_group_name_H-M "P -1"
_symmetry_group_IT_number 2
_symmetry_cell_setting 'triclinic'
loop_
_space_group_symop_operation_xyz
x,y,z
-x,-y,-z
loop_
_atom_site_type_symbol
_atom_site_label
_atom_site_fract_x
_atom_site_fract_y
_atom_site_fract_z
Si Si1 0.280123 0.548217 0.097718
Si Si2 0.027743 0.698316 0.665805
Si Si3 0.115703 0.245934 0.876258
Si Si4 0.852857 0.041937 0.663476
Si Si5 0.647064 0.997012 0.766244
Si Si6 0.510189 0.198165 0.250635
Si Si7 0.385135 0.578630 0.578429
O O1 0.198324 0.682680 0.201838
O O2 0.305074 0.288824 0.239845
O O3 0.314300 0.791805 0.147951
O O4 0.317968 0.479176 0.777152
O O5 0.091228 0.532017 0.767533
O O6 0.068128 0.899915 0.465020
O O7 0.000000 0.500000 0.500000
O O8 0.962824 0.800904 0.942332
O O9 0.158110 0.065060 0.601640
O O10 0.153867 0.168217 0.098522
O O11 0.639652 0.121173 0.492366
O O12 0.565600 0.038079 0.976830
O O13 0.432824 0.389817 0.313763
O O14 0.557960 0.406985 0.277197
O O15 0.500000 0.000000 0.500000
#
# Coordination Sequence:
#
# PCOD9108121 Si02
#       7
#     2   2   2   2   2   2   2
#     4  11  28  45  66 100 141 185 243 289 357 441
#     4  11  25  45  78 110 144 184 243 307 366 431
#     4  11  26  46  71 108 142 186 239 299 364 436
#     4  12  28  45  72 103 149 193 240 299 369 441
#     4  11  25  45  69 100 136 189 237 295 364 426
#     4  10  20  40  67 100 137 174 239 296 361 426
#     4  10  23  42  66  99 138 182 232 303 356 433
#
# _framework density 27.673134999999998
#
# number of rings (size 3 to 8) (size 9 to 14) (size 15 to 20)
#    0.000    1.143    2.857    1.286   10.000    0.571 
#    0.000    0.000    0.000    0.000    0.000    0.000 
#    0.000    0.000    0.000    0.000    0.000    0.000 
#
# Total GULP energy -78341.202831 kJ/mol
# GULP energy per Si atom -5595.800202 kJ/mol
# Density = 2.761015 g / cm^3
# Si number density = 27.673135 Si / 1000 Ang^3
#
#
#
# Elastic Constant Matrix: (Units=GPa)
#
#
# Indices 1 2 3 4 5 6 
#
# 1 47.0583 16.7948 27.3710 10.2062 -12.4946 -7.2166
# 2 16.7948 156.1355 60.7904 1.8029 3.4251 -26.6585
# 3 27.3710 60.7904 158.9943 -2.3989 2.7405 -13.5683
# 4 10.2062 1.8029 -2.3989 59.6359 -6.8349 0.4639
# 5 -12.4946 3.4251 2.7405 -6.8349 37.2957 8.5309
# 6 -7.2166 -26.6585 -13.5683 0.4639 8.5309 49.0339
#
#
#
# Elastic Compliance Matrix: (Units=1/GPa)
#
#
# Indices 1 2 3 4 5 6 
#
# 1 0.027546 -0.001288 -0.004405 -0.003847 0.008820 0.000637
# 2 -0.001288 0.008266 -0.002574 -0.000390 -0.001974 0.003939
# 3 -0.004405 -0.002574 0.008120 0.000951 -0.001776 0.000499
# 4 -0.003847 -0.000390 0.000951 0.017734 0.002170 -0.001060
# 5 0.008820 -0.001974 -0.001776 0.002170 0.031808 -0.005821
# 6 0.000637 0.003939 0.000499 -0.001060 -0.005821 0.023790
#
#
# Mechanical properties :
#
#
# Convention : Reuss Voigt Hill
#
# Bulk Modulus (GPa) = 36.50167 63.56672 50.03420
# Shear Modulus (GPa) = 34.98180 46.34189 40.66184
#
# Velocity S-wave (km/s) = 3.55929 4.09665 3.83738
# Velocity P-wave (km/s) = 5.48728 6.73774 6.14440
#
# Compressibility (1/GPa) = 0.02739600
#
# Stress axis : x y z
#
# Youngs Moduli (GPa) = 36.30300 120.97827 123.15688
#
# Poissons Ratio (x) = 0.15584 0.54254
# Poissons Ratio (y) = 0.04676 0.31705
# Poissons Ratio (z) = 0.15992 0.31144
#
# Static dielectric constant tensor:
#      x y z
#    x 2.313280 0.033730 0.135480 
#    y 0.033730 2.191110 0.052820 
#    z 0.135480 0.052820 2.243580 
# 
# From -- ./inp_files/9876.got.cif
#   From: 2010.05.17/outbox.cif.g08.bks.cpg/sg2_5_cif.got.tgz:9876.got - 2010.06.03 11:33:40.
