data_PCOD9108157
_publ_section_title
;
Structure prediction by ZEFSAII (Michael W. Deem and Ramdas Pophale) SiO2 
 PCOD9108157
Probable space group: P -1
;
_chemical_formula_sum "Si O2"
_cell_formula_units_Z 16
_cell_length_a 11.994479
_cell_length_b 9.906852
_cell_length_c 9.308374
_cell_angle_alpha 136.227714
_cell_angle_beta 96.617924
_cell_angle_gamma 101.894419
_cell_volume 689.433967
_symmetry_space_group_name_H-M "P -1"
_symmetry_group_IT_number 2
_symmetry_cell_setting 'triclinic'
loop_
_space_group_symop_operation_xyz
x,y,z
-x,-y,-z
loop_
_atom_site_type_symbol
_atom_site_label
_atom_site_fract_x
_atom_site_fract_y
_atom_site_fract_z
Si Si1 0.114409 0.285090 0.381518
Si Si2 0.593225 0.275868 0.563567
Si Si3 0.950188 0.145564 0.781060
Si Si4 0.015163 0.574015 0.751651
Si Si5 0.587012 0.587747 0.218593
Si Si6 0.794478 0.140405 0.479579
Si Si7 0.605935 0.442382 0.404308
Si Si8 0.235660 0.293648 0.913101
O O1 0.100790 0.480255 0.614059
O O2 0.256283 0.367686 0.418841
O O3 0.020536 0.259741 0.217335
O O4 0.077644 0.078234 0.316460
O O5 0.459847 0.248554 0.582110
O O6 0.667173 0.139134 0.518319
O O7 0.600266 0.264824 0.382712
O O8 0.679754 0.514965 0.822313
O O9 0.096805 0.266643 0.874301
O O10 0.878567 0.118411 0.602751
O O11 0.920280 0.304149 0.002130
O O12 0.883665 0.367941 0.597937
O O13 0.580479 0.418796 0.211817
O O14 0.715666 0.670515 0.216962
O O15 0.500000 0.500000 0.000000
O O16 0.764412 0.933733 0.216687
O O17 0.500000 0.500000 0.500000
#
# Coordination Sequence:
#
# PCOD9108157 Si02
#       8
#     2   2   2   2   2   2   2   2
#     4  11  23  42  62  92 125 164 208 254 307 374
#     4  10  22  42  62  88 126 167 207 257 307 369
#     4  12  24  37  63  92 129 161 207 255 313 368
#     4  11  24  39  62  91 127 167 205 252 315 367
#     4   9  21  38  65  93 119 166 209 252 312 366
#     4  12  23  37  61  93 122 167 202 255 313 363
#     4  10  20  40  67  88 120 166 207 250 310 367
#     4  11  22  39  63  90 128 163 207 258 307 367
#
# _framework density 23.207443999999999
#
# number of rings (size 3 to 8) (size 9 to 14) (size 15 to 20)
#    0.000    1.250    3.750    1.875    1.750    1.500 
#    0.000    0.000    0.000   12.750    0.000    0.000 
#    0.000    0.000    0.000    0.000    0.000    0.000 
#
# Total GULP energy -89313.943253 kJ/mol
# GULP energy per Si atom -5582.121453 kJ/mol
# Density = 2.315462 g / cm^3
# Si number density = 23.207444 Si / 1000 Ang^3
#
#
#
# Elastic Constant Matrix: (Units=GPa)
#
#
# Indices 1 2 3 4 5 6 
#
# 1 95.5495 23.0888 0.0483 -6.5198 -11.5263 6.7263
# 2 23.0888 117.9687 5.8230 -12.1327 4.9057 6.2984
# 3 0.0483 5.8230 53.8130 -3.0222 1.6213 -3.9992
# 4 -6.5198 -12.1327 -3.0222 27.3772 -6.1339 -12.4467
# 5 -11.5263 4.9057 1.6213 -6.1339 13.5492 -4.4710
# 6 6.7263 6.2984 -3.9992 -12.4467 -4.4710 31.0998
#
#
#
# Elastic Compliance Matrix: (Units=1/GPa)
#
#
# Indices 1 2 3 4 5 6 
#
# 1 0.013395 -0.002759 0.000399 0.007017 0.016477 0.002890
# 2 -0.002759 0.009533 -0.000903 0.001459 -0.005581 -0.001668
# 3 0.000399 -0.000903 0.019204 0.004283 0.001806 0.004540
# 4 0.007017 0.001459 0.004283 0.062641 0.043192 0.030017
# 5 0.016477 -0.005581 0.001806 0.043192 0.119843 0.032314
# 6 0.002890 -0.001668 0.004540 0.030017 0.032314 0.049110
#
#
# Mechanical properties :
#
#
# Convention : Reuss Voigt Hill
#
# Bulk Modulus (GPa) = 28.08569 36.13902 32.11235
# Shear Modulus (GPa) = 17.11619 30.29665 23.70642
#
# Velocity S-wave (km/s) = 2.71870 3.61705 3.19956
# Velocity P-wave (km/s) = 4.68864 5.74892 5.24564
#
# Compressibility (1/GPa) = 0.03560532
#
# Stress axis : x y z
#
# Youngs Moduli (GPa) = 74.65289 104.90292 52.07309
#
# Poissons Ratio (x) = 0.28945 -0.02078
# Poissons Ratio (y) = 0.20599 0.04702
# Poissons Ratio (z) = -0.02979 0.09472
#
# Static dielectric constant tensor:
#      x y z
#    x 1.913150 0.010000 0.005990 
#    y 0.010000 1.970800 -0.014930 
#    z 0.005990 -0.014930 1.874130 
# 
# From -- ./inp_files/246088.got.cif
#   From: 2010.05.17/outbox.cif.g08.bks.cpg/sg2_124_cif.got.tgz:246088.got - 2010.06.03 11:33:40.
