data_PCOD9108184
_publ_section_title
;
Structure prediction by ZEFSAII (Michael W. Deem and Ramdas Pophale) SiO2 
 PCOD9108184
Probable space group: P -1
;
_chemical_formula_sum "Si O2"
_cell_formula_units_Z 16
_cell_length_a 12.357086
_cell_length_b 10.817570
_cell_length_c 8.747142
_cell_angle_alpha 139.593658
_cell_angle_beta 89.221056
_cell_angle_gamma 74.238564
_cell_volume 682.368293
_symmetry_space_group_name_H-M "P -1"
_symmetry_group_IT_number 2
_symmetry_cell_setting 'triclinic'
loop_
_space_group_symop_operation_xyz
x,y,z
-x,-y,-z
loop_
_atom_site_type_symbol
_atom_site_label
_atom_site_fract_x
_atom_site_fract_y
_atom_site_fract_z
Si Si1 0.912177 0.199500 0.535176
Si Si2 0.639455 0.339980 0.207568
Si Si3 0.870688 0.688017 0.301640
Si Si4 0.122458 0.761831 0.087915
Si Si5 0.667858 0.816444 0.207053
Si Si6 0.716610 0.546894 0.661835
Si Si7 0.479195 0.253709 0.577866
Si Si8 0.316540 0.116696 0.252081
O O1 0.846878 0.207267 0.705947
O O2 0.824774 0.347087 0.547937
O O3 0.009346 0.284811 0.662693
O O4 0.995964 0.963705 0.252713
O O5 0.642057 0.456992 0.474646
O O6 0.547118 0.511618 0.252886
O O7 0.770075 0.269478 0.058163
O O8 0.630679 0.122620 0.031466
O O9 0.804230 0.734632 0.183603
O O10 0.774301 0.849126 0.573797
O O11 0.890214 0.454935 0.127386
O O12 0.598420 0.749790 0.276465
O O13 0.610662 0.070031 0.430573
O O14 0.653894 0.703348 0.949727
O O15 0.750873 0.698104 0.693836
O O16 0.422621 0.165120 0.362729
#
# Coordination Sequence:
#
# PCOD9108184 Si02
#       8
#     2   2   2   2   2   2   2   2
#     4  11  24  37  64  88 119 161 201 248 291 345
#     4  11  21  42  60  86 128 158 193 243 298 356
#     4  11  20  42  61  85 122 157 201 247 293 347
#     4  11  21  40  60  88 119 158 202 247 294 342
#     4  10  20  40  67  91 114 154 198 252 299 346
#     4  11  23  40  57  91 123 157 197 242 292 358
#     4   9  20  42  68  87 117 151 198 252 301 342
#     4  10  22  40  61  86 121 163 194 239 298 359
#
# _framework density 23.447745000000001
#
# number of rings (size 3 to 8) (size 9 to 14) (size 15 to 20)
#    0.000    1.500    6.250    0.375    0.000    4.000 
#    2.250   10.625    0.000    0.000    0.000    0.000 
#    0.000    0.000    0.000    0.000    0.000    0.000 
#
# Total GULP energy -89521.720189 kJ/mol
# GULP energy per Si atom -5595.107512 kJ/mol
# Density = 2.339438 g / cm^3
# Si number density = 23.447745 Si / 1000 Ang^3
#
#
#
# Elastic Constant Matrix: (Units=GPa)
#
#
# Indices 1 2 3 4 5 6 
#
# 1 34.8276 4.5163 2.9884 -6.5625 -6.4717 0.3192
# 2 4.5163 118.6103 28.6404 10.2217 -12.6268 -7.7310
# 3 2.9884 28.6404 114.8536 7.7999 -1.1580 4.7049
# 4 -6.5625 10.2217 7.7999 44.6434 -3.1256 -3.7040
# 5 -6.4717 -12.6268 -1.1580 -3.1256 23.1130 7.5155
# 6 0.3192 -7.7310 4.7049 -3.7040 7.5155 22.0446
#
#
#
# Elastic Compliance Matrix: (Units=1/GPa)
#
#
# Indices 1 2 3 4 5 6 
#
# 1 0.031820 -0.000587 -0.000819 0.005419 0.010285 -0.003087
# 2 -0.000587 0.009733 -0.002368 -0.001424 0.004097 0.002291
# 3 -0.000819 -0.002368 0.009542 -0.001515 -0.000268 -0.003018
# 4 0.005419 -0.001424 -0.001515 0.024230 0.003036 0.002782
# 5 0.010285 0.004097 -0.000268 0.003036 0.054184 -0.016617
# 6 -0.003087 0.002291 -0.003018 0.002782 -0.016617 0.052988
#
#
# Mechanical properties :
#
#
# Convention : Reuss Voigt Hill
#
# Bulk Modulus (GPa) = 22.96371 37.84239 30.40305
# Shear Modulus (GPa) = 24.44258 33.43663 28.93961
#
# Velocity S-wave (km/s) = 3.23217 3.78035 3.51695
# Velocity P-wave (km/s) = 4.87279 5.93538 5.43014
#
# Compressibility (1/GPa) = 0.04354698
#
# Stress axis : x y z
#
# Youngs Moduli (GPa) = 31.42700 102.74062 104.79692
#
# Poissons Ratio (x) = 0.06032 0.08587
# Poissons Ratio (y) = 0.01845 0.24813
# Poissons Ratio (z) = 0.02575 0.24326
#
# Static dielectric constant tensor:
#      x y z
#    x 1.889600 0.026180 -0.022890 
#    y 0.026180 1.899770 0.006000 
#    z -0.022890 0.006000 1.909840 
# 
# From -- ./inp_files/306017.got.cif
#   From: 2010.05.17/outbox.cif.g08.bks.cpg/sg2_154_cif.got.tgz:306017.got - 2010.06.03 11:33:40.
