data_PCOD9108621
_publ_section_title
;
Structure prediction by ZEFSAII (Michael W. Deem and Ramdas Pophale) SiO2 
 PCOD9108621
Probable space group: P -1
;
_chemical_formula_sum "Si O2"
_cell_formula_units_Z 13
_cell_length_a 26.704198
_cell_length_b 26.369557
_cell_length_c 8.729978
_cell_angle_alpha 146.334052
_cell_angle_beta 145.255304
_cell_angle_gamma 10.561819
_cell_volume 624.270632
_symmetry_space_group_name_H-M "P -1"
_symmetry_group_IT_number 2
_symmetry_cell_setting 'triclinic'
loop_
_space_group_symop_operation_xyz
x,y,z
-x,-y,-z
loop_
_atom_site_type_symbol
_atom_site_label
_atom_site_fract_x
_atom_site_fract_y
_atom_site_fract_z
Si Si1 0.052526 0.660280 0.254391
Si Si2 0.807938 0.279111 0.221032
Si Si3 0.000000 0.000000 0.500000
Si Si4 0.540235 0.088284 0.199636
Si Si5 0.501140 0.495940 0.256702
Si Si6 0.420789 0.996956 0.577627
Si Si7 0.924797 0.477225 0.332425
O O1 0.013032 0.806723 0.536594
O O2 0.352251 0.342297 0.271881
O O3 0.029392 0.645262 0.986680
O O4 0.847796 0.804645 0.208728
O O5 0.612007 0.465632 0.345709
O O6 0.614782 0.466079 0.056075
O O7 0.000000 0.000000 0.000000
O O8 0.763926 0.212406 0.306709
O O9 0.757908 0.224670 0.587065
O O10 0.511371 0.122529 0.395890
O O11 0.456145 0.069144 0.888045
O O12 0.117958 0.276406 0.460098
O O13 0.619285 0.779573 0.388838
O O14 0.000000 0.500000 0.500000
#
# Coordination Sequence:
#
# PCOD9108621 Si02
#       7
#     2   2   1   2   2   2   2
#     4  12  26  40  67  98 129 169 231 263 321 388
#     4  11  25  46  69  96 132 184 224 281 326 399
#     4  10  20  40  70 100 118 162 218 270 342 398
#     4  11  23  41  64  98 128 176 216 264 320 406
#     4  10  22  42  69  95 126 171 217 275 338 389
#     4  11  22  41  66  91 138 171 208 262 339 383
#     4  12  21  40  64  99 127 172 212 271 323 387
#
# _framework density 20.824301999999999
#
# number of rings (size 3 to 8) (size 9 to 14) (size 15 to 20)
#    0.000    0.923    4.615    2.308    4.308    2.462 
#    0.000    9.231    0.000    0.000    0.000    0.000 
#    0.000    0.000    0.000    0.000    0.000    0.000 
#
# Total GULP energy -72382.970001 kJ/mol
# GULP energy per Si atom -5567.920769 kJ/mol
# Density = 2.077691 g / cm^3
# Si number density = 20.824302 Si / 1000 Ang^3
#
#
#
# Elastic Constant Matrix: (Units=GPa)
#
#
# Indices 1 2 3 4 5 6 
#
# 1 128.5287 -5.0446 -36.6156 -6.1892 -43.7486 23.4216
# 2 -5.0446 93.1021 36.2655 -10.3187 -5.4965 -10.1400
# 3 -36.6156 36.2655 213.9324 -1.3099 14.6269 -13.7320
# 4 -6.1892 -10.3187 -1.3099 23.1673 5.5589 -24.4204
# 5 -43.7486 -5.4965 14.6269 5.5589 30.4769 -6.2337
# 6 23.4216 -10.1400 -13.7320 -24.4204 -6.2337 42.5206
#
#
#
# Elastic Compliance Matrix: (Units=1/GPa)
#
#
# Indices 1 2 3 4 5 6 
#
# 1 0.020638 -0.002896 0.000358 -0.027457 0.029145 -0.023439
# 2 -0.002896 0.017076 -0.001649 0.031073 -0.001293 0.022791
# 3 0.000358 -0.001649 0.005343 0.002690 -0.002361 0.002334
# 4 -0.027457 0.031073 0.002690 0.198401 -0.044530 0.130820
# 5 0.029145 -0.001293 -0.002361 -0.044530 0.077254 -0.031374
# 6 -0.023439 0.022791 0.002334 0.130820 -0.031374 0.113151
#
#
# Mechanical properties :
#
#
# Convention : Reuss Voigt Hill
#
# Bulk Modulus (GPa) = 28.83297 47.19710 38.01504
# Shear Modulus (GPa) = 11.06689 48.63015 29.84852
#
# Velocity S-wave (km/s) = 2.30780 4.83769 3.79007
# Velocity P-wave (km/s) = 4.58008 7.34289 6.11944
#
# Compressibility (1/GPa) = 0.03468251
#
# Stress axis : x y z
#
# Youngs Moduli (GPa) = 48.45365 58.56166 187.16589
#
# Poissons Ratio (x) = 0.16962 -0.06700
# Poissons Ratio (y) = 0.14034 0.30861
# Poissons Ratio (z) = -0.01735 0.09656
#
# Static dielectric constant tensor:
#      x y z
#    x 1.759640 0.022140 -0.004290 
#    y 0.022140 1.744690 0.011700 
#    z -0.004290 0.011700 1.734930 
# 
# From -- ./inp_files/314002.got.cif
#   From: 2010.05.17/outbox.cif.g08.bks.cpg/sg2_158_cif.got.tgz:314002.got - 2010.06.03 11:33:40.
