data_PCOD9108648
_publ_section_title
;
Structure prediction by ZEFSAII (Michael W. Deem and Ramdas Pophale) SiO2 
 PCOD9108648
Probable space group: P -1
;
_chemical_formula_sum "Si O2"
_cell_formula_units_Z 16
_cell_length_a 15.145025
_cell_length_b 6.188929
_cell_length_c 7.481695
_cell_angle_alpha 78.452628
_cell_angle_beta 74.758133
_cell_angle_gamma 107.523050
_cell_volume 614.750759
_symmetry_space_group_name_H-M "P -1"
_symmetry_group_IT_number 2
_symmetry_cell_setting 'triclinic'
loop_
_space_group_symop_operation_xyz
x,y,z
-x,-y,-z
loop_
_atom_site_type_symbol
_atom_site_label
_atom_site_fract_x
_atom_site_fract_y
_atom_site_fract_z
Si Si1 0.615273 0.819088 0.504191
Si Si2 0.293089 0.703110 0.796000
Si Si3 0.850572 0.302930 0.594651
Si Si4 0.909699 0.435520 0.923988
Si Si5 0.975303 0.105129 0.316638
Si Si6 0.197935 0.295116 0.647386
Si Si7 0.496699 0.340287 0.784231
Si Si8 0.360300 0.888868 0.113781
O O1 0.719745 0.789173 0.465729
O O2 0.542180 0.627721 0.711811
O O3 0.562567 0.726687 0.357993
O O4 0.643839 0.101224 0.413419
O O5 0.252858 0.447982 0.764749
O O6 0.190647 0.728882 0.903741
O O7 0.346170 0.750045 0.952471
O O8 0.914098 0.341746 0.737407
O O9 0.903981 0.229984 0.416984
O O10 0.829860 0.532020 0.501013
O O11 0.742349 0.130492 0.742172
O O12 0.920355 0.707007 0.836564
O O13 0.000000 0.500000 0.000000
O O14 0.907669 0.919361 0.239901
O O15 0.000000 0.000000 0.500000
O O16 0.584234 0.238956 0.771426
O O17 0.420962 0.164720 0.993631
#
# Coordination Sequence:
#
# PCOD9108648 Si02
#       8
#     2   2   2   2   2   2   2   2
#     4  10  20  40  70 103 131 181 226 270 334 408
#     4  10  24  42  65  99 141 176 221 281 341 394
#     4  11  23  43  70  97 140 176 219 279 345 395
#     4  11  23  44  67  98 136 172 216 291 337 393
#     4  12  27  45  70  99 129 182 236 274 328 411
#     4  12  23  43  68  96 135 184 224 276 337 401
#     4   9  18  38  74 102 139 169 229 277 328 416
#     4   9  19  42  69 105 143 174 213 289 344 384
#
# _framework density 26.026807999999999
#
# number of rings (size 3 to 8) (size 9 to 14) (size 15 to 20)
#    0.000    1.500    2.500    2.625    1.750    0.500 
#    6.750    6.250    5.500    0.000    0.000    0.000 
#    0.000    0.000    0.000    0.000    0.000    0.000 
#
# Total GULP energy -89365.187030 kJ/mol
# GULP energy per Si atom -5585.324189 kJ/mol
# Density = 2.596757 g / cm^3
# Si number density = 26.026808 Si / 1000 Ang^3
#
#
#
# Elastic Constant Matrix: (Units=GPa)
#
#
# Indices 1 2 3 4 5 6 
#
# 1 109.0013 14.8408 32.3004 3.8829 17.3226 9.7936
# 2 14.8408 86.7320 60.3470 5.3519 -12.6387 31.9332
# 3 32.3004 60.3470 97.5037 1.8935 2.8303 10.1864
# 4 3.8829 5.3519 1.8935 57.7396 17.0932 3.0931
# 5 17.3226 -12.6387 2.8303 17.0932 45.0460 -12.4146
# 6 9.7936 31.9332 10.1864 3.0931 -12.4146 31.9119
#
#
#
# Elastic Compliance Matrix: (Units=1/GPa)
#
#
# Indices 1 2 3 4 5 6 
#
# 1 0.011815 0.003532 -0.005125 0.001210 -0.005874 -0.007927
# 2 0.003532 0.037465 -0.021221 -0.002260 0.002958 -0.030430
# 3 -0.005125 -0.021221 0.023622 0.001371 -0.002035 0.014343
# 4 0.001210 -0.002260 0.001371 0.020694 -0.010294 -0.004558
# 5 -0.005874 0.002958 -0.002035 -0.010294 0.032995 0.013326
# 6 -0.007927 -0.030430 0.014343 -0.004558 0.013326 0.065268
#
#
# Mechanical properties :
#
#
# Convention : Reuss Voigt Hill
#
# Bulk Modulus (GPa) = 36.66472 56.46817 46.56644
# Shear Modulus (GPa) = 20.27777 39.32274 29.80025
#
# Velocity S-wave (km/s) = 2.79428 3.89119 3.38743
# Velocity P-wave (km/s) = 4.95263 6.47547 5.76456
#
# Compressibility (1/GPa) = 0.02727418
#
# Stress axis : x y z
#
# Youngs Moduli (GPa) = 84.64151 26.69170 42.33418
#
# Poissons Ratio (x) = -0.09427 0.21695
# Poissons Ratio (y) = -0.29895 0.89836
# Poissons Ratio (z) = 0.43376 0.56641
#
# Static dielectric constant tensor:
#      x y z
#    x 2.035950 0.002230 -0.017310 
#    y 0.002230 2.170850 -0.037830 
#    z -0.017310 -0.037830 2.123260 
# 
# From -- ./inp_files/288635.got.cif
#   From: 2010.05.17/outbox.cif.g08.bks.cpg/sg2_145_cif.got.tgz:288635.got - 2010.06.03 11:33:40.
