data_PCOD9108227
_publ_section_title
;
Structure prediction by ZEFSAII (Michael W. Deem and Ramdas Pophale) SiO2 
 PCOD9108227
Probable space group: P -1
;
_chemical_formula_sum "Si O2"
_cell_formula_units_Z 14
_cell_length_a 9.277507
_cell_length_b 11.906907
_cell_length_c 11.474550
_cell_angle_alpha 114.747647
_cell_angle_beta 37.590373
_cell_angle_gamma 125.106169
_cell_volume 630.815387
_symmetry_space_group_name_H-M "P -1"
_symmetry_group_IT_number 2
_symmetry_cell_setting 'triclinic'
loop_
_space_group_symop_operation_xyz
x,y,z
-x,-y,-z
loop_
_atom_site_type_symbol
_atom_site_label
_atom_site_fract_x
_atom_site_fract_y
_atom_site_fract_z
Si Si1 0.110275 0.621814 0.576837
Si Si2 0.475881 0.115788 0.691423
Si Si3 0.683133 0.547996 0.517452
Si Si4 0.000380 0.862569 0.379509
Si Si5 0.523522 0.836387 0.023499
Si Si6 0.120433 0.004586 0.667323
Si Si7 0.573159 0.582206 0.865637
O O1 0.372845 0.746977 0.420906
O O2 0.153028 0.543546 0.625561
O O3 0.000000 0.500000 0.500000
O O4 0.884094 0.673058 0.735992
O O5 0.423104 0.149997 0.867514
O O6 0.681422 0.049200 0.539936
O O7 0.216320 0.023303 0.746718
O O8 0.500000 0.500000 0.500000
O O9 0.859219 0.714590 0.470813
O O10 0.554583 0.520103 0.719398
O O11 0.293907 0.882432 0.171051
O O12 0.839473 0.854892 0.361267
O O13 0.000000 0.000000 0.500000
O O14 0.424584 0.676956 0.989472
O O15 0.807605 0.916217 0.817703
O O16 0.500000 0.500000 0.000000
#
# Coordination Sequence:
#
# PCOD9108227 Si02
#       7
#     2   2   2   2   2   2   2
#     4  10  20  40  67  93 131 182 227 278 344 408
#     4  11  22  42  65  97 137 172 232 287 346 401
#     4  11  24  44  69 101 144 189 223 285 367 409
#     4  12  24  43  67  98 141 188 227 278 353 427
#     4  12  22  42  68  99 133 179 240 284 336 418
#     4  11  24  40  64  97 135 181 224 284 347 409
#     4  11  22  40  68 104 131 177 242 288 333 413
#
# _framework density 22.193498000000002
#
# number of rings (size 3 to 8) (size 9 to 14) (size 15 to 20)
#    0.000    0.857    2.857    6.857    0.000    0.000 
#    0.000    4.286    0.000    0.000    0.000    0.000 
#    0.000    0.000    0.000    0.000    0.000    0.000 
#
# Total GULP energy -77982.704417 kJ/mol
# GULP energy per Si atom -5570.193173 kJ/mol
# Density = 2.214298 g / cm^3
# Si number density = 22.193498 Si / 1000 Ang^3
#
#
#
# Elastic Constant Matrix: (Units=GPa)
#
#
# Indices 1 2 3 4 5 6 
#
# 1 137.2541 35.0548 44.9615 5.9878 -10.4365 -16.6470
# 2 35.0548 79.3490 29.8411 4.8804 -16.0766 -27.1012
# 3 44.9615 29.8411 93.3102 3.5687 -3.2518 -4.8602
# 4 5.9878 4.8804 3.5687 39.1195 -6.6012 -1.7318
# 5 -10.4365 -16.0766 -3.2518 -6.6012 39.1740 9.4239
# 6 -16.6470 -27.1012 -4.8602 -1.7318 9.4239 41.9774
#
#
#
# Elastic Compliance Matrix: (Units=1/GPa)
#
#
# Indices 1 2 3 4 5 6 
#
# 1 0.009301 -0.001866 -0.003736 -0.000624 0.000856 0.001833
# 2 -0.001866 0.019698 -0.004679 -0.000507 0.004616 0.010378
# 3 -0.003736 -0.004679 0.013850 -0.000428 -0.001201 -0.002647
# 4 -0.000624 -0.000507 -0.000428 0.026442 0.004158 -0.000467
# 5 0.000856 0.004616 -0.001201 0.004158 0.029011 -0.003161
# 6 0.001833 0.010378 -0.002647 -0.000467 -0.003161 0.031633
#
#
# Mechanical properties :
#
#
# Convention : Reuss Voigt Hill
#
# Bulk Modulus (GPa) = 44.87068 58.84758 51.85913
# Shear Modulus (GPa) = 31.66050 37.39124 34.52587
#
# Velocity S-wave (km/s) = 3.78109 4.10906 3.94848
# Velocity P-wave (km/s) = 6.27089 7.00613 6.64868
#
# Compressibility (1/GPa) = 0.02228627
#
# Stress axis : x y z
#
# Youngs Moduli (GPa) = 107.51866 50.76716 72.20183
#
# Poissons Ratio (x) = 0.09474 0.26971
# Poissons Ratio (y) = 0.20064 0.33787
# Poissons Ratio (z) = 0.40164 0.23756
#
# Static dielectric constant tensor:
#      x y z
#    x 1.839810 -0.046370 -0.027200 
#    y -0.046370 1.876950 -0.014130 
#    z -0.027200 -0.014130 1.869970 
# 
# From -- ./inp_files/390604.got.cif
#   From: 2010.05.17/outbox.cif.g08.bks.cpg/sg2_196_cif.got.tgz:390604.got - 2010.06.03 11:33:40.
