data_PCOD9108953
_publ_section_title
;
Structure prediction by ZEFSAII (Michael W. Deem and Ramdas Pophale) SiO2 
 PCOD9108953
Probable space group: P -1
;
_chemical_formula_sum "Si O2"
_cell_formula_units_Z 16
_cell_length_a 14.204611
_cell_length_b 5.127825
_cell_length_c 12.699648
_cell_angle_alpha 111.236555
_cell_angle_beta 46.665916
_cell_angle_gamma 97.268267
_cell_volume 616.894302
_symmetry_space_group_name_H-M "P -1"
_symmetry_group_IT_number 2
_symmetry_cell_setting 'triclinic'
loop_
_space_group_symop_operation_xyz
x,y,z
-x,-y,-z
loop_
_atom_site_type_symbol
_atom_site_label
_atom_site_fract_x
_atom_site_fract_y
_atom_site_fract_z
Si Si1 0.796925 0.245192 0.002698
Si Si2 0.424359 0.307597 0.801369
Si Si3 0.971664 0.195813 0.237400
Si Si4 0.062781 0.610283 0.361794
Si Si5 0.254398 0.768493 0.722777
Si Si6 0.823606 0.081410 0.531193
Si Si7 0.431821 0.919158 0.936213
Si Si8 0.641755 0.870373 0.482230
O O1 0.726246 0.570025 0.095753
O O2 0.746453 0.161241 0.143527
O O3 0.722940 0.106665 0.945258
O O4 0.950343 0.126465 0.868054
O O5 0.486742 0.598226 0.803182
O O6 0.501360 0.075429 0.629489
O O7 0.438630 0.160992 0.881607
O O8 0.076626 0.382294 0.224572
O O9 0.893117 0.276946 0.203295
O O10 0.864600 0.240755 0.419749
O O11 0.191697 0.712935 0.325466
O O12 0.000000 0.500000 0.500000
O O13 0.952737 0.858293 0.433887
O O14 0.283141 0.002440 0.651885
O O15 0.348953 0.464462 0.587885
O O16 0.712385 0.925234 0.547425
O O17 0.500000 0.000000 0.000000
#
# Coordination Sequence:
#
# PCOD9108953 Si02
#       8
#     2   2   2   2   2   2   2   2
#     4  10  26  41  66  95 129 170 219 259 324 388
#     4  10  24  44  68  97 125 171 219 263 322 375
#     4  10  20  41  60  94 130 171 204 264 321 390
#     4   9  17  34  56  86 124 160 211 255 317 373
#     4  11  24  42  67  97 128 171 212 270 321 381
#     4   9  19  35  58  92 123 164 210 261 317 380
#     4  10  23  47  65  94 132 166 218 262 319 382
#     4  11  23  43  67  92 132 165 218 270 319 372
#
# _framework density 25.936371000000001
#
# number of rings (size 3 to 8) (size 9 to 14) (size 15 to 20)
#    0.750    1.250    1.250    1.500    1.750    3.000 
#    6.750    1.875    0.000    0.000    0.000    0.000 
#    0.000    0.000    0.000    0.000    0.000    0.000 
#
# Total GULP energy -89338.384092 kJ/mol
# GULP energy per Si atom -5583.649006 kJ/mol
# Density = 2.587734 g / cm^3
# Si number density = 25.936371 Si / 1000 Ang^3
#
#
#
# Elastic Constant Matrix: (Units=GPa)
#
#
# Indices 1 2 3 4 5 6 
#
# 1 160.1645 29.2372 34.9131 14.8954 29.6913 -9.2642
# 2 29.2372 119.1068 12.4551 8.5513 11.6746 -22.7126
# 3 34.9131 12.4551 62.9316 5.3294 4.0175 -13.9078
# 4 14.8954 8.5513 5.3294 41.5256 -11.1602 4.7041
# 5 29.6913 11.6746 4.0175 -11.1602 29.3261 -2.1070
# 6 -9.2642 -22.7126 -13.9078 4.7041 -2.1070 31.3281
#
#
#
# Elastic Compliance Matrix: (Units=1/GPa)
#
#
# Indices 1 2 3 4 5 6 
#
# 1 0.009994 -0.000191 -0.003942 -0.006359 -0.011834 0.001226
# 2 -0.000191 0.010840 0.000545 -0.004622 -0.005354 0.008378
# 3 -0.003942 0.000545 0.019944 -0.001973 0.000897 0.008440
# 4 -0.006359 -0.004622 -0.001973 0.034299 0.020893 -0.009852
# 5 -0.011834 -0.005354 0.000897 0.020893 0.055582 -0.006382
# 6 0.001226 0.008378 0.008440 -0.009852 -0.006382 0.043154
#
#
# Mechanical properties :
#
#
# Convention : Reuss Voigt Hill
#
# Bulk Modulus (GPa) = 29.75855 55.04595 42.40225
# Shear Modulus (GPa) = 26.01621 38.14246 32.07934
#
# Velocity S-wave (km/s) = 3.17058 3.83902 3.52070
# Velocity P-wave (km/s) = 4.99019 6.39690 5.73682
#
# Compressibility (1/GPa) = 0.03360379
#
# Stress axis : x y z
#
# Youngs Moduli (GPa) = 100.06302 92.25182 50.13983
#
# Poissons Ratio (x) = 0.01759 0.19763
# Poissons Ratio (y) = 0.01908 -0.02734
# Poissons Ratio (z) = 0.39441 -0.05030
#
# Static dielectric constant tensor:
#      x y z
#    x 2.131580 0.134860 -0.025080 
#    y 0.134860 2.109700 0.032660 
#    z -0.025080 0.032660 2.051700 
# 
# From -- ./inp_files/76119.got.cif
#   From: 2010.05.17/outbox.cif.g08.bks.cpg/sg2_39_cif.got.tgz:76119.got - 2010.06.03 11:33:40.
