data_PCOD9108942
_publ_section_title
;
Structure prediction by ZEFSAII (Michael W. Deem and Ramdas Pophale) SiO2 
 PCOD9108942
Probable space group: P -1
;
_chemical_formula_sum "Si O2"
_cell_formula_units_Z 16
_cell_length_a 9.641145
_cell_length_b 20.682724
_cell_length_c 9.501340
_cell_angle_alpha 40.521128
_cell_angle_beta 43.586216
_cell_angle_gamma 58.475902
_cell_volume 847.066178
_symmetry_space_group_name_H-M "P -1"
_symmetry_group_IT_number 2
_symmetry_cell_setting 'triclinic'
loop_
_space_group_symop_operation_xyz
x,y,z
-x,-y,-z
loop_
_atom_site_type_symbol
_atom_site_label
_atom_site_fract_x
_atom_site_fract_y
_atom_site_fract_z
Si Si1 0.710911 0.406376 0.329491
Si Si2 0.424261 0.125081 0.709897
Si Si3 0.377093 0.828956 0.212286
Si Si4 0.005117 0.460154 0.282373
Si Si5 0.049651 0.979209 0.161727
Si Si6 0.637192 0.649769 0.699568
Si Si7 0.347701 0.500020 0.323806
Si Si8 0.609735 0.976792 0.604006
O O1 0.653433 0.289415 0.562672
O O2 0.849691 0.433501 0.315900
O O3 0.508329 0.465576 0.377162
O O4 0.843946 0.446514 0.030724
O O5 0.522213 0.131659 0.781183
O O6 0.398329 0.236396 0.490714
O O7 0.559191 0.062673 0.609384
O O8 0.207082 0.065147 0.962623
O O9 0.165975 0.878595 0.259804
O O10 0.518035 0.873539 0.909103
O O11 0.867300 0.482956 0.478986
O O12 0.153169 0.371066 0.343260
O O13 0.843918 0.974203 0.406113
O O14 0.000000 0.000000 0.000000
O O15 0.655826 0.587589 0.644372
O O16 0.452307 0.597237 0.010408
O O17 0.500000 0.000000 0.500000
#
# Coordination Sequence:
#
# PCOD9108942 Si02
#       8
#     2   2   2   2   2   2   2   2
#     4  10  22  40  61  90 128 159 206 253 307 362
#     4  11  24  42  63  94 130 163 209 260 310 371
#     4  11  24  42  65  92 130 164 206 261 312 373
#     4  10  22  38  63  91 125 164 207 252 301 367
#     4  11  23  43  66  90 125 160 205 263 311 371
#     4  10  22  38  62  89 125 162 205 251 303 365
#     4  10  20  41  60  88 126 165 199 255 307 357
#     4  11  23  42  67  92 122 163 205 258 318 371
#
# _framework density 18.888725999999998
#
# number of rings (size 3 to 8) (size 9 to 14) (size 15 to 20)
#    0.000    1.500    3.750    2.250    1.750    5.000 
#    2.250    0.000    0.000    0.000    0.000    0.000 
#    0.000    0.000    0.000    0.000    0.000    0.000 
#
# Total GULP energy -89367.479298 kJ/mol
# GULP energy per Si atom -5585.467456 kJ/mol
# Density = 1.884573 g / cm^3
# Si number density = 18.888726 Si / 1000 Ang^3
#
#
#
# Elastic Constant Matrix: (Units=GPa)
#
#
# Indices 1 2 3 4 5 6 
#
# 1 90.4308 12.1850 29.6723 7.6291 9.3133 -8.2408
# 2 12.1850 64.3034 76.4150 11.3278 -10.0174 -17.6932
# 3 29.6723 76.4150 126.5552 14.2080 -2.1015 -17.9394
# 4 7.6291 11.3278 14.2080 37.6013 -10.0220 -3.1459
# 5 9.3133 -10.0174 -2.1015 -10.0220 30.1569 3.4381
# 6 -8.2408 -17.6932 -17.9394 -3.1459 3.4381 32.2357
#
#
#
# Elastic Compliance Matrix: (Units=1/GPa)
#
#
# Indices 1 2 3 4 5 6 
#
# 1 0.013043 0.003512 -0.004504 -0.002953 -0.004493 0.002946
# 2 0.003512 0.070308 -0.040818 -0.000550 0.017550 0.014847
# 3 -0.004504 -0.040818 0.033093 -0.002360 -0.010157 -0.004286
# 4 -0.002953 -0.000550 -0.002360 0.031133 0.010968 -0.000502
# 5 -0.004493 0.017550 -0.010157 0.010968 0.043397 -0.000727
# 6 0.002946 0.014847 -0.004286 -0.000502 -0.000727 0.037567
#
#
# Mechanical properties :
#
#
# Convention : Reuss Voigt Hill
#
# Bulk Modulus (GPa) = 30.46621 57.53711 44.00166
# Shear Modulus (GPa) = 15.47491 30.86658 23.17075
#
# Velocity S-wave (km/s) = 2.86539 4.04682 3.50622
# Velocity P-wave (km/s) = 5.20688 7.23622 6.30375
#
# Compressibility (1/GPa) = 0.03282325
#
# Stress axis : x y z
#
# Youngs Moduli (GPa) = 76.66828 14.22306 30.21809
#
# Poissons Ratio (x) = -0.04995 0.13610
# Poissons Ratio (y) = -0.26923 1.23345
# Poissons Ratio (z) = 0.34530 0.58056
#
# Static dielectric constant tensor:
#      x y z
#    x 1.674190 0.013450 0.026330 
#    y 0.013450 1.612160 0.003680 
#    z 0.026330 0.003680 1.640080 
# 
# From -- ./inp_files/214719.got.cif
#   From: 2010.05.17/outbox.cif.g08.bks.cpg/sg2_108_cif.got.tgz:214719.got - 2010.06.03 11:33:40.
