data_PCOD9108394
_publ_section_title
;
Structure prediction by ZEFSAII (Michael W. Deem and Ramdas Pophale) SiO2 
 PCOD9108394
Probable space group: P -1
;
_chemical_formula_sum "Si O2"
_cell_formula_units_Z 13
_cell_length_a 11.698180
_cell_length_b 12.045742
_cell_length_c 7.110917
_cell_angle_alpha 111.486767
_cell_angle_beta 142.498897
_cell_angle_gamma 50.582699
_cell_volume 450.679437
_symmetry_space_group_name_H-M "P -1"
_symmetry_group_IT_number 2
_symmetry_cell_setting 'triclinic'
loop_
_space_group_symop_operation_xyz
x,y,z
-x,-y,-z
loop_
_atom_site_type_symbol
_atom_site_label
_atom_site_fract_x
_atom_site_fract_y
_atom_site_fract_z
Si Si1 0.721874 0.850249 0.594056
Si Si2 0.499601 0.714215 0.323917
Si Si3 0.260883 0.979031 0.626664
Si Si4 0.750211 0.669613 0.018769
Si Si5 0.455357 0.472489 0.210093
Si Si6 0.000000 0.000000 0.000000
Si Si7 0.028530 0.768226 0.301269
O O1 0.636392 0.749097 0.381150
O O2 0.792342 0.908720 0.549694
O O3 0.500000 0.000000 0.500000
O O4 0.933438 0.772320 0.971680
O O5 0.662329 0.665687 0.692804
O O6 0.441274 0.598499 0.151803
O O7 0.247731 0.868798 0.137038
O O8 0.145784 0.073702 0.720927
O O9 0.536167 0.842080 0.909075
O O10 0.122366 0.922855 0.319703
O O11 0.748558 0.548038 0.058448
O O12 0.979525 0.661431 0.286931
O O13 0.500000 0.500000 0.500000
O O14 0.696335 0.313963 0.368439
#
# Coordination Sequence:
#
# PCOD9108394 Si02
#       7
#     2   2   2   2   2   1   2
#     4  11  21  39  70  96 129 177 219 281 336 383
#     4   9  20  39  63  96 128 175 223 268 337 397
#     4  11  23  42  66 104 130 170 232 277 331 398
#     4   9  20  39  65  99 131 173 222 274 326 394
#     4  10  23  41  65  98 134 180 228 263 336 412
#     4  10  20  40  68  92 134 164 216 284 330 386
#     4  11  24  43  67 100 136 178 221 281 336 385
#
# _framework density 28.845333
#
# number of rings (size 3 to 8) (size 9 to 14) (size 15 to 20)
#    0.000    1.846    4.615    0.462    6.462    6.154 
#    2.769    1.538    0.000    0.000    0.000    0.000 
#    0.000    0.000    0.000    0.000    0.000    0.000 
#
# Total GULP energy -72670.425720 kJ/mol
# GULP energy per Si atom -5590.032748 kJ/mol
# Density = 2.877968 g / cm^3
# Si number density = 28.845333 Si / 1000 Ang^3
#
#
#
# Elastic Constant Matrix: (Units=GPa)
#
#
# Indices 1 2 3 4 5 6 
#
# 1 140.1758 41.9851 10.9146 7.2659 -7.7682 10.2928
# 2 41.9851 84.3695 -2.0164 10.6116 8.5771 13.5019
# 3 10.9146 -2.0164 69.4027 1.3640 12.3919 13.5954
# 4 7.2659 10.6116 1.3640 32.0411 7.4351 17.1161
# 5 -7.7682 8.5771 12.3919 7.4351 42.4900 11.9265
# 6 10.2928 13.5019 13.5954 17.1161 11.9265 59.5643
#
#
#
# Elastic Compliance Matrix: (Units=1/GPa)
#
#
# Indices 1 2 3 4 5 6 
#
# 1 0.008970 -0.004674 -0.002063 -0.000972 0.003478 -0.000437
# 2 -0.004674 0.015171 0.002219 -0.002272 -0.003676 -0.001749
# 3 -0.002063 0.002219 0.016323 0.002042 -0.004971 -0.003464
# 4 -0.000972 -0.002272 0.002042 0.038405 -0.004236 -0.009971
# 5 0.003478 -0.003676 -0.004971 -0.004236 0.027949 -0.003012
# 6 -0.000437 -0.001749 -0.003464 -0.009971 -0.003012 0.021519
#
#
# Mechanical properties :
#
#
# Convention : Reuss Voigt Hill
#
# Bulk Modulus (GPa) = 31.81765 43.96830 37.89297
# Shear Modulus (GPa) = 33.81816 43.02338 38.42077
#
# Velocity S-wave (km/s) = 3.42774 3.86621 3.65356
# Velocity P-wave (km/s) = 5.16916 5.93346 5.56445
#
# Compressibility (1/GPa) = 0.03142910
#
# Stress axis : x y z
#
# Youngs Moduli (GPa) = 111.48608 65.91477 61.26142
#
# Poissons Ratio (x) = 0.30811 0.12637
# Poissons Ratio (y) = 0.52113 -0.13597
# Poissons Ratio (z) = 0.22997 -0.14630
#
# Static dielectric constant tensor:
#      x y z
#    x 2.246430 0.171110 0.163880 
#    y 0.171110 1.484800 -1.068950 
#    z 0.163880 -1.068950 0.391910 
# 
# From -- ./inp_files/424153.got.cif
#   From: 2010.05.17/outbox.cif.g08.bks.cpg/sg2_213_cif.got.tgz:424153.got - 2010.06.03 11:33:40.
