data_PCOD9108253
_publ_section_title
;
Structure prediction by ZEFSAII (Michael W. Deem and Ramdas Pophale) SiO2 
 PCOD9108253
Probable space group: P -1
;
_chemical_formula_sum "Si O2"
_cell_formula_units_Z 10
_cell_length_a 15.067106
_cell_length_b 8.759526
_cell_length_c 19.253279
_cell_angle_alpha 146.705007
_cell_angle_beta 161.158688
_cell_angle_gamma 34.927008
_cell_volume 444.495032
_symmetry_space_group_name_H-M "P -1"
_symmetry_group_IT_number 2
_symmetry_cell_setting 'triclinic'
loop_
_space_group_symop_operation_xyz
x,y,z
-x,-y,-z
loop_
_atom_site_type_symbol
_atom_site_label
_atom_site_fract_x
_atom_site_fract_y
_atom_site_fract_z
Si Si1 0.439490 0.845021 0.468153
Si Si2 0.883738 0.623664 0.533648
Si Si3 0.087169 0.283566 0.141633
Si Si4 0.167695 0.096708 0.979981
Si Si5 0.547479 0.744899 0.883870
O O1 0.691731 0.638717 0.609267
O O2 0.149182 0.735776 0.203511
O O3 0.500000 0.000000 0.500000
O O4 0.354383 0.107980 0.556913
O O5 0.724379 0.406383 0.373299
O O6 0.000000 0.500000 0.500000
O O7 0.101000 0.774398 0.796893
O O8 0.230092 0.185846 0.137059
O O9 0.819013 0.520954 0.022563
O O10 0.000000 0.000000 0.000000
O O11 0.379159 0.147313 0.096237
O O12 0.500000 0.000000 0.000000
#
# Coordination Sequence:
#
# PCOD9108253 Si02
#       5
#     2   2   2   2   2
#     4  10  20  40  67  95 126 173 223 269 317 395
#     4  10  20  41  66  90 134 175 216 270 338 379
#     4  12  21  41  72 101 127 182 227 265 336 400
#     4  10  23  41  68  97 136 175 219 280 324 393
#     4  12  23  41  68 101 140 173 219 281 334 394
#
# _framework density 22.497439
#
# number of rings (size 3 to 8) (size 9 to 14) (size 15 to 20)
#    1.200    0.000    6.000    0.600    0.000    0.800 
#    0.000    8.000    0.000   13.200    0.000    0.000 
#    0.000    0.000    0.000    0.000    0.000    0.000 
#
# Total GULP energy -55796.634659 kJ/mol
# GULP energy per Si atom -5579.663466 kJ/mol
# Density = 2.244623 g / cm^3
# Si number density = 22.497439 Si / 1000 Ang^3
#
#
#
# Elastic Constant Matrix: (Units=GPa)
#
#
# Indices 1 2 3 4 5 6 
#
# 1 202.5394 60.2872 62.7094 6.7032 10.4013 0.3215
# 2 60.2872 86.3540 23.9650 20.1785 -8.0278 -12.6918
# 3 62.7094 23.9650 94.8263 15.9563 6.9659 14.0821
# 4 6.7032 20.1785 15.9563 29.1838 9.3633 4.0803
# 5 10.4013 -8.0278 6.9659 9.3633 41.1787 14.2661
# 6 0.3215 -12.6918 14.0821 4.0803 14.2661 41.8113
#
#
#
# Elastic Compliance Matrix: (Units=1/GPa)
#
#
# Indices 1 2 3 4 5 6 
#
# 1 0.008243 -0.006225 -0.004686 0.006218 -0.004056 0.000402
# 2 -0.006225 0.021256 0.000160 -0.016544 0.007551 0.005484
# 3 -0.004686 0.000160 0.015461 -0.007434 0.002056 -0.005099
# 4 0.006218 -0.016544 -0.007434 0.053455 -0.014739 -0.002753
# 5 -0.004056 0.007551 0.002056 -0.014739 0.032572 -0.008044
# 6 0.000402 0.005484 -0.005099 -0.002753 -0.008044 0.030309
#
#
# Mechanical properties :
#
#
# Convention : Reuss Voigt Hill
#
# Bulk Modulus (GPa) = 42.63158 75.29364 58.96261
# Shear Modulus (GPa) = 26.23043 38.21864 32.22453
#
# Velocity S-wave (km/s) = 3.41828 4.12612 3.78877
# Velocity P-wave (km/s) = 5.87964 7.49934 6.73833
#
# Compressibility (1/GPa) = 0.02345679
#
# Stress axis : x y z
#
# Youngs Moduli (GPa) = 121.31404 47.04574 64.67750
#
# Poissons Ratio (x) = 0.29288 0.30308
# Poissons Ratio (y) = 0.75522 -0.01032
# Poissons Ratio (z) = 0.56848 -0.00751
#
# Static dielectric constant tensor:
#      x y z
#    x 1.837940 0.015820 0.010770 
#    y 0.015820 1.876950 0.037500 
#    z 0.010770 0.037500 2.002480 
# 
# From -- ./inp_files/199196.got.cif
#   From: 2010.05.17/outbox.cif.g08.bks.cpg/sg2_100_cif.got.tgz:199196.got - 2010.06.03 11:33:40.
