data_PCOD9108404
_publ_section_title
;
Structure prediction by ZEFSAII (Michael W. Deem and Ramdas Pophale) SiO2 
 PCOD9108404
Probable space group: P -1
;
_chemical_formula_sum "Si O2"
_cell_formula_units_Z 15
_cell_length_a 10.871018
_cell_length_b 16.493309
_cell_length_c 16.282183
_cell_angle_alpha 23.301956
_cell_angle_beta 147.059854
_cell_angle_gamma 137.606423
_cell_volume 620.858610
_symmetry_space_group_name_H-M "P -1"
_symmetry_group_IT_number 2
_symmetry_cell_setting 'triclinic'
loop_
_space_group_symop_operation_xyz
x,y,z
-x,-y,-z
loop_
_atom_site_type_symbol
_atom_site_label
_atom_site_fract_x
_atom_site_fract_y
_atom_site_fract_z
Si Si1 0.124725 0.678532 0.251586
Si Si2 0.169837 0.105883 0.250604
Si Si3 0.540962 0.998112 0.820793
Si Si4 0.689730 0.554036 0.270953
Si Si5 0.500000 0.500000 0.500000
Si Si6 0.585621 0.320261 0.278674
Si Si7 0.308228 0.796222 0.027168
Si Si8 0.260639 0.425094 0.240438
O O1 0.143378 0.547400 0.468518
O O2 0.266907 0.531038 0.401504
O O3 0.257576 0.870905 0.168532
O O4 0.902645 0.781345 0.981903
O O5 0.371489 0.223376 0.286667
O O6 0.949366 0.119697 0.172702
O O7 0.264931 0.869010 0.507319
O O8 0.425691 0.890120 0.931328
O O9 0.336214 0.179302 0.510162
O O10 0.654891 0.802982 0.010962
O O11 0.721601 0.418885 0.333188
O O12 0.436483 0.515864 0.195482
O O13 0.532275 0.240226 0.771180
O O14 0.500000 0.500000 0.000000
O O15 0.308144 0.540164 0.248354
O O16 0.000000 0.500000 0.000000
#
# Coordination Sequence:
#
# PCOD9108404 Si02
#       8
#     2   2   2   2   1   2   2   2
#     4  10  21  41  66 101 130 167 203 264 326 385
#     4  10  25  43  67  91 126 172 216 271 323 363
#     4  10  20  37  62 101 130 167 199 248 326 399
#     4  10  22  41  64  91 131 164 214 272 316 376
#     4  10  16  36  56  90 136 150 190 244 310 380
#     4  11  26  48  64  89 121 174 231 273 309 376
#     4  10  20  36  59  97 128 161 196 251 314 385
#     4  10  20  35  57  90 127 166 201 254 313 381
#
# _framework density 24.16009
#
# number of rings (size 3 to 8) (size 9 to 14) (size 15 to 20)
#    0.000    1.867    4.000    0.800    0.000   13.333 
#    0.000    1.333    0.000    0.000    0.000    0.000 
#    0.000    0.000    0.000    0.000    0.000    0.000 
#
# Total GULP energy -83621.203204 kJ/mol
# GULP energy per Si atom -5574.746880 kJ/mol
# Density = 2.410510 g / cm^3
# Si number density = 24.160090 Si / 1000 Ang^3
#
#
#
# Elastic Constant Matrix: (Units=GPa)
#
#
# Indices 1 2 3 4 5 6 
#
# 1 61.2834 33.0453 7.5778 -18.3964 -11.3108 -1.5151
# 2 33.0453 120.8446 60.7935 -12.5915 15.3846 -3.5644
# 3 7.5778 60.7935 162.5623 -18.1077 8.9093 -4.7348
# 4 -18.3964 -12.5915 -18.1077 40.8710 -2.6002 7.7686
# 5 -11.3108 15.3846 8.9093 -2.6002 22.4412 4.2414
# 6 -1.5151 -3.5644 -4.7348 7.7686 4.2414 36.9540
#
#
#
# Elastic Compliance Matrix: (Units=1/GPa)
#
#
# Indices 1 2 3 4 5 6 
#
# 1 0.031316 -0.012020 0.003085 0.014415 0.025498 -0.005437
# 2 -0.012020 0.015658 -0.004810 -0.004332 -0.015979 0.003146
# 3 0.003085 -0.004810 0.008091 0.003688 0.002128 -0.000320
# 4 0.014415 -0.004332 0.003688 0.033691 0.014200 -0.008067
# 5 0.025498 -0.015979 0.002128 0.014200 0.071321 -0.011394
# 6 -0.005437 0.003146 -0.000320 -0.008067 -0.011394 0.030104
#
#
# Mechanical properties :
#
#
# Convention : Reuss Voigt Hill
#
# Bulk Modulus (GPa) = 36.26457 60.83595 48.55026
# Shear Modulus (GPa) = 22.03965 36.27147 29.15556
#
# Velocity S-wave (km/s) = 3.02360 3.87886 3.47762
# Velocity P-wave (km/s) = 5.21845 6.73021 6.02196
#
# Compressibility (1/GPa) = 0.02757512
#
# Stress axis : x y z
#
# Youngs Moduli (GPa) = 31.93211 63.86633 123.58751
#
# Poissons Ratio (x) = 0.76768 -0.38130
# Poissons Ratio (y) = 0.38383 0.59450
# Poissons Ratio (z) = -0.09852 0.30722
#
# Static dielectric constant tensor:
#      x y z
#    x 1.835180 0.276640 0.226610 
#    y 0.276640 1.524660 -0.389440 
#    z 0.226610 -0.389440 1.616710 
# 
# From -- ./inp_files/570128.got.cif
#   From: 2010.05.17/outbox.cif.g08.bks.cpg/sg2_286_cif.got.tgz:570128.got - 2010.06.03 11:33:40.
