data_PCOD9108307
_publ_section_title
;
Structure prediction by ZEFSAII (Michael W. Deem and Ramdas Pophale) SiO2 
 PCOD9108307
Probable space group: P -1
;
_chemical_formula_sum "Si O2"
_cell_formula_units_Z 14
_cell_length_a 8.951041
_cell_length_b 12.640823
_cell_length_c 8.035416
_cell_angle_alpha 60.338301
_cell_angle_beta 108.836676
_cell_angle_gamma 68.479448
_cell_volume 574.345816
_symmetry_space_group_name_H-M "P -1"
_symmetry_group_IT_number 2
_symmetry_cell_setting 'triclinic'
loop_
_space_group_symop_operation_xyz
x,y,z
-x,-y,-z
loop_
_atom_site_type_symbol
_atom_site_label
_atom_site_fract_x
_atom_site_fract_y
_atom_site_fract_z
Si Si1 0.424938 0.829442 0.197320
Si Si2 0.842087 0.702591 0.591122
Si Si3 0.019992 0.127727 0.342754
Si Si4 0.435691 0.656927 0.009573
Si Si5 0.876849 0.839582 0.013833
Si Si6 0.242614 0.354449 0.025763
Si Si7 0.665349 0.368254 0.528417
O O1 0.657725 0.757759 0.361362
O O2 0.405776 0.765514 0.068979
O O3 0.365062 0.760379 0.371839
O O4 0.266155 0.015807 0.024945
O O5 0.856407 0.839842 0.522118
O O6 0.059379 0.533403 0.758447
O O7 0.790429 0.668086 0.778673
O O8 0.098058 0.103539 0.199959
O O9 0.000000 0.000000 0.500000
O O10 0.785989 0.291129 0.134404
O O11 0.540045 0.687963 0.884500
O O12 0.594492 0.472697 0.258239
O O13 0.778199 0.758721 0.998739
O O14 0.104829 0.713587 0.269181
O O15 0.500000 0.500000 0.500000
#
# Coordination Sequence:
#
# PCOD9108307 Si02
#       7
#     2   2   2   2   2   2   2
#     4  11  24  41  72 102 134 182 228 275 343 396
#     4  10  25  46  70  95 138 184 221 277 346 408
#     4  11  26  44  69 102 141 173 226 283 341 405
#     4  11  25  44  72 102 135 178 231 285 326 403
#     4  11  23  43  70 100 140 182 217 282 344 399
#     4  10  24  44  69  98 139 176 231 274 344 398
#     4  10  20  40  67  98 135 172 226 274 332 390
#
# _framework density 24.375558000000002
#
# number of rings (size 3 to 8) (size 9 to 14) (size 15 to 20)
#    0.000    1.429    2.857    2.143    8.000    5.714 
#    0.000    0.000    0.000    0.000    0.000    0.000 
#    0.000    0.000    0.000    0.000    0.000    0.000 
#
# Total GULP energy -78437.485126 kJ/mol
# GULP energy per Si atom -5602.677509 kJ/mol
# Density = 2.432008 g / cm^3
# Si number density = 24.375558 Si / 1000 Ang^3
#
#
#
# Elastic Constant Matrix: (Units=GPa)
#
#
# Indices 1 2 3 4 5 6 
#
# 1 88.6240 15.3416 -3.3488 13.2429 -8.0332 4.7823
# 2 15.3416 97.5731 14.1074 -9.3382 4.1452 -5.6818
# 3 -3.3488 14.1074 51.7295 2.0187 -1.3326 -3.0282
# 4 13.2429 -9.3382 2.0187 25.6971 7.8880 8.3203
# 5 -8.0332 4.1452 -1.3326 7.8880 47.8589 -1.0394
# 6 4.7823 -5.6818 -3.0282 8.3203 -1.0394 30.5684
#
#
#
# Elastic Compliance Matrix: (Units=1/GPa)
#
#
# Indices 1 2 3 4 5 6 
#
# 1 0.013911 -0.003679 0.002430 -0.010141 0.004399 0.000290
# 2 -0.003679 0.012259 -0.003932 0.007479 -0.003014 0.000326
# 3 0.002430 -0.003932 0.021009 -0.005920 0.002367 0.002662
# 4 -0.010141 0.007479 -0.005920 0.055197 -0.011895 -0.013038
# 5 0.004399 -0.003014 0.002367 -0.011895 0.023987 0.003039
# 6 0.000290 0.000326 0.002662 -0.013038 0.003039 0.036645
#
#
# Mechanical properties :
#
#
# Convention : Reuss Voigt Hill
#
# Bulk Modulus (GPa) = 27.16184 32.23634 29.69909
# Shear Modulus (GPa) = 26.93386 34.94663 30.94024
#
# Velocity S-wave (km/s) = 3.32769 3.79050 3.56661
# Velocity P-wave (km/s) = 5.09234 5.69304 5.40105
#
# Compressibility (1/GPa) = 0.03681636
#
# Stress axis : x y z
#
# Youngs Moduli (GPa) = 71.88687 81.57603 47.59937
#
# Poissons Ratio (x) = 0.30012 -0.11566
# Poissons Ratio (y) = 0.26448 0.18714
# Poissons Ratio (z) = -0.17468 0.32073
#
# Static dielectric constant tensor:
#      x y z
#    x 1.891820 -0.013540 -0.052610 
#    y -0.013540 1.915620 0.001980 
#    z -0.052610 0.001980 1.973720 
# 
# From -- ./inp_files/157702.got.cif
#   From: 2010.05.17/outbox.cif.g08.bks.cpg/sg2_79_cif.got.tgz:157702.got - 2010.06.03 11:33:40.
