data_PCOD9108410
_publ_section_title
;
Structure prediction by ZEFSAII (Michael W. Deem and Ramdas Pophale) SiO2 
 PCOD9108410
Probable space group: P -1
;
_chemical_formula_sum "Si O2"
_cell_formula_units_Z 12
_cell_length_a 18.393142
_cell_length_b 14.535186
_cell_length_c 10.970491
_cell_angle_alpha 139.925708
_cell_angle_beta 24.129081
_cell_angle_gamma 155.620139
_cell_volume 455.442568
_symmetry_space_group_name_H-M "P -1"
_symmetry_group_IT_number 2
_symmetry_cell_setting 'triclinic'
loop_
_space_group_symop_operation_xyz
x,y,z
-x,-y,-z
loop_
_atom_site_type_symbol
_atom_site_label
_atom_site_fract_x
_atom_site_fract_y
_atom_site_fract_z
Si Si1 0.600053 0.648199 0.119275
Si Si2 0.843381 0.349404 0.897005
Si Si3 0.027543 0.729689 0.167094
Si Si4 0.847794 0.540664 0.711080
Si Si5 0.393288 0.573651 0.806663
Si Si6 0.763555 0.056371 0.173646
O O1 0.305795 0.465240 0.469106
O O2 0.686738 0.863310 0.166090
O O3 0.500000 0.500000 0.000000
O O4 0.863500 0.725135 0.856905
O O5 0.767495 0.176631 0.935083
O O6 0.066113 0.442825 0.544326
O O7 0.009707 0.576531 0.954351
O O8 0.571871 0.263011 0.164277
O O9 0.126799 0.908578 0.096223
O O10 0.000000 0.500000 0.500000
O O11 0.547913 0.352379 0.067508
O O12 0.500000 0.500000 0.500000
O O13 0.032643 0.306598 0.088755
O O14 0.500000 0.000000 0.500000
#
# Coordination Sequence:
#
# PCOD9108410 Si02
#       6
#     2   2   2   2   2   2
#     4  12  24  42  71 102 139 187 237 291 356 415
#     4   9  17  35  63  93 126 187 219 277 348 410
#     4  10  20  40  68  93 140 177 236 285 346 413
#     4  10  21  37  64  96 136 180 226 282 351 412
#     4  10  21  40  68  96 142 187 231 287 361 416
#     4  11  25  42  72 107 134 185 246 287 346 428
#
# _framework density 26.347995999999998
#
# number of rings (size 3 to 8) (size 9 to 14) (size 15 to 20)
#    0.000    1.667    1.667    5.000    2.333    1.333 
#    0.000    0.000    0.000    7.000    0.000    0.000 
#    0.000    0.000    0.000    0.000    0.000    0.000 
#
# Total GULP energy -66803.061072 kJ/mol
# GULP energy per Si atom -5566.921756 kJ/mol
# Density = 2.628803 g / cm^3
# Si number density = 26.347996 Si / 1000 Ang^3
#
#
#
# Elastic Constant Matrix: (Units=GPa)
#
#
# Indices 1 2 3 4 5 6 
#
# 1 132.1190 45.5910 50.0850 11.7167 15.1589 -55.9743
# 2 45.5910 87.8563 43.3153 10.9978 -24.9256 -20.0142
# 3 50.0850 43.3153 197.0085 26.7577 20.3222 -31.9055
# 4 11.7167 10.9978 26.7577 32.0807 -15.7029 -1.4856
# 5 15.1589 -24.9256 20.3222 -15.7029 61.8490 12.6504
# 6 -55.9743 -20.0142 -31.9055 -1.4856 12.6504 58.9231
#
#
#
# Elastic Compliance Matrix: (Units=1/GPa)
#
#
# Indices 1 2 3 4 5 6 
#
# 1 0.030241 -0.017589 0.008026 -0.024975 -0.030220 0.032957
# 2 -0.017589 0.026136 -0.009119 0.016860 0.025778 -0.017879
# 3 0.008026 -0.009119 0.011166 -0.016456 -0.016282 0.013654
# 4 -0.024975 0.016860 -0.016456 0.067435 0.042465 -0.034326
# 5 -0.030220 0.025778 -0.016282 0.042465 0.058321 -0.040218
# 6 0.032957 -0.017879 0.013654 -0.034326 -0.040218 0.057369
#
#
# Mechanical properties :
#
#
# Convention : Reuss Voigt Hill
#
# Bulk Modulus (GPa) = 33.13644 77.21847 55.17745
# Shear Modulus (GPa) = 16.77333 49.10337 32.93835
#
# Velocity S-wave (km/s) = 2.52585 4.32168 3.53955
# Velocity P-wave (km/s) = 4.59459 7.36704 6.13937
#
# Compressibility (1/GPa) = 0.03017826
#
# Stress axis : x y z
#
# Youngs Moduli (GPa) = 33.06775 38.26197 89.55481
#
# Poissons Ratio (x) = 0.67300 -0.71876
# Poissons Ratio (y) = 0.58163 0.81666
# Poissons Ratio (z) = -0.26540 0.34891
#
# Static dielectric constant tensor:
#      x y z
#    x 2.369790 -0.001760 -0.057490 
#    y -0.001760 2.132660 -0.009560 
#    z -0.057490 -0.009560 2.245760 
# 
# From -- ./inp_files/471408.got.cif
#   From: 2010.05.17/outbox.cif.g08.bks.cpg/sg2_236_cif.got.tgz:471408.got - 2010.06.03 11:33:40.
