data_PCOD9108836
_publ_section_title
;
Structure prediction by ZEFSAII (Michael W. Deem and Ramdas Pophale) SiO2 
 PCOD9108836
Probable space group: P -1
;
_chemical_formula_sum "Si O2"
_cell_formula_units_Z 14
_cell_length_a 8.712960
_cell_length_b 10.755733
_cell_length_c 8.780790
_cell_angle_alpha 91.142045
_cell_angle_beta 87.792252
_cell_angle_gamma 38.660252
_cell_volume 512.024549
_symmetry_space_group_name_H-M "P -1"
_symmetry_group_IT_number 2
_symmetry_cell_setting 'triclinic'
loop_
_space_group_symop_operation_xyz
x,y,z
-x,-y,-z
loop_
_atom_site_type_symbol
_atom_site_label
_atom_site_fract_x
_atom_site_fract_y
_atom_site_fract_z
Si Si1 0.402589 0.726775 0.293386
Si Si2 0.930879 0.436012 0.618139
Si Si3 0.803367 0.632654 0.103786
Si Si4 0.274927 0.122924 0.074747
Si Si5 0.281069 0.058522 0.430691
Si Si6 0.503806 0.594874 0.781011
Si Si7 0.127852 0.786833 0.048352
O O1 0.621628 0.643604 0.180998
O O2 0.498069 0.528458 0.324642
O O3 0.338508 0.875465 0.417103
O O4 0.171059 0.848635 0.192889
O O5 0.646300 0.611714 0.685355
O O6 0.000000 0.500000 0.500000
O O7 0.099758 0.349048 0.755895
O O8 0.028237 0.248090 0.533211
O O9 0.060105 0.379711 0.060867
O O10 0.569920 0.872189 0.047622
O O11 0.251518 0.124091 0.259153
O O12 0.129141 0.108325 0.986225
O O13 0.500000 0.000000 0.500000
O O14 0.258448 0.761540 0.892958
O O15 0.701914 0.434651 0.902434
#
# Coordination Sequence:
#
# PCOD9108836 Si02
#       7
#     2   2   2   2   2   2   2
#     4  10  20  40  72  99 141 187 236 303 363 414
#     4  12  25  45  70 105 148 196 243 299 373 444
#     4  12  21  41  72  99 134 191 254 295 344 429
#     4  12  23  43  71 106 141 193 249 297 352 439
#     4  12  26  45  65 105 156 192 240 298 377 441
#     4   9  20  44  73 104 144 186 241 311 363 424
#     4   9  20  42  74 108 137 182 250 310 357 414
#
# _framework density 27.34244
#
# number of rings (size 3 to 8) (size 9 to 14) (size 15 to 20)
#    0.857    0.286    4.286    2.571    0.000    1.143 
#    0.000    2.857    3.143    0.000    0.000    0.000 
#    0.000    0.000    0.000    0.000    0.000    0.000 
#
# Total GULP energy -78295.624586 kJ/mol
# GULP energy per Si atom -5592.544613 kJ/mol
# Density = 2.728021 g / cm^3
# Si number density = 27.342440 Si / 1000 Ang^3
#
#
#
# Elastic Constant Matrix: (Units=GPa)
#
#
# Indices 1 2 3 4 5 6 
#
# 1 151.8892 8.0628 49.1259 -12.5679 16.9129 -22.8632
# 2 8.0628 80.6833 12.6076 -16.1817 25.4507 -17.6760
# 3 49.1259 12.6076 124.5008 -10.6800 20.1199 -17.5784
# 4 -12.5679 -16.1817 -10.6800 52.3656 12.2721 8.9552
# 5 16.9129 25.4507 20.1199 12.2721 59.3884 4.1728
# 6 -22.8632 -17.6760 -17.5784 8.9552 4.1728 56.4831
#
#
#
# Elastic Compliance Matrix: (Units=1/GPa)
#
#
# Indices 1 2 3 4 5 6 
#
# 1 0.008190 0.001507 -0.002330 0.002118 -0.002833 0.002935
# 2 0.001507 0.018323 0.000776 0.007601 -0.010548 0.006160
# 3 -0.002330 0.000776 0.009981 0.002176 -0.003664 0.002332
# 4 0.002118 0.007601 0.002176 0.024549 -0.009722 0.000739
# 5 -0.002833 -0.010548 -0.003664 -0.009722 0.025834 -0.005955
# 6 0.002935 0.006160 0.002332 0.000739 -0.005955 0.021868
#
#
# Mechanical properties :
#
#
# Convention : Reuss Voigt Hill
#
# Bulk Modulus (GPa) = 27.47273 55.18512 41.32893
# Shear Modulus (GPa) = 41.33123 52.79921 47.06522
#
# Velocity S-wave (km/s) = 3.89217 4.39912 4.15339
# Velocity P-wave (km/s) = 5.50164 6.78453 6.17648
#
# Compressibility (1/GPa) = 0.03639973
#
# Stress axis : x y z
#
# Youngs Moduli (GPa) = 122.10164 54.57510 100.19070
#
# Poissons Ratio (x) = -0.08224 0.23348
# Poissons Ratio (y) = -0.18400 -0.07777
# Poissons Ratio (z) = 0.28454 -0.04236
#
# Static dielectric constant tensor:
#      x y z
#    x 2.089590 0.060110 -0.034460 
#    y 0.060110 2.282510 -0.006800 
#    z -0.034460 -0.006800 2.057350 
# 
# From -- ./inp_files/187564.got.cif
#   From: 2010.05.17/outbox.cif.g08.bks.cpg/sg2_94_cif.got.tgz:187564.got - 2010.06.03 11:33:40.
