data_PCOD9108350
_publ_section_title
;
Structure prediction by ZEFSAII (Michael W. Deem and Ramdas Pophale) SiO2 
 PCOD9108350
Probable space group: P -1
;
_chemical_formula_sum "Si O2"
_cell_formula_units_Z 16
_cell_length_a 8.763851
_cell_length_b 12.758642
_cell_length_c 21.673447
_cell_angle_alpha 159.917971
_cell_angle_beta 109.229065
_cell_angle_gamma 73.497822
_cell_volume 783.300977
_symmetry_space_group_name_H-M "P -1"
_symmetry_group_IT_number 2
_symmetry_cell_setting 'triclinic'
loop_
_space_group_symop_operation_xyz
x,y,z
-x,-y,-z
loop_
_atom_site_type_symbol
_atom_site_label
_atom_site_fract_x
_atom_site_fract_y
_atom_site_fract_z
Si Si1 0.737475 0.824158 0.491958
Si Si2 0.911822 0.170110 0.465847
Si Si3 0.652854 0.166753 0.795666
Si Si4 0.550339 0.677590 0.852216
Si Si5 0.700613 0.733400 0.037798
Si Si6 0.613600 0.241557 0.392346
Si Si7 0.046702 0.536034 0.930185
Si Si8 0.156526 0.669322 0.318176
O O1 0.595072 0.581044 0.319018
O O2 0.909394 0.680299 0.440777
O O3 0.700823 0.972680 0.634959
O O4 0.767703 0.087357 0.588588
O O5 0.770034 0.336398 0.506842
O O6 0.887915 0.168012 0.535078
O O7 0.912924 0.816884 0.246647
O O8 0.500883 0.993739 0.712415
O O9 0.617559 0.490135 0.940124
O O10 0.802184 0.242277 0.904551
O O11 0.707109 0.558751 0.773898
O O12 0.606579 0.703708 0.944801
O O13 0.500000 0.000000 0.000000
O O14 0.684615 0.067530 0.247481
O O15 0.884309 0.635516 0.997801
O O16 0.500000 0.500000 0.500000
O O17 0.992328 0.515133 0.839547
#
# Coordination Sequence:
#
# PCOD9108350 Si02
#       8
#     2   2   2   2   2   2   2   2
#     4  11  22  41  69 100 119 174 222 267 327 380
#     4  11  22  42  69  96 138 161 217 279 320 386
#     4  12  22  42  71  93 128 172 227 272 317 389
#     4  11  25  42  65  97 137 172 215 263 326 397
#     4  11  23  43  69  95 130 172 220 271 318 392
#     4  12  29  43  60  99 137 175 213 270 335 384
#     4  10  20  40  68 104 124 163 226 270 320 369
#     4  10  22  39  69 100 132 166 214 276 322 381
#
# _framework density 20.426376000000001
#
# number of rings (size 3 to 8) (size 9 to 14) (size 15 to 20)
#    0.000    1.000    5.000    4.125    5.250    1.000 
#    4.500    1.875    0.000    0.000    0.000    0.000 
#    0.000    0.000    0.000    0.000    0.000    0.000 
#
# Total GULP energy -89384.810055 kJ/mol
# GULP energy per Si atom -5586.550628 kJ/mol
# Density = 2.037988 g / cm^3
# Si number density = 20.426376 Si / 1000 Ang^3
#
#
#
# Elastic Constant Matrix: (Units=GPa)
#
#
# Indices 1 2 3 4 5 6 
#
# 1 61.8034 44.3079 21.2518 -12.2402 -20.7798 -15.2794
# 2 44.3079 90.5736 44.8903 -15.8952 -14.5503 -25.0941
# 3 21.2518 44.8903 65.0307 -21.2096 -24.6668 -1.3713
# 4 -12.2402 -15.8952 -21.2096 42.3419 -6.4291 -10.5511
# 5 -20.7798 -14.5503 -24.6668 -6.4291 35.7991 -4.4681
# 6 -15.2794 -25.0941 -1.3713 -10.5511 -4.4681 36.0149
#
#
#
# Elastic Compliance Matrix: (Units=1/GPa)
#
#
# Indices 1 2 3 4 5 6 
#
# 1 0.048337 -0.013809 0.024809 0.035832 0.049528 0.028472
# 2 -0.013809 0.029231 -0.017880 0.000250 -0.006780 0.013060
# 3 0.024809 -0.017880 0.053092 0.039683 0.053127 0.018306
# 4 0.035832 0.000250 0.039683 0.076112 0.067853 0.047603
# 5 0.049528 -0.006780 0.053127 0.067853 0.109176 0.051735
# 6 0.028472 0.013060 0.018306 0.047603 0.051735 0.070007
#
#
# Mechanical properties :
#
#
# Convention : Reuss Voigt Hill
#
# Bulk Modulus (GPa) = 8.55421 48.70085 28.62753
# Shear Modulus (GPa) = 11.39780 29.96169 20.67974
#
# Velocity S-wave (km/s) = 2.36475 3.83406 3.18528
# Velocity P-wave (km/s) = 3.41365 6.59499 5.25104
#
# Compressibility (1/GPa) = 0.11690147
#
# Stress axis : x y z
#
# Youngs Moduli (GPa) = 20.68789 34.21059 18.83520
#
# Poissons Ratio (x) = 0.47242 -0.46729
# Poissons Ratio (y) = 0.28568 0.33677
# Poissons Ratio (z) = -0.51325 0.61167
#
# Static dielectric constant tensor:
#      x y z
#    x 1.730870 -0.017330 -0.032450 
#    y -0.017330 1.738620 -0.013290 
#    z -0.032450 -0.013290 1.745670 
# 
# From -- ./inp_files/589787.got.cif
#   From: 2010.05.17/outbox.cif.g08.bks.cpg/sg2_295_cif.got.tgz:589787.got - 2010.06.03 11:33:40.
