data_PCOD9108881
_publ_section_title
;
Structure prediction by ZEFSAII (Michael W. Deem and Ramdas Pophale) SiO2 
 PCOD9108881
Probable space group: P -1
;
_chemical_formula_sum "Si O2"
_cell_formula_units_Z 15
_cell_length_a 11.044703
_cell_length_b 8.848857
_cell_length_c 11.412197
_cell_angle_alpha 88.327847
_cell_angle_beta 139.675692
_cell_angle_gamma 108.678717
_cell_volume 640.317334
_symmetry_space_group_name_H-M "P -1"
_symmetry_group_IT_number 2
_symmetry_cell_setting 'triclinic'
loop_
_space_group_symop_operation_xyz
x,y,z
-x,-y,-z
loop_
_atom_site_type_symbol
_atom_site_label
_atom_site_fract_x
_atom_site_fract_y
_atom_site_fract_z
Si Si1 0.736220 0.142255 0.956713
Si Si2 0.264069 0.037096 0.604138
Si Si3 0.842765 0.946931 0.216184
Si Si4 0.820771 0.346214 0.443807
Si Si5 0.229217 0.391017 0.139062
Si Si6 0.438473 0.393170 0.075889
Si Si7 0.910888 0.472409 0.771367
Si Si8 0.000000 0.000000 0.000000
O O1 0.506880 0.112232 0.748315
O O2 0.840878 0.060183 0.948738
O O3 0.894283 0.337935 0.094527
O O4 0.725650 0.045715 0.072587
O O5 0.174327 0.832705 0.556750
O O6 0.095747 0.057870 0.396137
O O7 0.236411 0.102590 0.709015
O O8 0.781215 0.773924 0.104994
O O9 0.606678 0.327849 0.230391
O O10 0.836623 0.398317 0.590423
O O11 0.000000 0.500000 0.500000
O O12 0.405796 0.477159 0.167302
O O13 0.257832 0.505104 0.271815
O O14 0.011311 0.370140 0.918476
O O15 0.189945 0.201560 0.142397
O O16 0.500000 0.500000 0.000000
#
# Coordination Sequence:
#
# PCOD9108881 Si02
#       8
#     2   2   2   2   2   2   2   1
#     4  11  22  43  68  96 135 182 220 291 340 413
#     4  11  24  40  67  96 136 177 236 281 350 415
#     4  11  23  41  65  99 135 180 233 286 342 423
#     4  12  24  41  64 102 137 185 232 291 346 424
#     4  10  21  44  68 101 134 184 228 285 348 416
#     4  12  25  41  70  99 142 180 233 293 354 410
#     4  10  24  41  71  97 142 176 231 286 350 415
#     4  10  20  40  74  96 134 180 230 278 342 416
#
# _framework density 23.425886999999999
#
# number of rings (size 3 to 8) (size 9 to 14) (size 15 to 20)
#    0.000    1.067    2.667    3.600    3.733    1.600 
#    0.000    0.667    8.800    0.000    0.000    0.000 
#    0.000    0.000    0.000    0.000    0.000    0.000 
#
# Total GULP energy -83648.078234 kJ/mol
# GULP energy per Si atom -5576.538549 kJ/mol
# Density = 2.337257 g / cm^3
# Si number density = 23.425887 Si / 1000 Ang^3
#
#
#
# Elastic Constant Matrix: (Units=GPa)
#
#
# Indices 1 2 3 4 5 6 
#
# 1 113.3706 -4.6402 20.1631 4.9767 -3.5462 -8.5740
# 2 -4.6402 62.0743 3.6851 3.6119 -14.5476 -9.0191
# 3 20.1631 3.6851 80.7193 -5.1691 3.8488 -7.6470
# 4 4.9767 3.6119 -5.1691 26.0852 -2.3610 -1.5881
# 5 -3.5462 -14.5476 3.8488 -2.3610 40.7117 1.2153
# 6 -8.5740 -9.0191 -7.6470 -1.5881 1.2153 34.4544
#
#
#
# Elastic Compliance Matrix: (Units=1/GPa)
#
#
# Indices 1 2 3 4 5 6 
#
# 1 0.009640 0.001656 -0.002500 -0.002302 0.001471 0.002120
# 2 0.001656 0.018685 -0.001287 -0.002270 0.006671 0.004678
# 3 -0.002500 -0.001287 0.013588 0.003320 -0.001838 0.002274
# 4 -0.002302 -0.002270 0.003320 0.039917 0.000949 0.001376
# 5 0.001471 0.006671 -0.001838 0.000949 0.027280 0.000786
# 6 0.002120 0.004678 0.002274 0.001376 0.000786 0.031316
#
#
# Mechanical properties :
#
#
# Convention : Reuss Voigt Hill
#
# Bulk Modulus (GPa) = 26.56048 32.73112 29.64580
# Shear Modulus (GPa) = 31.79855 36.04735 33.92295
#
# Velocity S-wave (km/s) = 3.68830 3.92699 3.80952
# Velocity P-wave (km/s) = 5.43146 5.87913 5.65973
#
# Compressibility (1/GPa) = 0.03764992
#
# Stress axis : x y z
#
# Youngs Moduli (GPa) = 103.72951 53.51861 73.59628
#
# Poissons Ratio (x) = -0.08861 0.18402
# Poissons Ratio (y) = -0.17175 0.09471
# Poissons Ratio (z) = 0.25937 0.06887
#
# Static dielectric constant tensor:
#      x y z
#    x 1.887290 0.059160 0.013310 
#    y 0.059160 1.935360 -0.003390 
#    z 0.013310 -0.003390 1.877270 
# 
# From -- ./inp_files/417480.got.cif
#   From: 2010.05.17/outbox.cif.g08.bks.cpg/sg2_209_cif.got.tgz:417480.got - 2010.06.03 11:33:40.
