data_PCOD9108485
_publ_section_title
;
Structure prediction by ZEFSAII (Michael W. Deem and Ramdas Pophale) SiO2 
 PCOD9108485
Probable space group: P -1
;
_chemical_formula_sum "Si O2"
_cell_formula_units_Z 14
_cell_length_a 10.576554
_cell_length_b 11.916332
_cell_length_c 12.829081
_cell_angle_alpha 30.857423
_cell_angle_beta 110.087313
_cell_angle_gamma 89.419996
_cell_volume 602.908081
_symmetry_space_group_name_H-M "P -1"
_symmetry_group_IT_number 2
_symmetry_cell_setting 'triclinic'
loop_
_space_group_symop_operation_xyz
x,y,z
-x,-y,-z
loop_
_atom_site_type_symbol
_atom_site_label
_atom_site_fract_x
_atom_site_fract_y
_atom_site_fract_z
Si Si1 0.127007 0.182481 0.092160
Si Si2 0.948774 0.799357 0.172011
Si Si3 0.247372 0.498884 0.190907
Si Si4 0.729437 0.453899 0.407809
Si Si5 0.361869 0.805052 0.086218
Si Si6 0.626833 0.701922 0.831112
Si Si7 0.455042 0.878451 0.838316
O O1 0.236494 0.270866 0.098184
O O2 0.227619 0.841586 0.381422
O O3 0.056718 0.304815 0.858752
O O4 0.958030 0.323468 0.002887
O O5 0.103325 0.597524 0.458247
O O6 0.762666 0.981657 0.029985
O O7 0.000000 0.000000 0.000000
O O8 0.302324 0.623114 0.190342
O O9 0.295791 0.509113 0.076942
O O10 0.356668 0.181076 0.517001
O O11 0.568846 0.605412 0.324263
O O12 0.638169 0.687326 0.105249
O O13 0.337505 0.933393 0.860861
O O14 0.521638 0.689065 0.903182
O O15 0.500000 0.000000 0.500000
#
# Coordination Sequence:
#
# PCOD9108485 Si02
#       7
#     2   2   2   2   2   2   2
#     4  11  22  41  68  94 132 175 218 271 325 389
#     4  10  20  40  68  98 131 174 217 262 331 392
#     4  11  21  43  68  95 134 174 217 271 330 378
#     4   9  20  40  64  97 132 166 218 262 323 388
#     4  10  21  42  69  96 133 168 218 263 330 384
#     4  10  22  43  64  93 130 177 219 265 329 389
#     4   9  23  41  64  98 135 165 225 265 319 396
#
# _framework density 23.220786
#
# number of rings (size 3 to 8) (size 9 to 14) (size 15 to 20)
#    0.857    1.143    2.857    2.143    0.000    4.000 
#    7.714    5.000    0.000    0.000    0.000    0.000 
#    0.000    0.000    0.000    0.000    0.000    0.000 
#
# Total GULP energy -77975.539146 kJ/mol
# GULP energy per Si atom -5569.681368 kJ/mol
# Density = 2.316793 g / cm^3
# Si number density = 23.220786 Si / 1000 Ang^3
#
#
#
# Elastic Constant Matrix: (Units=GPa)
#
#
# Indices 1 2 3 4 5 6 
#
# 1 175.2522 79.0980 -23.5686 -64.1124 144.6359 -63.0746
# 2 79.0980 140.8155 -4.6723 -32.6856 76.1468 -41.1765
# 3 -23.5686 -4.6723 94.5275 16.0875 -29.8565 3.8180
# 4 -64.1124 -32.6856 16.0875 56.4480 -65.8429 20.2053
# 5 144.6359 76.1468 -29.8565 -65.8429 181.7784 -40.2317
# 6 -63.0746 -41.1765 3.8180 20.2053 -40.2317 68.4797
#
#
#
# Elastic Compliance Matrix: (Units=1/GPa)
#
#
# Indices 1 2 3 4 5 6 
#
# 1 0.024210 -0.001243 0.000032 0.006519 -0.013830 0.011501
# 2 -0.001243 0.010251 -0.000828 0.000699 -0.002429 0.003433
# 3 0.000032 -0.000828 0.011362 -0.002025 0.001543 0.000403
# 4 0.006519 0.000699 -0.002025 0.033383 0.006375 0.000433
# 5 -0.013830 -0.002429 0.001543 0.006375 0.018975 -0.005018
# 6 0.011501 0.003433 0.000403 0.000433 -0.005018 0.024161
#
#
# Mechanical properties :
#
#
# Convention : Reuss Voigt Hill
#
# Bulk Modulus (GPa) = 23.95417 56.92328 40.43873
# Shear Modulus (GPa) = 35.62952 85.32375 60.47664
#
# Velocity S-wave (km/s) = 3.92137 6.06831 5.10889
# Velocity P-wave (km/s) = 5.55347 8.58290 7.22867
#
# Compressibility (1/GPa) = 0.04174639
#
# Stress axis : x y z
#
# Youngs Moduli (GPa) = 41.30597 97.54854 88.01457
#
# Poissons Ratio (x) = 0.12123 -0.00286
# Poissons Ratio (y) = 0.05133 0.07286
# Poissons Ratio (z) = -0.00134 0.08075
#
# Static dielectric constant tensor:
#      x y z
#    x 1.906440 -0.008020 -0.103000 
#    y -0.008020 1.862230 0.016150 
#    z -0.103000 0.016150 1.873850 
# 
# From -- ./inp_files/427433.got.cif
#   From: 2010.05.17/outbox.cif.g08.bks.cpg/sg2_214_cif.got.tgz:427433.got - 2010.06.03 11:33:40.
