data_PCOD9108119
_publ_section_title
;
Structure prediction by ZEFSAII (Michael W. Deem and Ramdas Pophale) SiO2 
 PCOD9108119
Probable space group: P -1
;
_chemical_formula_sum "Si O2"
_cell_formula_units_Z 16
_cell_length_a 19.212380
_cell_length_b 11.378602
_cell_length_c 8.684188
_cell_angle_alpha 132.588974
_cell_angle_beta 139.499081
_cell_angle_gamma 29.528153
_cell_volume 606.992909
_symmetry_space_group_name_H-M "P -1"
_symmetry_group_IT_number 2
_symmetry_cell_setting 'triclinic'
loop_
_space_group_symop_operation_xyz
x,y,z
-x,-y,-z
loop_
_atom_site_type_symbol
_atom_site_label
_atom_site_fract_x
_atom_site_fract_y
_atom_site_fract_z
Si Si1 0.880367 0.480353 0.122288
Si Si2 0.964825 0.222296 0.344842
Si Si3 0.550752 0.700362 0.854764
Si Si4 0.889248 0.737440 0.129590
Si Si5 0.339275 0.333014 0.677839
Si Si6 0.532081 0.584167 0.271986
Si Si7 0.699980 0.249923 0.555318
Si Si8 0.225140 0.096490 0.224394
O O1 0.854491 0.675044 0.166556
O O2 0.933894 0.390636 0.308945
O O3 0.046367 0.240090 0.102301
O O4 0.695468 0.621876 0.932744
O O5 0.023971 0.209859 0.602400
O O6 0.782219 0.389997 0.226770
O O7 0.108112 0.955352 0.289441
O O8 0.622281 0.443068 0.727863
O O9 0.368469 0.855105 0.643637
O O10 0.545107 0.792922 0.091867
O O11 0.760077 0.932128 0.961772
O O12 0.000000 0.500000 0.000000
O O13 0.399025 0.328184 0.610474
O O14 0.260174 0.244561 0.454456
O O15 0.646993 0.380581 0.414753
O O16 0.366020 0.829294 0.283144
O O17 0.500000 0.500000 0.000000
#
# Coordination Sequence:
#
# PCOD9108119 Si02
#       8
#     2   2   2   2   2   2   2   2
#     4  10  23  42  74  98 136 180 225 289 348 406
#     4  11  23  42  72 100 138 177 231 285 345 403
#     4  10  25  45  66 100 140 178 239 282 343 408
#     4  10  20  40  67 100 135 169 223 282 339 408
#     4  11  24  46  72 103 138 179 236 293 343 410
#     4  12  26  46  69  99 146 189 226 278 352 411
#     4  11  26  47  65 101 142 186 231 287 336 428
#     4  11  25  44  73 106 141 179 231 292 345 407
#
# _framework density 26.359451
#
# number of rings (size 3 to 8) (size 9 to 14) (size 15 to 20)
#    0.000    1.250    3.750    1.500    7.000    3.500 
#    0.000    1.250    0.000    0.000    0.000    0.000 
#    0.000    0.000    0.000    0.000    0.000    0.000 
#
# Total GULP energy -89123.967573 kJ/mol
# GULP energy per Si atom -5570.247973 kJ/mol
# Density = 2.629946 g / cm^3
# Si number density = 26.359451 Si / 1000 Ang^3
#
#
#
# Elastic Constant Matrix: (Units=GPa)
#
#
# Indices 1 2 3 4 5 6 
#
# 1 100.4990 31.1606 25.0553 -9.0678 6.4853 -7.9648
# 2 31.1606 114.2151 -5.1146 -13.7524 -8.2903 -17.2976
# 3 25.0553 -5.1146 107.2501 -4.0361 -10.3924 21.4064
# 4 -9.0678 -13.7524 -4.0361 29.5890 0.3766 -7.5561
# 5 6.4853 -8.2903 -10.3924 0.3766 46.4788 -10.6943
# 6 -7.9648 -17.2976 21.4064 -7.5561 -10.6943 35.6597
#
#
#
# Elastic Compliance Matrix: (Units=1/GPa)
#
#
# Indices 1 2 3 4 5 6 
#
# 1 0.012514 -0.002839 -0.003909 0.002956 -0.002299 0.003701
# 2 -0.002839 0.011778 0.000385 0.006519 0.004257 0.007506
# 3 -0.003909 0.000385 0.011879 -0.001372 0.001521 -0.007652
# 4 0.002956 0.006519 -0.001372 0.041179 0.003423 0.014398
# 5 -0.002299 0.004257 0.001521 0.003423 0.024943 0.008844
# 6 0.003701 0.007506 -0.007652 0.014398 0.008844 0.042807
#
#
# Mechanical properties :
#
#
# Convention : Reuss Voigt Hill
#
# Bulk Modulus (GPa) = 42.65715 47.12964 44.89340
# Shear Modulus (GPa) = 30.18579 40.40303 35.29441
#
# Velocity S-wave (km/s) = 3.38769 3.91931 3.66316
# Velocity P-wave (km/s) = 5.61426 6.19675 5.91269
#
# Compressibility (1/GPa) = 0.02344273
#
# Stress axis : x y z
#
# Youngs Moduli (GPa) = 79.91214 84.90347 84.18544
#
# Poissons Ratio (x) = 0.24108 0.32909
# Poissons Ratio (y) = 0.22690 -0.03238
# Poissons Ratio (z) = 0.31238 -0.03266
#
# Static dielectric constant tensor:
#      x y z
#    x 2.208690 -0.036750 0.124160 
#    y -0.036750 2.183300 -0.106890 
#    z 0.124160 -0.106890 2.283330 
# 
# From -- ./inp_files/346388.got.cif
#   From: 2010.05.17/outbox.cif.g08.bks.cpg/sg2_174_cif.got.tgz:346388.got - 2010.06.03 11:33:40.
