data_PCOD9108019
_publ_section_title
;
Structure prediction by ZEFSAII (Michael W. Deem and Ramdas Pophale) SiO2 
 PCOD9108019
Probable space group: P -1
;
_chemical_formula_sum "Si O2"
_cell_formula_units_Z 16
_cell_length_a 12.722707
_cell_length_b 8.902318
_cell_length_c 17.553006
_cell_angle_alpha 133.399581
_cell_angle_beta 149.563247
_cell_angle_gamma 57.342600
_cell_volume 724.202183
_symmetry_space_group_name_H-M "P -1"
_symmetry_group_IT_number 2
_symmetry_cell_setting 'triclinic'
loop_
_space_group_symop_operation_xyz
x,y,z
-x,-y,-z
loop_
_atom_site_type_symbol
_atom_site_label
_atom_site_fract_x
_atom_site_fract_y
_atom_site_fract_z
Si Si1 0.641864 0.563803 0.838399
Si Si2 0.692124 0.377519 0.564446
Si Si3 0.037683 0.219138 0.642518
Si Si4 0.960214 0.931753 0.107546
Si Si5 0.433364 0.203008 0.987329
Si Si6 0.767985 0.326022 0.110422
Si Si7 0.637823 0.182714 0.607030
Si Si8 0.097855 0.693104 0.979961
O O1 0.564355 0.396489 0.666854
O O2 0.746688 0.775579 0.936449
O O3 0.513805 0.626430 0.852759
O O4 0.806221 0.438621 0.940659
O O5 0.500000 0.500000 0.500000
O O6 0.626174 0.179968 0.509032
O O7 0.886141 0.546403 0.773177
O O8 0.804849 0.282163 0.531820
O O9 0.189192 0.192598 0.802505
O O10 0.156811 0.427186 0.748620
O O11 0.000000 0.000000 0.500000
O O12 0.125642 0.848195 0.237237
O O13 0.930483 0.170305 0.183681
O O14 0.044096 0.893989 0.062021
O O15 0.566339 0.259610 0.013585
O O16 0.500000 0.000000 0.000000
O O17 0.758649 0.281713 0.997380
O O18 0.500000 0.000000 0.500000
#
# Coordination Sequence:
#
# PCOD9108019 Si02
#       8
#     2   2   2   2   2   2   2   2
#     4  11  20  43  70  90 131 182 217 278 343 396
#     4  11  23  42  68  96 139 181 221 279 349 408
#     4  11  27  49  68 100 147 183 226 291 354 409
#     4  11  20  41  67  96 131 175 222 282 338 403
#     4  12  24  45  73 101 132 185 239 281 336 422
#     4  11  24  39  70 100 134 172 239 273 339 419
#     4  11  24  39  63  99 135 167 226 280 341 401
#     4  10  20  40  66  94 132 172 224 279 333 400
#
# _framework density 22.093278000000002
#
# number of rings (size 3 to 8) (size 9 to 14) (size 15 to 20)
#    0.000    1.000    6.250    1.500    3.500    3.000 
#    2.250    0.625    0.000    0.000    0.000    0.000 
#    0.000    0.000    0.000    0.000    0.000    0.000 
#
# Total GULP energy -89125.180270 kJ/mol
# GULP energy per Si atom -5570.323767 kJ/mol
# Density = 2.204299 g / cm^3
# Si number density = 22.093278 Si / 1000 Ang^3
#
#
#
# Elastic Constant Matrix: (Units=GPa)
#
#
# Indices 1 2 3 4 5 6 
#
# 1 115.4926 35.1014 31.2928 1.4051 14.3869 1.4594
# 2 35.1014 130.1096 15.1358 10.4405 9.1772 -12.7435
# 3 31.2928 15.1358 8.5552 15.2495 10.6785 -8.0182
# 4 1.4051 10.4405 15.2495 24.1049 -1.2216 0.7358
# 5 14.3869 9.1772 10.6785 -1.2216 23.6486 6.6027
# 6 1.4594 -12.7435 -8.0182 0.7358 6.6027 50.0236
#
#
#
# Elastic Compliance Matrix: (Units=1/GPa)
#
#
# Indices 1 2 3 4 5 6 
#
# 1 0.006482 -0.001538 0.015519 -0.010243 -0.011896 0.003628
# 2 -0.001538 0.008955 -0.003703 -0.001582 -0.001495 0.001953
# 3 0.015519 -0.003703 -0.068112 0.045818 0.029844 -0.016927
# 4 -0.010243 -0.001582 0.045818 0.012706 -0.015736 0.009130
# 5 -0.011896 -0.001495 0.029844 -0.015736 0.035740 0.000264
# 6 0.003628 0.001953 -0.016927 0.009130 0.000264 0.017500
#
#
# Mechanical properties :
#
#
# Convention : Reuss Voigt Hill
#
# Bulk Modulus (GPa) = -31.13545 46.35748 7.61102
# Shear Modulus (GPa) = -277.89582 31.06391 -123.41595
#
# Velocity S-wave (km/s) = -11.22747 3.75378 -7.48215
# Velocity P-wave (km/s) = 13.49808 6.30999 8.43748
#
# Compressibility (1/GPa) = -0.03211773
#
# Stress axis : x y z
#
# Youngs Moduli (GPa) = 154.28134 111.66829 -14.68175
#
# Poissons Ratio (x) = 0.17171 0.22785
# Poissons Ratio (y) = 0.23723 -0.05436
# Poissons Ratio (z) = -2.39430 0.41348
#
# Static dielectric constant tensor:
#      x y z
#    x 1.816690 -0.103300 0.023380 
#    y -0.103300 1.725010 -0.005450 
#    z 0.023380 -0.005450 1.895700 
# 
# From -- ./inp_files/567004.got.cif
#   From: 2010.05.17/outbox.cif.g08.bks.cpg/sg2_284_cif.got.tgz:567004.got - 2010.06.03 11:33:40.
