data_PCOD9108702
_publ_section_title
;
Structure prediction by ZEFSAII (Michael W. Deem and Ramdas Pophale) SiO2 
 PCOD9108702
Probable space group: P -1
;
_chemical_formula_sum "Si O2"
_cell_formula_units_Z 14
_cell_length_a 25.427264
_cell_length_b 17.933359
_cell_length_c 5.760969
_cell_angle_alpha 117.520010
_cell_angle_beta 124.217920
_cell_angle_gamma 15.585009
_cell_volume 544.861469
_symmetry_space_group_name_H-M "P -1"
_symmetry_group_IT_number 2
_symmetry_cell_setting 'triclinic'
loop_
_space_group_symop_operation_xyz
x,y,z
-x,-y,-z
loop_
_atom_site_type_symbol
_atom_site_label
_atom_site_fract_x
_atom_site_fract_y
_atom_site_fract_z
Si Si1 0.723477 0.041873 0.289371
Si Si2 0.937070 0.538821 0.651870
Si Si3 0.435756 0.161921 0.214744
Si Si4 0.821010 0.152851 0.276984
Si Si5 0.967219 0.290595 0.747893
Si Si6 0.286478 0.488979 0.958850
Si Si7 0.783841 0.161902 0.713842
O O1 0.931074 0.717778 0.410981
O O2 0.798811 0.962348 0.096875
O O3 0.744549 0.109982 0.543506
O O4 0.492205 0.286444 0.101064
O O5 0.000000 0.500000 0.500000
O O6 0.668291 0.881267 0.515783
O O7 0.000000 0.500000 0.000000
O O8 0.201293 0.436627 0.146772
O O9 0.375851 0.321896 0.155074
O O10 0.500000 0.000000 0.000000
O O11 0.955294 0.895031 0.217898
O O12 0.712809 0.285391 0.457843
O O13 0.689021 0.321809 0.947127
O O14 0.000000 0.000000 0.500000
O O15 0.802525 0.465901 0.385048
O O16 0.054482 0.833347 0.918903
#
# Coordination Sequence:
#
# PCOD9108702 Si02
#       7
#     2   2   2   2   2   2   2
#     4  10  22  41  65  88 132 170 220 268 322 384
#     4  12  27  41  60  94 129 173 228 268 321 385
#     4  12  24  40  65  88 133 175 225 274 324 386
#     4  10  20  40  70  96 128 168 210 264 332 397
#     4  10  24  41  63  92 128 167 219 267 331 388
#     4  10  20  42  61  92 124 177 212 266 328 381
#     4  10  22  40  65  99 128 166 217 263 329 391
#
# _framework density 25.694603000000001
#
# number of rings (size 3 to 8) (size 9 to 14) (size 15 to 20)
#    0.000    1.714    2.857    3.000    2.000    2.286 
#    5.143    0.000    0.000   28.286    0.000    0.000 
#    0.000    0.000    0.000    0.000    0.000    0.000 
#
# Total GULP energy -78149.314455 kJ/mol
# GULP energy per Si atom -5582.093890 kJ/mol
# Density = 2.563612 g / cm^3
# Si number density = 25.694603 Si / 1000 Ang^3
#
#
#
# Elastic Constant Matrix: (Units=GPa)
#
#
# Indices 1 2 3 4 5 6 
#
# 1 139.3667 36.4911 37.2906 -4.3777 7.8819 -17.1862
# 2 36.4911 113.4735 40.9590 -20.1149 4.7851 -27.2489
# 3 37.2906 40.9590 136.7116 2.4528 -10.8584 -22.7512
# 4 -4.3777 -20.1149 2.4528 47.5108 -11.7980 4.9724
# 5 7.8819 4.7851 -10.8584 -11.7980 37.1630 -12.4565
# 6 -17.1862 -27.2489 -22.7512 4.9724 -12.4565 49.3664
#
#
#
# Elastic Compliance Matrix: (Units=1/GPa)
#
#
# Indices 1 2 3 4 5 6 
#
# 1 0.008311 -0.001908 -0.001748 -0.000508 -0.001993 0.000583
# 2 -0.001908 0.012257 -0.002322 0.004960 0.001356 0.004874
# 3 -0.001748 -0.002322 0.009461 -0.000932 0.004367 0.003666
# 4 -0.000508 0.004960 -0.000932 0.024878 0.007613 0.001547
# 5 -0.001993 0.001356 0.004367 0.007613 0.034176 0.009924
# 6 0.000583 0.004874 0.003666 0.001547 0.009924 0.027187
#
#
# Mechanical properties :
#
#
# Convention : Reuss Voigt Hill
#
# Bulk Modulus (GPa) = 55.32912 68.78146 62.05529
# Shear Modulus (GPa) = 37.24433 45.12879 41.18656
#
# Velocity S-wave (km/s) = 3.81136 4.19543 4.00800
# Velocity P-wave (km/s) = 6.39912 7.09195 6.75443
#
# Compressibility (1/GPa) = 0.01807366
#
# Stress axis : x y z
#
# Youngs Moduli (GPa) = 120.32010 81.58839 105.70153
#
# Poissons Ratio (x) = 0.15566 0.18473
# Poissons Ratio (y) = 0.22955 0.24543
# Poissons Ratio (z) = 0.21027 0.18944
#
# Static dielectric constant tensor:
#      x y z
#    x 2.070490 -0.048880 -0.022780 
#    y -0.048880 2.021140 0.033010 
#    z -0.022780 0.033010 2.032550 
# 
# From -- ./inp_files/124604.got.cif
#   From: 2010.05.17/outbox.cif.g08.bks.cpg/sg2_63_cif.got.tgz:124604.got - 2010.06.03 11:33:40.
