data_PCOD9108062
_publ_section_title
;
Structure prediction by ZEFSAII (Michael W. Deem and Ramdas Pophale) SiO2 
 PCOD9108062
Probable space group: P -1
;
_chemical_formula_sum "Si O2"
_cell_formula_units_Z 16
_cell_length_a 7.271360
_cell_length_b 16.597336
_cell_length_c 12.343321
_cell_angle_alpha 52.015719
_cell_angle_beta 67.347786
_cell_angle_gamma 38.764312
_cell_volume 721.460772
_symmetry_space_group_name_H-M "P -1"
_symmetry_group_IT_number 2
_symmetry_cell_setting 'triclinic'
loop_
_space_group_symop_operation_xyz
x,y,z
-x,-y,-z
loop_
_atom_site_type_symbol
_atom_site_label
_atom_site_fract_x
_atom_site_fract_y
_atom_site_fract_z
Si Si1 0.780060 0.313082 0.419233
Si Si2 0.189779 0.898257 0.279037
Si Si3 0.789532 0.343844 0.003698
Si Si4 0.015318 0.106615 0.324612
Si Si5 0.348619 0.238896 0.873983
Si Si6 0.617636 0.342930 0.823074
Si Si7 0.792290 0.955018 0.162588
Si Si8 0.611936 0.894063 0.460140
O O1 0.729896 0.245880 0.577351
O O2 0.528293 0.492540 0.307969
O O3 0.845862 0.223310 0.368495
O O4 0.069844 0.265899 0.436989
O O5 0.503652 0.826674 0.225937
O O6 0.986107 0.972830 0.155978
O O7 0.978968 0.029668 0.309003
O O8 0.651536 0.322257 0.961742
O O9 0.005951 0.340369 0.893288
O O10 0.500000 0.500000 0.000000
O O11 0.990960 0.209416 0.158791
O O12 0.323540 0.944144 0.443202
O O13 0.429175 0.322037 0.830572
O O14 0.544963 0.086663 0.027827
O O15 0.953938 0.210146 0.812571
O O16 0.662531 0.947963 0.301918
O O17 0.500000 0.000000 0.500000
#
# Coordination Sequence:
#
# PCOD9108062 Si02
#       8
#     2   2   2   2   2   2   2   2
#     4  10  22  43  61  94 140 175 220 270 337 394
#     4  10  22  38  68  98 128 176 227 272 327 396
#     4  12  25  43  68 102 134 171 221 282 343 391
#     4  11  20  41  66  94 131 172 226 277 322 397
#     4  11  24  43  67 102 131 176 229 271 333 405
#     4  11  24  43  68  98 140 175 214 282 340 390
#     4  10  20  40  66  96 130 172 221 271 328 397
#     4   9  20  36  63  90 122 177 217 258 324 392
#
# _framework density 22.177227999999999
#
# number of rings (size 3 to 8) (size 9 to 14) (size 15 to 20)
#    0.000    1.500    2.500    3.375    1.750    6.000 
#    2.250    3.125    0.000    0.000    0.000    0.000 
#    0.000    0.000    0.000    0.000    0.000    0.000 
#
# Total GULP energy -89106.422281 kJ/mol
# GULP energy per Si atom -5569.151393 kJ/mol
# Density = 2.212675 g / cm^3
# Si number density = 22.177228 Si / 1000 Ang^3
#
#
#
# Elastic Constant Matrix: (Units=GPa)
#
#
# Indices 1 2 3 4 5 6 
#
# 1 44.4451 33.5913 5.7770 -8.6067 6.5788 3.8394
# 2 33.5913 117.1445 53.3263 -15.2508 -11.2132 -3.6014
# 3 5.7770 53.3263 101.1638 -4.6387 6.1972 4.9300
# 4 -8.6067 -15.2508 -4.6387 39.9839 -1.5896 4.0983
# 5 6.5788 -11.2132 6.1972 -1.5896 28.7322 -0.1595
# 6 3.8394 -3.6014 4.9300 4.0983 -0.1595 27.6377
#
#
#
# Elastic Compliance Matrix: (Units=1/GPa)
#
#
# Indices 1 2 3 4 5 6 
#
# 1 0.036973 -0.015454 0.007607 0.003241 -0.016009 -0.009080
# 2 -0.015454 0.019592 -0.010453 0.002838 0.013631 0.006222
# 3 0.007607 -0.010453 0.015767 -0.000353 -0.009271 -0.005233
# 4 0.003241 0.002838 -0.000353 0.027240 0.001926 -0.004046
# 5 -0.016009 0.013631 -0.009271 0.001926 0.045927 0.005633
# 6 -0.009080 0.006222 -0.005233 -0.004046 0.005633 0.039821
#
#
# Mechanical properties :
#
#
# Convention : Reuss Voigt Hill
#
# Bulk Modulus (GPa) = 27.98698 49.79360 38.89029
# Shear Modulus (GPa) = 21.38300 30.60801 25.99550
#
# Velocity S-wave (km/s) = 3.10850 3.71907 3.42741
# Velocity P-wave (km/s) = 5.05280 6.39870 5.76516
#
# Compressibility (1/GPa) = 0.03573089
#
# Stress axis : x y z
#
# Youngs Moduli (GPa) = 27.04699 51.04161 63.42212
#
# Poissons Ratio (x) = 0.78881 -0.48244
# Poissons Ratio (y) = 0.41799 0.66295
# Poissons Ratio (z) = -0.20574 0.53354
#
# Static dielectric constant tensor:
#      x y z
#    x 1.804770 -0.045940 0.009320 
#    y -0.045940 1.859220 0.042390 
#    z 0.009320 0.042390 1.803290 
# 
# From -- ./inp_files/402013.got.cif
#   From: 2010.05.17/outbox.cif.g08.bks.cpg/sg2_202_cif.got.tgz:402013.got - 2010.06.03 11:33:40.
