data_PCOD9108334
_publ_section_title
;
Structure prediction by ZEFSAII (Michael W. Deem and Ramdas Pophale) SiO2 
 PCOD9108334
Probable space group: P -1
;
_chemical_formula_sum "Si O2"
_cell_formula_units_Z 13
_cell_length_a 4.808301
_cell_length_b 14.281592
_cell_length_c 17.812684
_cell_angle_alpha 150.913194
_cell_angle_beta 131.406005
_cell_angle_gamma 55.884219
_cell_volume 445.513053
_symmetry_space_group_name_H-M "P -1"
_symmetry_group_IT_number 2
_symmetry_cell_setting 'triclinic'
loop_
_space_group_symop_operation_xyz
x,y,z
-x,-y,-z
loop_
_atom_site_type_symbol
_atom_site_label
_atom_site_fract_x
_atom_site_fract_y
_atom_site_fract_z
Si Si1 0.093355 0.180307 0.503497
Si Si2 0.955162 0.382387 0.013329
Si Si3 0.000000 0.500000 0.500000
Si Si4 0.389652 0.848342 0.739892
Si Si5 0.025855 0.911705 0.067233
Si Si6 0.172568 0.587930 0.766227
Si Si7 0.944882 0.211861 0.724389
O O1 0.983042 0.401443 0.644984
O O2 0.531356 0.188429 0.600716
O O3 0.976070 0.128168 0.361399
O O4 0.920651 0.006166 0.401166
O O5 0.396823 0.397212 0.121142
O O6 0.844398 0.606638 0.151651
O O7 0.794639 0.236178 0.945510
O O8 0.912234 0.288565 0.857846
O O9 0.325780 0.642083 0.619800
O O10 0.151332 0.553739 0.650390
O O11 0.717384 0.899442 0.775727
O O12 0.339013 0.013688 0.907697
O O13 0.991653 0.783267 0.897156
#
# Coordination Sequence:
#
# PCOD9108334 Si02
#       7
#     2   2   1   2   2   2   2
#     4   9  18  40  63 103 135 185 220 290 328 397
#     4  10  20  40  68 101 137 184 230 282 327 419
#     4  10  26  52  68 112 128 182 222 294 342 426
#     4  11  25  47  74  97 144 173 233 277 350 398
#     4  12  23  46  72 101 137 188 219 287 336 414
#     4  10  22  44  70  98 141 175 233 281 349 399
#     4   9  17  36  71  96 142 182 238 268 345 388
#
# _framework density 29.179839000000001
#
# number of rings (size 3 to 8) (size 9 to 14) (size 15 to 20)
#    0.000    1.846    3.077    0.000    0.000    1.846 
#   19.385   13.846    0.000    0.000    0.000    0.000 
#    0.000    0.000    0.000    0.000    0.000    0.000 
#
# Total GULP energy -72677.330863 kJ/mol
# GULP energy per Si atom -5590.563913 kJ/mol
# Density = 2.911342 g / cm^3
# Si number density = 29.179839 Si / 1000 Ang^3
#
#
#
# Elastic Constant Matrix: (Units=GPa)
#
#
# Indices 1 2 3 4 5 6 
#
# 1 121.3258 53.2576 46.3435 16.5916 2.7200 17.3508
# 2 53.2576 155.2550 35.5607 20.5957 11.8036 29.4478
# 3 46.3435 35.5607 86.7914 -0.6242 26.5513 -2.1501
# 4 16.5916 20.5957 -0.6242 105.3912 21.0433 9.2883
# 5 2.7200 11.8036 26.5513 21.0433 51.4376 15.2250
# 6 17.3508 29.4478 -2.1501 9.2883 15.2250 49.7838
#
#
#
# Elastic Compliance Matrix: (Units=1/GPa)
#
#
# Indices 1 2 3 4 5 6 
#
# 1 0.013334 -0.001671 -0.008728 -0.002717 0.006971 -0.005661
# 2 -0.001671 0.008813 -0.003448 -0.001416 0.001937 -0.005108
# 3 -0.008728 -0.003448 0.022465 0.004313 -0.015020 0.009841
# 4 -0.002717 -0.001416 0.004313 0.011447 -0.007028 0.001985
# 5 0.006971 0.001937 -0.015020 -0.007028 0.033116 -0.013040
# 6 -0.005661 -0.005108 0.009841 0.001985 -0.013040 0.029124
#
#
# Mechanical properties :
#
#
# Convention : Reuss Voigt Hill
#
# Bulk Modulus (GPa) = 59.10531 70.41063 64.75797
# Shear Modulus (GPa) = 32.97443 56.53654 44.75549
#
# Velocity S-wave (km/s) = 3.36526 4.40650 3.92060
# Velocity P-wave (km/s) = 5.94974 7.07615 6.53725
#
# Compressibility (1/GPa) = 0.01691895
#
# Stress axis : x y z
#
# Youngs Moduli (GPa) = 74.99449 113.46265 44.51416
#
# Poissons Ratio (x) = 0.18958 0.38850
# Poissons Ratio (y) = 0.12531 0.15350
# Poissons Ratio (z) = 0.65452 0.39125
#
# Static dielectric constant tensor:
#      x y z
#    x 2.212200 -0.075250 -0.027900 
#    y -0.075250 2.347870 0.008670 
#    z -0.027900 0.008670 2.299860 
# 
# From -- ./inp_files/549898.got.cif
#   From: 2010.05.17/outbox.cif.g08.bks.cpg/sg2_275_cif.got.tgz:549898.got - 2010.06.03 11:33:40.
