data_PCOD9108759
_publ_section_title
;
Structure prediction by ZEFSAII (Michael W. Deem and Ramdas Pophale) SiO2 
 PCOD9108759
Probable space group: P -1
;
_chemical_formula_sum "Si O2"
_cell_formula_units_Z 16
_cell_length_a 10.574437
_cell_length_b 13.879196
_cell_length_c 8.037078
_cell_angle_alpha 67.325285
_cell_angle_beta 80.701708
_cell_angle_gamma 34.557202
_cell_volume 589.338934
_symmetry_space_group_name_H-M "P -1"
_symmetry_group_IT_number 2
_symmetry_cell_setting 'triclinic'
loop_
_space_group_symop_operation_xyz
x,y,z
-x,-y,-z
loop_
_atom_site_type_symbol
_atom_site_label
_atom_site_fract_x
_atom_site_fract_y
_atom_site_fract_z
Si Si1 0.550872 0.547261 0.744678
Si Si2 0.432882 0.930924 0.981393
Si Si3 0.238468 0.431569 0.055812
Si Si4 0.048163 0.902573 0.721701
Si Si5 0.853220 0.660974 0.616299
Si Si6 0.973439 0.157785 0.756399
Si Si7 0.962804 0.774452 0.655763
Si Si8 0.635724 0.667169 0.411820
O O1 0.651470 0.560529 0.846541
O O2 0.307833 0.679692 0.787136
O O3 0.522865 0.638761 0.525142
O O4 0.733673 0.335878 0.790057
O O5 0.586834 0.779119 0.897366
O O6 0.169656 0.088219 0.865866
O O7 0.507034 0.796963 0.193798
O O8 0.500000 0.000000 0.000000
O O9 0.060689 0.486822 0.172901
O O10 0.140496 0.570633 0.837915
O O11 0.896895 0.901754 0.727269
O O12 0.029515 0.998125 0.809760
O O13 0.000000 0.000000 0.500000
O O14 0.652712 0.744317 0.496786
O O15 0.769554 0.825078 0.604933
O O16 0.084152 0.535710 0.545580
O O17 0.957397 0.220141 0.532670
#
# Coordination Sequence:
#
# PCOD9108759 Si02
#       8
#     2   2   2   2   2   2   2   2
#     4  11  23  49  77 100 141 194 229 290 362 416
#     4  12  25  42  66 109 149 182 236 303 346 422
#     4  11  24  42  73 102 139 190 235 284 360 428
#     4  10  25  47  75 105 141 181 246 294 343 420
#     4  10  20  40  71 104 136 183 236 285 349 433
#     4  11  24  48  70 105 149 179 241 299 343 423
#     4  11  22  43  75  97 142 190 230 292 356 417
#     4  10  22  42  71 101 145 185 231 286 366 422
#
# _framework density 27.149062000000001
#
# number of rings (size 3 to 8) (size 9 to 14) (size 15 to 20)
#    0.000    1.250    3.750    1.125    3.500    2.500 
#    9.000    2.500    0.000    0.000    0.000    0.000 
#    0.000    0.000    0.000    0.000    0.000    0.000 
#
# Total GULP energy -89496.187379 kJ/mol
# GULP energy per Si atom -5593.511711 kJ/mol
# Density = 2.708727 g / cm^3
# Si number density = 27.149062 Si / 1000 Ang^3
#
#
#
# Elastic Constant Matrix: (Units=GPa)
#
#
# Indices 1 2 3 4 5 6 
#
# 1 136.8321 72.1456 16.6864 8.9622 10.5571 44.0732
# 2 72.1456 177.3565 35.3032 -1.4065 7.6250 25.0214
# 3 16.6864 35.3032 109.0843 15.6555 1.2276 12.4140
# 4 8.9622 -1.4065 15.6555 27.0263 4.8401 3.8216
# 5 10.5571 7.6250 1.2276 4.8401 37.9895 3.2122
# 6 44.0732 25.0214 12.4140 3.8216 3.2122 54.3884
#
#
#
# Elastic Compliance Matrix: (Units=1/GPa)
#
#
# Indices 1 2 3 4 5 6 
#
# 1 0.012181 -0.003962 0.000813 -0.003325 -0.001524 -0.007910
# 2 -0.003962 0.007782 -0.002367 0.003234 -0.000796 -0.000010
# 3 0.000813 -0.002367 0.010942 -0.006656 0.000883 -0.001652
# 4 -0.003325 0.003234 -0.006656 0.043022 -0.004991 -0.000002
# 5 -0.001524 -0.000796 0.000883 -0.004991 0.027503 0.000126
# 6 -0.007910 -0.000010 -0.001652 -0.000002 0.000126 0.025171
#
#
# Mechanical properties :
#
#
# Convention : Reuss Voigt Hill
#
# Bulk Modulus (GPa) = 50.31320 74.61595 62.46457
# Shear Modulus (GPa) = 34.66063 43.82336 39.24200
#
# Velocity S-wave (km/s) = 3.57694 4.02204 3.80600
# Velocity P-wave (km/s) = 5.96924 7.00803 6.50939
#
# Compressibility (1/GPa) = 0.01987550
#
# Stress axis : x y z
#
# Youngs Moduli (GPa) = 82.09367 128.49652 91.39085
#
# Poissons Ratio (x) = 0.50909 -0.07434
# Poissons Ratio (y) = 0.32525 0.21628
# Poissons Ratio (z) = -0.06678 0.30410
#
# Static dielectric constant tensor:
#      x y z
#    x 2.161930 -0.007200 0.068350 
#    y -0.007200 2.197920 0.044930 
#    z 0.068350 0.044930 2.227130 
# 
# From -- ./inp_files/272516.got.cif
#   From: 2010.05.17/outbox.cif.g08.bks.cpg/sg2_137_cif.got.tgz:272516.got - 2010.06.03 11:33:40.
