data_PCOD9108401
_publ_section_title
;
Structure prediction by ZEFSAII (Michael W. Deem and Ramdas Pophale) SiO2 
 PCOD9108401
Probable space group: P -1
;
_chemical_formula_sum "Si O2"
_cell_formula_units_Z 16
_cell_length_a 8.394701
_cell_length_b 11.353294
_cell_length_c 11.979176
_cell_angle_alpha 50.283960
_cell_angle_beta 54.889850
_cell_angle_gamma 80.998509
_cell_volume 676.815387
_symmetry_space_group_name_H-M "P -1"
_symmetry_group_IT_number 2
_symmetry_cell_setting 'triclinic'
loop_
_space_group_symop_operation_xyz
x,y,z
-x,-y,-z
loop_
_atom_site_type_symbol
_atom_site_label
_atom_site_fract_x
_atom_site_fract_y
_atom_site_fract_z
Si Si1 0.616850 0.693554 0.847868
Si Si2 0.786461 0.978392 0.173190
Si Si3 0.101997 0.721831 0.895927
Si Si4 0.974844 0.367060 0.246550
Si Si5 0.373548 0.286687 0.406213
Si Si6 0.616033 0.646704 0.121473
Si Si7 0.442379 0.863220 0.197438
Si Si8 0.024950 0.622951 0.517973
O O1 0.574368 0.772574 0.701308
O O2 0.861952 0.725041 0.740085
O O3 0.500000 0.500000 0.000000
O O4 0.557502 0.716983 0.985384
O O5 0.727511 0.841846 0.378234
O O6 0.583941 0.929788 0.206634
O O7 0.806770 0.144231 0.129108
O O8 0.000000 0.000000 0.000000
O O9 0.173176 0.738936 0.726514
O O10 0.099494 0.543747 0.039306
O O11 0.862187 0.713158 0.993145
O O12 0.906575 0.417776 0.362245
O O13 0.550532 0.451892 0.271756
O O14 0.197721 0.361620 0.397302
O O15 0.503929 0.709668 0.224956
O O16 0.195247 0.799607 0.332371
O O17 0.500000 0.000000 0.000000
O O18 0.000000 0.500000 0.500000
#
# Coordination Sequence:
#
# PCOD9108401 Si02
#       8
#     2   2   2   2   2   2   2   2
#     4   8  17  37  65  93 119 161 215 262 312 376
#     4  12  26  42  63  95 133 171 210 270 330 379
#     4  10  22  42  67  92 133 167 214 268 322 378
#     4   9  21  40  67  94 124 170 218 260 318 380
#     4  10  22  41  65  96 126 165 221 260 326 385
#     4  10  20  40  68  93 125 171 217 266 314 388
#     4  12  27  42  60  96 131 169 217 265 331 382
#     4  11  23  40  67  93 128 169 215 264 316 384
#
# _framework density 23.640122999999999
#
# number of rings (size 3 to 8) (size 9 to 14) (size 15 to 20)
#    0.000    1.750    2.500    0.750    5.250    0.500 
#    2.250    2.500    0.000    0.000    0.000    0.000 
#    0.000    0.000    0.000    0.000    0.000    0.000 
#
# Total GULP energy -89150.795255 kJ/mol
# GULP energy per Si atom -5571.924703 kJ/mol
# Density = 2.358632 g / cm^3
# Si number density = 23.640123 Si / 1000 Ang^3
#
#
#
# Elastic Constant Matrix: (Units=GPa)
#
#
# Indices 1 2 3 4 5 6 
#
# 1 53.9811 31.8628 5.1117 6.7243 -1.5019 28.5276
# 2 31.8628 126.8460 18.4411 14.7063 -3.4396 38.9034
# 3 5.1117 18.4411 102.2731 15.6895 14.4406 21.4617
# 4 6.7243 14.7063 15.6895 25.8116 4.9540 2.1350
# 5 -1.5019 -3.4396 14.4406 4.9540 38.1604 5.8884
# 6 28.5276 38.9034 21.4617 2.1350 5.8884 50.2083
#
#
#
# Elastic Compliance Matrix: (Units=1/GPa)
#
#
# Indices 1 2 3 4 5 6 
#
# 1 0.029040 -0.001660 0.003034 -0.007747 0.003409 -0.016582
# 2 -0.001660 0.011587 0.000255 -0.006212 0.002958 -0.008227
# 3 0.003034 0.000255 0.012486 -0.007480 -0.002587 -0.006638
# 4 -0.007747 -0.006212 -0.007480 0.049106 -0.006113 0.011041
# 5 0.003409 0.002958 -0.002587 -0.006113 0.029352 -0.006306
# 6 -0.016582 -0.008227 -0.006638 0.011041 -0.006306 0.038820
#
#
# Mechanical properties :
#
#
# Convention : Reuss Voigt Hill
#
# Bulk Modulus (GPa) = 17.73893 43.77016 30.75454
# Shear Modulus (GPa) = 26.89303 38.01504 32.45403
#
# Velocity S-wave (km/s) = 3.37649 4.01443 3.70920
# Velocity P-wave (km/s) = 4.76665 6.32795 5.60196
#
# Compressibility (1/GPa) = 0.05637319
#
# Stress axis : x y z
#
# Youngs Moduli (GPa) = 34.43508 86.30386 80.09200
#
# Poissons Ratio (x) = 0.14323 -0.24304
# Poissons Ratio (y) = 0.05715 -0.02045
# Poissons Ratio (z) = -0.10449 -0.02204
#
# Static dielectric constant tensor:
#      x y z
#    x 2.200510 0.034630 -0.447210 
#    y 0.034630 1.978200 0.079820 
#    z -0.447210 0.079820 2.901270 
# 
# From -- ./inp_files/263073.got.cif
#   From: 2010.05.17/outbox.cif.g08.bks.cpg/sg2_132_cif.got.tgz:263073.got - 2010.06.03 11:33:40.
