data_PCOD9108862
_publ_section_title
;
Structure prediction by ZEFSAII (Michael W. Deem and Ramdas Pophale) SiO2 
 PCOD9108862
Probable space group: P -1
;
_chemical_formula_sum "Si O2"
_cell_formula_units_Z 13
_cell_length_a 7.040952
_cell_length_b 12.692896
_cell_length_c 7.804645
_cell_angle_alpha 54.899621
_cell_angle_beta 58.028229
_cell_angle_gamma 76.664720
_cell_volume 481.348417
_symmetry_space_group_name_H-M "P -1"
_symmetry_group_IT_number 2
_symmetry_cell_setting 'triclinic'
loop_
_space_group_symop_operation_xyz
x,y,z
-x,-y,-z
loop_
_atom_site_type_symbol
_atom_site_label
_atom_site_fract_x
_atom_site_fract_y
_atom_site_fract_z
Si Si1 0.915065 0.349707 0.681444
Si Si2 0.503697 0.314898 0.640889
Si Si3 0.752438 0.542282 0.111951
Si Si4 0.580349 0.044215 0.702680
Si Si5 0.233762 0.246897 0.367200
Si Si6 0.298701 0.852129 0.788718
Si Si7 0.000000 0.000000 0.500000
O O1 0.698221 0.333649 0.675865
O O2 0.000000 0.500000 0.500000
O O3 0.106820 0.276666 0.570898
O O4 0.842014 0.274756 0.959732
O O5 0.586564 0.414679 0.355981
O O6 0.290467 0.364762 0.792337
O O7 0.514225 0.171352 0.701796
O O8 0.702712 0.622456 0.893010
O O9 0.000000 0.500000 0.000000
O O10 0.770072 0.074874 0.418809
O O11 0.768075 0.973393 0.774671
O O12 0.371832 0.951285 0.814814
O O13 0.461340 0.185525 0.351787
O O14 0.076523 0.146972 0.422024
#
# Coordination Sequence:
#
# PCOD9108862 Si02
#       7
#     2   2   2   2   2   2   1
#     4  12  26  42  65 104 140 185 232 279 347 413
#     4  11  24  42  69 103 133 186 237 281 344 416
#     4  11  22  40  68 100 137 176 235 283 340 411
#     4  10  22  46  75  99 139 182 231 290 352 408
#     4  11  23  42  68 100 141 185 228 288 350 405
#     4  10  25  46  68 104 142 181 226 294 349 409
#     4  10  20  40  74 102 128 178 238 278 346 416
#
# _framework density 27.007462
#
# number of rings (size 3 to 8) (size 9 to 14) (size 15 to 20)
#    0.000    1.231    4.615    0.000    2.154    6.154 
#    0.000    6.923    0.000    0.000    0.000    0.000 
#    0.000    0.000    0.000    0.000    0.000    0.000 
#
# Total GULP energy -72728.701698 kJ/mol
# GULP energy per Si atom -5594.515515 kJ/mol
# Density = 2.694599 g / cm^3
# Si number density = 27.007462 Si / 1000 Ang^3
#
#
#
# Elastic Constant Matrix: (Units=GPa)
#
#
# Indices 1 2 3 4 5 6 
#
# 1 121.6828 44.4223 34.0654 -7.9225 -19.8208 -0.4519
# 2 44.4223 204.0098 31.6835 7.0214 -39.2756 -12.3327
# 3 34.0654 31.6835 161.7811 -6.7449 -0.7246 3.1321
# 4 -7.9225 7.0214 -6.7449 40.8019 -8.6318 -8.3203
# 5 -19.8208 -39.2756 -0.7246 -8.6318 36.8685 -4.1923
# 6 -0.4519 -12.3327 3.1321 -8.3203 -4.1923 47.8427
#
#
#
# Elastic Compliance Matrix: (Units=1/GPa)
#
#
# Indices 1 2 3 4 5 6 
#
# 1 0.010138 -0.000970 -0.001809 0.003139 0.005227 0.000968
# 2 -0.000970 0.006787 -0.001122 0.000470 0.007082 0.002516
# 3 -0.001809 -0.001122 0.006804 0.000356 -0.002050 -0.000870
# 4 0.003139 0.000470 0.000356 0.028303 0.009490 0.005881
# 5 0.005227 0.007082 -0.002050 0.009490 0.040479 0.007207
# 6 0.000968 0.002516 -0.000870 0.005881 0.007207 0.023271
#
#
# Mechanical properties :
#
#
# Convention : Reuss Voigt Hill
#
# Bulk Modulus (GPa) = 62.78900 78.64623 70.71761
# Shear Modulus (GPa) = 38.79166 50.25613 44.52389
#
# Velocity S-wave (km/s) = 3.79401 4.31841 4.06467
# Velocity P-wave (km/s) = 6.51858 7.35175 6.94767
#
# Compressibility (1/GPa) = 0.01592636
#
# Stress axis : x y z
#
# Youngs Moduli (GPa) = 98.63867 147.34918 146.96325
#
# Poissons Ratio (x) = 0.14290 0.26589
# Poissons Ratio (y) = 0.09566 0.16494
# Poissons Ratio (z) = 0.17846 0.16537
#
# Static dielectric constant tensor:
#      x y z
#    x 2.380600 0.005410 0.086400 
#    y 0.005410 2.087490 0.043520 
#    z 0.086400 0.043520 2.249040 
# 
# From -- ./inp_files/172600.got.cif
#   From: 2010.05.17/outbox.cif.g08.bks.cpg/sg2_87_cif.got.tgz:172600.got - 2010.06.03 11:33:40.
