data_PCOD9108622
_publ_section_title
;
Structure prediction by ZEFSAII (Michael W. Deem and Ramdas Pophale) SiO2 
 PCOD9108622
Probable space group: P -1
;
_chemical_formula_sum "Si O2"
_cell_formula_units_Z 15
_cell_length_a 9.509040
_cell_length_b 11.238912
_cell_length_c 8.787648
_cell_angle_alpha 77.964177
_cell_angle_beta 47.030094
_cell_angle_gamma 66.632646
_cell_volume 628.145050
_symmetry_space_group_name_H-M "P -1"
_symmetry_group_IT_number 2
_symmetry_cell_setting 'triclinic'
loop_
_space_group_symop_operation_xyz
x,y,z
-x,-y,-z
loop_
_atom_site_type_symbol
_atom_site_label
_atom_site_fract_x
_atom_site_fract_y
_atom_site_fract_z
Si Si1 0.163767 0.788468 0.512458
Si Si2 0.403248 0.538464 0.228961
Si Si3 0.386622 0.684174 0.679769
Si Si4 0.239275 0.237050 0.237904
Si Si5 0.000000 0.500000 0.500000
Si Si6 0.350952 0.143844 0.517490
Si Si7 0.084411 0.878140 0.083718
Si Si8 0.371227 0.904069 0.137529
O O1 0.265526 0.687420 0.326174
O O2 0.245967 0.717974 0.626875
O O3 0.919586 0.831753 0.678395
O O4 0.257776 0.899758 0.380525
O O5 0.552567 0.465532 0.274242
O O6 0.235083 0.470279 0.382385
O O7 0.500000 0.500000 0.000000
O O8 0.560691 0.749821 0.506673
O O9 0.253281 0.763362 0.899059
O O10 0.346188 0.169319 0.333447
O O11 0.425171 0.228525 0.993171
O O12 0.086465 0.382961 0.339282
O O13 0.113220 0.161425 0.721422
O O14 0.500000 0.000000 0.500000
O O15 0.203160 0.914128 0.127565
O O16 0.000000 0.000000 0.000000
O O17 0.500000 0.000000 0.000000
#
# Coordination Sequence:
#
# PCOD9108622 Si02
#       8
#     2   2   2   2   1   2   2   2
#     4  11  27  43  68 104 140 177 227 289 348 407
#     4  11  23  44  73  99 133 181 231 282 346 416
#     4  12  26  43  69 102 142 179 228 289 346 413
#     4  11  23  44  68 102 135 183 235 279 352 408
#     4  10  20  40  70 100 128 174 228 286 328 418
#     4  12  24  43  70  99 141 184 231 284 344 419
#     4  12  25  44  67  99 133 185 233 276 341 410
#     4  12  27  44  69  99 139 182 231 283 343 421
#
# _framework density 23.879835
#
# number of rings (size 3 to 8) (size 9 to 14) (size 15 to 20)
#    0.000    0.533    5.333    2.000    7.467    0.533 
#    0.000    0.000    0.000    6.400    0.000    0.000 
#    0.000    0.000    0.000    0.000    0.000    0.000 
#
# Total GULP energy -83514.667200 kJ/mol
# GULP energy per Si atom -5567.644480 kJ/mol
# Density = 2.382548 g / cm^3
# Si number density = 23.879835 Si / 1000 Ang^3
#
#
#
# Elastic Constant Matrix: (Units=GPa)
#
#
# Indices 1 2 3 4 5 6 
#
# 1 122.4584 2.7452 33.2008 -10.1933 -14.0101 -21.5167
# 2 2.7452 41.7765 -13.2599 2.1386 -5.0731 -9.6352
# 3 33.2008 -13.2599 83.4947 -1.5328 -35.1838 -2.1345
# 4 -10.1933 2.1386 -1.5328 28.0596 0.8618 10.2458
# 5 -14.0101 -5.0731 -35.1838 0.8618 50.2626 -5.8075
# 6 -21.5167 -9.6352 -2.1345 10.2458 -5.8075 37.3159
#
#
#
# Elastic Compliance Matrix: (Units=1/GPa)
#
#
# Indices 1 2 3 4 5 6 
#
# 1 0.010339 -0.000633 -0.003710 0.001658 0.000800 0.005255
# 2 -0.000633 0.031969 0.010563 -0.006935 0.011981 0.012263
# 3 -0.003710 0.010563 0.021981 -0.003372 0.016086 0.005275
# 4 0.001658 -0.006935 -0.003372 0.041549 -0.004835 -0.013188
# 5 0.000800 0.011981 0.016086 -0.004835 0.033952 0.011086
# 6 0.005255 0.012263 0.005275 -0.013188 0.011086 0.038643
#
#
# Mechanical properties :
#
#
# Convention : Reuss Voigt Hill
#
# Bulk Modulus (GPa) = 13.03248 32.56687 22.79967
# Shear Modulus (GPa) = 26.10035 38.13053 32.11544
#
# Velocity S-wave (km/s) = 3.30962 4.00029 3.67123
# Velocity P-wave (km/s) = 4.48042 5.91641 5.24776
#
# Compressibility (1/GPa) = 0.07673137
#
# Stress axis : x y z
#
# Youngs Moduli (GPa) = 96.72199 31.27992 45.49377
#
# Poissons Ratio (x) = 0.01979 0.16877
# Poissons Ratio (y) = 0.06118 -0.48056
# Poissons Ratio (z) = 0.35881 -0.33042
#
# Static dielectric constant tensor:
#      x y z
#    x 1.846790 0.106130 0.020870 
#    y 0.106130 2.127800 0.043590 
#    z 0.020870 0.043590 1.949540 
# 
# From -- ./inp_files/177157.got.cif
#   From: 2010.05.17/outbox.cif.g08.bks.cpg/sg2_89_cif.got.tgz:177157.got - 2010.06.03 11:33:40.
