data_PCOD9108294
_publ_section_title
;
Structure prediction by ZEFSAII (Michael W. Deem and Ramdas Pophale) SiO2 
 PCOD9108294
Probable space group: P -1
;
_chemical_formula_sum "Si O2"
_cell_formula_units_Z 12
_cell_length_a 5.863058
_cell_length_b 7.741719
_cell_length_c 15.308621
_cell_angle_alpha 61.469757
_cell_angle_beta 131.810463
_cell_angle_gamma 120.475091
_cell_volume 435.712859
_symmetry_space_group_name_H-M "P -1"
_symmetry_group_IT_number 2
_symmetry_cell_setting 'triclinic'
loop_
_space_group_symop_operation_xyz
x,y,z
-x,-y,-z
loop_
_atom_site_type_symbol
_atom_site_label
_atom_site_fract_x
_atom_site_fract_y
_atom_site_fract_z
Si Si1 0.672956 0.219266 0.070974
Si Si2 0.745174 0.555880 0.153176
Si Si3 0.373466 0.826680 0.183293
Si Si4 0.240741 0.124353 0.313453
Si Si5 0.173363 0.877581 0.634717
Si Si6 0.079233 0.366310 0.631432
O O1 0.653352 0.349479 0.123663
O O2 0.558517 0.356162 0.938180
O O3 0.550480 0.011120 0.915530
O O4 0.022466 0.187016 0.167950
O O5 0.931749 0.553887 0.291556
O O6 0.002601 0.723825 0.122345
O O7 0.545772 0.968545 0.273694
O O8 0.562751 0.655934 0.276218
O O9 0.602342 0.202845 0.356046
O O10 0.117646 0.210987 0.348614
O O11 0.135565 0.875844 0.362305
O O12 0.000000 0.000000 0.500000
O O13 0.000000 0.500000 0.500000
#
# Coordination Sequence:
#
# PCOD9108294 Si02
#       6
#     2   2   2   2   2   2
#     4   9  23  42  72 102 132 181 238 291 354 427
#     4  11  21  47  67  99 139 179 237 292 356 417
#     4  10  23  44  64 101 132 184 229 289 363 411
#     4  10  22  44  65 103 136 188 234 290 365 413
#     4  10  20  40  67  97 137 184 236 281 349 429
#     4  10  23  42  64  98 139 182 238 286 351 428
#
# _framework density 27.541072
#
# number of rings (size 3 to 8) (size 9 to 14) (size 15 to 20)
#    0.000    2.333    1.667    1.000    0.000    8.667 
#   24.000    1.667    0.000    0.000    0.000    0.000 
#    0.000    0.000    0.000    0.000    0.000    0.000 
#
# Total GULP energy -67055.324281 kJ/mol
# GULP energy per Si atom -5587.943690 kJ/mol
# Density = 2.747839 g / cm^3
# Si number density = 27.541072 Si / 1000 Ang^3
#
#
#
# Elastic Constant Matrix: (Units=GPa)
#
#
# Indices 1 2 3 4 5 6 
#
# 1 161.3957 44.9671 48.6989 -11.9584 13.2850 -5.3805
# 2 44.9671 131.6825 57.3685 -14.7263 -3.4395 -6.0416
# 3 48.6989 57.3685 165.5633 -39.3347 -5.1236 -8.8133
# 4 -11.9584 -14.7263 -39.3347 49.5619 -15.5762 -3.2577
# 5 13.2850 -3.4395 -5.1236 -15.5762 48.2743 -0.7165
# 6 -5.3805 -6.0416 -8.8133 -3.2577 -0.7165 45.1293
#
#
#
# Elastic Compliance Matrix: (Units=1/GPa)
#
#
# Indices 1 2 3 4 5 6 
#
# 1 0.007441 -0.001917 -0.001864 -0.001104 -0.002736 0.000143
# 2 -0.001917 0.009469 -0.002447 0.000835 0.001222 0.000641
# 3 -0.001864 -0.002447 0.009484 0.007687 0.003854 0.001918
# 4 -0.001104 0.000835 0.007687 0.029934 0.010894 0.003815
# 5 -0.002736 0.001222 0.003854 0.010894 0.025506 0.001781
# 6 0.000143 0.000641 0.001918 0.003815 0.001781 0.022940
#
#
# Mechanical properties :
#
#
# Convention : Reuss Voigt Hill
#
# Bulk Modulus (GPa) = 71.74462 84.52338 78.13400
# Shear Modulus (GPa) = 41.02551 49.10023 45.06287
#
# Velocity S-wave (km/s) = 3.86374 4.22690 4.04939
# Velocity P-wave (km/s) = 6.78316 7.38775 7.09190
#
# Compressibility (1/GPa) = 0.01393833
#
# Stress axis : x y z
#
# Youngs Moduli (GPa) = 134.39691 105.60239 105.44325
#
# Poissons Ratio (x) = 0.20247 0.19650
# Poissons Ratio (y) = 0.25768 0.25801
# Poissons Ratio (z) = 0.25045 0.25840
#
# Static dielectric constant tensor:
#      x y z
#    x 2.231400 -0.115810 -0.030190 
#    y -0.115810 2.221820 -0.034720 
#    z -0.030190 -0.034720 2.226330 
# 
# From -- ./inp_files/479772.got.cif
#   From: 2010.05.17/outbox.cif.g08.bks.cpg/sg2_240_cif.got.tgz:479772.got - 2010.06.03 11:33:40.
