data_PCOD9108585
_publ_section_title
;
Structure prediction by ZEFSAII (Michael W. Deem and Ramdas Pophale) SiO2 
 PCOD9108585
Probable space group: P -1
;
_chemical_formula_sum "Si O2"
_cell_formula_units_Z 14
_cell_length_a 9.351838
_cell_length_b 8.331626
_cell_length_c 9.829935
_cell_angle_alpha 73.952398
_cell_angle_beta 115.165731
_cell_angle_gamma 111.013071
_cell_volume 640.109041
_symmetry_space_group_name_H-M "P -1"
_symmetry_group_IT_number 2
_symmetry_cell_setting 'triclinic'
loop_
_space_group_symop_operation_xyz
x,y,z
-x,-y,-z
loop_
_atom_site_type_symbol
_atom_site_label
_atom_site_fract_x
_atom_site_fract_y
_atom_site_fract_z
Si Si1 0.453272 0.117161 0.332094
Si Si2 0.055965 0.184463 0.901718
Si Si3 0.834135 0.456619 0.028994
Si Si4 0.117717 0.270497 0.610251
Si Si5 0.408460 0.298283 0.516436
Si Si6 0.187393 0.664743 0.649450
Si Si7 0.297965 0.804806 0.191622
O O1 0.363014 0.228890 0.361455
O O2 0.625291 0.232439 0.319943
O O3 0.500000 0.000000 0.500000
O O4 0.353263 0.013312 0.188676
O O5 0.183264 0.350179 0.988134
O O6 0.116735 0.172136 0.775618
O O7 0.885327 0.243686 0.806985
O O8 0.000000 0.000000 0.000000
O O9 0.852377 0.372882 0.200382
O O10 0.712732 0.305336 0.925290
O O11 0.000000 0.500000 0.000000
O O12 0.250088 0.246982 0.560804
O O13 0.162825 0.477099 0.613176
O O14 0.934343 0.232682 0.485470
O O15 0.500000 0.500000 0.500000
O O16 0.556098 0.236272 0.656589
#
# Coordination Sequence:
#
# PCOD9108585 Si02
#       7
#     2   2   2   2   2   2   2
#     4  10  21  40  60  95 133 170 208 271 330 374
#     4  10  22  45  68  95 131 173 218 265 332 392
#     4   9  21  41  67  93 124 176 220 261 331 390
#     4  10  21  39  69 100 128 165 224 271 324 391
#     4  11  22  38  67 101 128 168 219 271 333 384
#     4  10  20  40  69  95 129 173 218 271 326 388
#     4  10  23  44  62  89 140 168 217 267 326 386
#
# _framework density 21.871272000000001
#
# number of rings (size 3 to 8) (size 9 to 14) (size 15 to 20)
#    0.000    2.000    1.429    1.714    6.000    1.714 
#   15.429    5.000    0.000    0.000    0.000    0.000 
#    0.000    0.000    0.000    0.000    0.000    0.000 
#
# Total GULP energy -77988.679054 kJ/mol
# GULP energy per Si atom -5570.619932 kJ/mol
# Density = 2.182149 g / cm^3
# Si number density = 21.871272 Si / 1000 Ang^3
#
#
#
# Elastic Constant Matrix: (Units=GPa)
#
#
# Indices 1 2 3 4 5 6 
#
# 1 111.0249 23.0362 41.6680 5.5843 -22.2915 8.9959
# 2 23.0362 104.1644 62.7781 28.2888 -22.2252 5.1094
# 3 41.6680 62.7781 103.8443 19.6301 -23.4951 -2.9460
# 4 5.5843 28.2888 19.6301 44.7669 6.7245 -3.0247
# 5 -22.2915 -22.2252 -23.4951 6.7245 34.8924 -3.8411
# 6 8.9959 5.1094 -2.9460 -3.0247 -3.8411 28.5586
#
#
#
# Elastic Compliance Matrix: (Units=1/GPa)
#
#
# Indices 1 2 3 4 5 6 
#
# 1 0.011822 0.001985 -0.004371 -0.001953 0.005815 -0.003955
# 2 0.001985 0.019402 -0.008567 -0.010482 0.009346 -0.004833
# 3 -0.004371 -0.008567 0.018356 -0.002514 0.005172 0.005232
# 4 -0.001953 -0.010482 -0.002514 0.032889 -0.015557 0.003622
# 5 0.005815 0.009346 0.005172 -0.015557 0.044965 0.001430
# 6 -0.003955 -0.004833 0.005232 0.003622 0.001430 0.038242
#
#
# Mechanical properties :
#
#
# Convention : Reuss Voigt Hill
#
# Bulk Modulus (GPa) = 36.13459 63.77757 49.95608
# Shear Modulus (GPa) = 25.40559 34.41369 29.90964
#
# Velocity S-wave (km/s) = 3.41192 3.97100 3.70203
# Velocity P-wave (km/s) = 5.66383 7.08864 6.41591
#
# Compressibility (1/GPa) = 0.02767432
#
# Stress axis : x y z
#
# Youngs Moduli (GPa) = 84.59057 51.54022 54.47678
#
# Poissons Ratio (x) = -0.10230 0.23811
# Poissons Ratio (y) = -0.16790 0.46670
# Poissons Ratio (z) = 0.36973 0.44155
#
# Static dielectric constant tensor:
#      x y z
#    x 1.950040 -0.460410 0.151520 
#    y -0.460410 2.837240 -0.275760 
#    z 0.151520 -0.275760 1.929570 
# 
# From -- ./inp_files/158192.got.cif
#   From: 2010.05.17/outbox.cif.g08.bks.cpg/sg2_80_cif.got.tgz:158192.got - 2010.06.03 11:33:40.
