data_PCOD9108021
_publ_section_title
;
Structure prediction by ZEFSAII (Michael W. Deem and Ramdas Pophale) SiO2 
 PCOD9108021
Probable space group: P -1
;
_chemical_formula_sum "Si O2"
_cell_formula_units_Z 15
_cell_length_a 21.760125
_cell_length_b 10.617222
_cell_length_c 14.263827
_cell_angle_alpha 147.091394
_cell_angle_beta 19.815094
_cell_angle_gamma 144.199936
_cell_volume 602.871080
_symmetry_space_group_name_H-M "P -1"
_symmetry_group_IT_number 2
_symmetry_cell_setting 'triclinic'
loop_
_space_group_symop_operation_xyz
x,y,z
-x,-y,-z
loop_
_atom_site_type_symbol
_atom_site_label
_atom_site_fract_x
_atom_site_fract_y
_atom_site_fract_z
Si Si1 0.599169 0.909427 0.588800
Si Si2 0.341108 0.713964 0.673125
Si Si3 0.000000 0.000000 0.000000
Si Si4 0.925817 0.492685 0.730409
Si Si5 0.672522 0.364856 0.554682
Si Si6 0.466112 0.729690 0.855640
Si Si7 0.314030 0.587729 0.226511
Si Si8 0.986845 0.271348 0.706091
O O1 0.495976 0.855968 0.604362
O O2 0.500860 0.734615 0.696530
O O3 0.582664 0.173731 0.811440
O O4 0.816564 0.906585 0.270647
O O5 0.320491 0.796635 0.647016
O O6 0.404824 0.456500 0.409743
O O7 0.154323 0.705189 0.992986
O O8 0.056648 0.228315 0.127326
O O9 0.923336 0.390183 0.776407
O O10 0.124501 0.449752 0.379646
O O11 0.737424 0.371547 0.886440
O O12 0.739582 0.303878 0.525000
O O13 0.814831 0.593147 0.473275
O O14 0.466038 0.413235 0.900611
O O15 0.500000 0.000000 0.000000
O O16 0.000000 0.000000 0.500000
#
# Coordination Sequence:
#
# PCOD9108021 Si02
#       8
#     2   2   1   2   2   2   2   2
#     4  11  21  40  64  91 131 174 223 283 340 396
#     4  12  23  39  68 100 138 173 232 285 346 414
#     4  10  20  40  66  94 132 176 224 276 342 414
#     4  10  21  42  68 100 130 184 230 278 355 403
#     4  10  22  41  61  96 132 181 228 275 340 407
#     4  12  25  42  68 105 138 176 231 288 349 416
#     4   9  21  42  67  88 137 179 222 280 337 410
#     4  11  23  40  69  96 138 180 233 290 347 410
#
# _framework density 24.880941
#
# number of rings (size 3 to 8) (size 9 to 14) (size 15 to 20)
#    0.000    1.333    2.667    3.200    1.867    0.533 
#    2.400    2.000    0.000    0.000    0.000    0.000 
#    0.000    0.000    0.000    0.000    0.000    0.000 
#
# Total GULP energy -83526.203978 kJ/mol
# GULP energy per Si atom -5568.413599 kJ/mol
# Density = 2.482431 g / cm^3
# Si number density = 24.880941 Si / 1000 Ang^3
#
#
#
# Elastic Constant Matrix: (Units=GPa)
#
#
# Indices 1 2 3 4 5 6 
#
# 1 90.2060 35.5041 18.5728 -9.3773 29.7711 8.0838
# 2 35.5041 154.2959 47.1440 -23.1405 0.1607 30.5941
# 3 18.5728 47.1440 98.9953 -27.2022 12.1902 14.2390
# 4 -9.3773 -23.1405 -27.2022 51.9362 -2.5916 4.6063
# 5 29.7711 0.1607 12.1902 -2.5916 32.7607 -8.3974
# 6 8.0838 30.5941 14.2390 4.6063 -8.3974 36.5391
#
#
#
# Elastic Compliance Matrix: (Units=1/GPa)
#
#
# Indices 1 2 3 4 5 6 
#
# 1 0.019584 -0.003242 0.002262 0.002931 -0.020323 -0.007540
# 2 -0.003242 0.009705 -0.002590 0.003058 0.002513 -0.006208
# 3 0.002262 -0.002590 0.015051 0.007329 -0.008901 -0.007167
# 4 0.002931 0.003058 0.007329 0.025629 -0.006122 -0.010703
# 5 -0.020323 0.002513 -0.008901 -0.006122 0.056858 0.019700
# 6 -0.007540 -0.006208 -0.007167 -0.010703 0.019700 0.042904
#
#
# Mechanical properties :
#
#
# Convention : Reuss Voigt Hill
#
# Bulk Modulus (GPa) = 26.88048 60.65989 43.77019
# Shear Modulus (GPa) = 26.41727 40.39895 33.40811
#
# Velocity S-wave (km/s) = 3.26198 4.03388 3.66829
# Velocity P-wave (km/s) = 5.00145 6.79185 5.96421
#
# Compressibility (1/GPa) = 0.03720171
#
# Stress axis : x y z
#
# Youngs Moduli (GPa) = 51.06299 103.03707 66.43941
#
# Poissons Ratio (x) = 0.33401 -0.15030
# Poissons Ratio (y) = 0.16553 0.17206
# Poissons Ratio (z) = -0.11551 0.26684
#
# Static dielectric constant tensor:
#      x y z
#    x 2.192990 -0.002770 -0.016500 
#    y -0.002770 1.984300 0.033070 
#    z -0.016500 0.033070 2.028770 
# 
# From -- ./inp_files/542905.got.cif
#   From: 2010.05.17/outbox.cif.g08.bks.cpg/sg2_272_cif.got.tgz:542905.got - 2010.06.03 11:33:40.
