data_PCOD9108255
_publ_section_title
;
Structure prediction by ZEFSAII (Michael W. Deem and Ramdas Pophale) SiO2 
 PCOD9108255
Probable space group: P -1
;
_chemical_formula_sum "Si O2"
_cell_formula_units_Z 16
_cell_length_a 11.633079
_cell_length_b 9.717514
_cell_length_c 14.635854
_cell_angle_alpha 55.248094
_cell_angle_beta 120.309052
_cell_angle_gamma 75.163251
_cell_volume 753.647740
_symmetry_space_group_name_H-M "P -1"
_symmetry_group_IT_number 2
_symmetry_cell_setting 'triclinic'
loop_
_space_group_symop_operation_xyz
x,y,z
-x,-y,-z
loop_
_atom_site_type_symbol
_atom_site_label
_atom_site_fract_x
_atom_site_fract_y
_atom_site_fract_z
Si Si1 0.470100 0.833816 0.526248
Si Si2 0.288454 0.449150 0.967155
Si Si3 0.589283 0.730471 0.123532
Si Si4 0.902014 0.242120 0.927197
Si Si5 0.838234 0.985073 0.517329
Si Si6 0.736587 0.219941 0.044095
Si Si7 0.179272 0.242632 0.107912
Si Si8 0.003193 0.193655 0.540620
O O1 0.679053 0.533498 0.701282
O O2 0.500000 0.000000 0.500000
O O3 0.359632 0.862194 0.559357
O O4 0.315769 0.988695 0.320574
O O5 0.384581 0.332640 0.950284
O O6 0.352882 0.555937 0.005334
O O7 0.040340 0.706594 0.751018
O O8 0.312321 0.262343 0.109408
O O9 0.814824 0.504660 0.346913
O O10 0.432940 0.733520 0.090481
O O11 0.500000 0.000000 0.000000
O O12 0.866270 0.202873 0.029733
O O13 0.059808 0.244791 0.986874
O O14 0.000000 0.000000 0.000000
O O15 0.838623 0.926657 0.434255
O O16 0.885526 0.136384 0.484530
O O17 0.881120 0.958675 0.261904
O O18 0.000000 0.500000 0.000000
#
# Coordination Sequence:
#
# PCOD9108255 Si02
#       8
#     2   2   2   2   2   2   2   2
#     4  12  22  39  68  98 129 173 216 264 326 387
#     4  10  20  40  67  95 127 165 214 268 309 375
#     4  11  25  40  60  95 133 163 204 266 327 380
#     4  12  28  44  64  98 137 172 215 277 333 383
#     4   9  17  35  64  94 122 155 209 267 307 368
#     4  11  22  43  67  87 122 170 219 257 314 391
#     4  12  21  43  68  97 130 170 223 268 314 391
#     4   9  20  38  63  89 119 163 205 259 318 370
#
# _framework density 21.230077999999999
#
# number of rings (size 3 to 8) (size 9 to 14) (size 15 to 20)
#    0.000    1.250    3.750    2.625    1.750    3.000 
#    2.250    0.000    0.000    0.000    0.000    0.000 
#    0.000    0.000    0.000    0.000    0.000    0.000 
#
# Total GULP energy -89455.116714 kJ/mol
# GULP energy per Si atom -5590.944795 kJ/mol
# Density = 2.118176 g / cm^3
# Si number density = 21.230078 Si / 1000 Ang^3
#
#
#
# Elastic Constant Matrix: (Units=GPa)
#
#
# Indices 1 2 3 4 5 6 
#
# 1 80.3742 8.8606 10.2164 -9.9517 -3.0384 4.6743
# 2 8.8606 75.2557 28.5159 -29.7336 1.8390 13.1286
# 3 10.2164 28.5159 143.6129 -20.8285 -12.4989 -5.8734
# 4 -9.9517 -29.7336 -20.8285 31.7582 -1.8587 -4.7647
# 5 -3.0384 1.8390 -12.4989 -1.8587 29.6239 7.1707
# 6 4.6743 13.1286 -5.8734 -4.7647 7.1707 26.6797
#
#
#
# Elastic Compliance Matrix: (Units=1/GPa)
#
#
# Indices 1 2 3 4 5 6 
#
# 1 0.013163 0.000651 -0.000379 0.004230 0.002020 -0.002497
# 2 0.000651 0.023107 -0.002118 0.019189 0.001076 -0.008813
# 3 -0.000379 -0.002118 0.008385 0.004007 0.003202 0.002810
# 4 0.004230 0.019189 0.004007 0.053528 0.004523 -0.000958
# 5 0.002020 0.001076 0.003202 0.004523 0.037841 -0.009541
# 6 -0.002497 -0.008813 0.002810 -0.000958 -0.009541 0.045268
#
#
# Mechanical properties :
#
#
# Convention : Reuss Voigt Hill
#
# Bulk Modulus (GPa) = 24.41153 43.82540 34.11846
# Shear Modulus (GPa) = 25.17131 34.38903 29.78017
#
# Velocity S-wave (km/s) = 3.44705 4.02907 3.74937
# Velocity P-wave (km/s) = 5.23129 6.50634 5.90334
#
# Compressibility (1/GPa) = 0.04096426
#
# Stress axis : x y z
#
# Youngs Moduli (GPa) = 75.96786 43.27714 119.25572
#
# Poissons Ratio (x) = -0.02818 0.04515
# Poissons Ratio (y) = -0.04946 0.25260
# Poissons Ratio (z) = 0.02876 0.09167
#
# Static dielectric constant tensor:
#      x y z
#    x 1.765430 -0.056640 0.047920 
#    y -0.056640 1.519210 0.211290 
#    z 0.047920 0.211290 1.693440 
# 
# From -- ./inp_files/515226.got.cif
#   From: 2010.05.17/outbox.cif.g08.bks.cpg/sg2_258_cif.got.tgz:515226.got - 2010.06.03 11:33:40.
