data_PCOD9108133
_publ_section_title
;
Structure prediction by ZEFSAII (Michael W. Deem and Ramdas Pophale) SiO2 
 PCOD9108133
Probable space group: P -1
;
_chemical_formula_sum "Si O2"
_cell_formula_units_Z 15
_cell_length_a 9.636147
_cell_length_b 16.585767
_cell_length_c 6.067761
_cell_angle_alpha 76.617797
_cell_angle_beta 98.173446
_cell_angle_gamma 137.584891
_cell_volume 635.735711
_symmetry_space_group_name_H-M "P -1"
_symmetry_group_IT_number 2
_symmetry_cell_setting 'triclinic'
loop_
_space_group_symop_operation_xyz
x,y,z
-x,-y,-z
loop_
_atom_site_type_symbol
_atom_site_label
_atom_site_fract_x
_atom_site_fract_y
_atom_site_fract_z
Si Si1 0.547300 0.242856 0.517221
Si Si2 0.000000 0.000000 0.000000
Si Si3 0.009653 0.189914 0.675360
Si Si4 0.590213 0.612032 0.098205
Si Si5 0.786098 0.458075 0.722663
Si Si6 0.194309 0.690364 0.849743
Si Si7 0.332028 0.862773 0.128845
Si Si8 0.173411 0.171799 0.327899
O O1 0.721736 0.386920 0.524826
O O2 0.599959 0.229068 0.299531
O O3 0.558792 0.172279 0.732795
O O4 0.329966 0.193140 0.514491
O O5 0.947504 0.946071 0.770564
O O6 0.019386 0.909642 0.139243
O O7 0.043525 0.180423 0.435181
O O8 0.814721 0.161903 0.704303
O O9 0.216441 0.322062 0.739176
O O10 0.674838 0.715920 0.878628
O O11 0.500000 0.500000 0.000000
O O12 0.405024 0.569789 0.224830
O O13 0.996724 0.599572 0.703509
O O14 0.806925 0.389797 0.939203
O O15 0.196724 0.771896 0.950700
O O16 0.500000 0.000000 0.000000
#
# Coordination Sequence:
#
# PCOD9108133 Si02
#       8
#     2   1   2   2   2   2   2   2
#     4  11  23  43  74 100 133 179 233 280 338 414
#     4  10  26  44  74  94 136 174 234 284 338 408
#     4  11  25  46  68 101 135 182 229 282 346 409
#     4  11  23  41  68 100 144 177 226 283 341 405
#     4  10  20  40  67 102 134 180 224 278 337 403
#     4  10  22  42  67  97 142 179 226 276 339 400
#     4  11  28  45  67 101 140 181 228 283 344 401
#     4  11  24  46  72 102 130 184 233 279 346 407
#
# _framework density 23.594709999999999
#
# number of rings (size 3 to 8) (size 9 to 14) (size 15 to 20)
#    0.000    1.333    2.667    1.600    3.733    4.267 
#    2.400    0.000    0.000    0.000    0.000    0.000 
#    0.000    0.000    0.000    0.000    0.000    0.000 
#
# Total GULP energy -83722.528140 kJ/mol
# GULP energy per Si atom -5581.501876 kJ/mol
# Density = 2.354101 g / cm^3
# Si number density = 23.594710 Si / 1000 Ang^3
#
#
#
# Elastic Constant Matrix: (Units=GPa)
#
#
# Indices 1 2 3 4 5 6 
#
# 1 98.9803 26.6249 32.2374 10.9443 -24.5995 8.9878
# 2 26.6249 107.4699 25.3472 22.7963 -11.5600 -6.5821
# 3 32.2374 25.3472 51.5607 29.8110 -13.3094 -5.0040
# 4 10.9443 22.7963 29.8110 42.1746 -6.5801 -6.7583
# 5 -24.5995 -11.5600 -13.3094 -6.5801 40.1874 0.8916
# 6 8.9878 -6.5821 -5.0040 -6.7583 0.8916 26.4157
#
#
#
# Elastic Compliance Matrix: (Units=1/GPa)
#
#
# Indices 1 2 3 4 5 6 
#
# 1 0.015803 -0.002111 -0.010264 0.004190 0.006508 -0.006995
# 2 -0.002111 0.011243 -0.001480 -0.004016 0.000745 0.002187
# 3 -0.010264 -0.001480 0.042408 -0.025296 0.003093 0.004581
# 4 0.004190 -0.004016 -0.025296 0.043298 0.000036 0.003858
# 5 0.006508 0.000745 0.003093 0.000036 0.030166 -0.002452
# 6 -0.006995 0.002187 0.004581 0.003858 -0.002452 0.042719
#
#
# Mechanical properties :
#
#
# Convention : Reuss Voigt Hill
#
# Bulk Modulus (GPa) = 23.95647 47.38110 35.66878
# Shear Modulus (GPa) = 22.00083 33.34232 27.67158
#
# Velocity S-wave (km/s) = 3.05691 3.76324 3.42831
# Velocity P-wave (km/s) = 4.75762 6.24559 5.55169
#
# Compressibility (1/GPa) = 0.04174238
#
# Stress axis : x y z
#
# Youngs Moduli (GPa) = 63.27765 88.94286 23.58045
#
# Poissons Ratio (x) = 0.18780 0.24204
# Poissons Ratio (y) = 0.13361 0.03491
# Poissons Ratio (z) = 0.64950 0.13166
#
# Static dielectric constant tensor:
#      x y z
#    x 1.855820 0.025370 0.029230 
#    y 0.025370 1.885570 -0.005400 
#    z 0.029230 -0.005400 1.925300 
# 
# From -- ./inp_files/38820.got.cif
#   From: 2010.05.17/outbox.cif.g08.bks.cpg/sg2_20_cif.got.tgz:38820.got - 2010.06.03 11:33:40.
