data_PCOD9108849
_publ_section_title
;
Structure prediction by ZEFSAII (Michael W. Deem and Ramdas Pophale) SiO2 
 PCOD9108849
Probable space group: P -1
;
_chemical_formula_sum "Si O2"
_cell_formula_units_Z 15
_cell_length_a 11.970229
_cell_length_b 12.523807
_cell_length_c 11.856077
_cell_angle_alpha 124.210916
_cell_angle_beta 131.761191
_cell_angle_gamma 30.678593
_cell_volume 676.188224
_symmetry_space_group_name_H-M "P -1"
_symmetry_group_IT_number 2
_symmetry_cell_setting 'triclinic'
loop_
_space_group_symop_operation_xyz
x,y,z
-x,-y,-z
loop_
_atom_site_type_symbol
_atom_site_label
_atom_site_fract_x
_atom_site_fract_y
_atom_site_fract_z
Si Si1 0.110715 0.528039 0.747847
Si Si2 0.383854 0.218679 0.552836
Si Si3 0.741973 0.104705 0.100012
Si Si4 0.909796 0.705544 0.954547
Si Si5 0.297579 0.759899 0.290702
Si Si6 0.637804 0.648146 0.805728
Si Si7 0.500000 0.500000 0.500000
Si Si8 0.783234 0.248838 0.018506
O O1 0.321325 0.313469 0.692580
O O2 0.134884 0.667164 0.831444
O O3 0.867279 0.631266 0.593141
O O4 0.071021 0.541670 0.862581
O O5 0.560064 0.202794 0.604449
O O6 0.500000 0.000000 0.500000
O O7 0.556774 0.219561 0.146086
O O8 0.641735 0.267387 0.031984
O O9 0.007520 0.976193 0.243251
O O10 0.805316 0.918285 0.986421
O O11 0.693406 0.755119 0.865442
O O12 0.097684 0.581532 0.110926
O O13 0.410001 0.595209 0.365475
O O14 0.320947 0.677208 0.133897
O O15 0.539334 0.626501 0.627229
O O16 0.000000 0.000000 0.000000
#
# Coordination Sequence:
#
# PCOD9108849 Si02
#       8
#     2   2   2   2   2   2   1   2
#     4  11  23  43  70 100 145 183 229 293 363 422
#     4  11  26  43  66 107 144 187 232 292 364 426
#     4  11  23  44  74 105 138 181 243 300 353 417
#     4  11  23  47  67 105 134 187 244 290 350 433
#     4  11  24  45  71 102 145 184 236 293 355 425
#     4  11  26  43  73  97 142 190 238 293 354 418
#     4  12  24  48  62 102 146 186 234 290 342 438
#     4  10  20  40  73 106 140 177 234 301 350 421
#
# _framework density 22.183173
#
# number of rings (size 3 to 8) (size 9 to 14) (size 15 to 20)
#    0.000    1.067    4.000    2.800    3.733    1.067 
#    2.400    1.333    0.000    0.000    0.000    0.000 
#    0.000    0.000    0.000    0.000    0.000    0.000 
#
# Total GULP energy -83588.061822 kJ/mol
# GULP energy per Si atom -5572.537455 kJ/mol
# Density = 2.213268 g / cm^3
# Si number density = 22.183173 Si / 1000 Ang^3
#
#
#
# Elastic Constant Matrix: (Units=GPa)
#
#
# Indices 1 2 3 4 5 6 
#
# 1 164.1328 30.6231 70.4667 -1.0306 22.1886 -13.4754
# 2 30.6231 87.7188 41.5871 10.3125 12.2285 -12.2236
# 3 70.4667 41.5871 126.5300 22.2451 14.4555 7.0493
# 4 -1.0306 10.3125 22.2451 29.8408 7.4446 0.3719
# 5 22.1886 12.2285 14.4555 7.4446 50.4976 -6.5588
# 6 -13.4754 -12.2236 7.0493 0.3719 -6.5588 20.2137
#
#
#
# Elastic Compliance Matrix: (Units=1/GPa)
#
#
# Indices 1 2 3 4 5 6 
#
# 1 0.010075 0.000699 -0.007098 0.005860 -0.002290 0.008764
# 2 0.000699 0.015895 -0.006031 -0.000938 -0.000738 0.011959
# 3 -0.007098 -0.006031 0.016459 -0.010138 -0.000467 -0.014083
# 4 0.005860 -0.000938 -0.010138 0.042835 -0.005188 0.004403
# 5 -0.002290 -0.000738 -0.000467 -0.005188 0.022617 0.005624
# 6 0.008764 0.011959 -0.014083 0.004403 0.005624 0.069201
#
#
# Mechanical properties :
#
#
# Convention : Reuss Voigt Hill
#
# Bulk Modulus (GPa) = 56.91347 73.74837 65.33092
# Shear Modulus (GPa) = 24.06203 35.82405 29.94304
#
# Velocity S-wave (km/s) = 3.29705 4.02297 3.67796
# Velocity P-wave (km/s) = 6.34081 7.40921 6.89573
#
# Compressibility (1/GPa) = 0.01757053
#
# Stress axis : x y z
#
# Youngs Moduli (GPa) = 99.25229 62.91404 60.75855
#
# Poissons Ratio (x) = -0.04400 0.43125
# Poissons Ratio (y) = -0.06941 0.36641
# Poissons Ratio (z) = 0.70447 0.37941
#
# Static dielectric constant tensor:
#      x y z
#    x 1.873400 -0.007060 0.018960 
#    y -0.007060 1.864760 -0.027060 
#    z 0.018960 -0.027060 1.842760 
# 
# From -- ./inp_files/431697.got.cif
#   From: 2010.05.17/outbox.cif.g08.bks.cpg/sg2_216_cif.got.tgz:431697.got - 2010.06.03 11:33:40.
