data_PCOD9108553
_publ_section_title
;
Structure prediction by ZEFSAII (Michael W. Deem and Ramdas Pophale) SiO2 
 PCOD9108553
Probable space group: P -1
;
_chemical_formula_sum "Si O2"
_cell_formula_units_Z 14
_cell_length_a 8.794807
_cell_length_b 9.368305
_cell_length_c 15.730927
_cell_angle_alpha 44.893190
_cell_angle_beta 50.159096
_cell_angle_gamma 60.572406
_cell_volume 700.709753
_symmetry_space_group_name_H-M "P -1"
_symmetry_group_IT_number 2
_symmetry_cell_setting 'triclinic'
loop_
_space_group_symop_operation_xyz
x,y,z
-x,-y,-z
loop_
_atom_site_type_symbol
_atom_site_label
_atom_site_fract_x
_atom_site_fract_y
_atom_site_fract_z
Si Si1 0.283934 0.127802 0.390273
Si Si2 0.910225 0.019148 0.644105
Si Si3 0.308845 0.140937 0.044529
Si Si4 0.380742 0.626835 0.376945
Si Si5 0.371143 0.195148 0.648617
Si Si6 0.052396 0.933997 0.103952
Si Si7 0.375127 0.588082 0.192775
O O1 0.333520 0.356613 0.291061
O O2 0.145591 0.037451 0.550943
O O3 0.154007 0.112268 0.357292
O O4 0.479085 0.982604 0.365352
O O5 0.815444 0.249171 0.569254
O O6 0.798285 0.940201 0.799680
O O7 0.146382 0.121239 0.038317
O O8 0.406453 0.350608 0.938958
O O9 0.500000 0.000000 0.000000
O O10 0.393284 0.398357 0.501435
O O11 0.557503 0.745532 0.306441
O O12 0.369415 0.627947 0.279372
O O13 0.149386 0.129713 0.754518
O O14 0.212403 0.741202 0.139642
O O15 0.000000 0.000000 0.000000
#
# Coordination Sequence:
#
# PCOD9108553 Si02
#       7
#     2   2   2   2   2   2   2
#     4  10  24  39  65  97 131 168 201 265 323 377
#     4  10  20  42  66  91 128 169 216 249 313 387
#     4  10  21  40  66  92 119 172 215 261 302 379
#     4  10  20  40  69  90 126 162 226 250 310 371
#     4  10  23  40  63  98 128 166 204 275 312 367
#     4  11  23  39  66  93 125 164 223 263 309 367
#     4  11  23  41  68  95 121 173 212 259 316 380
#
# _framework density 19.979741000000001
#
# number of rings (size 3 to 8) (size 9 to 14) (size 15 to 20)
#    0.000    1.714    2.857    1.714    8.000    3.429 
#    0.000    0.714    0.000    0.000    0.000    0.000 
#    0.000    0.000    0.000    0.000    0.000    0.000 
#
# Total GULP energy -78116.441366 kJ/mol
# GULP energy per Si atom -5579.745812 kJ/mol
# Density = 1.993427 g / cm^3
# Si number density = 19.979741 Si / 1000 Ang^3
#
#
#
# Elastic Constant Matrix: (Units=GPa)
#
#
# Indices 1 2 3 4 5 6 
#
# 1 113.3702 48.5045 60.5471 -5.2590 -12.2437 7.7650
# 2 48.5045 102.5607 65.9655 -18.4129 -11.8031 11.9850
# 3 60.5471 65.9655 129.7501 -3.3926 -22.1993 11.3150
# 4 -5.2590 -18.4129 -3.3926 23.2646 8.1886 -0.6042
# 5 -12.2437 -11.8031 -22.1993 8.1886 48.2544 3.1857
# 6 7.7650 11.9850 11.3150 -0.6042 3.1857 14.2495
#
#
#
# Elastic Compliance Matrix: (Units=1/GPa)
#
#
# Indices 1 2 3 4 5 6 
#
# 1 0.012445 -0.003237 -0.003958 -0.000609 0.000721 -0.001103
# 2 -0.003237 0.019322 -0.007526 0.013754 -0.001389 -0.007617
# 3 -0.003958 -0.007526 0.014495 -0.006704 0.005257 -0.004483
# 4 -0.000609 0.013754 -0.006704 0.055982 -0.009278 -0.001465
# 5 0.000721 -0.001389 0.005257 -0.009278 0.025182 -0.009423
# 6 -0.001103 -0.007617 -0.004483 -0.001465 -0.009423 0.082790
#
#
# Mechanical properties :
#
#
# Convention : Reuss Voigt Hill
#
# Bulk Modulus (GPa) = 59.45613 77.30169 68.37891
# Shear Modulus (GPa) = 20.38616 28.53128 24.45872
#
# Velocity S-wave (km/s) = 3.19774 3.78300 3.50262
# Velocity P-wave (km/s) = 6.59218 7.60628 7.11732
#
# Compressibility (1/GPa) = 0.01681912
#
# Stress axis : x y z
#
# Youngs Moduli (GPa) = 80.35637 51.75509 68.98718
#
# Poissons Ratio (x) = 0.16755 0.27303
# Poissons Ratio (y) = 0.26014 0.51922
# Poissons Ratio (z) = 0.31802 0.38953
#
# Static dielectric constant tensor:
#      x y z
#    x 1.729190 0.017170 -0.001170 
#    y 0.017170 1.699720 0.004700 
#    z -0.001170 0.004700 1.746650 
# 
# From -- ./inp_files/188305.got.cif
#   From: 2010.05.17/outbox.cif.g08.bks.cpg/sg2_95_cif.got.tgz:188305.got - 2010.06.03 11:33:40.
