data_PCOD9108001
_publ_section_title
;
Structure prediction by ZEFSAII (Michael W. Deem and Ramdas Pophale) SiO2 
 PCOD9108001
Probable space group: P -1
;
_chemical_formula_sum "Si O2"
_cell_formula_units_Z 15
_cell_length_a 8.348767
_cell_length_b 8.882984
_cell_length_c 11.721231
_cell_angle_alpha 121.764097
_cell_angle_beta 84.165205
_cell_angle_gamma 73.064629
_cell_volume 671.374631
_symmetry_space_group_name_H-M "P -1"
_symmetry_group_IT_number 2
_symmetry_cell_setting 'triclinic'
loop_
_space_group_symop_operation_xyz
x,y,z
-x,-y,-z
loop_
_atom_site_type_symbol
_atom_site_label
_atom_site_fract_x
_atom_site_fract_y
_atom_site_fract_z
Si Si1 0.000000 0.500000 0.000000
Si Si2 0.451391 0.498878 0.337389
Si Si3 0.163077 0.033895 0.385682
Si Si4 0.782929 0.115039 0.183505
Si Si5 0.676227 0.420370 0.877438
Si Si6 0.081372 0.225784 0.103547
Si Si7 0.768355 0.087843 0.427498
Si Si8 0.179614 0.359212 0.373689
O O1 0.172657 0.521046 0.057511
O O2 0.989576 0.361930 0.056479
O O3 0.641236 0.332697 0.273565
O O4 0.392877 0.498287 0.210938
O O5 0.405623 0.719721 0.460717
O O6 0.325577 0.441628 0.404980
O O7 0.234783 0.154070 0.348463
O O8 0.949186 0.122734 0.437526
O O9 0.234791 0.813421 0.246399
O O10 0.215884 0.046122 0.518478
O O11 0.776342 0.023952 0.271384
O O12 0.961562 0.139700 0.149905
O O13 0.763951 0.966562 0.035153
O O14 0.500000 0.500000 0.000000
O O15 0.142275 0.337987 0.236278
O O16 0.000000 0.500000 0.500000
#
# Coordination Sequence:
#
# PCOD9108001 Si02
#       8
#     1   2   2   2   2   2   2   2
#     4  12  24  44  66  96 142 178 224 288 344 410
#     4  11  23  40  65  96 135 173 228 281 336 414
#     4  10  22  40  69  92 134 176 228 279 337 416
#     4  11  23  42  65  97 133 175 225 282 346 410
#     4  11  25  43  67 103 139 184 229 285 349 413
#     4  11  25  40  66  96 131 177 225 278 348 411
#     4  10  20  40  66  94 124 183 224 271 347 406
#     4  12  23  42  64  98 128 175 228 278 335 407
#
# _framework density 22.342220999999999
#
# number of rings (size 3 to 8) (size 9 to 14) (size 15 to 20)
#    0.000    1.067    4.000    2.000    3.733    2.667 
#    0.000    0.667    0.000    0.000    0.000    0.000 
#    0.000    0.000    0.000    0.000    0.000    0.000 
#
# Total GULP energy -83513.436977 kJ/mol
# GULP energy per Si atom -5567.562465 kJ/mol
# Density = 2.229137 g / cm^3
# Si number density = 22.342221 Si / 1000 Ang^3
#
#
#
# Elastic Constant Matrix: (Units=GPa)
#
#
# Indices 1 2 3 4 5 6 
#
# 1 34.6618 -0.1689 27.5971 -2.7486 -3.3919 -3.9841
# 2 -0.1689 64.2343 29.7792 -29.8845 -1.6675 -12.8500
# 3 27.5971 29.7792 129.4088 -15.0615 -8.3893 -16.6992
# 4 -2.7486 -29.8845 -15.0615 36.5502 -6.6236 -3.5247
# 5 -3.3919 -1.6675 -8.3893 -6.6236 26.8199 -2.8536
# 6 -3.9841 -12.8500 -16.6992 -3.5247 -2.8536 27.8644
#
#
#
# Elastic Compliance Matrix: (Units=1/GPa)
#
#
# Indices 1 2 3 4 5 6 
#
# 1 0.037138 0.009327 -0.007802 0.008884 0.005737 0.006646
# 2 0.009327 0.038725 -0.002746 0.036068 0.014142 0.023557
# 3 -0.007802 -0.002746 0.011265 0.002964 0.003642 0.005117
# 4 0.008884 0.036068 0.002964 0.065996 0.023834 0.030468
# 5 0.005737 0.014142 0.003642 0.023834 0.047771 0.017432
# 6 0.006646 0.023557 0.005117 0.030468 0.017432 0.056408
#
#
# Mechanical properties :
#
#
# Convention : Reuss Voigt Hill
#
# Bulk Modulus (GPa) = 11.80853 38.07996 24.94425
# Shear Modulus (GPa) = 17.36265 29.65340 23.50803
#
# Velocity S-wave (km/s) = 2.79072 3.64708 3.24725
# Velocity P-wave (km/s) = 3.95991 5.90050 5.02478
#
# Compressibility (1/GPa) = 0.08468452
#
# Stress axis : x y z
#
# Youngs Moduli (GPa) = 26.92683 25.82279 88.77386
#
# Poissons Ratio (x) = -0.24084 0.69265
# Poissons Ratio (y) = -0.25114 0.24376
# Poissons Ratio (z) = 0.21009 0.07090
#
# Static dielectric constant tensor:
#      x y z
#    x 1.802250 -0.003120 0.026570 
#    y -0.003120 1.875110 0.028600 
#    z 0.026570 0.028600 1.869310 
# 
# From -- ./inp_files/201957.got.cif
#   From: 2010.05.17/outbox.cif.g08.bks.cpg/sg2_101_cif.got.tgz:201957.got - 2010.06.03 11:33:40.
