data_PCOD9108495
_publ_section_title
;
Structure prediction by ZEFSAII (Michael W. Deem and Ramdas Pophale) SiO2 
 PCOD9108495
Probable space group: P -1
;
_chemical_formula_sum "Si O2"
_cell_formula_units_Z 16
_cell_length_a 9.065868
_cell_length_b 12.329647
_cell_length_c 11.702404
_cell_angle_alpha 50.224185
_cell_angle_beta 53.594810
_cell_angle_gamma 47.364123
_cell_volume 709.309582
_symmetry_space_group_name_H-M "P -1"
_symmetry_group_IT_number 2
_symmetry_cell_setting 'triclinic'
loop_
_space_group_symop_operation_xyz
x,y,z
-x,-y,-z
loop_
_atom_site_type_symbol
_atom_site_label
_atom_site_fract_x
_atom_site_fract_y
_atom_site_fract_z
Si Si1 0.975740 0.575389 0.584796
Si Si2 0.706897 0.120026 0.062821
Si Si3 0.720955 0.606875 0.986063
Si Si4 0.735034 0.952804 0.392379
Si Si5 0.923699 0.121552 0.348751
Si Si6 0.176288 0.548002 0.737389
Si Si7 0.746347 0.928150 0.958685
Si Si8 0.873728 0.351679 0.922557
O O1 0.873321 0.766675 0.488876
O O2 0.845694 0.498825 0.757855
O O3 0.000000 0.500000 0.500000
O O4 0.167393 0.526790 0.619904
O O5 0.459378 0.235784 0.092828
O O6 0.755997 0.985885 0.226954
O O7 0.803333 0.233806 0.977130
O O8 0.771177 0.047694 0.955910
O O9 0.738120 0.443956 0.033371
O O10 0.942109 0.595297 0.859998
O O11 0.683438 0.598379 0.143851
O O12 0.500000 0.000000 0.500000
O O13 0.795761 0.069440 0.356943
O O14 0.125771 0.095371 0.200224
O O15 0.800358 0.298162 0.341651
O O16 0.000000 0.000000 0.500000
O O17 0.885332 0.756467 0.074771
O O18 0.500000 0.000000 0.000000
#
# Coordination Sequence:
#
# PCOD9108495 Si02
#       8
#     2   2   2   2   2   2   2   2
#     4  11  25  42  69  98 149 190 227 295 380 422
#     4  12  25  42  73 107 145 182 252 301 358 425
#     4  10  21  39  71 102 137 178 242 294 359 416
#     4  12  26  46  74 108 145 195 242 294 367 441
#     4  12  25  46  72 103 145 192 242 295 360 440
#     4  10  20  40  68  98 134 185 237 290 348 424
#     4  12  27  44  74 108 141 190 247 310 359 420
#     4  11  23  44  71 100 142 192 239 299 355 437
#
# _framework density 22.557144999999998
#
# number of rings (size 3 to 8) (size 9 to 14) (size 15 to 20)
#    0.000    0.750    3.750    3.750    7.000    1.000 
#    0.000    0.000    0.000    3.000    0.000    0.000 
#    0.000    0.000    0.000    0.000    0.000    0.000 
#
# Total GULP energy -89383.302650 kJ/mol
# GULP energy per Si atom -5586.456416 kJ/mol
# Density = 2.250580 g / cm^3
# Si number density = 22.557145 Si / 1000 Ang^3
#
#
#
# Elastic Constant Matrix: (Units=GPa)
#
#
# Indices 1 2 3 4 5 6 
#
# 1 94.7209 27.6384 35.9415 3.3896 13.9767 20.3951
# 2 27.6384 67.0067 14.6831 -5.2314 7.7879 23.8995
# 3 35.9415 14.6831 96.8635 -17.5065 24.9643 10.6642
# 4 3.3896 -5.2314 -17.5065 39.0107 3.8650 9.4798
# 5 13.9767 7.7879 24.9643 3.8650 40.8862 1.6847
# 6 20.3951 23.8995 10.6642 9.4798 1.6847 54.5949
#
#
#
# Elastic Compliance Matrix: (Units=1/GPa)
#
#
# Indices 1 2 3 4 5 6 
#
# 1 0.014317 -0.004370 -0.004916 -0.003524 -0.000651 -0.001843
# 2 -0.004370 0.020335 0.001513 0.006210 -0.003539 -0.008534
# 3 -0.004916 0.001513 0.016519 0.009825 -0.009480 -0.003466
# 4 -0.003524 0.006210 0.009825 0.034244 -0.008843 -0.008994
# 5 -0.000651 -0.003539 -0.009480 -0.008843 0.031806 0.004198
# 6 -0.001843 -0.008534 -0.003466 -0.008994 0.004198 0.024850
#
#
# Mechanical properties :
#
#
# Convention : Reuss Voigt Hill
#
# Bulk Modulus (GPa) = 28.07074 46.12412 37.09743
# Shear Modulus (GPa) = 29.49999 38.92023 34.21011
#
# Velocity S-wave (km/s) = 3.62026 4.15831 3.89858
# Velocity P-wave (km/s) = 5.47232 6.59905 6.06192
#
# Compressibility (1/GPa) = 0.03562429
#
# Stress axis : x y z
#
# Youngs Moduli (GPa) = 69.84766 49.17673 60.53649
#
# Poissons Ratio (x) = 0.21491 0.29760
# Poissons Ratio (y) = 0.30524 -0.09159
# Poissons Ratio (z) = 0.34337 -0.07440
#
# Static dielectric constant tensor:
#      x y z
#    x 2.409860 0.181590 0.960200 
#    y 0.181590 1.913240 0.249220 
#    z 0.960200 0.249220 3.597190 
# 
# From -- ./inp_files/392000.got.cif
#   From: 2010.05.17/outbox.cif.g08.bks.cpg/sg2_196_cif.got.tgz:392000.got - 2010.06.03 11:33:40.
