data_PCOD9108113
_publ_section_title
;
Structure prediction by ZEFSAII (Michael W. Deem and Ramdas Pophale) SiO2 
 PCOD9108113
Probable space group: P -1
;
_chemical_formula_sum "Si O2"
_cell_formula_units_Z 16
_cell_length_a 6.955600
_cell_length_b 23.733327
_cell_length_c 17.525278
_cell_angle_alpha 160.706558
_cell_angle_beta 74.161349
_cell_angle_gamma 93.358160
_cell_volume 717.024230
_symmetry_space_group_name_H-M "P -1"
_symmetry_group_IT_number 2
_symmetry_cell_setting 'triclinic'
loop_
_space_group_symop_operation_xyz
x,y,z
-x,-y,-z
loop_
_atom_site_type_symbol
_atom_site_label
_atom_site_fract_x
_atom_site_fract_y
_atom_site_fract_z
Si Si1 0.821374 0.757062 0.367476
Si Si2 0.129605 0.865822 0.567239
Si Si3 0.894001 0.795871 0.088442
Si Si4 0.500311 0.400992 0.532805
Si Si5 0.552381 0.642196 0.346229
Si Si6 0.921283 0.843563 0.314604
Si Si7 0.391447 0.751542 0.827131
Si Si8 0.227475 0.399067 0.283712
O O1 0.998164 0.790161 0.436922
O O2 0.609595 0.791173 0.489811
O O3 0.749077 0.890228 0.466521
O O4 0.000000 0.500000 0.000000
O O5 0.342929 0.675305 0.355289
O O6 0.210695 0.969792 0.632986
O O7 0.910651 0.073794 0.907508
O O8 0.814293 0.827074 0.225444
O O9 0.825822 0.688583 0.896336
O O10 0.208783 0.630372 0.848949
O O11 0.534323 0.303932 0.488303
O O12 0.532743 0.245185 0.262956
O O13 0.703591 0.446604 0.556207
O O14 0.809789 0.394952 0.004496
O O15 0.000000 0.000000 0.500000
O O16 0.500000 0.500000 0.500000
O O17 0.525303 0.775408 0.913349
O O18 0.000000 0.500000 0.500000
#
# Coordination Sequence:
#
# PCOD9108113 Si02
#       8
#     2   2   2   2   2   2   2   2
#     4  10  24  47  69  94 138 175 224 281 354 401
#     4  12  23  42  67  98 140 180 224 282 341 404
#     4  11  21  38  70 102 133 177 229 277 336 398
#     4  10  21  43  63  98 142 175 225 280 322 412
#     4  10  26  42  70  98 139 181 221 273 357 400
#     4  10  21  45  73  99 132 175 230 294 332 399
#     4  10  20  40  66  99 139 175 222 286 327 397
#     4  11  20  36  68 101 129 175 228 276 331 390
#
# _framework density 22.314447000000001
#
# number of rings (size 3 to 8) (size 9 to 14) (size 15 to 20)
#    0.000    1.500    5.000    0.750    1.750    5.500 
#    0.000    2.500    0.000    0.000    0.000    0.000 
#    0.000    0.000    0.000    0.000    0.000    0.000 
#
# Total GULP energy -89315.395105 kJ/mol
# GULP energy per Si atom -5582.212194 kJ/mol
# Density = 2.226366 g / cm^3
# Si number density = 22.314447 Si / 1000 Ang^3
#
#
#
# Elastic Constant Matrix: (Units=GPa)
#
#
# Indices 1 2 3 4 5 6 
#
# 1 107.5928 73.7982 19.3087 -10.7171 16.2011 -16.6873
# 2 73.7982 223.3539 26.0466 -19.8839 9.6049 -10.4985
# 3 19.3087 26.0466 53.4769 0.4044 11.0032 -4.3724
# 4 -10.7171 -19.8839 0.4044 22.7571 -6.2625 2.4593
# 5 16.2011 9.6049 11.0032 -6.2625 37.2164 -2.9360
# 6 -16.6873 -10.4985 -4.3724 2.4593 -2.9360 45.9293
#
#
#
# Elastic Compliance Matrix: (Units=1/GPa)
#
#
# Indices 1 2 3 4 5 6 
#
# 1 0.013509 -0.003751 -0.002002 0.001705 -0.003755 0.003529
# 2 -0.003751 0.006249 -0.002006 0.004111 0.001284 -0.000263
# 3 -0.002002 -0.002006 0.021683 -0.004749 -0.005760 0.000764
# 4 0.001705 0.004111 -0.004749 0.050757 0.008055 -0.001096
# 5 -0.003755 0.001284 -0.005760 0.008055 0.031227 -0.000054
# 6 0.003529 -0.000263 0.000764 -0.001096 -0.000054 0.023122
#
#
# Mechanical properties :
#
#
# Convention : Reuss Voigt Hill
#
# Bulk Modulus (GPa) = 38.57665 69.19229 53.88447
# Shear Modulus (GPa) = 29.28985 38.86523 34.07754
#
# Velocity S-wave (km/s) = 3.62691 4.17790 3.91212
# Velocity P-wave (km/s) = 5.90462 7.37213 6.67881
#
# Compressibility (1/GPa) = 0.02592241
#
# Stress axis : x y z
#
# Youngs Moduli (GPa) = 74.02476 160.03023 46.11821
#
# Poissons Ratio (x) = 0.60024 0.09235
# Poissons Ratio (y) = 0.27765 0.09252
# Poissons Ratio (z) = 0.14823 0.32104
#
# Static dielectric constant tensor:
#      x y z
#    x 1.897360 0.050620 -0.131320 
#    y 0.050620 1.928490 -0.154360 
#    z -0.131320 -0.154360 2.189750 
# 
# From -- ./inp_files/551266.got.cif
#   From: 2010.05.17/outbox.cif.g08.bks.cpg/sg2_276_cif.got.tgz:551266.got - 2010.06.03 11:33:40.
