data_PCOD9108201
_publ_section_title
;
Structure prediction by ZEFSAII (Michael W. Deem and Ramdas Pophale) SiO2 
 PCOD9108201
Probable space group: P -1
;
_chemical_formula_sum "Si O2"
_cell_formula_units_Z 14
_cell_length_a 15.287191
_cell_length_b 21.618973
_cell_length_c 9.565173
_cell_angle_alpha 150.903921
_cell_angle_beta 32.721453
_cell_angle_gamma 152.638808
_cell_volume 675.717453
_symmetry_space_group_name_H-M "P -1"
_symmetry_group_IT_number 2
_symmetry_cell_setting 'triclinic'
loop_
_space_group_symop_operation_xyz
x,y,z
-x,-y,-z
loop_
_atom_site_type_symbol
_atom_site_label
_atom_site_fract_x
_atom_site_fract_y
_atom_site_fract_z
Si Si1 0.510006 0.857665 0.664191
Si Si2 0.968821 0.990570 0.353808
Si Si3 0.799348 0.369682 0.600912
Si Si4 0.405440 0.559222 0.351449
Si Si5 0.966176 0.252169 0.358103
Si Si6 0.480119 0.539968 0.758831
Si Si7 0.085388 0.168276 0.281083
O O1 0.739366 0.916020 0.473872
O O2 0.372692 0.771136 0.542502
O O3 0.415677 0.711335 0.605913
O O4 0.500000 0.000000 0.000000
O O5 0.029157 0.879497 0.992664
O O6 0.000000 0.000000 0.500000
O O7 0.078992 0.146602 0.414797
O O8 0.000000 0.500000 0.500000
O O9 0.829388 0.287594 0.528103
O O10 0.705326 0.456723 0.954996
O O11 0.179120 0.415570 0.380599
O O12 0.521285 0.581571 0.379856
O O13 0.500000 0.500000 0.000000
O O14 0.952972 0.213811 0.466510
O O15 0.500000 0.500000 0.500000
O O16 0.689224 0.710223 0.836323
O O17 0.000000 0.000000 0.000000
#
# Coordination Sequence:
#
# PCOD9108201 Si02
#       7
#     2   2   2   2   2   2   2
#     4  12  25  41  67 106 140 174 242 291 341 403
#     4  11  23  41  68  98 135 180 230 283 348 414
#     4  12  23  43  72 105 138 182 241 288 341 421
#     4  11  19  43  70  91 135 186 232 280 344 417
#     4  10  20  40  67  92 127 184 221 281 348 404
#     4  11  25  42  69 100 136 182 234 288 351 410
#     4   9  21  43  63  89 133 175 222 274 347 407
#
# _framework density 20.718719
#
# number of rings (size 3 to 8) (size 9 to 14) (size 15 to 20)
#    0.000    1.143    4.286    2.571    2.000    1.143 
#    2.571    5.000    0.000    0.000    0.000    0.000 
#    0.000    0.000    0.000    0.000    0.000    0.000 
#
# Total GULP energy -78011.424138 kJ/mol
# GULP energy per Si atom -5572.244581 kJ/mol
# Density = 2.067156 g / cm^3
# Si number density = 20.718719 Si / 1000 Ang^3
#
#
#
# Elastic Constant Matrix: (Units=GPa)
#
#
# Indices 1 2 3 4 5 6 
#
# 1 194.0629 34.9249 60.5093 -1.8646 -19.1696 -28.8489
# 2 34.9249 66.6803 11.9018 7.0751 -5.5755 -10.7041
# 3 60.5093 11.9018 70.2076 14.9846 2.3225 -3.2914
# 4 -1.8646 7.0751 14.9846 29.9004 -5.7394 -9.0132
# 5 -19.1696 -5.5755 2.3225 -5.7394 33.7694 0.9374
# 6 -28.8489 -10.7041 -3.2914 -9.0132 0.9374 44.3302
#
#
#
# Elastic Compliance Matrix: (Units=1/GPa)
#
#
# Indices 1 2 3 4 5 6 
#
# 1 0.011523 -0.003151 -0.011737 0.011399 0.008543 0.008004
# 2 -0.003151 0.017188 0.000751 -0.004202 0.000248 0.001296
# 3 -0.011737 0.000751 0.028500 -0.020208 -0.011678 -0.009203
# 4 0.011399 -0.004202 -0.020208 0.052918 0.015735 0.015330
# 5 0.008543 0.000248 -0.011678 0.015735 0.037782 0.007153
# 6 0.008004 0.001296 -0.009203 0.015330 0.007153 0.030362
#
#
# Mechanical properties :
#
#
# Convention : Reuss Voigt Hill
#
# Bulk Modulus (GPa) = 34.55806 60.62476 47.59141
# Shear Modulus (GPa) = 23.12756 36.50764 29.81760
#
# Velocity S-wave (km/s) = 3.34468 4.20224 3.79775
# Velocity P-wave (km/s) = 5.62420 7.27114 6.50005
#
# Compressibility (1/GPa) = 0.02893681
#
# Stress axis : x y z
#
# Youngs Moduli (GPa) = 86.78342 58.18130 35.08756
#
# Poissons Ratio (x) = 0.18331 0.41184
# Poissons Ratio (y) = 0.27342 -0.02635
# Poissons Ratio (z) = 1.01861 -0.04370
#
# Static dielectric constant tensor:
#      x y z
#    x 1.837070 -0.097920 -0.015100 
#    y -0.097920 2.495100 0.209080 
#    z -0.015100 0.209080 1.823790 
# 
# From -- ./inp_files/319536.got.cif
#   From: 2010.05.17/outbox.cif.g08.bks.cpg/sg2_160_cif.got.tgz:319536.got - 2010.06.03 11:33:40.
