data_PCOD9108692
_publ_section_title
;
Structure prediction by ZEFSAII (Michael W. Deem and Ramdas Pophale) SiO2 
 PCOD9108692
Probable space group: P -1
;
_chemical_formula_sum "Si O2"
_cell_formula_units_Z 14
_cell_length_a 14.577251
_cell_length_b 9.386478
_cell_length_c 10.026912
_cell_angle_alpha 110.019433
_cell_angle_beta 28.312946
_cell_angle_gamma 102.393357
_cell_volume 599.691008
_symmetry_space_group_name_H-M "P -1"
_symmetry_group_IT_number 2
_symmetry_cell_setting 'triclinic'
loop_
_space_group_symop_operation_xyz
x,y,z
-x,-y,-z
loop_
_atom_site_type_symbol
_atom_site_label
_atom_site_fract_x
_atom_site_fract_y
_atom_site_fract_z
Si Si1 0.758864 0.431879 0.986307
Si Si2 0.341173 0.643133 0.196781
Si Si3 0.013569 0.329847 0.146048
Si Si4 0.070956 0.083717 0.805343
Si Si5 0.499828 0.902855 0.165771
Si Si6 0.753942 0.102014 0.009995
Si Si7 0.562199 0.760330 0.329347
O O1 0.574148 0.577329 0.284915
O O2 0.769269 0.404381 0.805993
O O3 0.742801 0.270168 0.016653
O O4 0.786573 0.772304 0.079625
O O5 0.175860 0.690191 0.535995
O O6 0.456306 0.783977 0.071387
O O7 0.500000 0.500000 0.000000
O O8 0.058869 0.500423 0.164492
O O9 0.007268 0.264641 0.984702
O O10 0.303084 0.032895 0.471502
O O11 0.959589 0.047730 0.803966
O O12 0.000000 0.000000 0.000000
O O13 0.520589 0.802455 0.243373
O O14 0.590890 0.131195 0.346351
O O15 0.688573 0.982953 0.951619
#
# Coordination Sequence:
#
# PCOD9108692 Si02
#       7
#     2   2   2   2   2   2   2
#     4  10  25  42  62  99 134 177 208 273 330 388
#     4  12  23  43  68  94 131 180 225 263 316 400
#     4  10  22  41  69  98 124 170 228 267 323 390
#     4  12  22  39  70 100 127 170 221 274 326 377
#     4  12  23  41  70  99 127 175 226 267 316 394
#     4  12  24  42  65 101 142 162 215 278 337 378
#     4  10  20  40  70  94 129 168 215 278 317 381
#
# _framework density 23.345357
#
# number of rings (size 3 to 8) (size 9 to 14) (size 15 to 20)
#    0.857    0.000    5.714    2.143    0.000    1.143 
#    2.571    0.714    0.000    0.000    0.000    0.000 
#    0.000    0.000    0.000    0.000    0.000    0.000 
#
# Total GULP energy -78238.367726 kJ/mol
# GULP energy per Si atom -5588.454838 kJ/mol
# Density = 2.329222 g / cm^3
# Si number density = 23.345357 Si / 1000 Ang^3
#
#
#
# Elastic Constant Matrix: (Units=GPa)
#
#
# Indices 1 2 3 4 5 6 
#
# 1 48.5253 39.2963 24.1485 -11.3406 -18.6030 5.9559
# 2 39.2963 145.7179 -8.1664 -14.0580 -6.3734 27.6575
# 3 24.1485 -8.1664 45.8622 1.6884 -22.2136 3.9315
# 4 -11.3406 -14.0580 1.6884 26.7110 9.4913 -4.7213
# 5 -18.6030 -6.3734 -22.2136 9.4913 25.7951 -1.2794
# 6 5.9559 27.6575 3.9315 -4.7213 -1.2794 49.5513
#
#
#
# Elastic Compliance Matrix: (Units=1/GPa)
#
#
# Indices 1 2 3 4 5 6 
#
# 1 0.051586 -0.015127 -0.030074 0.016271 0.001889 0.006228
# 2 -0.015127 0.012793 0.013007 -0.003199 0.004305 -0.006548
# 3 -0.030074 0.013007 0.064875 -0.028703 0.047443 -0.010303
# 4 0.016271 -0.003199 -0.028703 0.058030 -0.034791 0.006738
# 5 0.001889 0.004305 0.047443 -0.034791 0.094490 -0.007270
# 6 0.006228 -0.006548 -0.010303 0.006738 -0.007270 0.024359
#
#
# Mechanical properties :
#
#
# Convention : Reuss Voigt Hill
#
# Bulk Modulus (GPa) = 15.41581 38.96246 27.18913
# Shear Modulus (GPa) = 12.75046 32.73327 22.74186
#
# Velocity S-wave (km/s) = 2.33956 3.74857 3.12452
# Velocity P-wave (km/s) = 3.73038 5.95496 4.96876
#
# Compressibility (1/GPa) = 0.06486848
#
# Stress axis : x y z
#
# Youngs Moduli (GPa) = 19.38502 78.16558 15.41429
#
# Poissons Ratio (x) = 1.18237 0.46357
# Poissons Ratio (y) = 0.29323 -0.20050
# Poissons Ratio (z) = 0.58298 -1.01672
#
# Static dielectric constant tensor:
#      x y z
#    x 1.879620 0.063710 0.006860 
#    y 0.063710 2.011990 -0.001460 
#    z 0.006860 -0.001460 1.821920 
# 
# From -- ./inp_files/446253.got.cif
#   From: 2010.05.17/outbox.cif.g08.bks.cpg/sg2_224_cif.got.tgz:446253.got - 2010.06.03 11:33:40.
