data_PCOD9108138
_publ_section_title
;
Structure prediction by ZEFSAII (Michael W. Deem and Ramdas Pophale) SiO2 
 PCOD9108138
Probable space group: P -1
;
_chemical_formula_sum "Si O2"
_cell_formula_units_Z 14
_cell_length_a 9.523489
_cell_length_b 19.351248
_cell_length_c 15.320419
_cell_angle_alpha 19.811243
_cell_angle_beta 132.643297
_cell_angle_gamma 134.395555
_cell_volume 681.586667
_symmetry_space_group_name_H-M "P -1"
_symmetry_group_IT_number 2
_symmetry_cell_setting 'triclinic'
loop_
_space_group_symop_operation_xyz
x,y,z
-x,-y,-z
loop_
_atom_site_type_symbol
_atom_site_label
_atom_site_fract_x
_atom_site_fract_y
_atom_site_fract_z
Si Si1 0.155300 0.707833 0.284758
Si Si2 0.528356 0.580183 0.515167
Si Si3 0.785757 0.169967 0.644405
Si Si4 0.062318 0.101338 0.712514
Si Si5 0.272758 0.960182 0.488450
Si Si6 0.476032 0.750135 0.945028
Si Si7 0.647887 0.578887 0.048265
O O1 0.334517 0.648779 0.382059
O O2 0.233705 0.836990 0.251933
O O3 0.000000 0.500000 0.500000
O O4 0.054562 0.854648 0.009540
O O5 0.500000 0.500000 0.500000
O O6 0.721578 0.772327 0.372764
O O7 0.557542 0.400071 0.807636
O O8 0.746851 0.389668 0.334990
O O9 0.001399 0.168003 0.703011
O O10 0.638064 0.964536 0.784401
O O11 0.895620 0.146081 0.524326
O O12 0.287432 0.823872 0.741626
O O13 0.500000 0.000000 0.500000
O O14 0.236804 0.190849 0.211252
O O15 0.552277 0.629117 0.040404
O O16 0.500000 0.500000 0.000000
#
# Coordination Sequence:
#
# PCOD9108138 Si02
#       7
#     2   2   2   2   2   2   2
#     4  12  25  45  72 100 135 187 247 285 346 420
#     4  12  27  47  67 101 151 182 229 296 353 416
#     4  12  21  41  73 102 135 183 236 293 336 414
#     4  12  24  42  69 105 141 182 228 292 357 403
#     4  10  20  40  67 103 137 175 232 293 332 414
#     4  11  22  43  69 103 139 185 239 281 342 424
#     4  11  19  37  69 105 135 176 237 290 339 396
#
# _framework density 20.540306999999999
#
# number of rings (size 3 to 8) (size 9 to 14) (size 15 to 20)
#    0.000    0.571    5.714    5.143    0.000    0.571 
#    0.000    0.000    0.000    3.429    0.000    0.000 
#    0.000    0.000    0.000    0.000    0.000    0.000 
#
# Total GULP energy -78200.175761 kJ/mol
# GULP energy per Si atom -5585.726840 kJ/mol
# Density = 2.049356 g / cm^3
# Si number density = 20.540307 Si / 1000 Ang^3
#
#
#
# Elastic Constant Matrix: (Units=GPa)
#
#
# Indices 1 2 3 4 5 6 
#
# 1 118.0830 53.7346 53.8379 3.6738 6.1194 -2.5284
# 2 53.7346 111.5575 35.6315 7.5657 7.8952 -15.5749
# 3 53.8379 35.6315 173.2769 20.0809 -0.9438 -2.2805
# 4 3.6738 7.5657 20.0809 45.1971 -2.3242 -2.5122
# 5 6.1194 7.8952 -0.9438 -2.3242 24.6716 3.3479
# 6 -2.5284 -15.5749 -2.2805 -2.5122 3.3479 36.9162
#
#
#
# Elastic Compliance Matrix: (Units=1/GPa)
#
#
# Indices 1 2 3 4 5 6 
#
# 1 0.012080 -0.005074 -0.002850 0.000998 -0.001210 -0.001312
# 2 -0.005074 0.012756 -0.000854 -0.001242 -0.003683 0.005231
# 3 -0.002850 -0.000854 0.007154 -0.002772 0.001046 -0.000397
# 4 0.000998 -0.001242 -0.002772 0.023639 0.002164 0.000785
# 5 -0.001210 -0.003683 0.001046 0.002164 0.042977 -0.005322
# 6 -0.001312 0.005231 -0.000397 0.000785 -0.005322 0.029717
#
#
# Mechanical properties :
#
#
# Convention : Reuss Voigt Hill
#
# Bulk Modulus (GPa) = 69.27421 76.59172 72.93297
# Shear Modulus (GPa) = 33.18087 38.67120 35.92604
#
# Velocity S-wave (km/s) = 4.02357 4.34371 4.18670
# Velocity P-wave (km/s) = 7.44209 7.90738 7.67826
#
# Compressibility (1/GPa) = 0.01443539
#
# Stress axis : x y z
#
# Youngs Moduli (GPa) = 82.77953 78.39531 139.78579
#
# Poissons Ratio (x) = 0.39777 0.39833
# Poissons Ratio (y) = 0.42001 0.11935
# Poissons Ratio (z) = 0.23589 0.06694
#
# Static dielectric constant tensor:
#      x y z
#    x 1.727460 -0.014970 -0.005580 
#    y -0.014970 1.792300 0.013020 
#    z -0.005580 0.013020 1.775310 
# 
# From -- ./inp_files/187024.got.cif
#   From: 2010.05.17/outbox.cif.g08.bks.cpg/sg2_94_cif.got.tgz:187024.got - 2010.06.03 11:33:40.
