data_PCOD9108989
_publ_section_title
;
Structure prediction by ZEFSAII (Michael W. Deem and Ramdas Pophale) SiO2 
 PCOD9108989
Probable space group: P -1
;
_chemical_formula_sum "Si O2"
_cell_formula_units_Z 14
_cell_length_a 17.153673
_cell_length_b 18.246805
_cell_length_c 20.287801
_cell_angle_alpha 159.750583
_cell_angle_beta 19.497848
_cell_angle_gamma 148.651227
_cell_volume 707.750157
_symmetry_space_group_name_H-M "P -1"
_symmetry_group_IT_number 2
_symmetry_cell_setting 'triclinic'
loop_
_space_group_symop_operation_xyz
x,y,z
-x,-y,-z
loop_
_atom_site_type_symbol
_atom_site_label
_atom_site_fract_x
_atom_site_fract_y
_atom_site_fract_z
Si Si1 0.678335 0.229589 0.684967
Si Si2 0.186696 0.292025 0.708100
Si Si3 0.499083 0.870810 0.460316
Si Si4 0.382032 0.724168 0.743352
Si Si5 0.957130 0.914258 0.606286
Si Si6 0.923726 0.571585 0.942934
Si Si7 0.208273 0.617690 0.415283
O O1 0.818053 0.262762 0.534237
O O2 0.871783 0.160863 0.530037
O O3 0.529750 0.047662 0.638530
O O4 0.467902 0.442662 0.051014
O O5 0.433272 0.242132 0.429862
O O6 0.208746 0.360752 0.824361
O O7 0.075152 0.084147 0.617770
O O8 0.000000 0.500000 0.000000
O O9 0.264241 0.777533 0.562431
O O10 0.500000 0.000000 0.500000
O O11 0.736555 0.672697 0.119404
O O12 0.500000 0.500000 0.500000
O O13 0.142968 0.685485 0.867065
O O14 0.296889 0.933095 0.035836
O O15 0.967366 0.689958 0.370964
O O16 0.000000 0.500000 0.500000
#
# Coordination Sequence:
#
# PCOD9108989 Si02
#       7
#     2   2   2   2   2   2   2
#     4  10  20  41  61  88 131 169 203 270 317 377
#     4  11  23  45  65  91 133 169 213 273 327 382
#     4  10  20  41  66  88 131 174 203 260 324 376
#     4  11  23  45  66  92 128 170 218 268 328 387
#     4  11  23  41  68  94 132 169 214 269 325 378
#     4  11  23  43  67  98 129 169 219 264 324 383
#     4  10  22  38  64  92 126 164 220 259 316 382
#
# _framework density 19.780991
#
# number of rings (size 3 to 8) (size 9 to 14) (size 15 to 20)
#    0.000    1.429    7.143    0.000    0.000    4.000 
#    2.571    0.000    0.000    0.000    0.000    0.000 
#    0.000    0.000    0.000    0.000    0.000    0.000 
#
# Total GULP energy -78073.517378 kJ/mol
# GULP energy per Si atom -5576.679813 kJ/mol
# Density = 1.973597 g / cm^3
# Si number density = 19.780991 Si / 1000 Ang^3
#
#
#
# Elastic Constant Matrix: (Units=GPa)
#
#
# Indices 1 2 3 4 5 6 
#
# 1 41.1853 27.0132 14.0958 -6.5766 -4.6952 -1.8311
# 2 27.0132 122.6778 34.6706 -12.1332 17.3879 -4.2520
# 3 14.0958 34.6706 82.3756 5.5310 14.6437 -17.4795
# 4 -6.5766 -12.1332 5.5310 44.4147 -0.9845 5.0003
# 5 -4.6952 17.3879 14.6437 -0.9845 42.1526 9.7463
# 6 -1.8311 -4.2520 -17.4795 5.0003 9.7463 28.5117
#
#
#
# Elastic Compliance Matrix: (Units=1/GPa)
#
#
# Indices 1 2 3 4 5 6 
#
# 1 0.032439 -0.006542 -0.006516 0.004878 0.010375 -0.007289
# 2 -0.006542 0.011283 -0.002847 0.002295 -0.004490 0.000649
# 3 -0.006516 -0.002847 0.020173 -0.006311 -0.010454 0.016205
# 4 0.004878 0.002295 -0.006311 0.025797 0.004539 -0.009289
# 5 0.010375 -0.004490 -0.010454 0.004539 0.034893 -0.019136
# 6 -0.007289 0.000649 0.016205 -0.009289 -0.019136 0.052807
#
#
# Mechanical properties :
#
#
# Convention : Reuss Voigt Hill
#
# Bulk Modulus (GPa) = 31.16772 44.19977 37.68374
# Shear Modulus (GPa) = 22.73784 34.37974 28.55879
#
# Velocity S-wave (km/s) = 3.39408 4.17348 3.80379
# Velocity P-wave (km/s) = 5.58124 6.75403 6.19545
#
# Compressibility (1/GPa) = 0.03208448
#
# Stress axis : x y z
#
# Youngs Moduli (GPa) = 30.82697 88.63160 49.56999
#
# Poissons Ratio (x) = 0.57984 0.32299
# Poissons Ratio (y) = 0.20167 0.14115
# Poissons Ratio (z) = 0.20086 0.25237
#
# Static dielectric constant tensor:
#      x y z
#    x 1.718870 0.006870 0.008020 
#    y 0.006870 1.689230 0.041530 
#    z 0.008020 0.041530 1.730880 
# 
# From -- ./inp_files/505066.got.cif
#   From: 2010.05.17/outbox.cif.g08.bks.cpg/sg2_253_cif.got.tgz:505066.got - 2010.06.03 11:33:40.
