data_PCOD9108798
_publ_section_title
;
Structure prediction by ZEFSAII (Michael W. Deem and Ramdas Pophale) SiO2 
 PCOD9108798
Probable space group: P -1
;
_chemical_formula_sum "Si O2"
_cell_formula_units_Z 16
_cell_length_a 17.426346
_cell_length_b 9.416601
_cell_length_c 11.310477
_cell_angle_alpha 47.660978
_cell_angle_beta 131.404203
_cell_angle_gamma 148.617460
_cell_volume 696.203032
_symmetry_space_group_name_H-M "P -1"
_symmetry_group_IT_number 2
_symmetry_cell_setting 'triclinic'
loop_
_space_group_symop_operation_xyz
x,y,z
-x,-y,-z
loop_
_atom_site_type_symbol
_atom_site_label
_atom_site_fract_x
_atom_site_fract_y
_atom_site_fract_z
Si Si1 0.678167 0.282509 0.050727
Si Si2 0.054536 0.494802 0.685377
Si Si3 0.022520 0.323088 0.288168
Si Si4 0.763316 0.720205 0.373015
Si Si5 0.722677 0.274689 0.845877
Si Si6 0.218999 0.130968 0.191907
Si Si7 0.458407 0.274230 0.175782
Si Si8 0.335145 0.349103 0.438108
O O1 0.767149 0.312781 0.234663
O O2 0.747576 0.278681 0.007044
O O3 0.723750 0.571064 0.939101
O O4 0.500000 0.000000 0.000000
O O5 0.018419 0.605897 0.682532
O O6 0.000000 0.500000 0.500000
O O7 0.956078 0.177340 0.815810
O O8 0.133998 0.314183 0.461405
O O9 0.125096 0.559543 0.161482
O O10 0.877362 0.017898 0.253923
O O11 0.612455 0.448300 0.306501
O O12 0.715994 0.768322 0.416330
O O13 0.678243 0.438208 0.701020
O O14 0.594919 0.974877 0.819931
O O15 0.326400 0.153283 0.202125
O O16 0.246257 0.140786 0.354295
O O17 0.500000 0.500000 0.000000
O O18 0.500000 0.500000 0.500000
#
# Coordination Sequence:
#
# PCOD9108798 Si02
#       8
#     2   2   2   2   2   2   2   2
#     4  11  27  49  74 105 148 191 244 297 371 435
#     4  12  27  46  76 107 145 190 250 299 362 430
#     4  10  23  43  68 101 138 186 232 291 363 422
#     4  10  23  42  66 101 144 180 234 293 352 430
#     4  10  24  44  66 102 138 186 233 293 356 428
#     4  11  24  45  69 108 143 186 241 302 359 431
#     4  12  25  41  67 102 141 186 239 288 356 425
#     4  10  20  40  72 100 140 186 232 292 366 421
#
# _framework density 22.981801999999998
#
# number of rings (size 3 to 8) (size 9 to 14) (size 15 to 20)
#    0.000    1.250    2.500    1.875    3.500    9.500 
#    0.000    0.000    0.000    0.000    0.000    0.000 
#    0.000    0.000    0.000    0.000    0.000    0.000 
#
# Total GULP energy -89358.244104 kJ/mol
# GULP energy per Si atom -5584.890256 kJ/mol
# Density = 2.292949 g / cm^3
# Si number density = 22.981802 Si / 1000 Ang^3
#
#
#
# Elastic Constant Matrix: (Units=GPa)
#
#
# Indices 1 2 3 4 5 6 
#
# 1 76.0369 38.2386 16.8225 8.2523 4.3455 -6.9186
# 2 38.2386 131.5398 40.3630 7.8246 5.4185 9.0276
# 3 16.8225 40.3630 70.1646 14.1347 0.8645 11.9078
# 4 8.2523 7.8246 14.1347 33.3641 4.8743 -1.4261
# 5 4.3455 5.4185 0.8645 4.8743 26.0755 7.2194
# 6 -6.9186 9.0276 11.9078 -1.4261 7.2194 36.3592
#
#
#
# Elastic Compliance Matrix: (Units=1/GPa)
#
#
# Indices 1 2 3 4 5 6 
#
# 1 0.016639 -0.004364 -0.002057 -0.001545 -0.003021 0.005463
# 2 -0.004364 0.010462 -0.004835 0.000748 -0.000977 -0.001621
# 3 -0.002057 -0.004835 0.020227 -0.007815 0.004056 -0.006927
# 4 -0.001545 0.000748 -0.007815 0.034798 -0.007510 0.004936
# 5 -0.003021 -0.000977 0.004056 -0.007510 0.043245 -0.010542
# 6 0.005463 -0.001621 -0.006927 0.004936 -0.010542 0.033501
#
#
# Mechanical properties :
#
#
# Convention : Reuss Voigt Hill
#
# Bulk Modulus (GPa) = 40.30003 52.06551 46.18277
# Shear Modulus (GPa) = 26.36349 31.31424 28.83887
#
# Velocity S-wave (km/s) = 3.39063 3.69530 3.54624
# Velocity P-wave (km/s) = 5.73604 6.39619 6.07509
#
# Compressibility (1/GPa) = 0.02481388
#
# Stress axis : x y z
#
# Youngs Moduli (GPa) = 60.10039 95.58689 49.43873
#
# Poissons Ratio (x) = 0.41716 0.10171
# Poissons Ratio (y) = 0.26229 0.23906
# Poissons Ratio (z) = 0.12364 0.46220
#
# Static dielectric constant tensor:
#      x y z
#    x 1.868920 0.060080 -0.035730 
#    y 0.060080 1.910890 -0.065700 
#    z -0.035730 -0.065700 1.971290 
# 
# From -- ./inp_files/461916.got.cif
#   From: 2010.05.17/outbox.cif.g08.bks.cpg/sg2_231_cif.got.tgz:461916.got - 2010.06.03 11:33:40.
