data_PCOD9108863
_publ_section_title
;
Structure prediction by ZEFSAII (Michael W. Deem and Ramdas Pophale) SiO2 
 PCOD9108863
Probable space group: P -1
;
_chemical_formula_sum "Si O2"
_cell_formula_units_Z 15
_cell_length_a 23.318753
_cell_length_b 11.140149
_cell_length_c 9.147696
_cell_angle_alpha 66.145345
_cell_angle_beta 138.361631
_cell_angle_gamma 146.576019
_cell_volume 696.220637
_symmetry_space_group_name_H-M "P -1"
_symmetry_group_IT_number 2
_symmetry_cell_setting 'triclinic'
loop_
_space_group_symop_operation_xyz
x,y,z
-x,-y,-z
loop_
_atom_site_type_symbol
_atom_site_label
_atom_site_fract_x
_atom_site_fract_y
_atom_site_fract_z
Si Si1 0.046067 0.464561 0.818347
Si Si2 0.153347 0.127805 0.640959
Si Si3 0.000000 0.500000 0.000000
Si Si4 0.397229 0.672811 0.933725
Si Si5 0.971057 0.840074 0.127689
Si Si6 0.237818 0.712055 0.747402
Si Si7 0.614035 0.472771 0.716785
Si Si8 0.750033 0.922003 0.892004
O O1 0.970111 0.217748 0.799419
O O2 0.158248 0.614332 0.807463
O O3 0.889492 0.365194 0.555670
O O4 0.128932 0.609929 0.060118
O O5 0.312199 0.445987 0.785235
O O6 0.202712 0.066559 0.861130
O O7 0.000000 0.000000 0.500000
O O8 0.078519 0.996995 0.405032
O O9 0.104098 0.782635 0.036800
O O10 0.255988 0.594870 0.760230
O O11 0.461486 0.685458 0.197330
O O12 0.562256 0.965066 0.030446
O O13 0.758379 0.561969 0.889935
O O14 0.000000 0.000000 0.000000
O O15 0.722030 0.749797 0.828961
O O16 0.448736 0.281505 0.392162
#
# Coordination Sequence:
#
# PCOD9108863 Si02
#       8
#     2   2   1   2   2   2   2   2
#     4  11  25  42  66  99 141 182 231 287 354 413
#     4  11  22  42  71 101 135 180 239 282 339 423
#     4  12  26  42  70 100 136 186 232 286 350 418
#     4  10  20  40  74 103 138 185 230 288 350 414
#     4  12  25  44  68 100 139 183 234 290 349 413
#     4  10  22  41  69 103 139 181 230 283 354 419
#     4  10  20  44  68 101 143 186 224 285 351 416
#     4  10  23  41  72 101 137 184 235 279 349 420
#
# _framework density 21.544892999999998
#
# number of rings (size 3 to 8) (size 9 to 14) (size 15 to 20)
#    0.000    1.333    4.000    1.600    5.600    2.133 
#    2.400    2.000    0.000    0.000    0.000    0.000 
#    0.000    0.000    0.000    0.000    0.000    0.000 
#
# Total GULP energy -83517.673287 kJ/mol
# GULP energy per Si atom -5567.844886 kJ/mol
# Density = 2.149586 g / cm^3
# Si number density = 21.544893 Si / 1000 Ang^3
#
#
#
# Elastic Constant Matrix: (Units=GPa)
#
#
# Indices 1 2 3 4 5 6 
#
# 1 89.4088 31.5636 28.6273 -7.9075 -4.7895 -12.1362
# 2 31.5636 117.1193 28.9095 -13.9095 0.0377 -16.3279
# 3 28.6273 28.9095 113.9520 -19.4951 7.1307 -6.6715
# 4 -7.9075 -13.9095 -19.4951 22.5904 -2.5605 7.7622
# 5 -4.7895 0.0377 7.1307 -2.5605 24.0805 -1.8971
# 6 -12.1362 -16.3279 -6.6715 7.7622 -1.8971 25.7359
#
#
#
# Elastic Compliance Matrix: (Units=1/GPa)
#
#
# Indices 1 2 3 4 5 6 
#
# 1 0.013759 -0.002391 -0.002872 -0.000270 0.003924 0.004597
# 2 -0.002391 0.010469 -0.001315 0.003063 0.000561 0.004291
# 3 -0.002872 -0.001315 0.011332 0.008284 -0.003201 -0.001986
# 4 -0.000270 0.003063 0.008284 0.058096 0.002613 -0.013366
# 5 0.003924 0.000561 -0.003201 0.002613 0.043834 0.003820
# 6 0.004597 0.004291 -0.001986 -0.013366 0.003820 0.047544
#
#
# Mechanical properties :
#
#
# Convention : Reuss Voigt Hill
#
# Bulk Modulus (GPa) = 44.63816 55.40899 50.02358
# Shear Modulus (GPa) = 24.31205 29.90669 27.10937
#
# Velocity S-wave (km/s) = 3.36287 3.72978 3.55106
# Velocity P-wave (km/s) = 5.98683 6.65748 6.33104
#
# Compressibility (1/GPa) = 0.02240236
#
# Stress axis : x y z
#
# Youngs Moduli (GPa) = 72.68035 95.51788 88.24493
#
# Poissons Ratio (x) = 0.22842 0.25348
# Poissons Ratio (y) = 0.17381 0.11605
# Poissons Ratio (z) = 0.20877 0.12561
#
# Static dielectric constant tensor:
#      x y z
#    x 1.782610 0.009840 -0.015870 
#    y 0.009840 1.837400 -0.029540 
#    z -0.015870 -0.029540 1.797010 
# 
# From -- ./inp_files/353445.got.cif
#   From: 2010.05.17/outbox.cif.g08.bks.cpg/sg2_177_cif.got.tgz:353445.got - 2010.06.03 11:33:40.
