data_PCOD9108731
_publ_section_title
;
Structure prediction by ZEFSAII (Michael W. Deem and Ramdas Pophale) SiO2 
 PCOD9108731
Probable space group: P -1
;
_chemical_formula_sum "Si O2"
_cell_formula_units_Z 11
_cell_length_a 4.909277
_cell_length_b 15.960836
_cell_length_c 8.623745
_cell_angle_alpha 41.590403
_cell_angle_beta 89.569770
_cell_angle_gamma 112.733178
_cell_volume 361.937412
_symmetry_space_group_name_H-M "P -1"
_symmetry_group_IT_number 2
_symmetry_cell_setting 'triclinic'
loop_
_space_group_symop_operation_xyz
x,y,z
-x,-y,-z
loop_
_atom_site_type_symbol
_atom_site_label
_atom_site_fract_x
_atom_site_fract_y
_atom_site_fract_z
Si Si1 0.750575 0.205253 0.569934
Si Si2 0.000000 0.000000 0.000000
Si Si3 0.167544 0.918339 0.803787
Si Si4 0.964478 0.678370 0.898346
Si Si5 0.716327 0.472292 0.738449
Si Si6 0.560591 0.248457 0.787957
O O1 0.410612 0.159067 0.740882
O O2 0.043418 0.328102 0.276960
O O3 0.481405 0.096357 0.573066
O O4 0.852508 0.098871 0.792071
O O5 0.122697 0.112226 0.032821
O O6 0.034312 0.838447 0.748549
O O7 0.291020 0.820309 0.009022
O O8 0.605432 0.547917 0.160581
O O9 0.204502 0.630936 0.019951
O O10 0.616222 0.395581 0.673068
O O11 0.069695 0.645062 0.485989
#
# Coordination Sequence:
#
# PCOD9108731 Si02
#       6
#     2   1   2   2   2   2
#     4  11  22  41  67  99 128 170 223 268 324 385
#     4  10  16  36  62  88 118 166 210 256 316 370
#     4  10  22  42  65  94 131 169 220 266 326 382
#     4  11  24  47  65  96 134 176 212 269 326 388
#     4  11  24  47  65  96 134 176 212 269 326 388
#     4  10  22  42  65  94 131 169 220 266 326 382
#
# _framework density 30.391994
#
# number of rings (size 3 to 8) (size 9 to 14) (size 15 to 20)
#    0.000    1.455    1.818    4.364    0.000    0.000 
#   26.182    5.455    0.000    0.000    0.000    0.000 
#    0.000    0.000    0.000    0.000    0.000    0.000 
#
# Total GULP energy -61611.348330 kJ/mol
# GULP energy per Si atom -5601.031666 kJ/mol
# Density = 3.032282 g / cm^3
# Si number density = 30.391994 Si / 1000 Ang^3
#
#
#
# Elastic Constant Matrix: (Units=GPa)
#
#
# Indices 1 2 3 4 5 6 
#
# 1 220.6403 51.9903 40.0983 16.8169 -21.8185 -15.9230
# 2 51.9903 216.0946 68.9551 -15.8216 -34.9446 4.4065
# 3 40.0983 68.9551 119.3209 16.3451 -22.9752 -14.8497
# 4 16.8169 -15.8216 16.3451 76.9301 -8.5149 -26.2837
# 5 -21.8185 -34.9446 -22.9752 -8.5149 59.5871 -9.3760
# 6 -15.9230 4.4065 -14.8497 -26.2837 -9.3760 59.2721
#
#
#
# Elastic Compliance Matrix: (Units=1/GPa)
#
#
# Indices 1 2 3 4 5 6 
#
# 1 0.005122 -0.000867 -0.000767 -0.000608 0.001167 0.001163
# 2 -0.000867 0.006492 -0.003313 0.002502 0.002565 -0.000030
# 3 -0.000767 -0.003313 0.011573 -0.001861 0.002364 0.002488
# 4 -0.000608 0.002502 -0.001861 0.017021 0.004121 0.007384
# 5 0.001167 0.002565 0.002364 0.004121 0.021141 0.005887
# 6 0.001163 -0.000030 0.002488 0.007384 0.005887 0.022015
#
#
# Mechanical properties :
#
#
# Convention : Reuss Voigt Hill
#
# Bulk Modulus (GPa) = 75.23233 97.57145 86.40189
# Shear Modulus (GPa) = 51.18335 65.49200 58.33768
#
# Velocity S-wave (km/s) = 4.10824 4.64714 4.38597
# Velocity P-wave (km/s) = 6.87832 7.80823 7.35798
#
# Compressibility (1/GPa) = 0.01329216
#
# Stress axis : x y z
#
# Youngs Moduli (GPa) = 195.24754 154.03718 86.40842
#
# Poissons Ratio (x) = 0.13353 0.06631
# Poissons Ratio (y) = 0.16925 0.28627
# Poissons Ratio (z) = 0.14984 0.51032
#
# Static dielectric constant tensor:
#      x y z
#    x 2.320000 0.093120 -0.275310 
#    y 0.093120 2.629160 -0.068340 
#    z -0.275310 -0.068340 2.232050 
# 
# From -- ./inp_files/17523.got.cif
#   From: 2010.05.17/outbox.cif.g08.bks.cpg/sg2_9_cif.got.tgz:17523.got - 2010.06.03 11:33:40.
