data_PCOD9108212
_publ_section_title
;
Structure prediction by ZEFSAII (Michael W. Deem and Ramdas Pophale) SiO2 
 PCOD9108212
Probable space group: P -1
;
_chemical_formula_sum "Si O2"
_cell_formula_units_Z 16
_cell_length_a 8.959265
_cell_length_b 8.691370
_cell_length_c 10.724740
_cell_angle_alpha 86.992486
_cell_angle_beta 114.746171
_cell_angle_gamma 76.429454
_cell_volume 726.435880
_symmetry_space_group_name_H-M "P -1"
_symmetry_group_IT_number 2
_symmetry_cell_setting 'triclinic'
loop_
_space_group_symop_operation_xyz
x,y,z
-x,-y,-z
loop_
_atom_site_type_symbol
_atom_site_label
_atom_site_fract_x
_atom_site_fract_y
_atom_site_fract_z
Si Si1 0.282756 0.456371 0.336410
Si Si2 0.663808 0.411509 0.137915
Si Si3 0.204892 0.075030 0.051268
Si Si4 0.998844 0.373398 0.114504
Si Si5 0.868064 0.170395 0.792268
Si Si6 0.483273 0.817942 0.752185
Si Si7 0.167211 0.899013 0.491781
Si Si8 0.190264 0.525886 0.564376
O O1 0.234383 0.641835 0.267027
O O2 0.409405 0.331375 0.292564
O O3 0.314750 0.442495 0.496412
O O4 0.102409 0.416715 0.262509
O O5 0.814892 0.378109 0.094471
O O6 0.625999 0.254253 0.187002
O O7 0.715590 0.507523 0.268088
O O8 0.500000 0.500000 0.000000
O O9 0.390563 0.104612 0.129099
O O10 0.098461 0.199999 0.110125
O O11 0.202133 0.903035 0.109425
O O12 0.075670 0.131514 0.886393
O O13 0.000000 0.500000 0.000000
O O14 0.839865 0.082135 0.659900
O O15 0.339819 0.928454 0.607167
O O16 0.169347 0.714027 0.523341
O O17 0.000000 0.000000 0.500000
O O18 0.000000 0.500000 0.500000
#
# Coordination Sequence:
#
# PCOD9108212 Si02
#       8
#     2   2   2   2   2   2   2   2
#     4  10  20  40  67  93 125 165 218 261 316 376
#     4  11  23  35  59  97 127 157 207 266 318 371
#     4  10  22  40  65  93 123 167 217 255 318 380
#     4  11  20  37  67  88 124 172 207 254 317 382
#     4  10  22  38  67  90 127 166 212 259 318 374
#     4  10  24  42  66  94 126 167 215 266 315 384
#     4  10  24  42  62  87 130 171 206 256 327 383
#     4  10  21  39  64  93 124 166 211 262 315 376
#
# _framework density 22.025341999999998
#
# number of rings (size 3 to 8) (size 9 to 14) (size 15 to 20)
#    0.000    1.750    2.500    1.500    3.500    5.000 
#    0.000    3.125    0.000    0.000    0.000    0.000 
#    0.000    0.000    0.000    0.000    0.000    0.000 
#
# Total GULP energy -89283.571030 kJ/mol
# GULP energy per Si atom -5580.223189 kJ/mol
# Density = 2.197521 g / cm^3
# Si number density = 22.025342 Si / 1000 Ang^3
#
#
#
# Elastic Constant Matrix: (Units=GPa)
#
#
# Indices 1 2 3 4 5 6 
#
# 1 108.7847 5.9594 23.1146 -1.4329 16.9174 12.2853
# 2 5.9594 28.8879 7.1923 0.8236 2.0558 1.5300
# 3 23.1146 7.1923 138.8415 -1.1572 17.8581 10.6769
# 4 -1.4329 0.8236 -1.1572 18.2535 1.7414 8.9172
# 5 16.9174 2.0558 17.8581 1.7414 40.9168 5.3416
# 6 12.2853 1.5300 10.6769 8.9172 5.3416 26.5580
#
#
#
# Elastic Compliance Matrix: (Units=1/GPa)
#
#
# Indices 1 2 3 4 5 6 
#
# 1 0.010603 -0.001575 -0.000825 0.003626 -0.003445 -0.005007
# 2 -0.001575 0.035403 -0.001536 -0.001771 -0.000379 -0.000023
# 3 -0.000825 -0.001536 0.008023 0.002214 -0.002794 -0.002937
# 4 0.003626 -0.001771 0.002214 0.067571 -0.002022 -0.024747
# 5 -0.003445 -0.000379 -0.002794 -0.002022 0.027464 -0.002106
# 6 -0.005007 -0.000023 -0.002937 -0.024747 -0.002106 0.049884
#
#
# Mechanical properties :
#
#
# Convention : Reuss Voigt Hill
#
# Bulk Modulus (GPa) = 21.66551 38.78298 30.22425
# Shear Modulus (GPa) = 22.50170 33.16218 27.83194
#
# Velocity S-wave (km/s) = 3.19976 3.88446 3.55862
# Velocity P-wave (km/s) = 4.84863 6.14535 5.53510
#
# Compressibility (1/GPa) = 0.04615631
#
# Stress axis : x y z
#
# Youngs Moduli (GPa) = 94.31238 28.24657 124.64011
#
# Poissons Ratio (x) = 0.04449 0.10286
# Poissons Ratio (y) = 0.14853 0.19145
# Poissons Ratio (z) = 0.07783 0.04339
#
# Static dielectric constant tensor:
#      x y z
#    x 1.798550 0.020340 0.045850 
#    y 0.020340 1.839830 0.003090 
#    z 0.045850 0.003090 1.885450 
# 
# From -- ./inp_files/379286.got.cif
#   From: 2010.05.17/outbox.cif.g08.bks.cpg/sg2_190_cif.got.tgz:379286.got - 2010.06.03 11:33:40.
