data_PCOD9108859
_publ_section_title
;
Structure prediction by ZEFSAII (Michael W. Deem and Ramdas Pophale) SiO2 
 PCOD9108859
Probable space group: P -1
;
_chemical_formula_sum "Si O2"
_cell_formula_units_Z 14
_cell_length_a 9.183362
_cell_length_b 7.922290
_cell_length_c 11.981187
_cell_angle_alpha 114.730506
_cell_angle_beta 129.542425
_cell_angle_gamma 84.836206
_cell_volume 590.876182
_symmetry_space_group_name_H-M "P -1"
_symmetry_group_IT_number 2
_symmetry_cell_setting 'triclinic'
loop_
_space_group_symop_operation_xyz
x,y,z
-x,-y,-z
loop_
_atom_site_type_symbol
_atom_site_label
_atom_site_fract_x
_atom_site_fract_y
_atom_site_fract_z
Si Si1 0.334253 0.803266 0.168000
Si Si2 0.580843 0.755073 0.653924
Si Si3 0.074090 0.003857 0.723629
Si Si4 0.067778 0.192969 0.012799
Si Si5 0.316204 0.696733 0.713011
Si Si6 0.679887 0.707816 0.440090
Si Si7 0.451177 0.277645 0.948140
O O1 0.484669 0.711610 0.280089
O O2 0.402276 0.814299 0.076461
O O3 0.106714 0.701701 0.038437
O O4 0.361396 0.018089 0.284279
O O5 0.389795 0.736251 0.632137
O O6 0.610356 0.667236 0.524095
O O7 0.735181 0.700867 0.800009
O O8 0.173972 0.825406 0.717068
O O9 0.847253 0.905872 0.561754
O O10 0.082845 0.112000 0.875480
O O11 0.230003 0.167802 0.776869
O O12 0.000000 0.000000 0.000000
O O13 0.238705 0.467088 0.614326
O O14 0.493894 0.743833 0.902302
O O15 0.500000 0.500000 0.000000
#
# Coordination Sequence:
#
# PCOD9108859 Si02
#       7
#     2   2   2   2   2   2   2
#     4  11  23  45  70  97 143 177 224 283 342 398
#     4  11  22  43  72 101 133 185 225 278 335 410
#     4  12  24  43  73  97 135 185 224 281 335 405
#     4  10  20  40  74 100 125 183 238 266 334 409
#     4  12  24  45  69 104 137 182 229 278 334 409
#     4  12  26  43  68 107 144 173 223 282 348 400
#     4  12  25  46  70  99 135 179 234 284 336 400
#
# _framework density 23.693628
#
# number of rings (size 3 to 8) (size 9 to 14) (size 15 to 20)
#    0.000    0.571    7.143    3.429    0.000    0.571 
#    0.000    2.857    0.000    0.000    0.000    0.000 
#    0.000    0.000    0.000    0.000    0.000    0.000 
#
# Total GULP energy -78169.665550 kJ/mol
# GULP energy per Si atom -5583.547539 kJ/mol
# Density = 2.363970 g / cm^3
# Si number density = 23.693628 Si / 1000 Ang^3
#
#
#
# Elastic Constant Matrix: (Units=GPa)
#
#
# Indices 1 2 3 4 5 6 
#
# 1 122.7819 14.3273 38.5327 -3.2960 -4.7019 -10.4618
# 2 14.3273 61.8791 18.8795 2.9637 9.4087 -3.8490
# 3 38.5327 18.8795 82.0579 1.5331 -7.2639 -2.4563
# 4 -3.2960 2.9637 1.5331 30.1843 -3.1260 2.2352
# 5 -4.7019 9.4087 -7.2639 -3.1260 45.4917 4.3366
# 6 -10.4618 -3.8490 -2.4563 2.2352 4.3366 27.0727
#
#
#
# Elastic Compliance Matrix: (Units=1/GPa)
#
#
# Indices 1 2 3 4 5 6 
#
# 1 0.009929 -0.000871 -0.004364 0.001186 0.000289 0.003173
# 2 -0.000871 0.018724 -0.004215 -0.002466 -0.005087 0.002962
# 3 -0.004364 -0.004215 0.015438 -0.000440 0.002982 -0.001326
# 4 0.001186 -0.002466 -0.000440 0.034098 0.003216 -0.003263
# 5 0.000289 -0.005087 0.002982 0.003216 0.024188 -0.004481
# 6 0.003173 0.002962 -0.001326 -0.003263 -0.004481 0.039452
#
#
# Mechanical properties :
#
#
# Convention : Reuss Voigt Hill
#
# Bulk Modulus (GPa) = 39.69466 45.57752 42.63609
# Shear Modulus (GPa) = 29.56402 33.54838 31.55620
#
# Velocity S-wave (km/s) = 3.53620 3.76696 3.65340
# Velocity P-wave (km/s) = 5.78469 6.18045 5.98584
#
# Compressibility (1/GPa) = 0.02519230
#
# Stress axis : x y z
#
# Youngs Moduli (GPa) = 100.71669 53.40770 64.77634
#
# Poissons Ratio (x) = 0.04651 0.28266
# Poissons Ratio (y) = 0.08771 0.27300
# Poissons Ratio (z) = 0.43949 0.22509
#
# Static dielectric constant tensor:
#      x y z
#    x 2.029620 0.012000 0.065200 
#    y 0.012000 1.926960 0.029480 
#    z 0.065200 0.029480 1.944050 
# 
# From -- ./inp_files/223007.got.cif
#   From: 2010.05.17/outbox.cif.g08.bks.cpg/sg2_112_cif.got.tgz:223007.got - 2010.06.03 11:33:40.
