data_PCOD9108655
_publ_section_title
;
Structure prediction by ZEFSAII (Michael W. Deem and Ramdas Pophale) SiO2 
 PCOD9108655
Probable space group: P -1
;
_chemical_formula_sum "Si O2"
_cell_formula_units_Z 14
_cell_length_a 16.186685
_cell_length_b 9.429220
_cell_length_c 16.326593
_cell_angle_alpha 142.398002
_cell_angle_beta 26.691643
_cell_angle_gamma 144.851331
_cell_volume 625.763111
_symmetry_space_group_name_H-M "P -1"
_symmetry_group_IT_number 2
_symmetry_cell_setting 'triclinic'
loop_
_space_group_symop_operation_xyz
x,y,z
-x,-y,-z
loop_
_atom_site_type_symbol
_atom_site_label
_atom_site_fract_x
_atom_site_fract_y
_atom_site_fract_z
Si Si1 0.233285 0.642095 0.102192
Si Si2 0.309130 0.201065 0.294214
Si Si3 0.735200 0.457620 0.644994
Si Si4 0.101845 0.304664 0.224697
Si Si5 0.463937 0.560952 0.467997
Si Si6 0.876673 0.812519 0.115323
Si Si7 0.627020 0.996760 0.305104
O O1 0.193279 0.506015 0.163137
O O2 0.198293 0.899292 0.251506
O O3 0.465914 0.722644 0.907196
O O4 0.105651 0.431108 0.052776
O O5 0.217472 0.351683 0.386152
O O6 0.341448 0.315569 0.408959
O O7 0.767518 0.609306 0.770130
O O8 0.511632 0.248103 0.735390
O O9 0.887461 0.317053 0.441992
O O10 0.053042 0.021808 0.106444
O O11 0.500000 0.500000 0.500000
O O12 0.681716 0.697238 0.294275
O O13 0.354417 0.754333 0.645856
O O14 0.809266 0.955541 0.167650
O O15 0.500000 0.000000 0.500000
#
# Coordination Sequence:
#
# PCOD9108655 Si02
#       7
#     2   2   2   2   2   2   2
#     4  10  22  38  60  83 116 161 189 232 289 348
#     4  10  21  41  57  84 122 152 191 238 287 344
#     4  11  21  38  59  89 117 148 191 249 282 334
#     4  11  23  35  62  89 116 146 197 242 289 335
#     4  10  19  31  61  88 109 144 196 242 278 330
#     4  10  19  41  58  83 118 155 190 237 283 345
#     4  10  16  36  61  80 114 152 194 229 282 338
#
# _framework density 22.372682999999999
#
# number of rings (size 3 to 8) (size 9 to 14) (size 15 to 20)
#    0.000    1.714    7.143    0.429    2.000    1.143 
#    0.000    2.143    0.000    0.000    0.000    0.000 
#    0.000    0.000    0.000    0.000    0.000    0.000 
#
# Total GULP energy -78314.602496 kJ/mol
# GULP energy per Si atom -5593.900178 kJ/mol
# Density = 2.232176 g / cm^3
# Si number density = 22.372683 Si / 1000 Ang^3
#
#
#
# Elastic Constant Matrix: (Units=GPa)
#
#
# Indices 1 2 3 4 5 6 
#
# 1 150.2168 61.7200 55.4364 19.7478 32.6309 8.6931
# 2 61.7200 133.6399 51.6102 36.8419 15.2105 12.5230
# 3 55.4364 51.6102 68.3001 21.6365 15.0522 8.3334
# 4 19.7478 36.8419 21.6365 49.7529 10.0101 2.7607
# 5 32.6309 15.2105 15.0522 10.0101 42.0771 6.2758
# 6 8.6931 12.5230 8.3334 2.7607 6.2758 39.6163
#
#
#
# Elastic Compliance Matrix: (Units=1/GPa)
#
#
# Indices 1 2 3 4 5 6 
#
# 1 0.011046 -0.002390 -0.006347 0.001288 -0.005812 0.000498
# 2 -0.002390 0.012443 -0.005569 -0.005946 0.001059 -0.001991
# 3 -0.006347 -0.005569 0.025798 -0.004273 -0.001006 -0.001816
# 4 0.001288 -0.005946 -0.004273 0.026549 -0.003823 0.001251
# 5 -0.005812 0.001059 -0.001006 -0.003823 0.029649 -0.003278
# 6 0.000498 -0.001991 -0.001816 0.001251 -0.003278 0.026576
#
#
# Mechanical properties :
#
#
# Convention : Reuss Voigt Hill
#
# Bulk Modulus (GPa) = 48.37089 76.63222 62.50156
# Shear Modulus (GPa) = 29.83929 38.51529 34.17729
#
# Velocity S-wave (km/s) = 3.65600 4.15364 3.91274
# Velocity P-wave (km/s) = 6.28405 7.57169 6.95772
#
# Compressibility (1/GPa) = 0.02067359
#
# Stress axis : x y z
#
# Youngs Moduli (GPa) = 90.53064 80.36955 38.76292
#
# Poissons Ratio (x) = 0.19212 0.24603
# Poissons Ratio (y) = 0.21641 0.21587
# Poissons Ratio (z) = 0.57460 0.44757
#
# Static dielectric constant tensor:
#      x y z
#    x 1.777450 0.026560 -0.049190 
#    y 0.026560 1.842590 -0.039500 
#    z -0.049190 -0.039500 1.973650 
# 
# From -- ./inp_files/257118.got.cif
#   From: 2010.05.17/outbox.cif.g08.bks.cpg/sg2_129_cif.got.tgz:257118.got - 2010.06.03 11:33:40.
