data_PCOD9108615
_publ_section_title
;
Structure prediction by ZEFSAII (Michael W. Deem and Ramdas Pophale) SiO2 
 PCOD9108615
Probable space group: P -1
;
_chemical_formula_sum "Si O2"
_cell_formula_units_Z 14
_cell_length_a 5.016324
_cell_length_b 12.114541
_cell_length_c 10.896374
_cell_angle_alpha 73.603178
_cell_angle_beta 85.797333
_cell_angle_gamma 96.244383
_cell_volume 627.712184
_symmetry_space_group_name_H-M "P -1"
_symmetry_group_IT_number 2
_symmetry_cell_setting 'triclinic'
loop_
_space_group_symop_operation_xyz
x,y,z
-x,-y,-z
loop_
_atom_site_type_symbol
_atom_site_label
_atom_site_fract_x
_atom_site_fract_y
_atom_site_fract_z
Si Si1 0.786920 0.582765 0.291617
Si Si2 0.962967 0.855477 0.905971
Si Si3 0.838276 0.603878 0.002948
Si Si4 0.673951 0.278681 0.665208
Si Si5 0.380936 0.271378 0.232175
Si Si6 0.859774 0.313996 0.382276
Si Si7 0.653991 0.933381 0.116424
O O1 0.723943 0.592936 0.146496
O O2 0.546991 0.631288 0.357255
O O3 0.832378 0.450482 0.356183
O O4 0.065863 0.662252 0.288525
O O5 0.732017 0.838842 0.814272
O O6 0.042657 0.725929 0.949046
O O7 0.852436 0.872391 0.041110
O O8 0.176860 0.966948 0.839674
O O9 0.621035 0.624484 0.899728
O O10 0.000000 0.500000 0.000000
O O11 0.774060 0.256096 0.532554
O O12 0.534619 0.162600 0.772117
O O13 0.651344 0.267093 0.297637
O O14 0.154110 0.294749 0.332005
O O15 0.500000 0.000000 0.000000
#
# Coordination Sequence:
#
# PCOD9108615 Si02
#       7
#     2   2   2   2   2   2   2
#     4  12  23  42  66 101 133 175 224 278 335 395
#     4   9  22  42  65 100 126 175 217 292 329 389
#     4  10  20  40  69  99 136 166 222 275 345 395
#     4  12  26  42  68  96 133 179 230 271 333 399
#     4  10  24  41  66  94 137 172 220 266 344 394
#     4  12  24  44  63  97 140 181 215 272 335 416
#     4  11  23  42  71  94 132 171 235 284 331 384
#
# _framework density 22.303215000000002
#
# number of rings (size 3 to 8) (size 9 to 14) (size 15 to 20)
#    0.857    0.286    2.857    3.429    4.000    1.714 
#    0.000    1.429    0.000    0.000    0.000    0.000 
#    0.000    0.000    0.000    0.000    0.000    0.000 
#
# Total GULP energy -78300.803495 kJ/mol
# GULP energy per Si atom -5592.914535 kJ/mol
# Density = 2.225245 g / cm^3
# Si number density = 22.303215 Si / 1000 Ang^3
#
#
#
# Elastic Constant Matrix: (Units=GPa)
#
#
# Indices 1 2 3 4 5 6 
#
# 1 66.7444 22.8821 4.8691 -2.0584 -10.2627 5.9688
# 2 22.8821 122.4093 29.9583 8.7317 5.7802 20.0776
# 3 4.8691 29.9583 113.6032 -12.4084 -20.8561 15.3471
# 4 -2.0584 8.7317 -12.4084 14.9019 2.5442 -1.9465
# 5 -10.2627 5.7802 -20.8561 2.5442 31.0810 10.1352
# 6 5.9688 20.0776 15.3471 -1.9465 10.1352 37.7530
#
#
#
# Elastic Compliance Matrix: (Units=1/GPa)
#
#
# Indices 1 2 3 4 5 6 
#
# 1 0.018397 -0.004461 0.003482 0.005738 0.010204 -0.004395
# 2 -0.004461 0.011577 -0.004541 -0.010723 -0.004865 -0.002852
# 3 0.003482 -0.004541 0.014481 0.012087 0.012965 -0.006880
# 4 0.005738 -0.010723 0.012087 0.083949 0.004115 0.003105
# 5 0.010204 -0.004865 0.012965 0.004115 0.050570 -0.017660
# 6 -0.004395 -0.002852 -0.006880 0.003105 -0.017660 0.036397
#
#
# Mechanical properties :
#
#
# Convention : Reuss Voigt Hill
#
# Bulk Modulus (GPa) = 29.92775 46.46399 38.19587
# Shear Modulus (GPa) = 21.04826 33.08367 27.06597
#
# Velocity S-wave (km/s) = 3.07536 3.85562 3.48738
# Velocity P-wave (km/s) = 5.10472 6.37959 5.77742
#
# Compressibility (1/GPa) = 0.03341381
#
# Stress axis : x y z
#
# Youngs Moduli (GPa) = 54.35662 86.37765 69.05796
#
# Poissons Ratio (x) = 0.38537 -0.24045
# Poissons Ratio (y) = 0.24251 0.31358
# Poissons Ratio (z) = -0.18926 0.39223
#
# Static dielectric constant tensor:
#      x y z
#    x 1.862470 -0.014540 0.011590 
#    y -0.014540 1.869560 0.007430 
#    z 0.011590 0.007430 1.811330 
# 
# From -- ./inp_files/362024.got.cif
#   From: 2010.05.17/outbox.cif.g08.bks.cpg/sg2_182_cif.got.tgz:362024.got - 2010.06.03 11:33:40.
