data_PCOD9108976
_publ_section_title
;
Structure prediction by ZEFSAII (Michael W. Deem and Ramdas Pophale) SiO2 
 PCOD9108976
Probable space group: P -1
;
_chemical_formula_sum "Si O2"
_cell_formula_units_Z 16
_cell_length_a 11.206946
_cell_length_b 15.386475
_cell_length_c 7.212841
_cell_angle_alpha 51.022673
_cell_angle_beta 67.038296
_cell_angle_gamma 40.091198
_cell_volume 612.285672
_symmetry_space_group_name_H-M "P -1"
_symmetry_group_IT_number 2
_symmetry_cell_setting 'triclinic'
loop_
_space_group_symop_operation_xyz
x,y,z
-x,-y,-z
loop_
_atom_site_type_symbol
_atom_site_label
_atom_site_fract_x
_atom_site_fract_y
_atom_site_fract_z
Si Si1 0.205464 0.141345 0.963825
Si Si2 0.438135 0.869937 0.736775
Si Si3 0.547540 0.212808 0.732212
Si Si4 0.305814 0.637074 0.545619
Si Si5 0.915233 0.166995 0.907026
Si Si6 0.116720 0.434422 0.708957
Si Si7 0.203822 0.212355 0.445407
Si Si8 0.493738 0.613415 0.969405
O O1 0.154651 0.278715 0.938695
O O2 0.250041 0.164950 0.701618
O O3 0.035456 0.162728 0.985189
O O4 0.371330 0.953957 0.175450
O O5 0.623801 0.827233 0.691545
O O6 0.251593 0.056748 0.552649
O O7 0.419569 0.826201 0.011974
O O8 0.493247 0.739179 0.732391
O O9 0.664999 0.251833 0.554380
O O10 0.321953 0.361739 0.649921
O O11 0.500000 0.500000 0.500000
O O12 0.135115 0.731380 0.382567
O O13 0.323506 0.525672 0.828420
O O14 0.714731 0.265124 0.982957
O O15 0.000000 0.000000 0.000000
O O16 0.000000 0.500000 0.500000
O O17 0.983425 0.594448 0.704326
O O18 0.500000 0.500000 0.000000
#
# Coordination Sequence:
#
# PCOD9108976 Si02
#       8
#     2   2   2   2   2   2   2   2
#     4  10  21  37  63  96 125 159 210 270 331 377
#     4  10  20  41  61  87 129 167 218 255 330 385
#     4  11  20  40  62  89 128 165 219 263 314 402
#     4  10  21  38  64  96 118 178 216 261 315 393
#     4  11  20  41  72  95 128 172 222 259 322 404
#     4  10  23  35  58  92 119 162 209 266 320 372
#     4   9  21  37  61  86 121 168 206 261 312 386
#     4  11  25  39  64 100 135 171 211 281 330 376
#
# _framework density 26.131594
#
# number of rings (size 3 to 8) (size 9 to 14) (size 15 to 20)
#    0.000    1.750    3.750    1.125    8.750    1.500 
#    0.000    1.875    0.000    0.000    0.000    0.000 
#    0.000    0.000    0.000    0.000    0.000    0.000 
#
# Total GULP energy -89345.549362 kJ/mol
# GULP energy per Si atom -5584.096835 kJ/mol
# Density = 2.607212 g / cm^3
# Si number density = 26.131594 Si / 1000 Ang^3
#
#
#
# Elastic Constant Matrix: (Units=GPa)
#
#
# Indices 1 2 3 4 5 6 
#
# 1 95.1839 30.2936 21.0257 -22.6940 -8.1294 -4.3644
# 2 30.2936 139.8770 49.0072 -62.3025 -11.7906 10.5384
# 3 21.0257 49.0072 101.9834 -48.2529 -15.9199 5.4283
# 4 -22.6940 -62.3025 -48.2529 54.2427 6.8998 -11.6858
# 5 -8.1294 -11.7906 -15.9199 6.8998 37.9722 -16.3771
# 6 -4.3644 10.5384 5.4283 -11.6858 -16.3771 46.6858
#
#
#
# Elastic Compliance Matrix: (Units=1/GPa)
#
#
# Indices 1 2 3 4 5 6 
#
# 1 0.012295 -0.000347 0.000667 0.005720 0.003391 0.003772
# 2 -0.000347 0.015143 0.002336 0.019415 0.003028 0.002200
# 3 0.000667 0.002336 0.018782 0.019794 0.007235 0.004844
# 4 0.005720 0.019415 0.019794 0.062264 0.009788 0.012870
# 5 0.003391 0.003028 0.007235 0.009788 0.035103 0.013556
# 6 0.003772 0.002200 0.004844 0.012870 0.013556 0.028689
#
#
# Mechanical properties :
#
#
# Convention : Reuss Voigt Hill
#
# Bulk Modulus (GPa) = 19.40511 59.74413 39.57462
# Shear Modulus (GPa) = 27.15297 43.56133 35.35715
#
# Velocity S-wave (km/s) = 3.22698 4.08732 3.68236
# Velocity P-wave (km/s) = 4.61807 6.72215 5.76689
#
# Compressibility (1/GPa) = 0.05153281
#
# Stress axis : x y z
#
# Youngs Moduli (GPa) = 81.33071 66.03840 53.24144
#
# Poissons Ratio (x) = 0.02292 -0.03550
# Poissons Ratio (y) = 0.02823 -0.12439
# Poissons Ratio (z) = -0.05424 -0.15429
#
# Static dielectric constant tensor:
#      x y z
#    x 2.094290 0.101550 -0.014580 
#    y 0.101550 2.119540 0.035300 
#    z -0.014580 0.035300 2.207920 
# 
# From -- ./inp_files/271824.got.cif
#   From: 2010.05.17/outbox.cif.g08.bks.cpg/sg2_136_cif.got.tgz:271824.got - 2010.06.03 11:33:40.
