data_PCOD9108186
_publ_section_title
;
Structure prediction by ZEFSAII (Michael W. Deem and Ramdas Pophale) SiO2 
 PCOD9108186
Probable space group: P -1
;
_chemical_formula_sum "Si O2"
_cell_formula_units_Z 16
_cell_length_a 11.465570
_cell_length_b 13.906954
_cell_length_c 13.309522
_cell_angle_alpha 48.122222
_cell_angle_beta 30.133485
_cell_angle_gamma 46.329445
_cell_volume 756.018257
_symmetry_space_group_name_H-M "P -1"
_symmetry_group_IT_number 2
_symmetry_cell_setting 'triclinic'
loop_
_space_group_symop_operation_xyz
x,y,z
-x,-y,-z
loop_
_atom_site_type_symbol
_atom_site_label
_atom_site_fract_x
_atom_site_fract_y
_atom_site_fract_z
Si Si1 0.089332 0.018749 0.031945
Si Si2 0.361658 0.151178 0.206974
Si Si3 0.101396 0.459393 0.817529
Si Si4 0.922127 0.731608 0.855591
Si Si5 0.645641 0.564727 0.966499
Si Si6 0.874216 0.401211 0.715406
Si Si7 0.246804 0.257435 0.682736
Si Si8 0.794297 0.070738 0.407338
O O1 0.119424 0.168745 0.906717
O O2 0.354820 0.918468 0.931002
O O3 0.903315 0.009673 0.262483
O O4 0.000000 0.000000 0.000000
O O5 0.290176 0.188986 0.118175
O O6 0.289370 0.299589 0.207379
O O7 0.222779 0.049882 0.422971
O O8 0.225396 0.393861 0.666831
O O9 0.115671 0.605972 0.739349
O O10 0.809887 0.496770 0.985874
O O11 0.169226 0.347741 0.932224
O O12 0.046079 0.839667 0.729403
O O13 0.739934 0.459903 0.879289
O O14 0.356238 0.608855 0.169482
O O15 0.000000 0.500000 0.500000
O O16 0.099783 0.279910 0.671957
O O17 0.523459 0.170629 0.523203
#
# Coordination Sequence:
#
# PCOD9108186 Si02
#       8
#     2   2   2   2   2   2   2   2
#     4  11  24  42  63  87 123 169 208 256 306 360
#     4  10  23  41  61  93 123 162 208 253 306 366
#     4   9  19  39  65  91 122 164 199 254 321 366
#     4  10  20  40  67  91 125 162 205 257 310 370
#     4   9  20  38  58  87 126 155 199 256 306 362
#     4  10  21  34  61  90 118 159 200 254 308 363
#     4  10  22  39  59  94 125 157 209 251 312 372
#     4  11  24  40  65  90 125 169 208 254 301 371
#
# _framework density 21.163509999999999
#
# number of rings (size 3 to 8) (size 9 to 14) (size 15 to 20)
#    0.000    2.000    1.250    1.125    1.750    7.000 
#    2.250    0.000    0.000    0.000    0.000    0.000 
#    0.000    0.000    0.000    0.000    0.000    0.000 
#
# Total GULP energy -89217.659820 kJ/mol
# GULP energy per Si atom -5576.103739 kJ/mol
# Density = 2.111534 g / cm^3
# Si number density = 21.163510 Si / 1000 Ang^3
#
#
#
# Elastic Constant Matrix: (Units=GPa)
#
#
# Indices 1 2 3 4 5 6 
#
# 1 120.0410 43.9787 32.6981 1.1604 0.0376 -25.4836
# 2 43.9787 66.0693 9.9042 -13.3273 1.7044 -14.1926
# 3 32.6981 9.9042 50.7129 -6.0097 3.1455 -12.3482
# 4 1.1604 -13.3273 -6.0097 17.1840 2.4722 4.1987
# 5 0.0376 1.7044 3.1455 2.4722 22.8829 -5.4818
# 6 -25.4836 -14.1926 -12.3482 4.1987 -5.4818 48.0447
#
#
#
# Elastic Compliance Matrix: (Units=1/GPa)
#
#
# Indices 1 2 3 4 5 6 
#
# 1 0.016204 -0.011582 -0.009134 -0.015117 0.004851 0.004701
# 2 -0.011582 0.027205 0.005516 0.024427 -0.005267 0.000575
# 3 -0.009134 0.005516 0.027045 0.014655 -0.005252 0.001856
# 4 -0.015117 0.024427 0.014655 0.086944 -0.014715 -0.006313
# 5 0.004851 -0.005267 -0.005252 -0.014715 0.047935 0.006423
# 6 0.004701 0.000575 0.001856 -0.006313 0.006423 0.025239
#
#
# Mechanical properties :
#
#
# Convention : Reuss Voigt Hill
#
# Bulk Modulus (GPa) = 24.96565 45.55390 35.25977
# Shear Modulus (GPa) = 18.22667 27.63846 22.93257
#
# Velocity S-wave (km/s) = 2.93786 3.61771 3.29536
# Velocity P-wave (km/s) = 4.83013 6.24675 5.58355
#
# Compressibility (1/GPa) = 0.04005504
#
# Stress axis : x y z
#
# Youngs Moduli (GPa) = 61.71272 36.75796 36.97532
#
# Poissons Ratio (x) = 0.42572 0.33772
# Poissons Ratio (y) = 0.71474 -0.20395
# Poissons Ratio (z) = 0.56367 -0.20275
#
# Static dielectric constant tensor:
#      x y z
#    x 1.818490 0.017840 -0.029730 
#    y 0.017840 1.809390 -0.022750 
#    z -0.029730 -0.022750 1.750450 
# 
# From -- ./inp_files/521421.got.cif
#   From: 2010.05.17/outbox.cif.g08.bks.cpg/sg2_261_cif.got.tgz:521421.got - 2010.06.03 11:33:40.
