data_PCOD9108704
_publ_section_title
;
Structure prediction by ZEFSAII (Michael W. Deem and Ramdas Pophale) SiO2 
 PCOD9108704
Probable space group: P -1
;
_chemical_formula_sum "Si O2"
_cell_formula_units_Z 16
_cell_length_a 9.443594
_cell_length_b 8.242394
_cell_length_c 17.078065
_cell_angle_alpha 127.189100
_cell_angle_beta 124.448048
_cell_angle_gamma 45.013925
_cell_volume 726.073808
_symmetry_space_group_name_H-M "P -1"
_symmetry_group_IT_number 2
_symmetry_cell_setting 'triclinic'
loop_
_space_group_symop_operation_xyz
x,y,z
-x,-y,-z
loop_
_atom_site_type_symbol
_atom_site_label
_atom_site_fract_x
_atom_site_fract_y
_atom_site_fract_z
Si Si1 0.279532 0.989268 0.251924
Si Si2 0.807118 0.210252 0.451412
Si Si3 0.891136 0.404526 0.168517
Si Si4 0.900868 0.825457 0.253679
Si Si5 0.816235 0.602727 0.034975
Si Si6 0.456101 0.259548 0.459256
Si Si7 0.474473 0.549892 0.848235
Si Si8 0.318230 0.699600 0.311445
O O1 0.421099 0.052644 0.362801
O O2 0.119191 0.209847 0.212899
O O3 0.404021 0.736780 0.169769
O O4 0.182043 0.922514 0.272960
O O5 0.594167 0.260704 0.433246
O O6 0.762566 0.479084 0.521933
O O7 0.841398 0.082826 0.342178
O O8 0.000000 0.000000 0.500000
O O9 0.836692 0.679624 0.247890
O O10 0.874309 0.415517 0.071878
O O11 0.744989 0.341472 0.149172
O O12 0.802970 0.827453 0.140962
O O13 0.151250 0.651306 0.277190
O O14 0.607045 0.654660 0.948156
O O15 0.000000 0.500000 0.000000
O O16 0.583849 0.230552 0.568990
O O17 0.507700 0.506207 0.751979
#
# Coordination Sequence:
#
# PCOD9108704 Si02
#       8
#     2   2   2   2   2   2   2   2
#     4  10  23  40  63  94 128 169 212 262 322 380
#     4  11  22  37  65  92 131 165 218 263 320 378
#     4  10  22  39  69  90 129 166 218 256 324 378
#     4  10  21  40  65  93 128 171 210 266 321 377
#     4  10  20  40  70  96 129 169 210 270 323 378
#     4  11  23  40  64  97 127 176 214 264 320 380
#     4  10  21  41  65  94 132 164 212 266 316 382
#     4  10  22  41  64  90 137 166 210 266 319 371
#
# _framework density 22.036327
#
# number of rings (size 3 to 8) (size 9 to 14) (size 15 to 20)
#    1.500    0.250    2.500    2.250    1.750    1.500 
#    0.000    1.250    5.500    3.000    0.000    0.000 
#    0.000    0.000    0.000    0.000    0.000    0.000 
#
# Total GULP energy -89079.651912 kJ/mol
# GULP energy per Si atom -5567.478245 kJ/mol
# Density = 2.198617 g / cm^3
# Si number density = 22.036327 Si / 1000 Ang^3
#
#
#
# Elastic Constant Matrix: (Units=GPa)
#
#
# Indices 1 2 3 4 5 6 
#
# 1 94.3243 -11.4929 15.1256 -1.7952 4.5442 -8.1743
# 2 -11.4929 43.2323 -3.0336 1.1712 -2.9468 -5.5240
# 3 15.1256 -3.0336 100.2088 6.5602 3.9703 -7.8601
# 4 -1.7952 1.1712 6.5602 28.4270 0.8723 -3.4682
# 5 4.5442 -2.9468 3.9703 0.8723 36.3140 2.9422
# 6 -8.1743 -5.5240 -7.8601 -3.4682 2.9422 14.4166
#
#
#
# Elastic Compliance Matrix: (Units=1/GPa)
#
#
# Indices 1 2 3 4 5 6 
#
# 1 0.012154 0.004091 -0.001084 0.001968 -0.001824 0.008714
# 2 0.004091 0.025964 0.001133 0.000491 0.000412 0.012920
# 3 -0.001084 0.001133 0.010788 -0.001889 -0.001354 0.005523
# 4 0.001968 0.000491 -0.001889 0.036927 -0.001656 0.009496
# 5 -0.001824 0.000412 -0.001354 -0.001656 0.028623 -0.007854
# 6 0.008714 0.012920 0.005523 0.009496 -0.007854 0.086155
#
#
# Mechanical properties :
#
#
# Convention : Reuss Voigt Hill
#
# Bulk Modulus (GPa) = 17.48660 26.55152 22.01906
# Shear Modulus (GPa) = 23.65269 31.64260 27.64765
#
# Velocity S-wave (km/s) = 3.27976 3.79348 3.54593
# Velocity P-wave (km/s) = 4.72176 5.59128 5.17481
#
# Compressibility (1/GPa) = 0.05718664
#
# Stress axis : x y z
#
# Youngs Moduli (GPa) = 82.27424 38.51548 92.69885
#
# Poissons Ratio (x) = -0.15756 0.10047
# Poissons Ratio (y) = -0.33658 -0.10507
# Poissons Ratio (z) = 0.08917 -0.04365
#
# Static dielectric constant tensor:
#      x y z
#    x 1.847360 0.022010 -0.009920 
#    y 0.022010 1.884460 0.009390 
#    z -0.009920 0.009390 1.809230 
# 
# From -- ./inp_files/556427.got.cif
#   From: 2010.05.17/outbox.cif.g08.bks.cpg/sg2_279_cif.got.tgz:556427.got - 2010.06.03 11:33:40.
