data_PCOD9108379
_publ_section_title
;
Structure prediction by ZEFSAII (Michael W. Deem and Ramdas Pophale) SiO2 
 PCOD9108379
Probable space group: P -1
;
_chemical_formula_sum "Si O2"
_cell_formula_units_Z 16
_cell_length_a 6.541296
_cell_length_b 11.631048
_cell_length_c 11.075750
_cell_angle_alpha 87.839517
_cell_angle_beta 66.320142
_cell_angle_gamma 106.227095
_cell_volume 730.122788
_symmetry_space_group_name_H-M "P -1"
_symmetry_group_IT_number 2
_symmetry_cell_setting 'triclinic'
loop_
_space_group_symop_operation_xyz
x,y,z
-x,-y,-z
loop_
_atom_site_type_symbol
_atom_site_label
_atom_site_fract_x
_atom_site_fract_y
_atom_site_fract_z
Si Si1 0.564765 0.792614 0.286260
Si Si2 0.352483 0.246711 0.262294
Si Si3 0.076168 0.903709 0.060794
Si Si4 0.856580 0.388555 0.751523
Si Si5 0.830861 0.311327 0.038638
Si Si6 0.820862 0.741844 0.440920
Si Si7 0.718501 0.034954 0.729344
Si Si8 0.244200 0.411116 0.105062
O O1 0.824729 0.813715 0.170364
O O2 0.368064 0.683431 0.272480
O O3 0.606009 0.763023 0.415982
O O4 0.481099 0.909779 0.273967
O O5 0.625655 0.322257 0.172372
O O6 0.254457 0.289206 0.403286
O O7 0.243235 0.282739 0.164790
O O8 0.313030 0.103561 0.289446
O O9 0.241352 0.952029 0.135544
O O10 0.192562 0.830122 0.949774
O O11 0.000000 0.000000 0.000000
O O12 0.861642 0.524873 0.767572
O O13 0.076268 0.356162 0.643644
O O14 0.811255 0.337075 0.901249
O O15 0.078689 0.389646 0.029561
O O16 0.037815 0.869069 0.382036
O O17 0.500000 0.500000 0.000000
#
# Coordination Sequence:
#
# PCOD9108379 Si02
#       8
#     2   2   2   2   2   2   2   2
#     4  10  20  40  68  91 126 182 213 269 327 385
#     4  12  27  42  66 103 135 174 223 276 326 392
#     4  11  21  34  62  99 134 169 214 268 330 394
#     4  11  23  44  70  93 128 177 224 267 330 398
#     4  12  24  41  67 101 129 168 228 270 327 398
#     4  10  24  45  68  96 137 178 220 267 330 400
#     4  10  22  41  66  98 138 175 220 264 329 403
#     4  12  27  44  72  97 135 173 217 286 338 378
#
# _framework density 21.914121000000002
#
# number of rings (size 3 to 8) (size 9 to 14) (size 15 to 20)
#    0.000    1.000    5.000    3.000    1.750    5.000 
#    0.000    1.250    0.000    0.000    0.000    0.000 
#    0.000    0.000    0.000    0.000    0.000    0.000 
#
# Total GULP energy -89383.822853 kJ/mol
# GULP energy per Si atom -5586.488928 kJ/mol
# Density = 2.186424 g / cm^3
# Si number density = 21.914121 Si / 1000 Ang^3
#
#
#
# Elastic Constant Matrix: (Units=GPa)
#
#
# Indices 1 2 3 4 5 6 
#
# 1 110.5308 12.4479 36.4452 4.5525 9.0816 1.4830
# 2 12.4479 48.6101 10.4078 17.4145 -4.3851 -11.5904
# 3 36.4452 10.4078 111.9715 7.6939 -6.0854 2.2063
# 4 4.5525 17.4145 7.6939 19.3418 -8.3995 0.5643
# 5 9.0816 -4.3851 -6.0854 -8.3995 25.5203 3.8592
# 6 1.4830 -11.5904 2.2063 0.5643 3.8592 35.2237
#
#
#
# Elastic Compliance Matrix: (Units=1/GPa)
#
#
# Indices 1 2 3 4 5 6 
#
# 1 0.010991 -0.001944 -0.003572 -0.001876 -0.005680 -0.000226
# 2 -0.001944 0.036606 -0.000974 -0.035545 -0.006995 0.013524
# 3 -0.003572 -0.000974 0.010458 -0.000895 0.003483 -0.001192
# 4 -0.001876 -0.035545 -0.000895 0.097533 0.028911 -0.016291
# 5 -0.005680 -0.006995 0.003483 0.028911 0.051620 -0.008399
# 6 -0.000226 0.013524 -0.001192 -0.016291 -0.008399 0.034105
#
#
# Mechanical properties :
#
#
# Convention : Reuss Voigt Hill
#
# Bulk Modulus (GPa) = 22.18524 43.30157 32.74340
# Shear Modulus (GPa) = 18.56534 30.13793 24.35163
#
# Velocity S-wave (km/s) = 2.91380 3.71249 3.33713
# Velocity P-wave (km/s) = 4.63314 6.17894 5.46102
#
# Compressibility (1/GPa) = 0.04507502
#
# Stress axis : x y z
#
# Youngs Moduli (GPa) = 90.98329 27.31803 95.61737
#
# Poissons Ratio (x) = 0.05311 0.34155
# Poissons Ratio (y) = 0.17688 0.09312
# Poissons Ratio (z) = 0.32500 0.02661
#
# Static dielectric constant tensor:
#      x y z
#    x 1.825860 -0.046080 -0.024410 
#    y -0.046080 1.834440 -0.005550 
#    z -0.024410 -0.005550 1.795120 
# 
# From -- ./inp_files/364468.got.cif
#   From: 2010.05.17/outbox.cif.g08.bks.cpg/sg2_183_cif.got.tgz:364468.got - 2010.06.03 11:33:40.
