data_PCOD9108932
_publ_section_title
;
Structure prediction by ZEFSAII (Michael W. Deem and Ramdas Pophale) SiO2 
 PCOD9108932
Probable space group: P -1
;
_chemical_formula_sum "Si O2"
_cell_formula_units_Z 16
_cell_length_a 11.014100
_cell_length_b 8.471616
_cell_length_c 9.969942
_cell_angle_alpha 110.625632
_cell_angle_beta 93.711702
_cell_angle_gamma 123.172188
_cell_volume 688.263771
_symmetry_space_group_name_H-M "P -1"
_symmetry_group_IT_number 2
_symmetry_cell_setting 'triclinic'
loop_
_space_group_symop_operation_xyz
x,y,z
-x,-y,-z
loop_
_atom_site_type_symbol
_atom_site_label
_atom_site_fract_x
_atom_site_fract_y
_atom_site_fract_z
Si Si1 0.972125 0.091735 0.653361
Si Si2 0.408507 0.800124 0.120705
Si Si3 0.590430 0.337743 0.531347
Si Si4 0.543166 0.640056 0.749889
Si Si5 0.700553 0.117970 0.591284
Si Si6 0.709939 0.063671 0.067108
Si Si7 0.286820 0.385564 0.874807
Si Si8 0.052860 0.954582 0.854946
O O1 0.844799 0.120669 0.622318
O O2 0.128645 0.316160 0.776251
O O3 0.942506 0.931815 0.723927
O O4 0.000000 0.000000 0.500000
O O5 0.358579 0.564141 0.046626
O O6 0.346079 0.842606 0.256965
O O7 0.588748 0.971282 0.153479
O O8 0.323927 0.799194 0.981515
O O9 0.624417 0.541252 0.669559
O O10 0.540721 0.342975 0.378531
O O11 0.710924 0.287288 0.543505
O O12 0.439405 0.126470 0.527103
O O13 0.412273 0.474625 0.795938
O O14 0.650234 0.866969 0.899655
O O15 0.888983 0.184410 0.151284
O O16 0.218536 0.162876 0.873841
O O17 0.000000 0.000000 0.000000
#
# Coordination Sequence:
#
# PCOD9108932 Si02
#       8
#     2   2   2   2   2   2   2   2
#     4  10  23  44  64  88 127 170 204 261 313 383
#     4  10  21  38  61  93 128 158 204 274 309 366
#     4  10  23  35  64  91 127 162 208 265 313 380
#     4  10  20  41  59  95 127 162 210 262 313 372
#     4  11  22  39  62  92 124 167 212 255 322 369
#     4  10  21  38  64  89 125 165 205 260 319 363
#     4   9  23  39  63  88 127 162 212 254 321 365
#     4  10  23  41  65  93 119 167 220 249 309 384
#
# _framework density 23.246903
#
# number of rings (size 3 to 8) (size 9 to 14) (size 15 to 20)
#    0.750    1.250    1.250    1.500    3.500    2.500 
#    0.000    0.625    0.000    0.000    0.000    0.000 
#    0.000    0.000    0.000    0.000    0.000    0.000 
#
# Total GULP energy -89301.326884 kJ/mol
# GULP energy per Si atom -5581.332930 kJ/mol
# Density = 2.319399 g / cm^3
# Si number density = 23.246903 Si / 1000 Ang^3
#
#
#
# Elastic Constant Matrix: (Units=GPa)
#
#
# Indices 1 2 3 4 5 6 
#
# 1 144.0865 23.0792 64.4366 -11.8997 27.1551 -33.6356
# 2 23.0792 37.3134 15.8044 -1.3069 -5.4154 -4.3424
# 3 64.4366 15.8044 115.7287 -15.7435 3.8533 -21.3866
# 4 -11.8997 -1.3069 -15.7435 28.5772 -12.6297 3.2773
# 5 27.1551 -5.4154 3.8533 -12.6297 45.5560 -4.9330
# 6 -33.6356 -4.3424 -21.3866 3.2773 -4.9330 32.8219
#
#
#
# Elastic Compliance Matrix: (Units=1/GPa)
#
#
# Indices 1 2 3 4 5 6 
#
# 1 0.013689 -0.006525 -0.005103 -0.002003 -0.008104 0.008822
# 2 -0.006525 0.032338 -0.001186 0.001954 0.008142 -0.002153
# 3 -0.005103 -0.001186 0.012926 0.006315 0.003882 0.002989
# 4 -0.002003 0.001954 0.006315 0.043450 0.012930 -0.000074
# 5 -0.008104 0.008142 0.003882 0.012930 0.030859 -0.001351
# 6 0.008822 -0.002153 0.002989 -0.000074 -0.001351 0.040975
#
#
# Mechanical properties :
#
#
# Convention : Reuss Voigt Hill
#
# Bulk Modulus (GPa) = 30.00797 55.97435 42.99116
# Shear Modulus (GPa) = 23.69952 34.31157 29.00555
#
# Velocity S-wave (km/s) = 3.19638 3.84599 3.53614
# Velocity P-wave (km/s) = 5.15353 6.62214 5.93344
#
# Compressibility (1/GPa) = 0.03332448
#
# Stress axis : x y z
#
# Youngs Moduli (GPa) = 73.05279 30.92338 77.36073
#
# Poissons Ratio (x) = 0.20177 0.39478
# Poissons Ratio (y) = 0.47667 0.09178
# Poissons Ratio (z) = 0.37279 0.03669
#
# Static dielectric constant tensor:
#      x y z
#    x 1.886450 -0.008350 0.070200 
#    y -0.008350 1.955260 -0.016060 
#    z 0.070200 -0.016060 1.935430 
# 
# From -- ./inp_files/412172.got.cif
#   From: 2010.05.17/outbox.cif.g08.bks.cpg/sg2_207_cif.got.tgz:412172.got - 2010.06.03 11:33:40.
