data_PCOD9108432
_publ_section_title
;
Structure prediction by ZEFSAII (Michael W. Deem and Ramdas Pophale) SiO2 
 PCOD9108432
Probable space group: P -1
;
_chemical_formula_sum "Si O2"
_cell_formula_units_Z 15
_cell_length_a 9.776705
_cell_length_b 7.574671
_cell_length_c 10.889001
_cell_angle_alpha 61.722425
_cell_angle_beta 102.565101
_cell_angle_gamma 127.176927
_cell_volume 563.113252
_symmetry_space_group_name_H-M "P -1"
_symmetry_group_IT_number 2
_symmetry_cell_setting 'triclinic'
loop_
_space_group_symop_operation_xyz
x,y,z
-x,-y,-z
loop_
_atom_site_type_symbol
_atom_site_label
_atom_site_fract_x
_atom_site_fract_y
_atom_site_fract_z
Si Si1 0.918222 0.242921 0.310067
Si Si2 0.176218 0.040085 0.987357
Si Si3 0.848806 0.162255 0.592650
Si Si4 0.500000 0.500000 0.000000
Si Si5 0.504652 0.234717 0.376888
Si Si6 0.792157 0.752635 0.337949
Si Si7 0.617856 0.206122 0.140696
Si Si8 0.263103 0.709276 0.225637
O O1 0.874772 0.285388 0.424164
O O2 0.807157 0.281830 0.179640
O O3 0.124612 0.415681 0.277935
O O4 0.832465 0.952966 0.380513
O O5 0.313352 0.245081 0.039559
O O6 0.226339 0.145738 0.826569
O O7 0.187110 0.813133 0.083963
O O8 0.000000 0.000000 0.000000
O O9 0.781154 0.245897 0.660753
O O10 0.031118 0.223136 0.643215
O O11 0.694575 0.875554 0.636117
O O12 0.416243 0.641930 0.008557
O O13 0.624857 0.472603 0.405781
O O14 0.573644 0.298045 0.228512
O O15 0.500000 0.000000 0.500000
O O16 0.471559 0.910930 0.195143
#
# Coordination Sequence:
#
# PCOD9108432 Si02
#       8
#     2   2   2   1   2   2   2   2
#     4  12  25  42  62 100 145 171 210 273 343 394
#     4  11  21  41  67  93 126 166 228 274 315 390
#     4  11  24  42  67  95 131 180 224 269 315 396
#     4  10  20  40  68  96 118 162 234 272 312 380
#     4  11  23  42  68  94 123 173 232 269 317 388
#     4  12  27  41  65 101 137 175 212 276 342 389
#     4  10  21  40  66  95 122 171 223 273 318 381
#     4  10  23  39  69  94 120 180 229 268 315 388
#
# _framework density 26.637626999999998
#
# number of rings (size 3 to 8) (size 9 to 14) (size 15 to 20)
#    0.000    1.067    4.000    2.400    3.733    2.133 
#    0.000    2.667    0.000    0.000    0.000    0.000 
#    0.000    0.000    0.000    0.000    0.000    0.000 
#
# Total GULP energy -83684.979772 kJ/mol
# GULP energy per Si atom -5578.998651 kJ/mol
# Density = 2.657700 g / cm^3
# Si number density = 26.637627 Si / 1000 Ang^3
#
#
#
# Elastic Constant Matrix: (Units=GPa)
#
#
# Indices 1 2 3 4 5 6 
#
# 1 52.1590 43.8185 10.6377 6.7496 17.0876 12.1832
# 2 43.8185 216.3535 26.5226 -16.1860 10.4646 23.4634
# 3 10.6377 26.5226 86.2353 10.3070 5.0631 -2.8092
# 4 6.7496 -16.1860 10.3070 33.4181 7.4665 1.5022
# 5 17.0876 10.4646 5.0631 7.4665 24.4509 8.9070
# 6 12.1832 23.4634 -2.8092 1.5022 8.9070 41.1868
#
#
#
# Elastic Compliance Matrix: (Units=1/GPa)
#
#
# Indices 1 2 3 4 5 6 
#
# 1 0.030379 -0.005394 -0.000620 -0.004764 -0.016535 -0.002206
# 2 -0.005394 0.006577 -0.002074 0.004838 0.000875 -0.002658
# 3 -0.000620 -0.002074 0.013022 -0.004822 -0.000855 0.002614
# 4 -0.004764 0.004838 -0.004822 0.036672 -0.008514 -0.001172
# 5 -0.016535 0.000875 -0.000855 -0.008514 0.057711 -0.007836
# 6 -0.002206 -0.002658 0.002614 -0.001172 -0.007836 0.028362
#
#
# Mechanical properties :
#
#
# Convention : Reuss Voigt Hill
#
# Bulk Modulus (GPa) = 29.58403 57.41171 43.49787
# Shear Modulus (GPa) = 24.97941 38.06242 31.52092
#
# Velocity S-wave (km/s) = 3.06559 3.78418 3.44368
# Velocity P-wave (km/s) = 4.86422 6.37910 5.67246
#
# Compressibility (1/GPa) = 0.03380202
#
# Stress axis : x y z
#
# Youngs Moduli (GPa) = 32.91775 152.05324 76.79243
#
# Poissons Ratio (x) = 0.82018 0.04762
# Poissons Ratio (y) = 0.17756 0.15924
# Poissons Ratio (z) = 0.02041 0.31530
#
# Static dielectric constant tensor:
#      x y z
#    x 2.408170 -0.004330 0.118850 
#    y -0.004330 2.125630 -0.002250 
#    z 0.118850 -0.002250 1.969610 
# 
# From -- ./inp_files/416635.got.cif
#   From: 2010.05.17/outbox.cif.g08.bks.cpg/sg2_209_cif.got.tgz:416635.got - 2010.06.03 11:33:40.
