data_PCOD9108816
_publ_section_title
;
Structure prediction by ZEFSAII (Michael W. Deem and Ramdas Pophale) SiO2 
 PCOD9108816
Probable space group: P -1
;
_chemical_formula_sum "Si O2"
_cell_formula_units_Z 12
_cell_length_a 5.333744
_cell_length_b 20.797929
_cell_length_c 11.648805
_cell_angle_alpha 151.415972
_cell_angle_beta 129.408206
_cell_angle_gamma 64.099043
_cell_volume 451.533286
_symmetry_space_group_name_H-M "P -1"
_symmetry_group_IT_number 2
_symmetry_cell_setting 'triclinic'
loop_
_space_group_symop_operation_xyz
x,y,z
-x,-y,-z
loop_
_atom_site_type_symbol
_atom_site_label
_atom_site_fract_x
_atom_site_fract_y
_atom_site_fract_z
Si Si1 0.299280 0.058514 0.272319
Si Si2 0.289381 0.132289 0.845215
Si Si3 0.640266 0.488614 0.148635
Si Si4 0.761288 0.153848 0.361672
Si Si5 0.719094 0.597084 0.861219
Si Si6 0.664334 0.697990 0.660456
O O1 0.631817 0.159295 0.461349
O O2 0.134477 0.141157 0.440189
O O3 0.394364 0.926344 0.139801
O O4 0.000000 0.000000 0.000000
O O5 0.363468 0.268337 0.999416
O O6 0.180058 0.175225 0.006025
O O7 0.000000 0.000000 0.500000
O O8 0.332663 0.414246 0.032486
O O9 0.810514 0.643350 0.503823
O O10 0.925602 0.412837 0.099312
O O11 0.500000 0.500000 0.000000
O O12 0.667065 0.267892 0.434569
O O13 0.500000 0.000000 0.000000
O O14 0.438325 0.442893 0.511872
#
# Coordination Sequence:
#
# PCOD9108816 Si02
#       6
#     2   2   2   2   2   2
#     4  10  22  43  73 103 151 200 264 305 386 456
#     4  12  26  51  75 119 171 208 255 329 403 477
#     4  10  24  49  80 114 152 200 271 328 388 462
#     4  10  20  40  72 110 139 192 263 319 365 449
#     4  10  26  48  79 113 154 207 261 322 401 468
#     4  10  24  45  82 111 153 205 268 319 394 465
#
# _framework density 26.576114
#
# number of rings (size 3 to 8) (size 9 to 14) (size 15 to 20)
#    1.000    0.667    3.333    1.000    2.333    3.333 
#    0.000    1.667    0.000    0.000    0.000    0.000 
#    0.000    0.000    0.000    0.000    0.000    0.000 
#
# Total GULP energy -67135.251613 kJ/mol
# GULP energy per Si atom -5594.604301 kJ/mol
# Density = 2.651563 g / cm^3
# Si number density = 26.576114 Si / 1000 Ang^3
#
#
#
# Elastic Constant Matrix: (Units=GPa)
#
#
# Indices 1 2 3 4 5 6 
#
# 1 214.9228 66.5895 45.3459 6.0647 -31.3206 -0.7645
# 2 66.5895 215.9713 56.4424 22.2894 -12.5644 -11.4316
# 3 45.3459 56.4424 172.3794 7.0238 -44.1260 -4.9739
# 4 6.0647 22.2894 7.0238 37.2564 5.1703 -5.5725
# 5 -31.3206 -12.5644 -44.1260 5.1703 34.9847 3.8516
# 6 -0.7645 -11.4316 -4.9739 -5.5725 3.8516 42.5064
#
#
#
# Elastic Compliance Matrix: (Units=1/GPa)
#
#
# Indices 1 2 3 4 5 6 
#
# 1 0.005862 -0.001532 0.000353 -0.000984 0.005386 -0.000882
# 2 -0.001532 0.005792 -0.001636 -0.002592 -0.001092 0.001098
# 3 0.000353 -0.001636 0.009425 -0.002650 0.012093 -0.000774
# 4 -0.000984 -0.002592 -0.002650 0.031058 -0.010180 0.003969
# 5 0.005386 -0.001092 0.012093 -0.010180 0.050285 -0.004673
# 6 -0.000882 0.001098 -0.000774 0.003969 -0.004673 0.024659
#
#
# Mechanical properties :
#
#
# Convention : Reuss Voigt Hill
#
# Bulk Modulus (GPa) = 64.72505 104.44770 84.58637
# Shear Modulus (GPa) = 36.26851 51.94253 44.10552
#
# Velocity S-wave (km/s) = 3.69820 4.42575 4.07823
# Velocity P-wave (km/s) = 6.53016 8.09339 7.35343
#
# Compressibility (1/GPa) = 0.01544997
#
# Stress axis : x y z
#
# Youngs Moduli (GPa) = 170.57789 172.65080 106.09793
#
# Poissons Ratio (x) = 0.26442 -0.03741
# Poissons Ratio (y) = 0.26124 0.17357
# Poissons Ratio (z) = -0.06014 0.28244
#
# Static dielectric constant tensor:
#      x y z
#    x 9.308030 17.026100 -12.851560 
#    y 17.026100 42.894200 -31.085020 
#    z -12.851560 -31.085020 25.860890 
# 
# From -- ./inp_files/370213.got.cif
#   From: 2010.05.17/outbox.cif.g08.bks.cpg/sg2_186_cif.got.tgz:370213.got - 2010.06.03 11:33:40.
