data_PCOD9108230
_publ_section_title
;
Structure prediction by ZEFSAII (Michael W. Deem and Ramdas Pophale) SiO2 
 PCOD9108230
Probable space group: P -1
;
_chemical_formula_sum "Si O2"
_cell_formula_units_Z 16
_cell_length_a 5.366404
_cell_length_b 8.874201
_cell_length_c 30.195493
_cell_angle_alpha 28.123426
_cell_angle_beta 74.051910
_cell_angle_gamma 81.245024
_cell_volume 638.725462
_symmetry_space_group_name_H-M "P -1"
_symmetry_group_IT_number 2
_symmetry_cell_setting 'triclinic'
loop_
_space_group_symop_operation_xyz
x,y,z
-x,-y,-z
loop_
_atom_site_type_symbol
_atom_site_label
_atom_site_fract_x
_atom_site_fract_y
_atom_site_fract_z
Si Si1 0.910869 0.114224 0.094388
Si Si2 0.874839 0.260535 0.227051
Si Si3 0.459113 0.610132 0.108263
Si Si4 0.021479 0.153924 0.410491
Si Si5 0.483731 0.248793 0.026013
Si Si6 0.419667 0.939114 0.394304
Si Si7 0.756328 0.766631 0.281286
Si Si8 0.651343 0.524776 0.555488
O O1 0.724029 0.069162 0.072207
O O2 0.195444 0.017204 0.099071
O O3 0.762255 0.953436 0.186477
O O4 0.000000 0.500000 0.000000
O O5 0.689020 0.490319 0.154818
O O6 0.164200 0.443538 0.179623
O O7 0.705041 0.090175 0.320749
O O8 0.892237 0.000931 0.253883
O O9 0.476900 0.528978 0.076724
O O10 0.500000 0.000000 0.000000
O O11 0.899232 0.470816 0.339271
O O12 0.300481 0.205851 0.358080
O O13 0.000000 0.000000 0.500000
O O14 0.858492 0.853415 0.468130
O O15 0.500000 0.500000 0.000000
O O16 0.428505 0.655263 0.503527
O O17 0.271318 0.758238 0.405087
O O18 0.471193 0.619581 0.354799
#
# Coordination Sequence:
#
# PCOD9108230 Si02
#       8
#     2   2   2   2   2   2   2   2
#     4  10  21  39  66 100 138 183 238 297 357 436
#     4  11  26  47  76 110 147 201 256 304 384 461
#     4  12  26  49  74 106 149 197 255 316 373 447
#     4  12  25  43  72 110 150 197 252 322 376 449
#     4  10  20  40  67  93 135 180 227 297 361 422
#     4  10  24  46  74 102 148 200 245 307 381 452
#     4  11  24  44  72 113 144 202 250 312 384 442
#     4  10  23  47  69 103 152 195 251 308 377 458
#
# _framework density 25.049886000000001
#
# number of rings (size 3 to 8) (size 9 to 14) (size 15 to 20)
#    0.000    1.250    1.250    4.875    1.750    4.000 
#    2.250    0.000    0.000    0.000    0.000    0.000 
#    0.000    0.000    0.000    0.000    0.000    0.000 
#
# Total GULP energy -89504.138360 kJ/mol
# GULP energy per Si atom -5594.008648 kJ/mol
# Density = 2.499287 g / cm^3
# Si number density = 25.049886 Si / 1000 Ang^3
#
#
#
# Elastic Constant Matrix: (Units=GPa)
#
#
# Indices 1 2 3 4 5 6 
#
# 1 109.2667 35.9576 23.8146 2.7453 1.4696 -16.3203
# 2 35.9576 132.0824 35.8495 -2.8402 -1.5483 -23.0921
# 3 23.8146 35.8495 123.6604 15.2847 9.2199 -16.5533
# 4 2.7453 -2.8402 15.2847 46.1033 3.5384 3.3183
# 5 1.4696 -1.5483 9.2199 3.5384 37.6317 7.4272
# 6 -16.3203 -23.0921 -16.5533 3.3183 7.4272 21.1563
#
#
#
# Elastic Compliance Matrix: (Units=1/GPa)
#
#
# Indices 1 2 3 4 5 6 
#
# 1 0.010884 -0.001666 -0.000433 -0.000981 -0.001673 0.006981
# 2 -0.001666 0.009926 -0.001398 0.000622 -0.000958 0.008694
# 3 -0.000433 -0.001398 0.010443 -0.003821 -0.003872 0.008270
# 4 -0.000981 0.000622 -0.003821 0.023534 0.000130 -0.006804
# 5 -0.001673 -0.000958 -0.003872 0.000130 0.030728 -0.016174
# 6 0.006981 0.008694 0.008270 -0.006804 -0.016174 0.075357
#
#
# Mechanical properties :
#
#
# Convention : Reuss Voigt Hill
#
# Bulk Modulus (GPa) = 41.22068 61.80588 51.51328
# Shear Modulus (GPa) = 28.41658 38.93745 33.67702
#
# Velocity S-wave (km/s) = 3.37174 3.94686 3.67058
# Velocity P-wave (km/s) = 5.62577 6.74514 6.21073
#
# Compressibility (1/GPa) = 0.02425967
#
# Stress axis : x y z
#
# Youngs Moduli (GPa) = 91.87601 100.74291 95.75475
#
# Poissons Ratio (x) = 0.16783 0.04143
# Poissons Ratio (y) = 0.15306 0.13391
# Poissons Ratio (z) = 0.03975 0.14089
#
# Static dielectric constant tensor:
#      x y z
#    x 2.167660 -0.020850 0.033990 
#    y -0.020850 2.126230 -0.050280 
#    z 0.033990 -0.050280 1.951310 
# 
# From -- ./inp_files/621714.got.cif
#   From: 2010.05.17/outbox.cif.g08.bks.cpg/sg2_311_cif.got.tgz:621714.got - 2010.06.03 11:33:40.
