data_PCOD9108675
_publ_section_title
;
Structure prediction by ZEFSAII (Michael W. Deem and Ramdas Pophale) SiO2 
 PCOD9108675
Probable space group: P -1
;
_chemical_formula_sum "Si O2"
_cell_formula_units_Z 16
_cell_length_a 11.920122
_cell_length_b 13.502606
_cell_length_c 7.365669
_cell_angle_alpha 142.593140
_cell_angle_beta 102.525033
_cell_angle_gamma 93.102982
_cell_volume 649.782142
_symmetry_space_group_name_H-M "P -1"
_symmetry_group_IT_number 2
_symmetry_cell_setting 'triclinic'
loop_
_space_group_symop_operation_xyz
x,y,z
-x,-y,-z
loop_
_atom_site_type_symbol
_atom_site_label
_atom_site_fract_x
_atom_site_fract_y
_atom_site_fract_z
Si Si1 0.809644 0.462119 0.723335
Si Si2 0.253579 0.234643 0.789266
Si Si3 0.617145 0.360266 0.218322
Si Si4 0.975269 0.336158 0.121926
Si Si5 0.604510 0.703822 0.686603
Si Si6 0.985007 0.991021 0.200132
Si Si7 0.741493 0.066909 0.249385
Si Si8 0.316885 0.919721 0.357724
O O1 0.752956 0.443062 0.473285
O O2 0.774244 0.260403 0.467506
O O3 0.955670 0.577762 0.915698
O O4 0.746190 0.572684 0.980594
O O5 0.110711 0.112783 0.522172
O O6 0.322430 0.107908 0.556375
O O7 0.304336 0.263544 0.056577
O O8 0.595322 0.517103 0.329646
O O9 0.525492 0.322432 0.303808
O O10 0.606411 0.182527 0.856468
O O11 0.000000 0.500000 0.500000
O O12 0.828529 0.217285 0.893173
O O13 0.036767 0.205397 0.031559
O O14 0.661374 0.882699 0.852062
O O15 0.873355 0.049273 0.298979
O O16 0.000000 0.000000 0.000000
O O17 0.660731 0.055139 0.383651
#
# Coordination Sequence:
#
# PCOD9108675 Si02
#       8
#     2   2   2   2   2   2   2   2
#     4  11  22  39  59  88 131 165 200 245 305 367
#     4   9  21  39  58  86 120 159 196 252 299 360
#     4  10  20  40  70  89 114 166 211 249 304 370
#     4  11  20  34  59  89 119 163 198 247 300 368
#     4   9  21  42  66  88 119 161 209 253 305 360
#     4  11  23  38  60  91 127 163 204 252 307 369
#     4  11  24  38  57  93 128 158 202 256 305 357
#     4  10  21  37  63  91 119 159 205 253 306 365
#
# _framework density 24.623639000000001
#
# number of rings (size 3 to 8) (size 9 to 14) (size 15 to 20)
#    0.000    1.750    1.250    3.750    1.750    9.000 
#    0.000    0.000    2.750    3.000    0.000    0.000 
#    0.000    0.000    0.000    0.000    0.000    0.000 
#
# Total GULP energy -89252.696733 kJ/mol
# GULP energy per Si atom -5578.293546 kJ/mol
# Density = 2.456759 g / cm^3
# Si number density = 24.623639 Si / 1000 Ang^3
#
#
#
# Elastic Constant Matrix: (Units=GPa)
#
#
# Indices 1 2 3 4 5 6 
#
# 1 114.7919 22.0332 46.5109 16.7492 -27.3127 2.4609
# 2 22.0332 71.8231 40.9089 31.8193 -17.4189 3.2818
# 3 46.5109 40.9089 177.4642 52.2161 -45.3542 -9.2432
# 4 16.7492 31.8193 52.2161 60.4117 -12.9894 -9.7111
# 5 -27.3127 -17.4189 -45.3542 -12.9894 62.5628 7.6250
# 6 2.4609 3.2818 -9.2432 -9.7111 7.6250 10.2984
#
#
#
# Elastic Compliance Matrix: (Units=1/GPa)
#
#
# Indices 1 2 3 4 5 6 
#
# 1 0.010897 0.000015 -0.001596 -0.002226 0.004276 -0.009306
# 2 0.000015 0.023639 -0.000999 -0.014571 0.006091 -0.026683
# 3 -0.001596 -0.000999 0.009189 -0.006022 0.004438 -0.000017
# 4 -0.002226 -0.014571 -0.006022 0.034610 -0.006769 0.037418
# 5 0.004276 0.006091 0.004438 -0.006769 0.024195 -0.023277
# 6 -0.009306 -0.026683 -0.000017 0.037418 -0.023277 0.160332
#
#
# Mechanical properties :
#
#
# Convention : Reuss Voigt Hill
#
# Bulk Modulus (GPa) = 25.93081 64.77615 45.35348
# Shear Modulus (GPa) = 17.80131 43.62965 30.71548
#
# Velocity S-wave (km/s) = 2.69166 4.21391 3.53568
# Velocity P-wave (km/s) = 4.49598 7.07387 5.92678
#
# Compressibility (1/GPa) = 0.03856416
#
# Stress axis : x y z
#
# Youngs Moduli (GPa) = 91.76750 42.30210 108.82779
#
# Poissons Ratio (x) = -0.00062 0.17373
# Poissons Ratio (y) = -0.00135 0.10872
# Poissons Ratio (z) = 0.14649 0.04226
#
# Static dielectric constant tensor:
#      x y z
#    x 1.999640 0.009510 0.002000 
#    y 0.009510 1.991130 0.023670 
#    z 0.002000 0.023670 2.036810 
# 
# From -- ./inp_files/200165.got.cif
#   From: 2010.05.17/outbox.cif.g08.bks.cpg/sg2_101_cif.got.tgz:200165.got - 2010.06.03 11:33:40.
