data_PCOD9108851
_publ_section_title
;
Structure prediction by ZEFSAII (Michael W. Deem and Ramdas Pophale) SiO2 
 PCOD9108851
Probable space group: P -1
;
_chemical_formula_sum "Si O2"
_cell_formula_units_Z 14
_cell_length_a 9.697145
_cell_length_b 12.531288
_cell_length_c 7.439055
_cell_angle_alpha 85.855834
_cell_angle_beta 56.413437
_cell_angle_gamma 53.018539
_cell_volume 553.554799
_symmetry_space_group_name_H-M "P -1"
_symmetry_group_IT_number 2
_symmetry_cell_setting 'triclinic'
loop_
_space_group_symop_operation_xyz
x,y,z
-x,-y,-z
loop_
_atom_site_type_symbol
_atom_site_label
_atom_site_fract_x
_atom_site_fract_y
_atom_site_fract_z
Si Si1 0.446814 0.177262 0.176105
Si Si2 0.844989 0.170583 0.273942
Si Si3 0.250170 0.578079 0.226617
Si Si4 0.213563 0.169141 0.012457
Si Si5 0.878542 0.635374 0.270272
Si Si6 0.369252 0.448460 0.546633
Si Si7 0.857729 0.148152 0.838748
O O1 0.285824 0.275757 0.446882
O O2 0.617451 0.004871 0.119908
O O3 0.304069 0.199361 0.107672
O O4 0.612140 0.201598 0.995388
O O5 0.579581 0.279305 0.462605
O O6 0.889071 0.153366 0.029199
O O7 0.957991 0.022500 0.312576
O O8 0.973547 0.221912 0.231433
O O9 0.287389 0.506987 0.397702
O O10 0.123354 0.748370 0.289626
O O11 0.123135 0.556346 0.182562
O O12 0.500000 0.500000 0.000000
O O13 0.190411 0.247170 0.840332
O O14 0.836341 0.533791 0.238604
O O15 0.500000 0.500000 0.500000
#
# Coordination Sequence:
#
# PCOD9108851 Si02
#       7
#     2   2   2   2   2   2   2
#     4  10  22  40  68 105 140 175 226 284 340 411
#     4  10  20  44  66  98 135 179 222 283 340 409
#     4  12  24  46  69 100 133 181 227 281 351 414
#     4  10  22  40  68 105 139 176 226 281 344 409
#     4  12  24  44  69  96 138 186 228 282 344 408
#     4  12  28  45  65 100 140 176 236 287 339 410
#     4  10  20  40  73  95 133 180 225 275 347 408
#
# _framework density 25.291081999999999
#
# number of rings (size 3 to 8) (size 9 to 14) (size 15 to 20)
#    0.000    1.143    4.286    0.857    4.000    1.143 
#    0.000    2.143    0.000    0.000    0.000    0.000 
#    0.000    0.000    0.000    0.000    0.000    0.000 
#
# Total GULP energy -78370.900561 kJ/mol
# GULP energy per Si atom -5597.921469 kJ/mol
# Density = 2.523352 g / cm^3
# Si number density = 25.291082 Si / 1000 Ang^3
#
#
#
# Elastic Constant Matrix: (Units=GPa)
#
#
# Indices 1 2 3 4 5 6 
#
# 1 226.4244 68.8934 37.0898 -16.7022 -28.8528 -10.5366
# 2 68.8934 123.1469 38.0854 -23.9442 -18.3931 -0.7685
# 3 37.0898 38.0854 67.0371 -4.6253 -15.5364 -5.5809
# 4 -16.7022 -23.9442 -4.6253 28.8905 4.5415 -2.5124
# 5 -28.8528 -18.3931 -15.5364 4.5415 37.2806 -1.0516
# 6 -10.5366 -0.7685 -5.5809 -2.5124 -1.0516 46.7091
#
#
#
# Elastic Compliance Matrix: (Units=1/GPa)
#
#
# Indices 1 2 3 4 5 6 
#
# 1 0.005774 -0.002288 -0.001074 0.000936 0.002814 0.001250
# 2 -0.002288 0.012791 -0.005153 0.008197 0.001381 -0.000449
# 3 -0.001074 -0.005153 0.019637 -0.002384 0.005157 0.002007
# 4 0.000936 0.008197 -0.002384 0.041966 -0.001272 0.002290
# 5 0.002814 0.001381 0.005157 -0.001272 0.032041 0.001927
# 6 0.001250 -0.000449 0.002007 0.002290 0.001927 0.022090
#
#
# Mechanical properties :
#
#
# Convention : Reuss Voigt Hill
#
# Bulk Modulus (GPa) = 47.23149 78.30508 62.76829
# Shear Modulus (GPa) = 31.56816 40.74538 36.15677
#
# Velocity S-wave (km/s) = 3.53681 4.01815 3.78514
# Velocity P-wave (km/s) = 5.94932 7.24956 6.63139
#
# Compressibility (1/GPa) = 0.02117232
#
# Stress axis : x y z
#
# Youngs Moduli (GPa) = 173.17710 78.17705 50.92537
#
# Poissons Ratio (x) = 0.17888 0.05470
# Poissons Ratio (y) = 0.39626 0.26241
# Poissons Ratio (z) = 0.18601 0.40284
#
# Static dielectric constant tensor:
#      x y z
#    x 2.002370 0.110360 0.014660 
#    y 0.110360 2.055060 0.054170 
#    z 0.014660 0.054170 2.099390 
# 
# From -- ./inp_files/176885.got.cif
#   From: 2010.05.17/outbox.cif.g08.bks.cpg/sg2_89_cif.got.tgz:176885.got - 2010.06.03 11:33:40.
