data_PCOD9108340
_publ_section_title
;
Structure prediction by ZEFSAII (Michael W. Deem and Ramdas Pophale) SiO2 
 PCOD9108340
Probable space group: P -1
;
_chemical_formula_sum "Si O2"
_cell_formula_units_Z 16
_cell_length_a 11.532435
_cell_length_b 9.049573
_cell_length_c 10.595717
_cell_angle_alpha 118.895094
_cell_angle_beta 128.247238
_cell_angle_gamma 55.188483
_cell_volume 698.424288
_symmetry_space_group_name_H-M "P -1"
_symmetry_group_IT_number 2
_symmetry_cell_setting 'triclinic'
loop_
_space_group_symop_operation_xyz
x,y,z
-x,-y,-z
loop_
_atom_site_type_symbol
_atom_site_label
_atom_site_fract_x
_atom_site_fract_y
_atom_site_fract_z
Si Si1 0.533812 0.287090 0.929009
Si Si2 0.630327 0.239369 0.564980
Si Si3 0.716561 0.496614 0.536259
Si Si4 0.928160 0.646743 0.902274
Si Si5 0.713826 0.877577 0.321944
Si Si6 0.046046 0.849049 0.582702
Si Si7 0.155490 0.832399 0.082894
Si Si8 0.748098 0.976929 0.097674
O O1 0.382047 0.248127 0.764495
O O2 0.692617 0.203396 0.917259
O O3 0.500000 0.500000 0.000000
O O4 0.588702 0.157872 0.037463
O O5 0.677362 0.383900 0.577057
O O6 0.455641 0.349323 0.553952
O O7 0.771069 0.153827 0.725981
O O8 0.623149 0.082548 0.402133
O O9 0.837060 0.582206 0.707586
O O10 0.808117 0.339695 0.432785
O O11 0.000000 0.500000 0.000000
O O12 0.084477 0.675820 0.970452
O O13 0.797803 0.824725 0.959145
O O14 0.888349 0.808846 0.475922
O O15 0.736815 0.894243 0.193307
O O16 0.109684 0.948610 0.770362
O O17 0.000000 0.000000 0.500000
O O18 0.000000 0.000000 0.000000
#
# Coordination Sequence:
#
# PCOD9108340 Si02
#       8
#     2   2   2   2   2   2   2   2
#     4  12  30  46  66 105 151 191 232 292 368 436
#     4  11  24  44  72 107 143 184 242 309 363 421
#     4  11  23  40  71 113 140 176 249 310 352 414
#     4  12  23  43  78 110 138 191 252 299 351 431
#     4  11  24  46  75 101 138 187 245 297 358 425
#     4  10  20  40  68 102 136 177 230 298 354 411
#     4  12  28  50  70  99 152 195 238 292 368 449
#     4  11  23  46  75 104 140 189 240 298 359 420
#
# _framework density 22.908709999999999
#
# number of rings (size 3 to 8) (size 9 to 14) (size 15 to 20)
#    0.000    0.750    5.000    3.375    5.250    0.500 
#    0.000    0.625    0.000    0.000    0.000    0.000 
#    0.000    0.000    0.000    0.000    0.000    0.000 
#
# Total GULP energy -89457.907014 kJ/mol
# GULP energy per Si atom -5591.119188 kJ/mol
# Density = 2.285657 g / cm^3
# Si number density = 22.908710 Si / 1000 Ang^3
#
#
#
# Elastic Constant Matrix: (Units=GPa)
#
#
# Indices 1 2 3 4 5 6 
#
# 1 113.9241 26.5449 30.8291 10.5148 37.0910 -2.8879
# 2 26.5449 82.7270 21.2109 6.8688 5.4485 -17.5885
# 3 30.8291 21.2109 84.2556 13.7434 29.6466 8.0820
# 4 10.5148 6.8688 13.7434 41.1817 0.5960 6.9788
# 5 37.0910 5.4485 29.6466 0.5960 46.9760 5.0566
# 6 -2.8879 -17.5885 8.0820 6.9788 5.0566 37.0406
#
#
#
# Elastic Compliance Matrix: (Units=1/GPa)
#
#
# Indices 1 2 3 4 5 6 
#
# 1 0.013071 -0.002899 -0.000221 -0.002907 -0.009981 0.001601
# 2 -0.002899 0.015871 -0.004197 -0.001943 0.002229 0.008288
# 3 -0.000221 -0.004197 0.017579 -0.004345 -0.009984 -0.003664
# 4 -0.002907 -0.001943 -0.004345 0.027768 0.005577 -0.006194
# 5 -0.009981 0.002229 -0.009984 0.005577 0.035510 -0.003440
# 6 0.001601 0.008288 -0.003664 -0.006194 -0.003440 0.033494
#
#
# Mechanical properties :
#
#
# Convention : Reuss Voigt Hill
#
# Bulk Modulus (GPa) = 31.35930 48.67518 40.01724
# Shear Modulus (GPa) = 29.66399 38.52780 34.09589
#
# Velocity S-wave (km/s) = 3.60235 4.10542 3.86208
# Velocity P-wave (km/s) = 5.56965 6.61560 6.11503
#
# Compressibility (1/GPa) = 0.03188847
#
# Stress axis : x y z
#
# Youngs Moduli (GPa) = 76.50361 63.00917 56.88582
#
# Poissons Ratio (x) = 0.18263 0.01255
# Poissons Ratio (y) = 0.22175 0.23876
# Poissons Ratio (z) = 0.01687 0.26446
#
# Static dielectric constant tensor:
#      x y z
#    x 1.882080 -0.010310 -0.018660 
#    y -0.010310 1.839380 -0.033020 
#    z -0.018660 -0.033020 1.857050 
# 
# From -- ./inp_files/419805.got.cif
#   From: 2010.05.17/outbox.cif.g08.bks.cpg/sg2_210_cif.got.tgz:419805.got - 2010.06.03 11:33:40.
