data_PCOD9108342
_publ_section_title
;
Structure prediction by ZEFSAII (Michael W. Deem and Ramdas Pophale) SiO2 
 PCOD9108342
Probable space group: P -1
;
_chemical_formula_sum "Si O2"
_cell_formula_units_Z 14
_cell_length_a 11.733550
_cell_length_b 9.896582
_cell_length_c 14.525816
_cell_angle_alpha 55.256481
_cell_angle_beta 151.548068
_cell_angle_gamma 136.736995
_cell_volume 537.816529
_symmetry_space_group_name_H-M "P -1"
_symmetry_group_IT_number 2
_symmetry_cell_setting 'triclinic'
loop_
_space_group_symop_operation_xyz
x,y,z
-x,-y,-z
loop_
_atom_site_type_symbol
_atom_site_label
_atom_site_fract_x
_atom_site_fract_y
_atom_site_fract_z
Si Si1 0.890970 0.380328 0.697310
Si Si2 0.774687 0.517086 0.739439
Si Si3 0.218500 0.261148 0.725220
Si Si4 0.693533 0.217377 0.277299
Si Si5 0.095712 0.100103 0.905055
Si Si6 0.624353 0.633563 0.767816
Si Si7 0.468303 0.868618 0.113885
O O1 0.816828 0.381404 0.751811
O O2 0.623309 0.347260 0.460183
O O3 0.158123 0.603292 0.763460
O O4 0.948808 0.213287 0.783773
O O5 0.500000 0.500000 0.500000
O O6 0.674343 0.506759 0.777287
O O7 0.115616 0.704078 0.922097
O O8 0.504453 0.490732 0.827608
O O9 0.279585 0.162230 0.722962
O O10 0.941016 0.264291 0.506367
O O11 0.162664 0.145999 0.825110
O O12 0.417849 0.194032 0.136768
O O13 0.568858 0.003186 0.224139
O O14 0.100424 0.136077 0.120116
O O15 0.500000 0.000000 0.000000
#
# Coordination Sequence:
#
# PCOD9108342 Si02
#       7
#     2   2   2   2   2   2   2
#     4  10  22  40  72 104 143 192 236 295 366 421
#     4  10  20  40  68 102 138 183 235 296 353 418
#     4  11  26  44  74 107 147 187 242 302 358 428
#     4  11  23  42  69 108 143 189 243 294 361 432
#     4  12  23  47  74 102 145 196 237 298 361 428
#     4  10  23  44  70 104 143 186 244 295 356 425
#     4  12  20  42  72 102 144 187 237 301 362 421
#
# _framework density 26.031182999999999
#
# number of rings (size 3 to 8) (size 9 to 14) (size 15 to 20)
#    0.000    1.143    4.286    1.286    0.000    2.857 
#    5.143    2.857    0.000    6.000    0.000    0.000 
#    0.000    0.000    0.000    0.000    0.000    0.000 
#
# Total GULP energy -78257.128391 kJ/mol
# GULP energy per Si atom -5589.794885 kJ/mol
# Density = 2.597193 g / cm^3
# Si number density = 26.031183 Si / 1000 Ang^3
#
#
#
# Elastic Constant Matrix: (Units=GPa)
#
#
# Indices 1 2 3 4 5 6 
#
# 1 99.9667 46.7289 17.4671 -0.7334 28.9470 -6.1721
# 2 46.7289 80.1164 31.2026 -0.3214 4.4459 17.0240
# 3 17.4671 31.2026 113.8262 2.6065 23.4054 35.8333
# 4 -0.7334 -0.3214 2.6065 31.9895 -1.8164 -0.0691
# 5 28.9470 4.4459 23.4054 -1.8164 42.4751 -7.5806
# 6 -6.1721 17.0240 35.8333 -0.0691 -7.5806 48.5435
#
#
#
# Elastic Compliance Matrix: (Units=1/GPa)
#
#
# Indices 1 2 3 4 5 6 
#
# 1 0.018862 -0.011729 0.001751 -0.000503 -0.012017 0.003341
# 2 -0.011729 0.021554 -0.004014 0.000666 0.007089 -0.004979
# 3 0.001751 -0.004014 0.015796 -0.001976 -0.011678 -0.011856
# 4 -0.000503 0.000666 -0.001976 0.031591 0.003012 0.001676
# 5 -0.012017 0.007089 -0.011678 0.003012 0.039478 0.010775
# 6 0.003341 -0.004979 -0.011856 0.001676 0.010775 0.033208
#
#
# Mechanical properties :
#
#
# Convention : Reuss Voigt Hill
#
# Bulk Modulus (GPa) = 35.42527 53.85630 44.64079
# Shear Modulus (GPa) = 25.26765 37.83565 31.55165
#
# Velocity S-wave (km/s) = 3.11894 3.81658 3.48526
# Velocity P-wave (km/s) = 5.15836 6.33686 5.77774
#
# Compressibility (1/GPa) = 0.02822844
#
# Stress axis : x y z
#
# Youngs Moduli (GPa) = 53.01553 46.39617 63.30806
#
# Poissons Ratio (x) = 0.54418 -0.11088
# Poissons Ratio (y) = 0.62182 0.25412
# Poissons Ratio (z) = -0.09285 0.18624
#
# Static dielectric constant tensor:
#      x y z
#    x 2.005960 0.059680 0.003270 
#    y 0.059680 2.125090 -0.025400 
#    z 0.003270 -0.025400 2.000860 
# 
# From -- ./inp_files/518868.got.cif
#   From: 2010.05.17/outbox.cif.g08.bks.cpg/sg2_260_cif.got.tgz:518868.got - 2010.06.03 11:33:40.
