data_PCOD9108910
_publ_section_title
;
Structure prediction by ZEFSAII (Michael W. Deem and Ramdas Pophale) SiO2 
 PCOD9108910
Probable space group: P -1
;
_chemical_formula_sum "Si O2"
_cell_formula_units_Z 14
_cell_length_a 8.959819
_cell_length_b 5.259703
_cell_length_c 20.329548
_cell_angle_alpha 72.761311
_cell_angle_beta 137.120373
_cell_angle_gamma 120.102994
_cell_volume 559.850212
_symmetry_space_group_name_H-M "P -1"
_symmetry_group_IT_number 2
_symmetry_cell_setting 'triclinic'
loop_
_space_group_symop_operation_xyz
x,y,z
-x,-y,-z
loop_
_atom_site_type_symbol
_atom_site_label
_atom_site_fract_x
_atom_site_fract_y
_atom_site_fract_z
Si Si1 0.510095 0.648699 0.593647
Si Si2 0.333879 0.414840 0.209301
Si Si3 0.176200 0.090200 0.917257
Si Si4 0.769580 0.431747 0.276882
Si Si5 0.698638 0.252132 0.126884
Si Si6 0.700649 0.908735 0.362902
Si Si7 0.849494 0.063026 0.577201
O O1 0.630351 0.732067 0.699061
O O2 0.364701 0.291892 0.578449
O O3 0.330838 0.801415 0.515334
O O4 0.698211 0.748520 0.586859
O O5 0.519202 0.452332 0.207114
O O6 0.448999 0.750508 0.250378
O O7 0.065621 0.194629 0.116551
O O8 0.164495 0.404189 0.880360
O O9 0.239797 0.973386 0.878393
O O10 0.411492 0.159870 0.033044
O O11 0.761954 0.254540 0.222953
O O12 0.005903 0.735368 0.329168
O O13 0.782230 0.252620 0.359485
O O14 0.926298 0.879922 0.403139
#
# Coordination Sequence:
#
# PCOD9108910 Si02
#       7
#     2   2   2   2   2   2   2
#     4   9  20  39  61  83 127 167 215 266 324 389
#     4   9  22  38  60  87 127 164 207 268 322 380
#     4  10  22  44  65  97 126 171 216 272 326 387
#     4  11  23  37  62  93 125 168 215 268 330 384
#     4  10  24  40  69  94 129 168 220 267 328 396
#     4   9  22  37  57  89 123 164 208 266 320 380
#     4  10  20  41  58  88 122 173 211 269 321 390
#
# _framework density 25.006689999999999
#
# number of rings (size 3 to 8) (size 9 to 14) (size 15 to 20)
#    0.857    1.429    0.000    1.286    8.000    1.143 
#    2.571    2.143    0.000    0.000    0.000    0.000 
#    0.000    0.000    0.000    0.000    0.000    0.000 
#
# Total GULP energy -78163.525863 kJ/mol
# GULP energy per Si atom -5583.108990 kJ/mol
# Density = 2.494977 g / cm^3
# Si number density = 25.006690 Si / 1000 Ang^3
#
#
#
# Elastic Constant Matrix: (Units=GPa)
#
#
# Indices 1 2 3 4 5 6 
#
# 1 57.3839 11.3106 11.2108 3.3538 -11.0664 11.8122
# 2 11.3106 117.6520 23.3672 16.1626 4.2505 21.9872
# 3 11.2108 23.3672 45.8704 20.0587 3.4957 5.2576
# 4 3.3538 16.1626 20.0587 39.6396 5.2155 0.7740
# 5 -11.0664 4.2505 3.4957 5.2155 30.3505 6.2330
# 6 11.8122 21.9872 5.2576 0.7740 6.2330 34.1173
#
#
#
# Elastic Compliance Matrix: (Units=1/GPa)
#
#
# Indices 1 2 3 4 5 6 
#
# 1 0.022323 0.000257 -0.005078 -0.000649 0.010657 -0.009044
# 2 0.000257 0.010755 -0.003771 -0.002475 0.000787 -0.006527
# 3 -0.005078 -0.003771 0.030988 -0.013370 -0.002636 0.000198
# 4 -0.000649 -0.002475 -0.013370 0.033630 -0.004955 0.004022
# 5 0.010657 0.000787 -0.002636 -0.004955 0.040140 -0.011012
# 6 -0.009044 -0.006527 0.000198 0.004022 -0.011012 0.038538
#
#
# Mechanical properties :
#
#
# Convention : Reuss Voigt Hill
#
# Bulk Modulus (GPa) = 21.33091 34.74261 28.03676
# Shear Modulus (GPa) = 23.90207 32.48934 28.19570
#
# Velocity S-wave (km/s) = 3.09500 3.60839 3.36151
# Velocity P-wave (km/s) = 4.61743 5.59322 5.12858
#
# Compressibility (1/GPa) = 0.04688032
#
# Stress axis : x y z
#
# Youngs Moduli (GPa) = 44.79733 92.97762 32.27084
#
# Poissons Ratio (x) = -0.02389 0.16388
# Poissons Ratio (y) = -0.01151 0.12171
# Poissons Ratio (z) = 0.22749 0.35066
#
# Static dielectric constant tensor:
#      x y z
#    x 1.994460 -0.018580 -0.023650 
#    y -0.018580 1.993680 0.002120 
#    z -0.023650 0.002120 2.017310 
# 
# From -- ./inp_files/605626.got.cif
#   From: 2010.05.17/outbox.cif.g08.bks.cpg/sg2_303_cif.got.tgz:605626.got - 2010.06.03 11:33:40.
