data_PCOD9108320
_publ_section_title
;
Structure prediction by ZEFSAII (Michael W. Deem and Ramdas Pophale) SiO2 
 PCOD9108320
Probable space group: P -1
;
_chemical_formula_sum "Si O2"
_cell_formula_units_Z 16
_cell_length_a 12.122019
_cell_length_b 13.588714
_cell_length_c 6.899590
_cell_angle_alpha 94.203830
_cell_angle_beta 133.150087
_cell_angle_gamma 67.213152
_cell_volume 732.786635
_symmetry_space_group_name_H-M "P -1"
_symmetry_group_IT_number 2
_symmetry_cell_setting 'triclinic'
loop_
_space_group_symop_operation_xyz
x,y,z
-x,-y,-z
loop_
_atom_site_type_symbol
_atom_site_label
_atom_site_fract_x
_atom_site_fract_y
_atom_site_fract_z
Si Si1 0.276343 0.298603 0.577246
Si Si2 0.346064 0.764322 0.043198
Si Si3 0.825435 0.035158 0.403015
Si Si4 0.206351 0.787794 0.306670
Si Si5 0.147054 0.223918 0.036077
Si Si6 0.948600 0.464995 0.729295
Si Si7 0.659164 0.398729 0.278077
Si Si8 0.671241 0.894101 0.123619
O O1 0.447955 0.304065 0.717970
O O2 0.118368 0.419661 0.453172
O O3 0.323724 0.215816 0.800712
O O4 0.223857 0.243090 0.328965
O O5 0.259710 0.787624 0.150959
O O6 0.306279 0.876755 0.895672
O O7 0.270545 0.695667 0.818486
O O8 0.806015 0.104172 0.583219
O O9 0.809528 0.923723 0.393484
O O10 0.000000 0.000000 0.500000
O O11 0.352783 0.675697 0.569860
O O12 0.024813 0.786968 0.124814
O O13 0.280142 0.124752 0.047466
O O14 0.092593 0.337898 0.862566
O O15 0.783135 0.444974 0.514126
O O16 0.000000 0.500000 0.000000
O O17 0.500000 0.500000 0.000000
O O18 0.500000 0.000000 0.000000
#
# Coordination Sequence:
#
# PCOD9108320 Si02
#       8
#     2   2   2   2   2   2   2   2
#     4  11  24  42  67  96 137 175 223 275 341 404
#     4  11  24  41  67 101 134 177 225 282 344 402
#     4  11  24  45  66  93 132 174 233 281 340 406
#     4  10  24  42  66  98 134 173 225 281 338 406
#     4  10  24  43  66  96 133 174 224 276 339 409
#     4   9  20  44  67  97 137 177 222 277 338 406
#     4  10  20  40  67  99 136 172 227 275 328 404
#     4  12  26  44  65  96 132 175 226 282 338 402
#
# _framework density 21.834461000000001
#
# number of rings (size 3 to 8) (size 9 to 14) (size 15 to 20)
#    0.000    1.500    3.750    0.000    3.500    3.000 
#    0.000    2.500    0.000    0.000    0.000    0.000 
#    0.000    0.000    0.000    0.000    0.000    0.000 
#
# Total GULP energy -89167.253532 kJ/mol
# GULP energy per Si atom -5572.953346 kJ/mol
# Density = 2.178476 g / cm^3
# Si number density = 21.834461 Si / 1000 Ang^3
#
#
#
# Elastic Constant Matrix: (Units=GPa)
#
#
# Indices 1 2 3 4 5 6 
#
# 1 104.7055 33.8432 31.2779 12.8648 -14.5585 -12.5266
# 2 33.8432 66.7389 -5.0712 20.1527 -10.2012 -9.6348
# 3 31.2779 -5.0712 55.0040 14.6356 -1.2934 -8.1557
# 4 12.8648 20.1527 14.6356 36.5160 -1.3954 8.2968
# 5 -14.5585 -10.2012 -1.2934 -1.3954 31.2723 1.1660
# 6 -12.5266 -9.6348 -8.1557 8.2968 1.1660 28.3497
#
#
#
# Elastic Compliance Matrix: (Units=1/GPa)
#
#
# Indices 1 2 3 4 5 6 
#
# 1 0.016011 -0.010039 -0.011424 0.004908 0.003971 -0.001223
# 2 -0.010039 0.033235 0.018962 -0.026743 0.005016 0.019935
# 3 -0.011424 0.018962 0.035966 -0.025173 0.000520 0.019089
# 4 0.004908 -0.026743 -0.025173 0.057357 -0.003772 -0.030793
# 5 0.003971 0.005016 0.000520 -0.003772 0.035193 0.003265
# 6 -0.001223 0.019935 0.019089 -0.030793 0.003265 0.055877
#
#
# Mechanical properties :
#
#
# Convention : Reuss Voigt Hill
#
# Bulk Modulus (GPa) = 12.46715 38.50537 25.48626
# Shear Modulus (GPa) = 18.84119 30.32085 24.58102
#
# Velocity S-wave (km/s) = 2.94072 3.73053 3.35892
# Velocity P-wave (km/s) = 4.15364 6.01907 5.17117
#
# Compressibility (1/GPa) = 0.08021082
#
# Stress axis : x y z
#
# Youngs Moduli (GPa) = 62.45839 30.08860 27.80439
#
# Poissons Ratio (x) = 0.30205 0.31763
# Poissons Ratio (y) = 0.62700 -0.52723
# Poissons Ratio (z) = 0.71352 -0.57055
#
# Static dielectric constant tensor:
#      x y z
#    x 1.679760 -0.037370 0.000810 
#    y -0.037370 1.789100 -0.054590 
#    z 0.000810 -0.054590 1.844020 
# 
# From -- ./inp_files/78040.got.cif
#   From: 2010.05.17/outbox.cif.g08.bks.cpg/sg2_40_cif.got.tgz:78040.got - 2010.06.03 11:33:40.
