data_PCOD9108166
_publ_section_title
;
Structure prediction by ZEFSAII (Michael W. Deem and Ramdas Pophale) SiO2 
 PCOD9108166
Probable space group: P -1
;
_chemical_formula_sum "Si O2"
_cell_formula_units_Z 16
_cell_length_a 7.255064
_cell_length_b 24.902609
_cell_length_c 7.905792
_cell_angle_alpha 46.015723
_cell_angle_beta 38.137532
_cell_angle_gamma 47.329488
_cell_volume 606.219377
_symmetry_space_group_name_H-M "P -1"
_symmetry_group_IT_number 2
_symmetry_cell_setting 'triclinic'
loop_
_space_group_symop_operation_xyz
x,y,z
-x,-y,-z
loop_
_atom_site_type_symbol
_atom_site_label
_atom_site_fract_x
_atom_site_fract_y
_atom_site_fract_z
Si Si1 0.983439 0.848997 0.530227
Si Si2 0.833935 0.709797 0.765875
Si Si3 0.762148 0.899729 0.123057
Si Si4 0.797485 0.470853 0.468571
Si Si5 0.516526 0.578695 0.916107
Si Si6 0.443732 0.946674 0.903812
Si Si7 0.471923 0.363237 0.566455
Si Si8 0.700640 0.197460 0.250404
O O1 0.099003 0.803204 0.724446
O O2 0.914461 0.789512 0.577677
O O3 0.670854 0.918946 0.643166
O O4 0.255195 0.884442 0.200318
O O5 0.576084 0.726401 0.768600
O O6 0.167639 0.648884 0.613985
O O7 0.674712 0.689271 0.095748
O O8 0.475230 0.868062 0.448102
O O9 0.781012 0.965969 0.096414
O O10 0.682121 0.937915 0.910481
O O11 0.071878 0.829718 0.014559
O O12 0.500000 0.500000 0.500000
O O13 0.762356 0.551207 0.418785
O O14 0.138693 0.443475 0.205340
O O15 0.737105 0.408577 0.781253
O O16 0.496107 0.643119 0.645594
O O17 0.500000 0.500000 0.000000
#
# Coordination Sequence:
#
# PCOD9108166 Si02
#       8
#     2   2   2   2   2   2   2   2
#     4  10  21  38  57  81 116 158 199 251 299 360
#     4  12  24  41  59  85 123 169 204 240 294 358
#     4   9  17  33  59  85 110 152 193 258 319 353
#     4  11  22  41  68 100 127 151 196 263 313 348
#     4  10  20  40  67  89 124 161 193 242 309 360
#     4   9  17  33  59  85 111 146 203 253 311 366
#     4  11  23  42  63  87 122 162 204 236 296 370
#     4  10  21  38  57  80 120 154 200 251 302 354
#
# _framework density 26.393084000000002
#
# number of rings (size 3 to 8) (size 9 to 14) (size 15 to 20)
#    0.000    1.750    0.000    6.375    0.000    3.000 
#    6.750    3.750    0.000    0.000    0.000    0.000 
#    0.000    0.000    0.000    0.000    0.000    0.000 
#
# Total GULP energy -89597.641844 kJ/mol
# GULP energy per Si atom -5599.852615 kJ/mol
# Density = 2.633301 g / cm^3
# Si number density = 26.393084 Si / 1000 Ang^3
#
#
#
# Elastic Constant Matrix: (Units=GPa)
#
#
# Indices 1 2 3 4 5 6 
#
# 1 100.5875 22.8837 18.5264 -0.5537 -1.8710 -16.8463
# 2 22.8837 96.8099 1.5170 23.3852 -11.1784 -7.3450
# 3 18.5264 1.5170 116.6718 16.2440 -9.6677 -0.8831
# 4 -0.5537 23.3852 16.2440 35.7588 -12.7794 -7.4249
# 5 -1.8710 -11.1784 -9.6677 -12.7794 35.2968 1.5523
# 6 -16.8463 -7.3450 -0.8831 -7.4249 1.5523 40.3702
#
#
#
# Elastic Compliance Matrix: (Units=1/GPa)
#
#
# Indices 1 2 3 4 5 6 
#
# 1 0.012120 -0.003561 -0.002486 0.004863 0.000364 0.005236
# 2 -0.003561 0.013502 0.001797 -0.009433 0.001198 -0.000771
# 3 -0.002486 0.001797 0.009804 -0.005573 0.001174 -0.001566
# 4 0.004863 -0.009433 -0.005573 0.042114 0.010660 0.007527
# 5 0.000364 0.001198 0.001174 0.010660 0.032863 0.001093
# 6 0.005236 -0.000771 -0.001566 0.007527 0.001093 0.028123
#
#
# Mechanical properties :
#
#
# Convention : Reuss Voigt Hill
#
# Bulk Modulus (GPa) = 37.14023 44.43592 40.78807
# Shear Modulus (GPa) = 32.05119 40.36130 36.20624
#
# Velocity S-wave (km/s) = 3.48857 3.91479 3.70781
# Velocity P-wave (km/s) = 5.50721 6.10793 5.81533
#
# Compressibility (1/GPa) = 0.02692498
#
# Stress axis : x y z
#
# Youngs Moduli (GPa) = 82.50816 74.06508 102.00293
#
# Poissons Ratio (x) = 0.26377 0.25353
# Poissons Ratio (y) = 0.29384 -0.18327
# Poissons Ratio (z) = 0.20507 -0.13308
#
# Static dielectric constant tensor:
#      x y z
#    x 2.111940 -0.015690 0.062610 
#    y -0.015690 2.152870 -0.043230 
#    z 0.062610 -0.043230 1.992430 
# 
# From -- ./inp_files/227979.got.cif
#   From: 2010.05.17/outbox.cif.g08.bks.cpg/sg2_114_cif.got.tgz:227979.got - 2010.06.03 11:33:40.
