data_PCOD9108325
_publ_section_title
;
Structure prediction by ZEFSAII (Michael W. Deem and Ramdas Pophale) SiO2 
 PCOD9108325
Probable space group: P -1
;
_chemical_formula_sum "Si O2"
_cell_formula_units_Z 16
_cell_length_a 13.461100
_cell_length_b 9.261453
_cell_length_c 14.497204
_cell_angle_alpha 143.364557
_cell_angle_beta 74.086736
_cell_angle_gamma 80.698259
_cell_volume 774.533986
_symmetry_space_group_name_H-M "P -1"
_symmetry_group_IT_number 2
_symmetry_cell_setting 'triclinic'
loop_
_space_group_symop_operation_xyz
x,y,z
-x,-y,-z
loop_
_atom_site_type_symbol
_atom_site_label
_atom_site_fract_x
_atom_site_fract_y
_atom_site_fract_z
Si Si1 0.861253 0.766915 0.727423
Si Si2 0.651946 0.672016 0.523126
Si Si3 0.347647 0.270816 0.922485
Si Si4 0.080339 0.630112 0.045214
Si Si5 0.367636 0.772249 0.103775
Si Si6 0.864567 0.196321 0.072228
Si Si7 0.794692 0.331176 0.501648
Si Si8 0.409418 0.326234 0.129340
O O1 0.790854 0.617924 0.679589
O O2 0.000000 0.500000 0.500000
O O3 0.769615 0.067386 0.836500
O O4 0.868966 0.913170 0.890887
O O5 0.732077 0.467765 0.306918
O O6 0.725414 0.428916 0.468013
O O7 0.485834 0.896642 0.676679
O O8 0.669076 0.933833 0.674923
O O9 0.211708 0.420267 0.974183
O O10 0.393679 0.476949 0.993572
O O11 0.331480 0.307417 0.056137
O O12 0.124876 0.645481 0.938878
O O13 0.953285 0.005847 0.296795
O O14 0.000000 0.500000 0.000000
O O15 0.481575 0.668902 0.946446
O O16 0.000000 0.000000 0.000000
O O17 0.695956 0.365488 0.620303
O O18 0.500000 0.000000 0.000000
#
# Coordination Sequence:
#
# PCOD9108325 Si02
#       8
#     2   2   2   2   2   2   2   2
#     4  11  19  38  70  94 126 179 226 268 321 403
#     4  10  21  39  73 102 128 174 226 275 332 398
#     4  11  23  44  67 100 136 177 226 278 332 405
#     4  12  28  46  61  98 147 173 217 289 343 391
#     4  10  20  40  68 100 134 165 224 282 328 395
#     4  12  23  42  70  99 133 181 230 272 331 403
#     4  11  22  45  68  98 135 172 226 281 330 406
#     4  11  20  38  70 101 128 168 223 279 332 392
#
# _framework density 20.657584
#
# number of rings (size 3 to 8) (size 9 to 14) (size 15 to 20)
#    0.000    1.000    7.500    2.250    0.000    4.000 
#    2.250    0.625    0.000    0.000    0.000    0.000 
#    0.000    0.000    0.000    0.000    0.000    0.000 
#
# Total GULP energy -89227.189612 kJ/mol
# GULP energy per Si atom -5576.699351 kJ/mol
# Density = 2.061057 g / cm^3
# Si number density = 20.657584 Si / 1000 Ang^3
#
#
#
# Elastic Constant Matrix: (Units=GPa)
#
#
# Indices 1 2 3 4 5 6 
#
# 1 87.8099 51.5450 45.5392 -1.3696 -14.7088 -22.5668
# 2 51.5450 120.5428 48.7424 -13.6488 -17.6612 -24.5823
# 3 45.5392 48.7424 139.0567 -31.8362 -25.6159 -19.4128
# 4 -1.3696 -13.6488 -31.8362 39.9338 -2.1177 -8.0880
# 5 -14.7088 -17.6612 -25.6159 -2.1177 40.3554 11.0713
# 6 -22.5668 -24.5823 -19.4128 -8.0880 11.0713 42.1955
#
#
#
# Elastic Compliance Matrix: (Units=1/GPa)
#
#
# Indices 1 2 3 4 5 6 
#
# 1 0.017721 -0.005580 -0.004241 -0.003969 0.000164 0.003472
# 2 -0.005580 0.012661 -0.000477 0.004787 0.002219 0.004508
# 3 -0.004241 -0.000477 0.012952 0.011140 0.005958 0.003985
# 4 -0.003969 0.004787 0.011140 0.038073 0.006602 0.011357
# 5 0.000164 0.002219 0.005958 0.006602 0.030669 -0.002660
# 6 0.003472 0.004508 0.003985 0.011357 -0.002660 0.032890
#
#
# Mechanical properties :
#
#
# Convention : Reuss Voigt Hill
#
# Bulk Modulus (GPa) = 43.97945 71.00697 57.49321
# Shear Modulus (GPa) = 28.87830 37.93578 33.40704
#
# Velocity S-wave (km/s) = 3.74298 4.28998 4.02578
# Velocity P-wave (km/s) = 6.32580 7.68027 7.03571
#
# Compressibility (1/GPa) = 0.02273789
#
# Stress axis : x y z
#
# Youngs Moduli (GPa) = 56.42990 78.98287 77.21065
#
# Poissons Ratio (x) = 0.44073 0.32747
# Poissons Ratio (y) = 0.31488 0.03680
# Poissons Ratio (z) = 0.23933 0.03764
#
# Static dielectric constant tensor:
#      x y z
#    x 1.858820 0.059990 0.199560 
#    y 0.059990 1.849240 0.232430 
#    z 0.199560 0.232430 2.660080 
# 
# From -- ./inp_files/530241.got.cif
#   From: 2010.05.17/outbox.cif.g08.bks.cpg/sg2_266_cif.got.tgz:530241.got - 2010.06.03 11:33:40.
