data_PCOD9108589
_publ_section_title
;
Structure prediction by ZEFSAII (Michael W. Deem and Ramdas Pophale) SiO2 
 PCOD9108589
Probable space group: P -1
;
_chemical_formula_sum "Si O2"
_cell_formula_units_Z 14
_cell_length_a 22.057223
_cell_length_b 19.126315
_cell_length_c 9.878349
_cell_angle_alpha 135.468745
_cell_angle_beta 145.625982
_cell_angle_gamma 17.907201
_cell_volume 657.313589
_symmetry_space_group_name_H-M "P -1"
_symmetry_group_IT_number 2
_symmetry_cell_setting 'triclinic'
loop_
_space_group_symop_operation_xyz
x,y,z
-x,-y,-z
loop_
_atom_site_type_symbol
_atom_site_label
_atom_site_fract_x
_atom_site_fract_y
_atom_site_fract_z
Si Si1 0.164026 0.962217 0.734732
Si Si2 0.234430 0.129479 0.786138
Si Si3 0.139919 0.108482 0.150876
Si Si4 0.227299 0.555234 0.477708
Si Si5 0.465666 0.313913 0.200392
Si Si6 0.237328 0.873711 0.234222
Si Si7 0.557922 0.845706 0.718265
O O1 0.974054 0.206682 0.651470
O O2 0.230703 0.952961 0.989299
O O3 0.000000 0.000000 0.500000
O O4 0.412438 0.738464 0.781088
O O5 0.943067 0.325797 0.537667
O O6 0.450197 0.873685 0.904769
O O7 0.343452 0.046141 0.720629
O O8 0.245808 0.227686 0.012306
O O9 0.851659 0.398396 0.981425
O O10 0.116576 0.068376 0.194444
O O11 0.377484 0.985572 0.444768
O O12 0.511284 0.370855 0.737101
O O13 0.298637 0.383878 0.315035
O O14 0.622233 0.221631 0.494378
O O15 0.000000 0.000000 0.000000
#
# Coordination Sequence:
#
# PCOD9108589 Si02
#       7
#     2   2   2   2   2   2   2
#     4  11  24  40  64  92 128 177 212 263 329 377
#     4  10  20  40  69  96 127 173 211 269 326 383
#     4  11  23  42  64  94 132 166 218 267 317 386
#     4  10  21  41  63  90 135 164 212 270 319 378
#     4  11  23  44  63  93 138 165 211 276 317 381
#     4  11  23  41  67  91 126 179 216 259 328 379
#     4  10  21  40  67  98 127 169 219 262 332 380
#
# _framework density 21.298812999999999
#
# number of rings (size 3 to 8) (size 9 to 14) (size 15 to 20)
#    0.000    1.429    4.286    1.286    2.000    4.000 
#    0.000    8.571    0.000    0.000    0.000    0.000 
#    0.000    0.000    0.000    0.000    0.000    0.000 
#
# Total GULP energy -78054.448778 kJ/mol
# GULP energy per Si atom -5575.317770 kJ/mol
# Density = 2.125034 g / cm^3
# Si number density = 21.298813 Si / 1000 Ang^3
#
#
#
# Elastic Constant Matrix: (Units=GPa)
#
#
# Indices 1 2 3 4 5 6 
#
# 1 75.2367 10.7939 26.1589 -1.5538 5.2060 -21.1694
# 2 10.7939 71.3103 20.8875 -9.6095 -7.9767 -9.7436
# 3 26.1589 20.8875 73.9237 -2.6214 -6.8240 0.5504
# 4 -1.5538 -9.6095 -2.6214 27.4728 -4.1341 -0.7169
# 5 5.2060 -7.9767 -6.8240 -4.1341 26.7059 -5.4099
# 6 -21.1694 -9.7436 0.5504 -0.7169 -5.4099 34.2527
#
#
#
# Elastic Compliance Matrix: (Units=1/GPa)
#
#
# Indices 1 2 3 4 5 6 
#
# 1 0.019276 0.000550 -0.007327 0.000434 -0.003025 0.011719
# 2 0.000550 0.017818 -0.004429 0.006995 0.006514 0.006655
# 3 -0.007327 -0.004429 0.017744 0.000118 0.003541 -0.005512
# 4 0.000434 0.006995 0.000118 0.040387 0.009210 0.004556
# 5 -0.003025 0.006514 0.003541 0.009210 0.043734 0.007027
# 6 0.011719 0.006655 -0.005512 0.004556 0.007027 0.039624
#
#
# Mechanical properties :
#
#
# Convention : Reuss Voigt Hill
#
# Bulk Modulus (GPa) = 30.84140 37.35016 34.09578
# Shear Modulus (GPa) = 23.60668 28.52829 26.06748
#
# Velocity S-wave (km/s) = 3.33281 3.66379 3.50221
# Velocity P-wave (km/s) = 5.41497 5.95585 5.69184
#
# Compressibility (1/GPa) = 0.03242395
#
# Stress axis : x y z
#
# Youngs Moduli (GPa) = 51.87889 56.12338 56.35692
#
# Poissons Ratio (x) = -0.03087 0.41295
# Poissons Ratio (y) = -0.02853 0.24963
# Poissons Ratio (z) = 0.38014 0.24859
#
# Static dielectric constant tensor:
#      x y z
#    x 1.803510 -0.033710 0.008240 
#    y -0.033710 1.797360 0.020080 
#    z 0.008240 0.020080 1.801860 
# 
# From -- ./inp_files/348626.got.cif
#   From: 2010.05.17/outbox.cif.g08.bks.cpg/sg2_175_cif.got.tgz:348626.got - 2010.06.03 11:33:40.
