data_PCOD9108630
_publ_section_title
;
Structure prediction by ZEFSAII (Michael W. Deem and Ramdas Pophale) SiO2 
 PCOD9108630
Probable space group: P -1
;
_chemical_formula_sum "Si O2"
_cell_formula_units_Z 15
_cell_length_a 15.587112
_cell_length_b 9.089153
_cell_length_c 8.553834
_cell_angle_alpha 101.510332
_cell_angle_beta 72.138453
_cell_angle_gamma 143.805883
_cell_volume 678.647259
_symmetry_space_group_name_H-M "P -1"
_symmetry_group_IT_number 2
_symmetry_cell_setting 'triclinic'
loop_
_space_group_symop_operation_xyz
x,y,z
-x,-y,-z
loop_
_atom_site_type_symbol
_atom_site_label
_atom_site_fract_x
_atom_site_fract_y
_atom_site_fract_z
Si Si1 0.345527 0.366429 0.499212
Si Si2 0.184290 0.380195 0.058424
Si Si3 0.126574 0.908089 0.757729
Si Si4 0.382992 0.444539 0.150158
Si Si5 0.000000 0.500000 0.500000
Si Si6 0.340098 0.990657 0.860538
Si Si7 0.297388 0.848139 0.215464
Si Si8 0.371682 0.697483 0.720370
O O1 0.500000 0.500000 0.500000
O O2 0.329370 0.305069 0.313658
O O3 0.356648 0.561054 0.558774
O O4 0.217734 0.129610 0.630687
O O5 0.242815 0.311436 0.099329
O O6 0.256964 0.619524 0.160121
O O7 0.007768 0.173635 0.111527
O O8 0.259821 0.486178 0.870158
O O9 0.234932 0.974361 0.836577
O O10 0.049521 0.670761 0.655522
O O11 0.489927 0.727758 0.190110
O O12 0.500000 0.500000 0.000000
O O13 0.829644 0.253545 0.623858
O O14 0.326569 0.810775 0.745627
O O15 0.304137 0.923000 0.050668
O O16 0.460850 0.081931 0.253428
#
# Coordination Sequence:
#
# PCOD9108630 Si02
#       8
#     2   2   2   2   1   2   2   2
#     4  12  26  43  68 105 142 176 234 284 345 402
#     4  10  22  44  67  99 139 179 229 274 348 402
#     4  11  26  45  67 104 139 181 228 287 343 407
#     4  12  25  44  71 102 135 187 230 279 342 416
#     4  10  24  40  66  94 144 174 216 288 342 388
#     4  11  23  43  73 104 131 185 239 271 341 416
#     4  10  20  40  70 100 137 180 228 279 338 404
#     4  11  22  42  73 102 138 179 230 289 334 412
#
# _framework density 22.102793999999999
#
# number of rings (size 3 to 8) (size 9 to 14) (size 15 to 20)
#    0.000    1.067    4.000    2.400    1.867    8.533 
#    0.000    0.000    0.000    0.000    0.000    0.000 
#    0.000    0.000    0.000    0.000    0.000    0.000 
#
# Total GULP energy -83669.932446 kJ/mol
# GULP energy per Si atom -5577.995496 kJ/mol
# Density = 2.205249 g / cm^3
# Si number density = 22.102794 Si / 1000 Ang^3
#
#
#
# Elastic Constant Matrix: (Units=GPa)
#
#
# Indices 1 2 3 4 5 6 
#
# 1 137.6522 39.7287 65.1630 -14.8370 2.6571 10.0797
# 2 39.7287 70.6463 30.9756 -15.0563 -1.0919 15.4223
# 3 65.1630 30.9756 116.1950 -23.4374 -20.9671 6.9867
# 4 -14.8370 -15.0563 -23.4374 47.8526 1.1988 -12.9160
# 5 2.6571 -1.0919 -20.9671 1.1988 22.0703 -8.9531
# 6 10.0797 15.4223 6.9867 -12.9160 -8.9531 28.3873
#
#
#
# Elastic Compliance Matrix: (Units=1/GPa)
#
#
# Indices 1 2 3 4 5 6 
#
# 1 0.012514 -0.002712 -0.008611 -0.002443 -0.012023 -0.005754
# 2 -0.002712 0.019957 -0.004338 0.000571 -0.007233 -0.010833
# 3 -0.008611 -0.004338 0.019906 0.008325 0.024111 0.011907
# 4 -0.002443 0.000571 0.008325 0.028241 0.012963 0.015446
# 5 -0.012023 -0.007233 0.024111 0.012963 0.082463 0.034170
# 6 -0.005754 -0.010833 0.011907 0.015446 0.034170 0.058030
#
#
# Mechanical properties :
#
#
# Convention : Reuss Voigt Hill
#
# Bulk Modulus (GPa) = 47.49574 66.24756 56.87165
# Shear Modulus (GPa) = 19.27151 32.23713 25.75432
#
# Velocity S-wave (km/s) = 2.95601 3.82319 3.41722
# Velocity P-wave (km/s) = 5.76072 7.03751 6.43088
#
# Compressibility (1/GPa) = 0.02105452
#
# Stress axis : x y z
#
# Youngs Moduli (GPa) = 79.91040 50.10809 50.23660
#
# Poissons Ratio (x) = 0.13589 0.43260
# Poissons Ratio (y) = 0.21672 0.21792
# Poissons Ratio (z) = 0.68813 0.21736
#
# Static dielectric constant tensor:
#      x y z
#    x 1.819930 -0.050560 -0.007260 
#    y -0.050560 1.832810 0.025310 
#    z -0.007260 0.025310 1.807100 
# 
# From -- ./inp_files/257873.got.cif
#   From: 2010.05.17/outbox.cif.g08.bks.cpg/sg2_129_cif.got.tgz:257873.got - 2010.06.03 11:33:40.
