data_PCOD9108080
_publ_section_title
;
Structure prediction by ZEFSAII (Michael W. Deem and Ramdas Pophale) SiO2 
 PCOD9108080
Probable space group: P -1
;
_chemical_formula_sum "Si O2"
_cell_formula_units_Z 16
_cell_length_a 22.610424
_cell_length_b 8.917131
_cell_length_c 8.909697
_cell_angle_alpha 84.852392
_cell_angle_beta 49.180545
_cell_angle_gamma 46.506039
_cell_volume 744.277301
_symmetry_space_group_name_H-M "P -1"
_symmetry_group_IT_number 2
_symmetry_cell_setting 'triclinic'
loop_
_space_group_symop_operation_xyz
x,y,z
-x,-y,-z
loop_
_atom_site_type_symbol
_atom_site_label
_atom_site_fract_x
_atom_site_fract_y
_atom_site_fract_z
Si Si1 0.762016 0.248740 0.484524
Si Si2 0.234545 0.236662 0.122082
Si Si3 0.436495 0.711920 0.282190
Si Si4 0.002100 0.248988 0.071121
Si Si5 0.801707 0.777171 0.166595
Si Si6 0.497053 0.150729 0.095195
Si Si7 0.241952 0.886964 0.183000
Si Si8 0.990222 0.173433 0.417412
O O1 0.658179 0.277509 0.607882
O O2 0.661519 0.555397 0.613216
O O3 0.799098 0.149695 0.603686
O O4 0.896122 0.017037 0.175924
O O5 0.119436 0.540960 0.341915
O O6 0.208707 0.114460 0.250893
O O7 0.219345 0.232421 0.970653
O O8 0.389145 0.039500 0.942366
O O9 0.349149 0.939219 0.533939
O O10 0.458244 0.784665 0.096211
O O11 0.592033 0.404159 0.097855
O O12 0.094040 0.246402 0.977463
O O13 0.876442 0.522073 0.156764
O O14 0.951587 0.238826 0.301055
O O15 0.500000 0.000000 0.000000
O O16 0.147454 0.989095 0.191659
O O17 0.000000 0.000000 0.500000
#
# Coordination Sequence:
#
# PCOD9108080 Si02
#       8
#     2   2   2   2   2   2   2   2
#     4  10  20  40  69  99 126 170 220 270 322 388
#     4  12  23  42  66  94 130 175 226 269 320 388
#     4  10  20  40  66  97 132 165 219 269 326 389
#     4  10  22  41  69  97 134 169 218 273 329 385
#     4  10  22  39  68 105 126 171 222 275 319 382
#     4  11  23  40  65  97 134 178 213 265 333 392
#     4  11  21  40  67  94 129 174 223 269 317 389
#     4  12  28  43  63  96 135 174 217 271 335 396
#
# _framework density 21.497364000000001
#
# number of rings (size 3 to 8) (size 9 to 14) (size 15 to 20)
#    0.000    1.250    3.750    2.625    7.000    1.500 
#    2.250    1.875    0.000    0.000    0.000    0.000 
#    0.000    0.000    0.000    0.000    0.000    0.000 
#
# Total GULP energy -89522.794517 kJ/mol
# GULP energy per Si atom -5595.174657 kJ/mol
# Density = 2.144844 g / cm^3
# Si number density = 21.497364 Si / 1000 Ang^3
#
#
#
# Elastic Constant Matrix: (Units=GPa)
#
#
# Indices 1 2 3 4 5 6 
#
# 1 86.9494 45.2995 32.0567 12.6739 4.4544 -15.4610
# 2 45.2995 136.4838 60.5832 22.9836 4.7141 -7.7353
# 3 32.0567 60.5832 107.0190 17.3244 31.3831 4.9558
# 4 12.6739 22.9836 17.3244 32.5152 2.7358 7.3463
# 5 4.4544 4.7141 31.3831 2.7358 30.2176 -2.1247
# 6 -15.4610 -7.7353 4.9558 7.3463 -2.1247 38.8508
#
#
#
# Elastic Compliance Matrix: (Units=1/GPa)
#
#
# Indices 1 2 3 4 5 6 
#
# 1 0.016043 -0.002578 -0.003857 -0.004281 0.002946 0.007334
# 2 -0.002578 0.012445 -0.007727 -0.005140 0.007197 0.003803
# 3 -0.003857 -0.007727 0.021525 -0.001220 -0.020944 -0.006734
# 4 -0.004281 -0.005140 -0.001220 0.039107 -0.001548 -0.010051
# 5 0.002946 0.007197 -0.020944 -0.001548 0.054028 0.008524
# 6 0.007334 0.003803 -0.006734 -0.010051 0.008524 0.032641
#
#
# Mechanical properties :
#
#
# Convention : Reuss Voigt Hill
#
# Bulk Modulus (GPa) = 46.10654 67.37010 56.73832
# Shear Modulus (GPa) = 23.65823 33.15090 28.40457
#
# Velocity S-wave (km/s) = 3.32100 3.93121 3.63892
# Velocity P-wave (km/s) = 6.01660 7.21198 6.64124
#
# Compressibility (1/GPa) = 0.02168889
#
# Stress axis : x y z
#
# Youngs Moduli (GPa) = 62.33214 80.35291 46.45776
#
# Poissons Ratio (x) = 0.20716 0.17917
# Poissons Ratio (y) = 0.16070 0.35900
# Poissons Ratio (z) = 0.24039 0.62092
#
# Static dielectric constant tensor:
#      x y z
#    x 1.807040 0.015650 -0.025090 
#    y 0.015650 1.769120 -0.014740 
#    z -0.025090 -0.014740 1.762900 
# 
# From -- ./inp_files/205216.got.cif
#   From: 2010.05.17/outbox.cif.g08.bks.cpg/sg2_103_cif.got.tgz:205216.got - 2010.06.03 11:33:40.
