data_PCOD9108895
_publ_section_title
;
Structure prediction by ZEFSAII (Michael W. Deem and Ramdas Pophale) SiO2 
 PCOD9108895
Probable space group: P -1
;
_chemical_formula_sum "Si O2"
_cell_formula_units_Z 13
_cell_length_a 13.853580
_cell_length_b 6.544562
_cell_length_c 14.475681
_cell_angle_alpha 128.455125
_cell_angle_beta 149.107660
_cell_angle_gamma 56.806008
_cell_volume 527.373898
_symmetry_space_group_name_H-M "P -1"
_symmetry_group_IT_number 2
_symmetry_cell_setting 'triclinic'
loop_
_space_group_symop_operation_xyz
x,y,z
-x,-y,-z
loop_
_atom_site_type_symbol
_atom_site_label
_atom_site_fract_x
_atom_site_fract_y
_atom_site_fract_z
Si Si1 0.507671 0.408992 0.376130
Si Si2 0.492835 0.579729 0.221287
Si Si3 0.733751 0.707189 0.280133
Si Si4 0.500000 0.000000 0.000000
Si Si5 0.911811 0.199136 0.605389
Si Si6 0.890787 0.326836 0.171631
Si Si7 0.903686 0.757032 0.039470
O O1 0.500000 0.500000 0.500000
O O2 0.511011 0.628220 0.359460
O O3 0.702360 0.249424 0.483463
O O4 0.318307 0.252722 0.161398
O O5 0.631221 0.695295 0.291169
O O6 0.527337 0.267775 0.154497
O O7 0.281374 0.651842 0.035708
O O8 0.796797 0.413222 0.216943
O O9 0.605329 0.823897 0.123581
O O10 0.906519 0.903938 0.482869
O O11 0.961415 0.447221 0.654890
O O12 0.058128 0.227637 0.816273
O O13 0.976171 0.037486 0.147030
O O14 0.000000 0.500000 0.000000
#
# Coordination Sequence:
#
# PCOD9108895 Si02
#       7
#     2   2   2   1   2   2   2
#     4  12  26  52  78 108 152 209 261 319 385 458
#     4  11  24  45  77 117 153 205 255 320 385 460
#     4  11  25  44  78 121 158 205 250 314 395 469
#     4  10  20  40  76 104 164 186 252 304 386 450
#     4  12  26  49  75 116 157 200 257 317 389 465
#     4  11  26  46  77 115 155 203 254 316 396 459
#     4  12  28  53  76 106 157 203 265 327 376 455
#
# _framework density 24.650442000000002
#
# number of rings (size 3 to 8) (size 9 to 14) (size 15 to 20)
#    0.000    0.615    4.615    3.231    4.308    1.231 
#    0.000    3.846    0.000    0.000    0.000    0.000 
#    0.000    0.000    0.000    0.000    0.000    0.000 
#
# Total GULP energy -72442.409212 kJ/mol
# GULP energy per Si atom -5572.493016 kJ/mol
# Density = 2.459434 g / cm^3
# Si number density = 24.650442 Si / 1000 Ang^3
#
#
#
# Elastic Constant Matrix: (Units=GPa)
#
#
# Indices 1 2 3 4 5 6 
#
# 1 99.0726 47.1727 56.8791 7.8744 -21.9504 17.8212
# 2 47.1727 132.2203 29.2965 31.4789 -5.9022 -8.2201
# 3 56.8791 29.2965 136.5231 10.0472 -11.9019 3.7042
# 4 7.8744 31.4789 10.0472 35.5269 5.4077 -6.9218
# 5 -21.9504 -5.9022 -11.9019 5.4077 38.7959 -11.1219
# 6 17.8212 -8.2201 3.7042 -6.9218 -11.1219 24.9434
#
#
#
# Elastic Compliance Matrix: (Units=1/GPa)
#
#
# Indices 1 2 3 4 5 6 
#
# 1 0.020261 -0.006373 -0.006258 -0.000456 0.004719 -0.013669
# 2 -0.006373 0.012220 0.000611 -0.008497 0.001586 0.006839
# 3 -0.006258 0.000611 0.009882 -0.001447 0.000675 0.003105
# 4 -0.000456 -0.008497 -0.001447 0.038180 -0.005649 0.005816
# 5 0.004719 0.001586 0.000675 -0.005649 0.032547 0.009995
# 6 -0.013669 0.006839 0.003105 0.005816 0.009995 0.057720
#
#
# Mechanical properties :
#
#
# Convention : Reuss Voigt Hill
#
# Bulk Modulus (GPa) = 54.57392 70.50141 62.53766
# Shear Modulus (GPa) = 24.88062 35.48442 30.18252
#
# Velocity S-wave (km/s) = 3.18045 3.79820 3.50297
# Velocity P-wave (km/s) = 5.97279 6.92081 6.46420
#
# Compressibility (1/GPa) = 0.01832377
#
# Stress axis : x y z
#
# Youngs Moduli (GPa) = 49.35489 81.83050 101.19292
#
# Poissons Ratio (x) = 0.52148 0.63327
# Poissons Ratio (y) = 0.31452 -0.06180
# Poissons Ratio (z) = 0.30887 -0.04997
#
# Static dielectric constant tensor:
#      x y z
#    x 2.017490 0.014680 0.000910 
#    y 0.014680 2.021270 0.018540 
#    z 0.000910 0.018540 1.993980 
# 
# From -- ./inp_files/230035.got.cif
#   From: 2010.05.17/outbox.cif.g08.bks.cpg/sg2_116_cif.got.tgz:230035.got - 2010.06.03 11:33:40.
