data_PCOD9108927
_publ_section_title
;
Structure prediction by ZEFSAII (Michael W. Deem and Ramdas Pophale) SiO2 
 PCOD9108927
Probable space group: P -1
;
_chemical_formula_sum "Si O2"
_cell_formula_units_Z 12
_cell_length_a 6.795029
_cell_length_b 14.074417
_cell_length_c 7.374294
_cell_angle_alpha 56.549173
_cell_angle_beta 96.343343
_cell_angle_gamma 130.959684
_cell_volume 407.629792
_symmetry_space_group_name_H-M "P -1"
_symmetry_group_IT_number 2
_symmetry_cell_setting 'triclinic'
loop_
_space_group_symop_operation_xyz
x,y,z
-x,-y,-z
loop_
_atom_site_type_symbol
_atom_site_label
_atom_site_fract_x
_atom_site_fract_y
_atom_site_fract_z
Si Si1 0.992830 0.811128 0.442774
Si Si2 0.699090 0.486042 0.839255
Si Si3 0.757902 0.039283 0.311330
Si Si4 0.967353 0.365722 0.932097
Si Si5 0.562238 0.287736 0.534015
Si Si6 0.206228 0.186490 0.934605
O O1 0.911975 0.646759 0.567866
O O2 0.684473 0.733571 0.555015
O O3 0.025149 0.882116 0.174508
O O4 0.205960 0.925590 0.507194
O O5 0.392260 0.367789 0.841661
O O6 0.755151 0.373850 0.984526
O O7 0.806549 0.574378 0.950535
O O8 0.488459 0.853708 0.421247
O O9 0.796095 0.179318 0.075620
O O10 0.023524 0.078697 0.205658
O O11 0.155351 0.521002 0.654117
O O12 0.452198 0.229534 0.790858
#
# Coordination Sequence:
#
# PCOD9108927 Si02
#       6
#     2   2   2   2   2   2
#     4   9  21  36  63  90 114 160 198 246 301 343
#     4  10  20  41  59  93 123 155 206 245 294 365
#     4  11  21  42  63  88 126 152 201 252 294 359
#     4  10  23  39  65  86 122 168 193 242 308 354
#     4  10  22  39  60  95 116 158 203 244 302 351
#     4  10  22  36  63  93 117 156 204 248 298 350
#
# _framework density 29.438475
#
# number of rings (size 3 to 8) (size 9 to 14) (size 15 to 20)
#    1.000    1.000    0.000    3.500    2.333    3.333 
#    0.000   10.000    0.000    0.000    0.000    0.000 
#    0.000    0.000    0.000    0.000    0.000    0.000 
#
# Total GULP energy -66984.125343 kJ/mol
# GULP energy per Si atom -5582.010445 kJ/mol
# Density = 2.937147 g / cm^3
# Si number density = 29.438475 Si / 1000 Ang^3
#
#
#
# Elastic Constant Matrix: (Units=GPa)
#
#
# Indices 1 2 3 4 5 6 
#
# 1 54.7353 37.8895 36.5048 -13.6548 1.8364 -12.8218
# 2 37.8895 166.1418 38.5979 3.1912 11.3782 -10.5673
# 3 36.5048 38.5979 137.7173 -31.7594 5.1999 2.8249
# 4 -13.6548 3.1912 -31.7594 70.5369 -0.0494 5.9652
# 5 1.8364 11.3782 5.1999 -0.0494 44.6516 -12.6482
# 6 -12.8218 -10.5673 2.8249 5.9652 -12.6482 59.6216
#
#
#
# Elastic Compliance Matrix: (Units=1/GPa)
#
#
# Indices 1 2 3 4 5 6 
#
# 1 0.027029 -0.004757 -0.005445 0.002536 0.002284 0.005458
# 2 -0.004757 0.007542 -0.001223 -0.001834 -0.001520 0.000233
# 3 -0.005445 -0.001223 0.010007 0.003719 -0.001339 -0.002518
# 4 0.002536 -0.001834 0.003719 0.016571 -0.000542 -0.001729
# 5 0.002284 -0.001520 -0.001339 -0.000542 0.024407 0.005517
# 6 0.005458 0.000233 -0.002518 -0.001729 0.005517 0.019450
#
#
# Mechanical properties :
#
#
# Convention : Reuss Voigt Hill
#
# Bulk Modulus (GPa) = 46.02278 64.95320 55.48799
# Shear Modulus (GPa) = 37.01007 51.33548 44.17278
#
# Velocity S-wave (km/s) = 3.54955 4.18044 3.87785
# Velocity P-wave (km/s) = 5.69794 6.73895 6.24019
#
# Compressibility (1/GPa) = 0.02172837
#
# Stress axis : x y z
#
# Youngs Moduli (GPa) = 36.99792 132.58924 99.92903
#
# Poissons Ratio (x) = 0.63074 0.54407
# Poissons Ratio (y) = 0.17600 0.12222
# Poissons Ratio (z) = 0.20144 0.16217
#
# Static dielectric constant tensor:
#      x y z
#    x 2.460390 -0.115380 0.068180 
#    y -0.115380 2.245650 -0.034170 
#    z 0.068180 -0.034170 2.314310 
# 
# From -- ./inp_files/195306.got.cif
#   From: 2010.05.17/outbox.cif.g08.bks.cpg/sg2_98_cif.got.tgz:195306.got - 2010.06.03 11:33:40.
