data_PCOD9108666
_publ_section_title
;
Structure prediction by ZEFSAII (Michael W. Deem and Ramdas Pophale) SiO2 
 PCOD9108666
Probable space group: P -1
;
_chemical_formula_sum "Si O2"
_cell_formula_units_Z 10
_cell_length_a 8.203590
_cell_length_b 17.038450
_cell_length_c 14.760742
_cell_angle_alpha 164.055285
_cell_angle_beta 129.794540
_cell_angle_gamma 44.523720
_cell_volume 386.186982
_symmetry_space_group_name_H-M "P -1"
_symmetry_group_IT_number 2
_symmetry_cell_setting 'triclinic'
loop_
_space_group_symop_operation_xyz
x,y,z
-x,-y,-z
loop_
_atom_site_type_symbol
_atom_site_label
_atom_site_fract_x
_atom_site_fract_y
_atom_site_fract_z
Si Si1 0.628042 0.326609 0.262342
Si Si2 0.809441 0.468354 0.788040
Si Si3 0.920984 0.234475 0.107510
Si Si4 0.539176 0.220596 0.831963
Si Si5 0.062616 0.696958 0.000950
O O1 0.500000 0.500000 0.500000
O O2 0.410492 0.323271 0.126281
O O3 0.740063 0.459811 0.370481
O O4 0.850180 0.013449 0.032648
O O5 0.696315 0.590531 0.981646
O O6 0.009523 0.542392 0.897092
O O7 0.911001 0.084181 0.390667
O O8 0.761793 0.078635 0.828622
O O9 0.000043 0.367062 0.194913
O O10 0.655606 0.415696 0.036684
O O11 0.500000 0.000000 0.500000
#
# Coordination Sequence:
#
# PCOD9108666 Si02
#       5
#     2   2   2   2   2
#     4  10  16  36  61  87 125 160 199 248 308 361
#     4  11  23  41  66  92 125 164 200 255 311 362
#     4   8  19  35  56  93 120 159 204 251 297 369
#     4   9  21  43  64  91 126 162 207 258 304 359
#     4  10  23  42  61  96 124 158 212 247 306 372
#
# _framework density 25.894193000000001
#
# number of rings (size 3 to 8) (size 9 to 14) (size 15 to 20)
#    1.200    1.200    2.000    0.000    0.000    4.000 
#    0.000    3.000    0.000    0.000    0.000    0.000 
#    0.000    0.000    0.000    0.000    0.000    0.000 
#
# Total GULP energy -55708.332740 kJ/mol
# GULP energy per Si atom -5570.833274 kJ/mol
# Density = 2.583526 g / cm^3
# Si number density = 25.894193 Si / 1000 Ang^3
#
#
#
# Elastic Constant Matrix: (Units=GPa)
#
#
# Indices 1 2 3 4 5 6 
#
# 1 201.3127 64.1153 97.7070 6.8442 -61.7953 -38.2591
# 2 64.1153 162.3064 32.9618 -26.7470 2.2747 59.2891
# 3 97.7070 32.9618 84.1357 -37.2745 -21.8913 47.6579
# 4 6.8442 -26.7470 -37.2745 34.1672 20.4263 29.5560
# 5 -61.7953 2.2747 -21.8913 20.4263 54.2499 -27.4619
# 6 -38.2591 59.2891 47.6579 29.5560 -27.4619 -118.4056
#
#
#
# Elastic Compliance Matrix: (Units=1/GPa)
#
#
# Indices 1 2 3 4 5 6 
#
# 1 0.008207 -0.000127 -0.006087 -0.004825 0.004913 -0.007509
# 2 -0.000127 0.006259 -0.003661 -0.000157 -0.000880 0.001867
# 3 -0.006087 -0.003661 0.019755 0.009790 0.002538 0.009940
# 4 -0.004825 -0.000157 0.009790 0.031654 -0.006009 0.014716
# 5 0.004913 -0.000880 0.002538 -0.006009 0.023343 -0.007921
# 6 -0.007509 0.001867 0.009940 0.014716 -0.007921 0.004427
#
#
# Mechanical properties :
#
#
# Convention : Reuss Voigt Hill
#
# Bulk Modulus (GPa) = 69.09666 93.03590 81.06628
# Shear Modulus (GPa) = 42.29402 10.86700 26.58051
#
# Velocity S-wave (km/s) = 4.04584 2.05081 3.20739
# Velocity P-wave (km/s) = 6.96902 6.45097 6.71499
#
# Compressibility (1/GPa) = 0.01447248
#
# Stress axis : x y z
#
# Youngs Moduli (GPa) = 121.84402 159.76159 50.61889
#
# Poissons Ratio (x) = 0.02025 0.30812
# Poissons Ratio (y) = 0.01545 0.18531
# Poissons Ratio (z) = 0.74168 0.58487
#
# Static dielectric constant tensor:
#      x y z
#    x 2.334390 -0.163490 -0.010630 
#    y -0.163490 2.202540 -0.009290 
#    z -0.010630 -0.009290 2.090190 
# 
# From -- ./inp_files/10102.got.cif
#   From: 2010.05.17/outbox.cif.g08.bks.cpg/sg2_6_cif.got.tgz:10102.got - 2010.06.03 11:33:40.
