data_PCOD9108876
_publ_section_title
;
Structure prediction by ZEFSAII (Michael W. Deem and Ramdas Pophale) SiO2 
 PCOD9108876
Probable space group: P -1
;
_chemical_formula_sum "Si O2"
_cell_formula_units_Z 16
_cell_length_a 11.971796
_cell_length_b 9.539274
_cell_length_c 9.385453
_cell_angle_alpha 82.475147
_cell_angle_beta 70.482200
_cell_angle_gamma 133.605851
_cell_volume 620.556543
_symmetry_space_group_name_H-M "P -1"
_symmetry_group_IT_number 2
_symmetry_cell_setting 'triclinic'
loop_
_space_group_symop_operation_xyz
x,y,z
-x,-y,-z
loop_
_atom_site_type_symbol
_atom_site_label
_atom_site_fract_x
_atom_site_fract_y
_atom_site_fract_z
Si Si1 0.503756 0.130830 0.093793
Si Si2 0.329882 0.923762 0.492097
Si Si3 0.858264 0.769570 0.504976
Si Si4 0.140637 0.470465 0.635043
Si Si5 0.095744 0.439053 0.979138
Si Si6 0.441127 0.328440 0.881243
Si Si7 0.557378 0.718311 0.421705
Si Si8 0.045859 0.095821 0.124412
O O1 0.363603 0.963773 0.304484
O O2 0.697173 0.334839 0.074001
O O3 0.462500 0.230465 0.005109
O O4 0.500000 0.000000 0.000000
O O5 0.339249 0.091409 0.527391
O O6 0.500000 0.000000 0.500000
O O7 0.150871 0.649215 0.615612
O O8 0.940852 0.688759 0.445920
O O9 0.653318 0.578048 0.701874
O O10 0.000000 0.000000 0.500000
O O11 0.894991 0.876477 0.320175
O O12 0.080673 0.369509 0.832003
O O13 0.354444 0.608776 0.511741
O O14 0.022493 0.241509 0.130461
O O15 0.000000 0.500000 0.000000
O O16 0.359920 0.189770 0.784852
O O17 0.724639 0.722050 0.984013
O O18 0.500000 0.500000 0.500000
O O19 0.000000 0.000000 0.000000
#
# Coordination Sequence:
#
# PCOD9108876 Si02
#       8
#     2   2   2   2   2   2   2   2
#     4  12  25  45  77 120 162 210 279 345 422 494
#     4  10  20  41  73 109 155 207 267 332 396 501
#     4  11  25  50  80 119 169 212 274 350 424 492
#     4  10  21  45  69 109 153 207 280 321 398 509
#     4  12  27  48  75 112 164 217 273 338 407 504
#     4  11  28  48  81 122 167 213 274 354 424 488
#     4  10  20  40  74 113 152 205 275 331 407 502
#     4  12  28  52  83 121 161 218 284 341 414 514
#
# _framework density 25.783307000000001
#
# number of rings (size 3 to 8) (size 9 to 14) (size 15 to 20)
#    0.000    1.000    3.750    3.750    3.500    2.000 
#    2.250    1.250    0.000    9.000    0.000    0.000 
#    0.000    0.000    0.000    0.000    0.000    0.000 
#
# Total GULP energy -89319.617757 kJ/mol
# GULP energy per Si atom -5582.476110 kJ/mol
# Density = 2.572462 g / cm^3
# Si number density = 25.783307 Si / 1000 Ang^3
#
#
#
# Elastic Constant Matrix: (Units=GPa)
#
#
# Indices 1 2 3 4 5 6 
#
# 1 115.9209 36.9766 48.8984 -13.2601 -0.4804 -21.6109
# 2 36.9766 176.3987 50.0435 4.9391 -0.5731 -28.2705
# 3 48.8984 50.0435 192.3538 -6.0183 7.6074 -5.2350
# 4 -13.2601 4.9391 -6.0183 56.3088 -2.9134 -2.1766
# 5 -0.4804 -0.5731 7.6074 -2.9134 41.4743 -6.7781
# 6 -21.6109 -28.2705 -5.2350 -2.1766 -6.7781 42.3748
#
#
#
# Elastic Compliance Matrix: (Units=1/GPa)
#
#
# Indices 1 2 3 4 5 6 
#
# 1 0.011247 -0.000891 -0.002463 0.002750 0.001619 0.005237
# 2 -0.000891 0.006980 -0.001540 -0.000776 0.000989 0.004130
# 3 -0.002463 -0.001540 0.006239 0.000078 -0.001474 -0.001745
# 4 0.002750 -0.000776 0.000078 0.018651 0.001663 0.002118
# 5 0.001619 0.000989 -0.001474 0.001663 0.025422 0.005455
# 6 0.005237 0.004130 -0.001745 0.002118 0.005455 0.029791
#
#
# Mechanical properties :
#
#
# Convention : Reuss Voigt Hill
#
# Bulk Modulus (GPa) = 68.13355 84.05670 76.09512
# Shear Modulus (GPa) = 44.24321 51.28188 47.76255
#
# Velocity S-wave (km/s) = 4.14691 4.46461 4.30869
# Velocity P-wave (km/s) = 7.02937 7.69734 7.37092
#
# Compressibility (1/GPa) = 0.01467706
#
# Stress axis : x y z
#
# Youngs Moduli (GPa) = 88.90936 143.27444 160.28759
#
# Poissons Ratio (x) = 0.12771 0.39475
# Poissons Ratio (y) = 0.07925 0.24688
# Poissons Ratio (z) = 0.21896 0.22068
#
# Static dielectric constant tensor:
#      x y z
#    x 2.374360 0.104320 -0.142260 
#    y 0.104320 2.140860 0.012250 
#    z -0.142260 0.012250 2.163550 
# 
# From -- ./inp_files/295233.got.cif
#   From: 2010.05.17/outbox.cif.g08.bks.cpg/sg2_148_cif.got.tgz:295233.got - 2010.06.03 11:33:40.
