data_PCOD9108854
_publ_section_title
;
Structure prediction by ZEFSAII (Michael W. Deem and Ramdas Pophale) SiO2 
 PCOD9108854
Probable space group: P -1
;
_chemical_formula_sum "Si O2"
_cell_formula_units_Z 14
_cell_length_a 16.678703
_cell_length_b 7.041576
_cell_length_c 8.012746
_cell_angle_alpha 122.238462
_cell_angle_beta 108.187512
_cell_angle_gamma 114.046089
_cell_volume 529.244651
_symmetry_space_group_name_H-M "P -1"
_symmetry_group_IT_number 2
_symmetry_cell_setting 'triclinic'
loop_
_space_group_symop_operation_xyz
x,y,z
-x,-y,-z
loop_
_atom_site_type_symbol
_atom_site_label
_atom_site_fract_x
_atom_site_fract_y
_atom_site_fract_z
Si Si1 0.882145 0.883369 0.790394
Si Si2 0.798213 0.493544 0.254056
Si Si3 0.786735 0.040127 0.273491
Si Si4 0.452123 0.315019 0.598430
Si Si5 0.416099 0.588754 0.966195
Si Si6 0.962960 0.512524 0.166851
Si Si7 0.683055 0.664025 0.710578
O O1 0.877577 0.829101 0.565547
O O2 0.744963 0.574143 0.613821
O O3 0.889154 0.146947 0.991572
O O4 0.000000 0.000000 0.000000
O O5 0.786743 0.270227 0.276216
O O6 0.668509 0.354582 0.068968
O O7 0.877436 0.557483 0.179543
O O8 0.918369 0.258274 0.535564
O O9 0.685487 0.797332 0.232946
O O10 0.749905 0.794634 0.993378
O O11 0.471037 0.598375 0.833627
O O12 0.546178 0.400413 0.564530
O O13 0.332717 0.149278 0.338844
O O14 0.483621 0.219088 0.733707
O O15 0.000000 0.500000 0.000000
#
# Coordination Sequence:
#
# PCOD9108854 Si02
#       7
#     2   2   2   2   2   2   2
#     4  12  23  41  73 102 138 187 228 280 354 413
#     4  12  24  45  71 100 143 184 232 284 352 421
#     4  11  23  43  70 101 140 182 233 286 343 427
#     4   9  20  41  69  99 139 186 233 289 354 403
#     4  10  22  42  71 102 138 184 234 296 347 406
#     4  12  27  44  66 106 145 180 235 291 344 431
#     4  10  20  40  73  98 140 187 227 292 348 409
#
# _framework density 26.452794999999998
#
# number of rings (size 3 to 8) (size 9 to 14) (size 15 to 20)
#    0.000    1.143    4.286    2.143    0.000    4.571 
#    0.000    7.143    0.000    0.000    0.000    0.000 
#    0.000    0.000    0.000    0.000    0.000    0.000 
#
# Total GULP energy -78005.486544 kJ/mol
# GULP energy per Si atom -5571.820467 kJ/mol
# Density = 2.639259 g / cm^3
# Si number density = 26.452795 Si / 1000 Ang^3
#
#
#
# Elastic Constant Matrix: (Units=GPa)
#
#
# Indices 1 2 3 4 5 6 
#
# 1 249.9902 36.4309 68.6642 -38.8500 12.4494 8.1203
# 2 36.4309 61.1885 14.1343 -15.4135 14.7084 -1.3495
# 3 68.6642 14.1343 128.6504 -32.7000 11.9287 1.8479
# 4 -38.8500 -15.4135 -32.7000 34.9386 -12.4496 3.2807
# 5 12.4494 14.7084 11.9287 -12.4496 32.6974 -10.9839
# 6 8.1203 -1.3495 1.8479 3.2807 -10.9839 38.5275
#
#
#
# Elastic Compliance Matrix: (Units=1/GPa)
#
#
# Indices 1 2 3 4 5 6 
#
# 1 0.005366 -0.001991 -0.001710 0.003781 0.000478 -0.001304
# 2 -0.001991 0.020322 0.000807 0.005066 -0.007218 -0.001396
# 3 -0.001710 0.000807 0.010822 0.008389 -0.000829 -0.001081
# 4 0.003781 0.005066 0.008389 0.046792 0.010346 -0.002057
# 5 0.000478 -0.007218 -0.000829 0.010346 0.041460 0.010625
# 6 -0.001304 -0.001396 -0.001081 -0.002057 0.010625 0.029438
#
#
# Mechanical properties :
#
#
# Convention : Reuss Voigt Hill
#
# Bulk Modulus (GPa) = 32.54991 75.36534 53.95763
# Shear Modulus (GPa) = 29.37232 42.60601 35.98916
#
# Velocity S-wave (km/s) = 3.33583 4.01764 3.69250
# Velocity P-wave (km/s) = 5.21236 7.07631 6.21461
#
# Compressibility (1/GPa) = 0.03072205
#
# Stress axis : x y z
#
# Youngs Moduli (GPa) = 186.35462 49.20674 92.40735
#
# Poissons Ratio (x) = 0.09798 0.15800
# Poissons Ratio (y) = 0.37106 -0.07456
# Poissons Ratio (z) = 0.31863 -0.03970
#
# Static dielectric constant tensor:
#      x y z
#    x 2.323420 0.616630 0.389150 
#    y 0.616630 3.852000 1.218870 
#    z 0.389150 1.218870 2.950560 
# 
# From -- ./inp_files/203983.got.cif
#   From: 2010.05.17/outbox.cif.g08.bks.cpg/sg2_102_cif.got.tgz:203983.got - 2010.06.03 11:33:40.
