data_PCOD9108483
_publ_section_title
;
Structure prediction by ZEFSAII (Michael W. Deem and Ramdas Pophale) SiO2 
 PCOD9108483
Probable space group: P -1
;
_chemical_formula_sum "Si O2"
_cell_formula_units_Z 15
_cell_length_a 14.291744
_cell_length_b 12.678590
_cell_length_c 8.741010
_cell_angle_alpha 47.491244
_cell_angle_beta 35.728230
_cell_angle_gamma 45.031324
_cell_volume 634.095786
_symmetry_space_group_name_H-M "P -1"
_symmetry_group_IT_number 2
_symmetry_cell_setting 'triclinic'
loop_
_space_group_symop_operation_xyz
x,y,z
-x,-y,-z
loop_
_atom_site_type_symbol
_atom_site_label
_atom_site_fract_x
_atom_site_fract_y
_atom_site_fract_z
Si Si1 0.816174 0.186114 0.591572
Si Si2 0.079837 0.704235 0.174580
Si Si3 0.077907 0.131092 0.085449
Si Si4 0.815148 0.623623 0.803855
Si Si5 0.649603 0.736372 0.373156
Si Si6 0.521780 0.162659 0.813386
Si Si7 0.000000 0.500000 0.000000
Si Si8 0.397452 0.679098 0.974276
O O1 0.709894 0.148120 0.632857
O O2 0.952959 0.246713 0.268159
O O3 0.913017 0.035728 0.712697
O O4 0.678776 0.294641 0.781233
O O5 0.160975 0.530241 0.171680
O O6 0.927754 0.707523 0.487779
O O7 0.231124 0.736865 0.028096
O O8 0.998256 0.813656 0.032195
O O9 0.265561 0.134616 0.853930
O O10 0.888266 0.575456 0.922901
O O11 0.618468 0.731955 0.983987
O O12 0.526251 0.764561 0.362300
O O13 0.537159 0.746604 0.663512
O O14 0.818655 0.583328 0.272467
O O15 0.500000 0.000000 0.000000
O O16 0.500000 0.500000 0.000000
#
# Coordination Sequence:
#
# PCOD9108483 Si02
#       8
#     2   2   2   2   2   2   1   2
#     4  11  27  46  68 102 134 179 232 280 333 406
#     4  11  24  43  67 100 138 174 224 281 336 403
#     4  11  25  46  72  94 138 181 226 279 341 399
#     4  10  23  39  69 100 134 175 225 275 339 397
#     4  11  24  43  69 102 131 181 222 276 343 402
#     4  11  23  42  68  97 134 174 226 277 335 400
#     4  10  20  40  68  98 130 170 224 272 324 404
#     4  12  28  43  68 102 140 174 225 282 338 398
#
# _framework density 23.655730999999999
#
# number of rings (size 3 to 8) (size 9 to 14) (size 15 to 20)
#    0.000    1.067    2.667    2.400    9.333    2.133 
#    0.000    3.333    0.000    0.000    0.000    0.000 
#    0.000    0.000    0.000    0.000    0.000    0.000 
#
# Total GULP energy -83768.548940 kJ/mol
# GULP energy per Si atom -5584.569929 kJ/mol
# Density = 2.360189 g / cm^3
# Si number density = 23.655731 Si / 1000 Ang^3
#
#
#
# Elastic Constant Matrix: (Units=GPa)
#
#
# Indices 1 2 3 4 5 6 
#
# 1 99.9147 3.3983 33.8289 9.4314 -7.2108 -19.9758
# 2 3.3983 53.6432 5.8555 8.5318 3.3652 -21.8672
# 3 33.8289 5.8555 158.7240 10.0642 2.0699 -6.3673
# 4 9.4314 8.5318 10.0642 21.5994 -5.4275 3.2264
# 5 -7.2108 3.3652 2.0699 -5.4275 33.3902 5.8898
# 6 -19.9758 -21.8672 -6.3673 3.2264 5.8898 31.8353
#
#
#
# Elastic Compliance Matrix: (Units=1/GPa)
#
#
# Indices 1 2 3 4 5 6 
#
# 1 0.014359 0.007355 -0.002001 -0.011001 -0.001975 0.015142
# 2 0.007355 0.037810 0.000347 -0.026900 -0.012926 0.035773
# 3 -0.002001 0.000347 0.006967 -0.003049 -0.001566 0.000975
# 4 -0.011001 -0.026900 -0.003049 0.073434 0.018978 -0.036943
# 5 -0.001975 -0.012926 -0.001566 0.018978 0.037407 -0.019276
# 6 0.015142 0.035773 0.000975 -0.036943 -0.019276 0.072990
#
#
# Mechanical properties :
#
#
# Convention : Reuss Voigt Hill
#
# Bulk Modulus (GPa) = 14.17686 44.27193 29.22440
# Shear Modulus (GPa) = 19.60183 35.31161 27.45672
#
# Velocity S-wave (km/s) = 2.88171 3.86778 3.41057
# Velocity P-wave (km/s) = 4.13260 6.22109 5.28112
#
# Compressibility (1/GPa) = 0.07053749
#
# Stress axis : x y z
#
# Youngs Moduli (GPa) = 69.64238 26.44812 143.53889
#
# Poissons Ratio (x) = -0.19453 0.28721
# Poissons Ratio (y) = -0.51222 -0.04979
# Poissons Ratio (z) = 0.13935 -0.00917
#
# Static dielectric constant tensor:
#      x y z
#    x 1.860130 0.021700 0.045360 
#    y 0.021700 1.562320 0.448950 
#    z 0.045360 0.448950 1.391780 
# 
# From -- ./inp_files/314431.got.cif
#   From: 2010.05.17/outbox.cif.g08.bks.cpg/sg2_158_cif.got.tgz:314431.got - 2010.06.03 11:33:40.
