data_PCOD9108189
_publ_section_title
;
Structure prediction by ZEFSAII (Michael W. Deem and Ramdas Pophale) SiO2 
 PCOD9108189
Probable space group: P -1
;
_chemical_formula_sum "Si O2"
_cell_formula_units_Z 16
_cell_length_a 9.214934
_cell_length_b 22.786053
_cell_length_c 12.096775
_cell_angle_alpha 41.627868
_cell_angle_beta 71.701772
_cell_angle_gamma 36.155200
_cell_volume 670.810515
_symmetry_space_group_name_H-M "P -1"
_symmetry_group_IT_number 2
_symmetry_cell_setting 'triclinic'
loop_
_space_group_symop_operation_xyz
x,y,z
-x,-y,-z
loop_
_atom_site_type_symbol
_atom_site_label
_atom_site_fract_x
_atom_site_fract_y
_atom_site_fract_z
Si Si1 0.714228 0.798930 0.725560
Si Si2 0.500814 0.418922 0.028719
Si Si3 0.370170 0.170408 0.054494
Si Si4 0.611399 0.715877 0.721646
Si Si5 0.782541 0.778293 0.426879
Si Si6 0.653204 0.352529 0.840694
Si Si7 0.269559 0.844253 0.053711
Si Si8 0.951434 0.380156 0.641294
O O1 0.832292 0.717476 0.937357
O O2 0.444056 0.869801 0.635527
O O3 0.069244 0.635574 0.799073
O O4 0.500000 0.000000 0.500000
O O5 0.719013 0.321452 0.000721
O O6 0.500000 0.500000 0.000000
O O7 0.573821 0.281388 0.250079
O O8 0.551250 0.980766 0.248285
O O9 0.664474 0.093957 0.099472
O O10 0.114370 0.326897 0.792496
O O11 0.681361 0.738941 0.565506
O O12 0.000000 0.500000 0.000000
O O13 0.215343 0.572068 0.623599
O O14 0.743048 0.789446 0.288264
O O15 0.832333 0.173528 0.991029
O O16 0.782929 0.372614 0.720630
O O17 0.638093 0.608898 0.348980
O O18 0.000000 0.000000 0.000000
#
# Coordination Sequence:
#
# PCOD9108189 Si02
#       8
#     2   2   2   2   2   2   2   2
#     4  11  21  39  68  96 125 175 226 263 324 401
#     4  11  23  40  66  95 132 172 218 280 337 382
#     4  12  23  40  64 100 137 165 221 280 328 396
#     4  10  20  40  67  91 126 170 228 263 326 392
#     4  11  21  41  70  93 130 178 222 265 329 410
#     4  11  21  44  66  93 133 177 219 271 327 402
#     4  11  24  42  67  98 130 175 228 266 328 406
#     4  11  25  40  66  96 137 175 214 275 344 379
#
# _framework density 23.851745000000001
#
# number of rings (size 3 to 8) (size 9 to 14) (size 15 to 20)
#    0.000    1.000    3.750    5.250    5.250    0.000 
#    2.250    0.625    5.500    0.000    0.000    0.000 
#    0.000    0.000    0.000    0.000    0.000    0.000 
#
# Total GULP energy -89388.896972 kJ/mol
# GULP energy per Si atom -5586.806061 kJ/mol
# Density = 2.379746 g / cm^3
# Si number density = 23.851745 Si / 1000 Ang^3
#
#
#
# Elastic Constant Matrix: (Units=GPa)
#
#
# Indices 1 2 3 4 5 6 
#
# 1 125.8451 43.8697 34.2653 10.1930 -35.6810 18.9035
# 2 43.8697 162.6744 35.9497 29.4462 -13.6020 21.2593
# 3 34.2653 35.9497 67.2128 13.8879 -30.0639 -2.0962
# 4 10.1930 29.4462 13.8879 48.7273 1.1330 0.4029
# 5 -35.6810 -13.6020 -30.0639 1.1330 45.8345 1.9185
# 6 18.9035 21.2593 -2.0962 0.4029 1.9185 37.1836
#
#
#
# Elastic Compliance Matrix: (Units=1/GPa)
#
#
# Indices 1 2 3 4 5 6 
#
# 1 0.012214 -0.001141 -0.001789 -0.001498 0.008287 -0.006069
# 2 -0.001141 0.008455 -0.003444 -0.003845 -0.000359 -0.004388
# 3 -0.001789 -0.003444 0.025040 -0.005036 0.013982 0.003624
# 4 -0.001498 -0.003845 -0.005036 0.024719 -0.006336 0.002735
# 5 0.008287 -0.000359 0.013982 -0.006336 0.037703 -0.005096
# 6 -0.006069 -0.004388 0.003624 0.002735 -0.005096 0.032925
#
#
# Mechanical properties :
#
#
# Convention : Reuss Voigt Hill
#
# Bulk Modulus (GPa) = 30.33932 64.87800 47.60866
# Shear Modulus (GPa) = 30.34103 42.45891 36.39997
#
# Velocity S-wave (km/s) = 3.57047 4.22372 3.91076
# Velocity P-wave (km/s) = 5.45392 7.14465 6.35576
#
# Compressibility (1/GPa) = 0.03296053
#
# Stress axis : x y z
#
# Youngs Moduli (GPa) = 81.87405 118.26704 39.93577
#
# Poissons Ratio (x) = 0.13497 0.07146
# Poissons Ratio (y) = 0.09343 0.13753
# Poissons Ratio (z) = 0.14651 0.40730
#
# Static dielectric constant tensor:
#      x y z
#    x 1.971020 0.075420 0.031130 
#    y 0.075420 2.053780 0.003280 
#    z 0.031130 0.003280 1.970690 
# 
# From -- ./inp_files/405396.got.cif
#   From: 2010.05.17/outbox.cif.g08.bks.cpg/sg2_203_cif.got.tgz:405396.got - 2010.06.03 11:33:40.
