data_PCOD9108109
_publ_section_title
;
Structure prediction by ZEFSAII (Michael W. Deem and Ramdas Pophale) SiO2 
 PCOD9108109
Probable space group: P -1
;
_chemical_formula_sum "Si O2"
_cell_formula_units_Z 16
_cell_length_a 10.305152
_cell_length_b 9.142395
_cell_length_c 16.965627
_cell_angle_alpha 122.005512
_cell_angle_beta 33.079350
_cell_angle_gamma 130.307700
_cell_volume 665.000930
_symmetry_space_group_name_H-M "P -1"
_symmetry_group_IT_number 2
_symmetry_cell_setting 'triclinic'
loop_
_space_group_symop_operation_xyz
x,y,z
-x,-y,-z
loop_
_atom_site_type_symbol
_atom_site_label
_atom_site_fract_x
_atom_site_fract_y
_atom_site_fract_z
Si Si1 0.994937 0.137489 0.633869
Si Si2 0.920378 0.806789 0.936910
Si Si3 0.350297 0.277505 0.358031
Si Si4 0.098261 0.694518 0.958941
Si Si5 0.192260 0.954196 0.131362
Si Si6 0.642854 0.311633 0.781246
Si Si7 0.043791 0.757828 0.698354
Si Si8 0.695159 0.367379 0.593902
O O1 0.970110 0.173612 0.748489
O O2 0.790420 0.191840 0.704853
O O3 0.272036 0.259472 0.484614
O O4 0.895723 0.908346 0.607380
O O5 0.110999 0.831396 0.774208
O O6 0.931722 0.662896 0.955647
O O7 0.615567 0.735058 0.048721
O O8 0.000000 0.000000 0.000000
O O9 0.603540 0.243430 0.202156
O O10 0.393979 0.479620 0.355333
O O11 0.095948 0.848956 0.066936
O O12 0.000000 0.500000 0.000000
O O13 0.126066 0.136133 0.217999
O O14 0.500000 0.000000 0.000000
O O15 0.849191 0.533373 0.744212
O O16 0.565890 0.276548 0.717271
O O17 0.279213 0.771992 0.525266
O O18 0.000000 0.500000 0.500000
#
# Coordination Sequence:
#
# PCOD9108109 Si02
#       8
#     2   2   2   2   2   2   2   2
#     4  11  22  38  72 104 133 165 232 286 332 382
#     4  12  25  47  63  97 142 176 223 269 340 407
#     4  11  22  43  65 103 134 176 217 281 338 393
#     4  12  28  45  69  95 142 185 216 274 345 411
#     4  12  25  43  68 102 133 176 231 281 332 400
#     4  11  23  41  74 101 129 178 224 282 334 391
#     4  11  24  44  69 100 131 172 231 278 329 398
#     4  10  20  40  66  99 131 165 222 278 330 388
#
# _framework density 24.060117000000002
#
# number of rings (size 3 to 8) (size 9 to 14) (size 15 to 20)
#    0.000    0.750    5.000    4.125    5.250    0.000 
#    0.000    4.375    0.000    0.000    0.000    0.000 
#    0.000    0.000    0.000    0.000    0.000    0.000 
#
# Total GULP energy -89518.348257 kJ/mol
# GULP energy per Si atom -5594.896766 kJ/mol
# Density = 2.400536 g / cm^3
# Si number density = 24.060117 Si / 1000 Ang^3
#
#
#
# Elastic Constant Matrix: (Units=GPa)
#
#
# Indices 1 2 3 4 5 6 
#
# 1 66.6246 20.9186 38.5245 9.0997 30.6492 -26.8814
# 2 20.9186 75.7100 15.6553 13.0305 0.6472 -22.5451
# 3 38.5245 15.6553 134.8506 7.5862 36.9531 -18.9101
# 4 9.0997 13.0305 7.5862 41.6735 -7.6921 -0.5000
# 5 30.6492 0.6472 36.9531 -7.6921 41.2613 -2.6527
# 6 -26.8814 -22.5451 -18.9101 -0.5000 -2.6527 39.7281
#
#
#
# Elastic Compliance Matrix: (Units=1/GPa)
#
#
# Indices 1 2 3 4 5 6 
#
# 1 0.043668 -0.001398 0.002106 -0.015704 -0.035481 0.027190
# 2 -0.001398 0.017011 -0.000307 -0.004723 0.000716 0.008550
# 3 0.002106 -0.000307 0.011225 -0.004571 -0.012096 0.005729
# 4 -0.015704 -0.004723 -0.004571 0.033483 0.021198 -0.013645
# 5 -0.035481 0.000716 -0.012096 0.021198 0.063769 -0.024834
# 6 0.027190 0.008550 0.005729 -0.013645 -0.024834 0.049317
#
#
# Mechanical properties :
#
#
# Convention : Reuss Voigt Hill
#
# Bulk Modulus (GPa) = 13.75405 47.48689 30.62047
# Shear Modulus (GPa) = 20.66922 38.00504 29.33713
#
# Velocity S-wave (km/s) = 2.93416 3.97871 3.49567
# Velocity P-wave (km/s) = 4.14825 6.39425 5.38955
#
# Compressibility (1/GPa) = 0.07270583
#
# Stress axis : x y z
#
# Youngs Moduli (GPa) = 22.90001 58.78633 89.08850
#
# Poissons Ratio (x) = 0.08219 -0.18764
# Poissons Ratio (y) = 0.03202 0.02735
# Poissons Ratio (z) = -0.04823 0.01804
#
# Static dielectric constant tensor:
#      x y z
#    x 2.002900 0.009370 -0.042510 
#    y 0.009370 1.933690 -0.014000 
#    z -0.042510 -0.014000 2.285660 
# 
# From -- ./inp_files/207373.got.cif
#   From: 2010.05.17/outbox.cif.g08.bks.cpg/sg2_104_cif.got.tgz:207373.got - 2010.06.03 11:33:40.
