data_PCOD9108796
_publ_section_title
;
Structure prediction by ZEFSAII (Michael W. Deem and Ramdas Pophale) SiO2 
 PCOD9108796
Probable space group: P -1
;
_chemical_formula_sum "Si O2"
_cell_formula_units_Z 11
_cell_length_a 6.815157
_cell_length_b 11.553979
_cell_length_c 9.345594
_cell_angle_alpha 75.418144
_cell_angle_beta 113.540796
_cell_angle_gamma 132.744623
_cell_volume 495.248426
_symmetry_space_group_name_H-M "P -1"
_symmetry_group_IT_number 2
_symmetry_cell_setting 'triclinic'
loop_
_space_group_symop_operation_xyz
x,y,z
-x,-y,-z
loop_
_atom_site_type_symbol
_atom_site_label
_atom_site_fract_x
_atom_site_fract_y
_atom_site_fract_z
Si Si1 0.354243 0.765907 0.765923
Si Si2 0.747851 0.534156 0.656558
Si Si3 0.363064 0.725941 0.462947
Si Si4 0.000000 0.000000 0.500000
Si Si5 0.484245 0.378382 0.933541
Si Si6 0.876123 0.102661 0.724961
O O1 0.394078 0.710099 0.644842
O O2 0.043366 0.713656 0.691544
O O3 0.613031 0.952670 0.783944
O O4 0.368294 0.679183 0.927041
O O5 0.500000 0.500000 0.500000
O O6 0.816259 0.435940 0.625123
O O7 0.631812 0.464815 0.800531
O O8 0.666757 0.839838 0.442010
O O9 0.222054 0.804013 0.388477
O O10 0.068684 0.960725 0.375696
O O11 0.160574 0.223320 0.859339
O O12 0.500000 0.500000 0.000000
#
# Coordination Sequence:
#
# PCOD9108796 Si02
#       6
#     2   2   2   1   2   2
#     4  11  24  42  69 105 139 180 231 294 351 413
#     4  12  25  44  72 102 139 193 237 285 351 419
#     4  11  23  43  73 102 139 180 243 281 347 414
#     4  10  20  40  72 100 136 176 236 284 336 400
#     4  12  25  47  67 101 147 184 232 292 358 419
#     4  11  24  45  74 103 141 185 239 286 348 419
#
# _framework density 22.211075999999998
#
# number of rings (size 3 to 8) (size 9 to 14) (size 15 to 20)
#    0.000    0.727    1.818    7.091    2.545    0.000 
#    0.000    1.818    0.000    0.000    0.000    0.000 
#    0.000    0.000    0.000    0.000    0.000    0.000 
#
# Total GULP energy -61335.734182 kJ/mol
# GULP energy per Si atom -5575.975835 kJ/mol
# Density = 2.216052 g / cm^3
# Si number density = 22.211076 Si / 1000 Ang^3
#
#
#
# Elastic Constant Matrix: (Units=GPa)
#
#
# Indices 1 2 3 4 5 6 
#
# 1 75.4423 47.5079 44.7941 -2.5345 2.5576 28.7542
# 2 47.5079 107.0078 38.9400 27.6121 0.3769 31.8109
# 3 44.7941 38.9400 118.9983 -17.8181 -4.0281 8.5699
# 4 -2.5345 27.6121 -17.8181 39.3047 0.4226 -1.1078
# 5 2.5576 0.3769 -4.0281 0.4226 33.8874 12.2848
# 6 28.7542 31.8109 8.5699 -1.1078 12.2848 54.7991
#
#
#
# Elastic Compliance Matrix: (Units=1/GPa)
#
#
# Indices 1 2 3 4 5 6 
#
# 1 0.024299 -0.007743 -0.005426 0.004336 0.000225 -0.007370
# 2 -0.007743 0.023466 -0.007030 -0.020477 0.003222 -0.009596
# 3 -0.005426 -0.007030 0.014064 0.011100 0.000245 0.004898
# 4 0.004336 -0.020477 0.011100 0.045434 -0.002759 0.009412
# 5 0.000225 0.003222 0.000245 -0.002759 0.032953 -0.009470
# 6 -0.007370 -0.009596 0.004898 0.009412 -0.009470 0.029233
#
#
# Mechanical properties :
#
#
# Convention : Reuss Voigt Hill
#
# Bulk Modulus (GPa) = 46.65801 62.65916 54.65859
# Shear Modulus (GPa) = 23.04245 36.94535 29.99390
#
# Velocity S-wave (km/s) = 3.22441 4.08287 3.67877
# Velocity P-wave (km/s) = 5.90886 7.10623 6.53503
#
# Compressibility (1/GPa) = 0.02143255
#
# Stress axis : x y z
#
# Youngs Moduli (GPa) = 41.15316 42.61507 71.10369
#
# Poissons Ratio (x) = 0.32995 0.38578
# Poissons Ratio (y) = 0.31863 0.49987
# Poissons Ratio (z) = 0.22328 0.29959
#
# Static dielectric constant tensor:
#      x y z
#    x 1.809240 0.018960 0.074960 
#    y 0.018960 1.863820 -0.012010 
#    z 0.074960 -0.012010 1.837220 
# 
# From -- ./inp_files/17070.got.cif
#   From: 2010.05.17/outbox.cif.g08.bks.cpg/sg2_9_cif.got.tgz:17070.got - 2010.06.03 11:33:40.
