data_PCOD9108460
_publ_section_title
;
Structure prediction by ZEFSAII (Michael W. Deem and Ramdas Pophale) SiO2 
 PCOD9108460
Probable space group: P -1
;
_chemical_formula_sum "Si O2"
_cell_formula_units_Z 16
_cell_length_a 8.693081
_cell_length_b 15.454694
_cell_length_c 12.475481
_cell_angle_alpha 145.397421
_cell_angle_beta 50.729484
_cell_angle_gamma 117.127195
_cell_volume 728.746077
_symmetry_space_group_name_H-M "P -1"
_symmetry_group_IT_number 2
_symmetry_cell_setting 'triclinic'
loop_
_space_group_symop_operation_xyz
x,y,z
-x,-y,-z
loop_
_atom_site_type_symbol
_atom_site_label
_atom_site_fract_x
_atom_site_fract_y
_atom_site_fract_z
Si Si1 0.477184 0.176902 0.151486
Si Si2 0.097874 0.191674 0.443596
Si Si3 0.743421 0.853725 0.003560
Si Si4 0.116547 0.859543 0.148023
Si Si5 0.147655 0.622086 0.083518
Si Si6 0.862551 0.185592 0.324473
Si Si7 0.499177 0.410103 0.796895
Si Si8 0.665698 0.848685 0.267909
O O1 0.301165 0.258625 0.390216
O O2 0.390468 0.182900 0.074982
O O3 0.702685 0.214678 0.085857
O O4 0.500000 0.000000 0.000000
O O5 0.928928 0.304258 0.694168
O O6 0.002923 0.144758 0.325774
O O7 0.151307 0.036062 0.330690
O O8 0.665682 0.794907 0.089477
O O9 0.751133 0.038871 0.197465
O O10 0.977022 0.789015 0.811316
O O11 0.130661 0.757210 0.142940
O O12 0.893127 0.872814 0.214217
O O13 0.366833 0.525691 0.894340
O O14 0.000000 0.500000 0.000000
O O15 0.706966 0.334105 0.575774
O O16 0.388967 0.267291 0.736259
O O17 0.500000 0.500000 0.000000
O O18 0.500000 0.000000 0.500000
#
# Coordination Sequence:
#
# PCOD9108460 Si02
#       8
#     2   2   2   2   2   2   2   2
#     4   9  22  38  65  98 133 164 212 282 333 383
#     4  10  20  43  67  95 128 174 223 275 328 388
#     4  10  21  39  69 100 124 166 229 268 328 383
#     4  11  23  43  64  98 131 168 223 277 328 393
#     4  12  26  43  62  94 136 180 215 270 339 396
#     4  10  20  40  68  97 127 169 218 279 321 386
#     4  12  25  43  66  92 140 175 216 270 337 396
#     4  12  24  42  69 100 128 170 229 277 321 394
#
# _framework density 21.95552
#
# number of rings (size 3 to 8) (size 9 to 14) (size 15 to 20)
#    0.000    1.250    5.000    0.375    3.500    4.000 
#    0.000    2.500    0.000    0.000    0.000    0.000 
#    0.000    0.000    0.000    0.000    0.000    0.000 
#
# Total GULP energy -89379.877426 kJ/mol
# GULP energy per Si atom -5586.242339 kJ/mol
# Density = 2.190555 g / cm^3
# Si number density = 21.955520 Si / 1000 Ang^3
#
#
#
# Elastic Constant Matrix: (Units=GPa)
#
#
# Indices 1 2 3 4 5 6 
#
# 1 72.2602 28.8517 30.1509 -0.9599 -29.7421 -0.2390
# 2 28.8517 66.6063 38.0451 -23.5124 -10.9310 -7.7847
# 3 30.1509 38.0451 128.8972 -14.0582 -35.3656 -1.6417
# 4 -0.9599 -23.5124 -14.0582 24.5054 4.8580 -1.3002
# 5 -29.7421 -10.9310 -35.3656 4.8580 37.1181 -1.6211
# 6 -0.2390 -7.7847 -1.6417 -1.3002 -1.6211 31.8019
#
#
#
# Elastic Compliance Matrix: (Units=1/GPa)
#
#
# Indices 1 2 3 4 5 6 
#
# 1 0.028625 -0.017015 0.002451 -0.018445 0.022526 -0.003429
# 2 -0.017015 0.037325 -0.006791 0.034365 -0.013199 0.009390
# 3 0.002451 -0.006791 0.012237 -0.001771 0.011834 -0.000481
# 4 -0.018445 0.034365 -0.001771 0.075730 -0.015801 0.010473
# 5 0.022526 -0.013199 0.011834 -0.015801 0.054433 -0.000322
# 6 -0.003429 0.009390 -0.000481 0.010473 -0.000322 0.034104
#
#
# Mechanical properties :
#
#
# Convention : Reuss Voigt Hill
#
# Bulk Modulus (GPa) = 28.18625 51.31768 39.75197
# Shear Modulus (GPa) = 16.83570 30.06615 23.45092
#
# Velocity S-wave (km/s) = 2.77214 3.70457 3.27174
# Velocity P-wave (km/s) = 4.80750 6.45931 5.69363
#
# Compressibility (1/GPa) = 0.03547829
#
# Stress axis : x y z
#
# Youngs Moduli (GPa) = 34.93467 26.79161 81.72146
#
# Poissons Ratio (x) = 0.45585 -0.20032
# Poissons Ratio (y) = 0.59441 0.55494
# Poissons Ratio (z) = -0.08564 0.18193
#
# Static dielectric constant tensor:
#      x y z
#    x 1.842240 0.019330 0.004440 
#    y 0.019330 1.845880 -0.042050 
#    z 0.004440 -0.042050 1.840300 
# 
# From -- ./inp_files/261615.got.cif
#   From: 2010.05.17/outbox.cif.g08.bks.cpg/sg2_131_cif.got.tgz:261615.got - 2010.06.03 11:33:40.
