data_PCOD9108013
_publ_section_title
;
Structure prediction by ZEFSAII (Michael W. Deem and Ramdas Pophale) SiO2 
 PCOD9108013
Probable space group: P -1
;
_chemical_formula_sum "Si O2"
_cell_formula_units_Z 16
_cell_length_a 18.795008
_cell_length_b 8.638411
_cell_length_c 11.395966
_cell_angle_alpha 43.373367
_cell_angle_beta 137.792069
_cell_angle_gamma 105.479264
_cell_volume 690.161400
_symmetry_space_group_name_H-M "P -1"
_symmetry_group_IT_number 2
_symmetry_cell_setting 'triclinic'
loop_
_space_group_symop_operation_xyz
x,y,z
-x,-y,-z
loop_
_atom_site_type_symbol
_atom_site_label
_atom_site_fract_x
_atom_site_fract_y
_atom_site_fract_z
Si Si1 0.349966 0.814813 0.790345
Si Si2 0.319116 0.567677 0.417624
Si Si3 0.512332 0.915444 0.271129
Si Si4 0.789747 0.171280 0.621574
Si Si5 0.871133 0.595597 0.719423
Si Si6 0.378207 0.302424 0.224334
Si Si7 0.964210 0.369321 0.697852
Si Si8 0.253083 0.165852 0.959791
O O1 0.292493 0.823255 0.587794
O O2 0.448481 0.892578 0.838410
O O3 0.233548 0.073805 0.579822
O O4 0.394045 0.533440 0.065128
O O5 0.451930 0.307843 0.664445
O O6 0.301317 0.601444 0.517327
O O7 0.204944 0.534157 0.258709
O O8 0.294222 0.855338 0.193911
O O9 0.609011 0.728748 0.602103
O O10 0.365016 0.107436 0.035395
O O11 0.891717 0.222744 0.663711
O O12 0.882780 0.876607 0.966505
O O13 0.917143 0.496571 0.699068
O O14 0.000000 0.500000 0.000000
O O15 0.500000 0.000000 0.500000
O O16 0.265385 0.314507 0.006650
O O17 0.892620 0.632253 0.380198
#
# Coordination Sequence:
#
# PCOD9108013 Si02
#       8
#     2   2   2   2   2   2   2   2
#     4  11  21  42  71  97 131 181 218 273 340 387
#     4  10  23  40  65  96 131 174 215 275 333 389
#     4  10  24  44  65 100 137 173 225 269 327 398
#     4  10  20  40  66  94 130 166 225 268 325 402
#     4  10  21  41  64  96 128 170 224 270 332 399
#     4  10  23  41  66  94 131 176 222 273 320 390
#     4  10  21  38  65  95 128 171 213 274 326 394
#     4  11  22  42  63  94 134 173 216 273 332 388
#
# _framework density 23.182984000000001
#
# number of rings (size 3 to 8) (size 9 to 14) (size 15 to 20)
#    0.000    1.750    2.500    1.125    1.750    2.500 
#    9.000    5.000    0.000    0.000    0.000    0.000 
#    0.000    0.000    0.000    0.000    0.000    0.000 
#
# Total GULP energy -89455.268765 kJ/mol
# GULP energy per Si atom -5590.954298 kJ/mol
# Density = 2.313022 g / cm^3
# Si number density = 23.182984 Si / 1000 Ang^3
#
#
#
# Elastic Constant Matrix: (Units=GPa)
#
#
# Indices 1 2 3 4 5 6 
#
# 1 96.3849 41.8090 42.9140 -16.8198 9.8147 -5.1789
# 2 41.8090 114.7735 48.0441 -21.1759 -9.2483 -3.0425
# 3 42.9140 48.0441 143.6598 -12.7710 -13.0590 6.2476
# 4 -16.8198 -21.1759 -12.7710 32.7220 2.9076 -15.9828
# 5 9.8147 -9.2483 -13.0590 2.9076 32.7365 -16.3217
# 6 -5.1789 -3.0425 6.2476 -15.9828 -16.3217 40.2525
#
#
#
# Elastic Compliance Matrix: (Units=1/GPa)
#
#
# Indices 1 2 3 4 5 6 
#
# 1 0.015226 -0.003496 -0.003552 0.005656 -0.006558 0.001833
# 2 -0.003496 0.013304 -0.002330 0.008778 0.006634 0.007093
# 3 -0.003552 -0.002330 0.009132 -0.000451 0.003732 -0.000716
# 4 0.005656 0.008778 -0.000451 0.050395 0.008565 0.024944
# 5 -0.006558 0.006634 0.003732 0.008565 0.045563 0.020954
# 6 0.001833 0.007093 -0.000716 0.024944 0.020954 0.044127
#
#
# Mechanical properties :
#
#
# Convention : Reuss Voigt Hill
#
# Bulk Modulus (GPa) = 52.89562 68.92804 60.91183
# Shear Modulus (GPa) = 24.65431 35.94561 30.29996
#
# Velocity S-wave (km/s) = 3.26462 3.94193 3.61916
# Velocity P-wave (km/s) = 6.08904 7.10740 6.61784
#
# Compressibility (1/GPa) = 0.01890516
#
# Stress axis : x y z
#
# Youngs Moduli (GPa) = 65.67535 75.16692 109.51025
#
# Poissons Ratio (x) = 0.26278 0.38902
# Poissons Ratio (y) = 0.22960 0.25515
# Poissons Ratio (z) = 0.23330 0.17513
#
# Static dielectric constant tensor:
#      x y z
#    x 1.920070 0.039750 -0.004500 
#    y 0.039750 1.952480 0.115860 
#    z -0.004500 0.115860 1.992130 
# 
# From -- ./inp_files/469769.got.cif
#   From: 2010.05.17/outbox.cif.g08.bks.cpg/sg2_235_cif.got.tgz:469769.got - 2010.06.03 11:33:40.
