data_PCOD9108193
_publ_section_title
;
Structure prediction by ZEFSAII (Michael W. Deem and Ramdas Pophale) SiO2 
 PCOD9108193
Probable space group: P -1
;
_chemical_formula_sum "Si O2"
_cell_formula_units_Z 15
_cell_length_a 12.964740
_cell_length_b 12.670922
_cell_length_c 13.452699
_cell_angle_alpha 142.852888
_cell_angle_beta 113.380752
_cell_angle_gamma 97.023939
_cell_volume 748.957687
_symmetry_space_group_name_H-M "P -1"
_symmetry_group_IT_number 2
_symmetry_cell_setting 'triclinic'
loop_
_space_group_symop_operation_xyz
x,y,z
-x,-y,-z
loop_
_atom_site_type_symbol
_atom_site_label
_atom_site_fract_x
_atom_site_fract_y
_atom_site_fract_z
Si Si1 0.871009 0.224592 0.813602
Si Si2 0.532317 0.213899 0.105705
Si Si3 0.188999 0.018150 0.824115
Si Si4 0.054718 0.063511 0.453350
Si Si5 0.946187 0.768658 0.739745
Si Si6 0.969813 0.427017 0.221789
Si Si7 0.500000 0.000000 0.500000
Si Si8 0.639379 0.261723 0.967829
O O1 0.869402 0.029508 0.621470
O O2 0.675715 0.079895 0.637738
O O3 0.959634 0.331557 0.037666
O O4 0.000000 0.500000 0.000000
O O5 0.739577 0.529766 0.442324
O O6 0.521605 0.156408 0.941354
O O7 0.500000 0.000000 0.000000
O O8 0.392275 0.200678 0.062030
O O9 0.132637 0.120547 0.817272
O O10 0.078295 0.901777 0.796649
O O11 0.102912 0.756838 0.528274
O O12 0.213338 0.401209 0.744658
O O13 0.000000 0.000000 0.500000
O O14 0.963396 0.623272 0.707828
O O15 0.000000 0.000000 0.000000
O O16 0.767320 0.252849 0.036526
O O17 0.472408 0.908756 0.302878
#
# Coordination Sequence:
#
# PCOD9108193 Si02
#       8
#     2   2   2   2   2   2   1   2
#     4  11  24  43  66  97 134 175 236 279 350 416
#     4  12  24  42  73 103 136 186 232 283 353 421
#     4  11  23  43  66  99 135 180 232 281 354 420
#     4  11  23  44  68  99 139 187 226 291 353 417
#     4  12  24  43  68  98 141 179 228 297 350 412
#     4  10  20  40  67  91 130 182 222 284 345 412
#     4  10  24  42  66  98 132 178 228 290 336 410
#     4  10  23  43  67 102 136 178 236 284 356 415
#
# _framework density 20.027833999999999
#
# number of rings (size 3 to 8) (size 9 to 14) (size 15 to 20)
#    0.000    1.067    4.000    4.400    3.733    1.067 
#    2.400    0.000    0.000    0.000    0.000    0.000 
#    0.000    0.000    0.000    0.000    0.000    0.000 
#
# Total GULP energy -83531.435077 kJ/mol
# GULP energy per Si atom -5568.762338 kJ/mol
# Density = 1.998225 g / cm^3
# Si number density = 20.027834 Si / 1000 Ang^3
#
#
#
# Elastic Constant Matrix: (Units=GPa)
#
#
# Indices 1 2 3 4 5 6 
#
# 1 146.1162 62.0742 52.5994 -15.2222 10.2012 15.9457
# 2 62.0742 104.0174 30.5679 -23.2261 7.5064 12.0379
# 3 52.5994 30.5679 70.0849 -34.3173 0.6205 12.6865
# 4 -15.2222 -23.2261 -34.3173 32.7039 -5.9809 -0.9519
# 5 10.2012 7.5064 0.6205 -5.9809 38.7261 -7.2433
# 6 15.9457 12.0379 12.6865 -0.9519 -7.2433 37.7453
#
#
#
# Elastic Compliance Matrix: (Units=1/GPa)
#
#
# Indices 1 2 3 4 5 6 
#
# 1 0.013672 -0.006848 -0.014151 -0.014122 -0.004229 -0.000003
# 2 -0.006848 0.015489 0.005814 0.013839 0.000169 -0.003619
# 3 -0.014151 0.005814 0.047959 0.048998 0.007662 -0.009289
# 4 -0.014122 0.013839 0.048998 0.087091 0.011746 -0.010466
# 5 -0.004229 0.000169 0.007662 0.011746 0.029553 0.005125
# 6 -0.000003 -0.003619 -0.009289 -0.010466 0.005125 0.031491
#
#
# Mechanical properties :
#
#
# Convention : Reuss Voigt Hill
#
# Bulk Modulus (GPa) = 21.39084 67.85571 44.62327
# Shear Modulus (GPa) = 18.43609 33.50019 25.96814
#
# Velocity S-wave (km/s) = 3.03730 4.09428 3.60474
# Velocity P-wave (km/s) = 4.79625 7.50367 6.29719
#
# Compressibility (1/GPa) = 0.04674899
#
# Stress axis : x y z
#
# Youngs Moduli (GPa) = 73.14480 64.56334 20.85121
#
# Poissons Ratio (x) = 0.44213 0.29506
# Poissons Ratio (y) = 0.50090 -0.12123
# Poissons Ratio (z) = 1.03507 -0.37537
#
# Static dielectric constant tensor:
#      x y z
#    x 1.714300 0.003450 0.027920 
#    y 0.003450 1.700730 -0.001210 
#    z 0.027920 -0.001210 1.727690 
# 
# From -- ./inp_files/425524.got.cif
#   From: 2010.05.17/outbox.cif.g08.bks.cpg/sg2_213_cif.got.tgz:425524.got - 2010.06.03 11:33:40.
