data_PCOD9108451
_publ_section_title
;
Structure prediction by ZEFSAII (Michael W. Deem and Ramdas Pophale) SiO2 
 PCOD9108451
Probable space group: P -1
;
_chemical_formula_sum "Si O2"
_cell_formula_units_Z 12
_cell_length_a 7.055663
_cell_length_b 9.421601
_cell_length_c 15.744722
_cell_angle_alpha 121.057546
_cell_angle_beta 57.872535
_cell_angle_gamma 144.043178
_cell_volume 512.714695
_symmetry_space_group_name_H-M "P -1"
_symmetry_group_IT_number 2
_symmetry_cell_setting 'triclinic'
loop_
_space_group_symop_operation_xyz
x,y,z
-x,-y,-z
loop_
_atom_site_type_symbol
_atom_site_label
_atom_site_fract_x
_atom_site_fract_y
_atom_site_fract_z
Si Si1 0.869615 0.279709 0.019705
Si Si2 0.404416 0.899154 0.286870
Si Si3 0.777317 0.775526 0.187290
Si Si4 0.352577 0.771371 0.523981
Si Si5 0.541688 0.820633 0.776221
Si Si6 0.304066 0.376214 0.643297
O O1 0.802397 0.333362 0.141534
O O2 0.000000 0.500000 0.000000
O O3 0.148019 0.296006 0.935207
O O4 0.500000 0.000000 0.000000
O O5 0.659765 0.148291 0.357182
O O6 0.405055 0.972426 0.215273
O O7 0.507106 0.767077 0.231887
O O8 0.037785 0.750731 0.356356
O O9 0.703065 0.651551 0.259311
O O10 0.144995 0.050612 0.200345
O O11 0.590151 0.741862 0.453847
O O12 0.000000 0.500000 0.500000
O O13 0.500000 0.000000 0.500000
O O14 0.533523 0.662320 0.665142
#
# Coordination Sequence:
#
# PCOD9108451 Si02
#       6
#     2   2   2   2   2   2
#     4  10  20  40  68  96 132 178 220 268 327 390
#     4  11  25  42  66 101 132 173 224 277 329 395
#     4  10  21  42  66  93 135 178 219 270 332 392
#     4  12  27  46  72  97 131 179 223 270 339 399
#     4  10  23  40  67  96 133 177 222 272 331 389
#     4  11  23  42  68  95 135 173 220 275 333 391
#
# _framework density 23.40483
#
# number of rings (size 3 to 8) (size 9 to 14) (size 15 to 20)
#    0.000    1.333    3.333    1.500    4.667    2.667 
#    0.000    0.833    0.000    0.000    0.000    0.000 
#    0.000    0.000    0.000    0.000    0.000    0.000 
#
# Total GULP energy -66871.638434 kJ/mol
# GULP energy per Si atom -5572.636536 kJ/mol
# Density = 2.335156 g / cm^3
# Si number density = 23.404830 Si / 1000 Ang^3
#
#
#
# Elastic Constant Matrix: (Units=GPa)
#
#
# Indices 1 2 3 4 5 6 
#
# 1 143.2982 32.0445 35.7857 2.7346 -48.7175 1.3451
# 2 32.0445 78.8696 -1.2872 9.9515 -11.3221 0.2390
# 3 35.7857 -1.2872 71.0011 3.2407 -40.0171 -2.6570
# 4 2.7346 9.9515 3.2407 30.2098 -6.9903 -2.0380
# 5 -48.7175 -11.3221 -40.0171 -6.9903 41.5759 -1.5751
# 6 1.3451 0.2390 -2.6570 -2.0380 -1.5751 28.2842
#
#
#
# Elastic Compliance Matrix: (Units=1/GPa)
#
#
# Indices 1 2 3 4 5 6 
#
# 1 0.013000 -0.003003 0.003869 0.003827 0.018825 0.001095
# 2 -0.003003 0.015064 0.004214 -0.004208 0.003945 0.000328
# 3 0.003869 0.004214 0.034856 0.004189 0.040147 0.005592
# 4 0.003827 -0.004208 0.004189 0.037123 0.013752 0.003688
# 5 0.018825 0.003945 0.040147 0.013752 0.088471 0.008760
# 6 0.001095 0.000328 0.005592 0.003688 0.008760 0.036579
#
#
# Mechanical properties :
#
#
# Convention : Reuss Voigt Hill
#
# Bulk Modulus (GPa) = 13.68314 47.36168 30.52241
# Shear Modulus (GPa) = 20.89501 35.12239 28.00870
#
# Velocity S-wave (km/s) = 2.99116 3.87802 3.46310
# Velocity P-wave (km/s) = 4.21762 6.35074 5.39074
#
# Compressibility (1/GPa) = 0.07308266
#
# Stress axis : x y z
#
# Youngs Moduli (GPa) = 76.92172 66.38273 28.68975
#
# Poissons Ratio (x) = 0.19932 -0.11101
# Poissons Ratio (y) = 0.23096 -0.12091
# Poissons Ratio (z) = -0.29765 -0.27977
#
# Static dielectric constant tensor:
#      x y z
#    x 1.900890 0.077280 0.010720 
#    y 0.077280 1.812670 0.077470 
#    z 0.010720 0.077470 1.919730 
# 
# From -- ./inp_files/3253.got.cif
#   From: 2010.05.17/outbox.cif.g08.bks.cpg/sg2_2_cif.got.tgz:3253.got - 2010.06.03 11:33:40.
