data_PCOD9108987
_publ_section_title
;
Structure prediction by ZEFSAII (Michael W. Deem and Ramdas Pophale) SiO2 
 PCOD9108987
Probable space group: P -1
;
_chemical_formula_sum "Si O2"
_cell_formula_units_Z 14
_cell_length_a 9.202557
_cell_length_b 5.578425
_cell_length_c 13.107615
_cell_angle_alpha 87.610918
_cell_angle_beta 81.798312
_cell_angle_gamma 126.543542
_cell_volume 528.245379
_symmetry_space_group_name_H-M "P -1"
_symmetry_group_IT_number 2
_symmetry_cell_setting 'triclinic'
loop_
_space_group_symop_operation_xyz
x,y,z
-x,-y,-z
loop_
_atom_site_type_symbol
_atom_site_label
_atom_site_fract_x
_atom_site_fract_y
_atom_site_fract_z
Si Si1 0.796113 0.927632 0.009552
Si Si2 0.417680 0.502565 0.159235
Si Si3 0.806724 0.738385 0.408508
Si Si4 0.802391 0.010576 0.667986
Si Si5 0.746327 0.181261 0.296837
Si Si6 0.116977 0.606917 0.152906
Si Si7 0.609151 0.223179 0.580574
O O1 0.638165 0.745197 0.115191
O O2 0.675022 0.714439 0.928245
O O3 0.839081 0.241086 0.964154
O O4 0.000000 0.000000 0.000000
O O5 0.279550 0.591787 0.169879
O O6 0.374521 0.312900 0.270210
O O7 0.769722 0.467997 0.342741
O O8 0.687538 0.548981 0.523287
O O9 0.026471 0.963607 0.392907
O O10 0.763137 0.959123 0.368888
O O11 0.874047 0.180391 0.766243
O O12 0.771739 0.204541 0.594095
O O13 0.906658 0.307806 0.194251
O O14 0.527070 0.939117 0.305474
O O15 0.500000 0.000000 0.500000
#
# Coordination Sequence:
#
# PCOD9108987 Si02
#       7
#     2   2   2   2   2   2   2
#     4  10  23  40  67  95 124 166 212 268 330 401
#     4  10  21  43  64  89 132 164 213 269 327 401
#     4  10  20  41  61  88 125 172 216 267 324 388
#     4  10  21  40  61  89 123 174 216 262 333 388
#     4  10  21  39  63  91 128 165 216 268 326 387
#     4  10  21  41  60  91 126 166 211 266 330 394
#     4  10  22  40  60  91 128 167 220 277 321 384
#
# _framework density 26.502835999999999
#
# number of rings (size 3 to 8) (size 9 to 14) (size 15 to 20)
#    0.000    2.000    1.429    1.286    2.000    0.571 
#   12.857    4.286    0.000    0.000    0.000    0.000 
#    0.000    0.000    0.000    0.000    0.000    0.000 
#
# Total GULP energy -78123.148271 kJ/mol
# GULP energy per Si atom -5580.224877 kJ/mol
# Density = 2.644251 g / cm^3
# Si number density = 26.502836 Si / 1000 Ang^3
#
#
#
# Elastic Constant Matrix: (Units=GPa)
#
#
# Indices 1 2 3 4 5 6 
#
# 1 114.2443 22.8697 20.2482 -15.6147 -6.3397 -3.5325
# 2 22.8697 119.9699 41.6712 -12.0012 -8.5547 19.7409
# 3 20.2482 41.6712 121.8360 -27.5535 -15.8991 -2.1255
# 4 -15.6147 -12.0012 -27.5535 42.2421 1.4116 5.4853
# 5 -6.3397 -8.5547 -15.8991 1.4116 49.3755 -9.6541
# 6 -3.5325 19.7409 -2.1255 5.4853 -9.6541 44.3063
#
#
#
# Elastic Compliance Matrix: (Units=1/GPa)
#
#
# Indices 1 2 3 4 5 6 
#
# 1 0.009594 -0.001615 -0.000270 0.002698 0.001055 0.001367
# 2 -0.001615 0.010739 -0.003339 0.000981 -0.000486 -0.005301
# 3 -0.000270 -0.003339 0.011176 0.005879 0.003203 0.001972
# 4 0.002698 0.000981 0.005879 0.029188 0.000919 -0.003353
# 5 0.001055 -0.000486 0.003203 0.000919 0.022327 0.005206
# 6 0.001367 -0.005301 0.001972 -0.003353 0.005206 0.026685
#
#
# Mechanical properties :
#
#
# Convention : Reuss Voigt Hill
#
# Bulk Modulus (GPa) = 47.47988 58.40315 52.94151
# Shear Modulus (GPa) = 39.31503 45.26884 42.29194
#
# Velocity S-wave (km/s) = 3.85571 4.13737 3.99902
# Velocity P-wave (km/s) = 6.14621 6.70136 6.42978
#
# Compressibility (1/GPa) = 0.02106155
#
# Stress axis : x y z
#
# Youngs Moduli (GPa) = 104.23191 93.12171 89.47379
#
# Poissons Ratio (x) = 0.15037 0.02419
# Poissons Ratio (y) = 0.16831 0.29872
# Poissons Ratio (z) = 0.02818 0.31090
#
# Static dielectric constant tensor:
#      x y z
#    x 2.076250 -0.055560 -0.097140 
#    y -0.055560 2.317330 0.044280 
#    z -0.097140 0.044280 2.152780 
# 
# From -- ./inp_files/48794.got.cif
#   From: 2010.05.17/outbox.cif.g08.bks.cpg/sg2_25_cif.got.tgz:48794.got - 2010.06.03 11:33:40.
