data_PCOD9108363
_publ_section_title
;
Structure prediction by ZEFSAII (Michael W. Deem and Ramdas Pophale) SiO2 
 PCOD9108363
Probable space group: P -1
;
_chemical_formula_sum "Si O2"
_cell_formula_units_Z 16
_cell_length_a 9.690476
_cell_length_b 9.079041
_cell_length_c 11.546749
_cell_angle_alpha 75.656432
_cell_angle_beta 52.247539
_cell_angle_gamma 60.290153
_cell_volume 695.338169
_symmetry_space_group_name_H-M "P -1"
_symmetry_group_IT_number 2
_symmetry_cell_setting 'triclinic'
loop_
_space_group_symop_operation_xyz
x,y,z
-x,-y,-z
loop_
_atom_site_type_symbol
_atom_site_label
_atom_site_fract_x
_atom_site_fract_y
_atom_site_fract_z
Si Si1 0.370348 0.891264 0.253967
Si Si2 0.589205 0.501246 0.281557
Si Si3 0.769981 0.950502 0.479976
Si Si4 0.122800 0.931477 0.152679
Si Si5 0.733295 0.929121 0.143666
Si Si6 0.515591 0.795691 0.589666
Si Si7 0.942034 0.539131 0.157894
Si Si8 0.708345 0.436609 0.967516
O O1 0.441274 0.699606 0.302388
O O2 0.213995 0.020052 0.399349
O O3 0.287554 0.910576 0.165007
O O4 0.555619 0.929155 0.160561
O O5 0.489449 0.382044 0.386957
O O6 0.773968 0.477813 0.271145
O O7 0.669752 0.443656 0.121940
O O8 0.568474 0.102939 0.506051
O O9 0.724232 0.790799 0.512150
O O10 0.933312 0.968572 0.318036
O O11 0.179244 0.752965 0.098572
O O12 0.118046 0.053791 0.027453
O O13 0.834886 0.743899 0.185315
O O14 0.634206 0.086021 0.254612
O O15 0.144883 0.475129 0.137564
O O16 0.000000 0.500000 0.000000
O O17 0.500000 0.500000 0.000000
#
# Coordination Sequence:
#
# PCOD9108363 Si02
#       8
#     2   2   2   2   2   2   2   2
#     4  10  22  42  59  90 132 167 202 252 316 378
#     4  10  20  40  68  87 124 164 210 258 308 369
#     4  10  24  39  60  88 127 163 208 257 308 372
#     4  12  22  37  66  92 125 164 210 257 315 368
#     4  10  21  38  66  95 122 160 212 264 305 363
#     4  10  21  42  65  90 116 165 215 256 308 367
#     4   9  21  36  57  95 130 150 200 260 312 364
#     4  11  21  37  62  97 129 160 197 263 323 362
#
# _framework density 23.010386
#
# number of rings (size 3 to 8) (size 9 to 14) (size 15 to 20)
#    0.000    1.750    2.500    1.500    3.500    2.500 
#    0.000    0.625    2.750    0.000    0.000    0.000 
#    0.000    0.000    0.000    0.000    0.000    0.000 
#
# Total GULP energy -89360.611041 kJ/mol
# GULP energy per Si atom -5585.038190 kJ/mol
# Density = 2.295801 g / cm^3
# Si number density = 23.010386 Si / 1000 Ang^3
#
#
#
# Elastic Constant Matrix: (Units=GPa)
#
#
# Indices 1 2 3 4 5 6 
#
# 1 151.2072 22.7150 19.4358 -6.8139 -13.7095 33.1264
# 2 22.7150 69.8829 27.4964 -6.1900 -1.0884 27.7891
# 3 19.4358 27.4964 101.6461 -3.6426 -16.2841 17.0866
# 4 -6.8139 -6.1900 -3.6426 33.2410 4.4255 -6.7386
# 5 -13.7095 -1.0884 -16.2841 4.4255 21.6154 1.3515
# 6 33.1264 27.7891 17.0866 -6.7386 1.3515 27.3305
#
#
#
# Elastic Compliance Matrix: (Units=1/GPa)
#
#
# Indices 1 2 3 4 5 6 
#
# 1 0.010690 0.003021 0.001657 -0.002016 0.009721 -0.018042
# 2 0.003021 0.025566 -0.002106 -0.001178 0.003659 -0.028811
# 3 0.001657 -0.002106 0.013558 -0.002107 0.012182 -0.009465
# 4 -0.002016 -0.001178 -0.002107 0.033416 -0.010626 0.013724
# 5 0.009721 0.003659 0.012182 -0.010626 0.065779 -0.028992
# 6 -0.018042 -0.028811 -0.009465 0.013724 -0.028992 0.098486
#
#
# Mechanical properties :
#
#
# Convention : Reuss Voigt Hill
#
# Bulk Modulus (GPa) = 18.19648 51.33673 34.76661
# Shear Modulus (GPa) = 19.18123 33.30998 26.24561
#
# Velocity S-wave (km/s) = 2.89033 3.80887 3.38094
# Velocity P-wave (km/s) = 4.36621 6.45771 5.51207
#
# Compressibility (1/GPa) = 0.05495569
#
# Stress axis : x y z
#
# Youngs Moduli (GPa) = 93.54720 39.11466 73.75611
#
# Poissons Ratio (x) = -0.11815 -0.12220
# Poissons Ratio (y) = -0.28257 0.15536
# Poissons Ratio (z) = -0.15499 0.08239
#
# Static dielectric constant tensor:
#      x y z
#    x 1.916930 -0.003200 -0.085970 
#    y -0.003200 0.468390 -1.345350 
#    z -0.085970 -1.345350 0.656700 
# 
# From -- ./inp_files/273903.got.cif
#   From: 2010.05.17/outbox.cif.g08.bks.cpg/sg2_137_cif.got.tgz:273903.got - 2010.06.03 11:33:40.
