data_PCOD9108489
_publ_section_title
;
Structure prediction by ZEFSAII (Michael W. Deem and Ramdas Pophale) SiO2 
 PCOD9108489
Probable space group: P -1
;
_chemical_formula_sum "Si O2"
_cell_formula_units_Z 16
_cell_length_a 18.302497
_cell_length_b 8.453786
_cell_length_c 11.998596
_cell_angle_alpha 134.009180
_cell_angle_beta 151.305067
_cell_angle_gamma 48.603962
_cell_volume 633.852441
_symmetry_space_group_name_H-M "P -1"
_symmetry_group_IT_number 2
_symmetry_cell_setting 'triclinic'
loop_
_space_group_symop_operation_xyz
x,y,z
-x,-y,-z
loop_
_atom_site_type_symbol
_atom_site_label
_atom_site_fract_x
_atom_site_fract_y
_atom_site_fract_z
Si Si1 0.071471 0.518256 0.422864
Si Si2 0.073843 0.948933 0.772405
Si Si3 0.288561 0.933222 0.248151
Si Si4 0.826973 0.987083 0.634295
Si Si5 0.397218 0.360581 0.497939
Si Si6 0.479807 0.085556 0.140399
Si Si7 0.207510 0.344794 0.023488
Si Si8 0.389635 0.633874 0.828052
O O1 0.021003 0.735571 0.538596
O O2 0.132804 0.283583 0.447856
O O3 0.216633 0.589720 0.588593
O O4 0.929924 0.497573 0.142456
O O5 0.942361 0.065230 0.737174
O O6 0.129124 0.129387 0.852036
O O7 0.214847 0.858854 0.999512
O O8 0.445795 0.773522 0.406097
O O9 0.173115 0.952011 0.205777
O O10 0.330496 0.177620 0.396315
O O11 0.651762 0.075320 0.409445
O O12 0.432921 0.554487 0.721613
O O13 0.279298 0.427229 0.272900
O O14 0.407511 0.883705 0.000759
O O15 0.500000 0.000000 0.000000
O O16 0.350773 0.288958 0.102188
O O17 0.500000 0.500000 0.000000
#
# Coordination Sequence:
#
# PCOD9108489 Si02
#       8
#     2   2   2   2   2   2   2   2
#     4  12  24  42  67  99 138 174 223 278 330 399
#     4  11  24  40  69  99 135 176 218 280 334 395
#     4  10  20  40  68  98 133 175 226 272 335 393
#     4  12  24  44  66 103 134 174 228 275 330 398
#     4  10  21  41  69  98 133 180 224 277 327 402
#     4  12  26  45  71  98 136 178 226 279 335 400
#     4  11  25  46  67  97 139 180 220 270 345 400
#     4  12  23  43  72 103 132 176 231 276 331 399
#
# _framework density 25.242470000000001
#
# number of rings (size 3 to 8) (size 9 to 14) (size 15 to 20)
#    0.000    0.750    5.000    2.625    3.500    0.500 
#    0.000    1.875    0.000    0.000    0.000    0.000 
#    0.000    0.000    0.000    0.000    0.000    0.000 
#
# Total GULP energy -89644.699358 kJ/mol
# GULP energy per Si atom -5602.793710 kJ/mol
# Density = 2.518502 g / cm^3
# Si number density = 25.242470 Si / 1000 Ang^3
#
#
#
# Elastic Constant Matrix: (Units=GPa)
#
#
# Indices 1 2 3 4 5 6 
#
# 1 139.8974 26.4852 15.8974 -8.9809 19.3538 -12.5884
# 2 26.4852 63.2815 43.5676 1.2597 17.3402 6.3281
# 3 15.8974 43.5676 106.5465 -23.0571 4.1704 -0.4414
# 4 -8.9809 1.2597 -23.0571 44.4457 -8.9837 10.1306
# 5 19.3538 17.3402 4.1704 -8.9837 41.4553 -2.6425
# 6 -12.5884 6.3281 -0.4414 10.1306 -2.6425 20.2363
#
#
#
# Elastic Compliance Matrix: (Units=1/GPa)
#
#
# Indices 1 2 3 4 5 6 
#
# 1 0.008727 -0.004167 0.000580 0.000357 -0.001909 0.006316
# 2 -0.004167 0.031725 -0.013902 -0.009252 -0.012558 -0.009824
# 3 0.000580 -0.013902 0.017001 0.010420 0.006134 0.000664
# 4 0.000357 -0.009252 0.010420 0.032767 0.008999 -0.011886
# 5 -0.001909 -0.012558 0.006134 0.008999 0.031760 0.002515
# 6 0.006316 -0.009824 0.000664 -0.011886 0.002515 0.062711
#
#
# Mechanical properties :
#
#
# Convention : Reuss Voigt Hill
#
# Bulk Modulus (GPa) = 44.49544 53.51398 49.00471
# Shear Modulus (GPa) = 22.01079 36.14582 29.07831
#
# Velocity S-wave (km/s) = 2.95613 3.78821 3.39774
# Velocity P-wave (km/s) = 5.41452 6.35453 5.90327
#
# Compressibility (1/GPa) = 0.02247421
#
# Stress axis : x y z
#
# Youngs Moduli (GPa) = 114.59320 31.52045 58.81907
#
# Poissons Ratio (x) = 0.13135 -0.03412
# Poissons Ratio (y) = 0.47753 0.81773
# Poissons Ratio (z) = -0.06647 0.43821
#
# Static dielectric constant tensor:
#      x y z
#    x 2.035280 -0.011940 -0.033330 
#    y -0.011940 2.072810 0.064230 
#    z -0.033330 0.064230 1.997030 
# 
# From -- ./inp_files/263437.got.cif
#   From: 2010.05.17/outbox.cif.g08.bks.cpg/sg2_132_cif.got.tgz:263437.got - 2010.06.03 11:33:40.
