data_PCOD9108369
_publ_section_title
;
Structure prediction by ZEFSAII (Michael W. Deem and Ramdas Pophale) SiO2 
 PCOD9108369
Probable space group: P -1
;
_chemical_formula_sum "Si O2"
_cell_formula_units_Z 14
_cell_length_a 11.334914
_cell_length_b 9.653108
_cell_length_c 20.945279
_cell_angle_alpha 33.825394
_cell_angle_beta 152.322457
_cell_angle_gamma 130.799260
_cell_volume 561.782449
_symmetry_space_group_name_H-M "P -1"
_symmetry_group_IT_number 2
_symmetry_cell_setting 'triclinic'
loop_
_space_group_symop_operation_xyz
x,y,z
-x,-y,-z
loop_
_atom_site_type_symbol
_atom_site_label
_atom_site_fract_x
_atom_site_fract_y
_atom_site_fract_z
Si Si1 0.235006 0.584999 0.111913
Si Si2 0.299572 0.246483 0.538061
Si Si3 0.258422 0.092256 0.797433
Si Si4 0.130467 0.071148 0.099562
Si Si5 0.750625 0.288242 0.233164
Si Si6 0.393999 0.522295 0.071967
Si Si7 0.276630 0.553389 0.533094
O O1 0.439150 0.406491 0.329404
O O2 0.409033 0.545962 0.145887
O O3 0.000000 0.500000 0.000000
O O4 0.085246 0.857889 0.973103
O O5 0.272823 0.475038 0.488106
O O6 0.038979 0.301652 0.347992
O O7 0.581165 0.152607 0.672526
O O8 0.282058 0.996382 0.667604
O O9 0.287842 0.297476 0.680052
O O10 0.981772 0.219128 0.653950
O O11 0.263179 0.819177 0.871629
O O12 0.500000 0.000000 0.000000
O O13 0.221393 0.334563 0.040945
O O14 0.000000 0.000000 0.000000
O O15 0.500000 0.500000 0.000000
O O16 0.693571 0.393896 0.238822
#
# Coordination Sequence:
#
# PCOD9108369 Si02
#       7
#     2   2   2   2   2   2   2
#     4  10  21  40  65  93 127 176 219 258 316 382
#     4  10  21  37  64  92 119 171 212 254 326 386
#     4  11  22  37  61  99 133 160 209 273 328 385
#     4  10  20  40  68  89 129 177 218 262 316 383
#     4  10  21  39  63  93 128 157 208 271 328 379
#     4  10  21  40  65  95 129 164 215 270 322 379
#     4  11  22  37  67  94 130 172 211 264 334 377
#
# _framework density 24.920677999999999
#
# number of rings (size 3 to 8) (size 9 to 14) (size 15 to 20)
#    0.000    1.714    2.857    1.714    2.000    0.000 
#    5.143    2.857    3.143    4.286    0.000    0.000 
#    0.000    0.000    0.000    0.000    0.000    0.000 
#
# Total GULP energy -78152.084377 kJ/mol
# GULP energy per Si atom -5582.291741 kJ/mol
# Density = 2.486396 g / cm^3
# Si number density = 24.920678 Si / 1000 Ang^3
#
#
#
# Elastic Constant Matrix: (Units=GPa)
#
#
# Indices 1 2 3 4 5 6 
#
# 1 70.5444 22.3264 30.5841 -1.7008 23.7922 -18.2850
# 2 22.3264 138.9096 50.5206 1.2139 5.3201 -17.9520
# 3 30.5841 50.5206 145.8249 15.2808 35.0033 -0.3152
# 4 -1.7008 1.2139 15.2808 48.6944 -1.4029 5.5292
# 5 23.7922 5.3201 35.0033 -1.4029 52.9414 -12.6431
# 6 -18.2850 -17.9520 -0.3152 5.5292 -12.6431 31.1657
#
#
#
# Elastic Compliance Matrix: (Units=1/GPa)
#
#
# Indices 1 2 3 4 5 6 
#
# 1 0.019544 -0.000826 -0.002689 0.000392 -0.004773 0.008957
# 2 -0.000826 0.009456 -0.003985 0.000373 0.003572 0.006304
# 3 -0.002689 -0.003985 0.010786 -0.002888 -0.007060 -0.006116
# 4 0.000392 0.000373 -0.002888 0.021812 0.001605 -0.002803
# 5 -0.004773 0.003572 -0.007060 0.001605 0.027818 0.010186
# 6 0.008957 0.006304 -0.006116 -0.002803 0.010186 0.045541
#
#
# Mechanical properties :
#
#
# Convention : Reuss Voigt Hill
#
# Bulk Modulus (GPa) = 40.34757 62.46010 51.40383
# Shear Modulus (GPa) = 31.60187 43.35013 37.47600
#
# Velocity S-wave (km/s) = 3.56490 4.17529 3.88211
# Velocity P-wave (km/s) = 5.75936 6.95428 6.38483
#
# Compressibility (1/GPa) = 0.02478464
#
# Stress axis : x y z
#
# Youngs Moduli (GPa) = 51.16782 105.75369 92.71041
#
# Poissons Ratio (x) = 0.08739 0.24928
# Poissons Ratio (y) = 0.04228 0.36950
# Poissons Ratio (z) = 0.13758 0.42148
#
# Static dielectric constant tensor:
#      x y z
#    x 2.142230 0.080210 -0.003200 
#    y 0.080210 2.008190 -0.007020 
#    z -0.003200 -0.007020 1.953230 
# 
# From -- ./inp_files/100865.got.cif
#   From: 2010.05.17/outbox.cif.g08.bks.cpg/sg2_51_cif.got.tgz:100865.got - 2010.06.03 11:33:40.
