data_PCOD9108517
_publ_section_title
;
Structure prediction by ZEFSAII (Michael W. Deem and Ramdas Pophale) SiO2 
 PCOD9108517
Probable space group: P -1
;
_chemical_formula_sum "Si O2"
_cell_formula_units_Z 12
_cell_length_a 7.783501
_cell_length_b 10.691318
_cell_length_c 7.749253
_cell_angle_alpha 109.796194
_cell_angle_beta 76.440092
_cell_angle_gamma 131.406791
_cell_volume 455.033647
_symmetry_space_group_name_H-M "P -1"
_symmetry_group_IT_number 2
_symmetry_cell_setting 'triclinic'
loop_
_space_group_symop_operation_xyz
x,y,z
-x,-y,-z
loop_
_atom_site_type_symbol
_atom_site_label
_atom_site_fract_x
_atom_site_fract_y
_atom_site_fract_z
Si Si1 0.131986 0.309682 0.441719
Si Si2 0.274093 0.463652 0.969791
Si Si3 0.758979 0.295790 0.733214
Si Si4 0.060152 0.879300 0.964209
Si Si5 0.564129 0.201844 0.088860
Si Si6 0.508030 0.721041 0.509099
O O1 0.328609 0.513035 0.453512
O O2 0.254953 0.238777 0.468907
O O3 0.941647 0.292399 0.594423
O O4 0.011565 0.219346 0.247070
O O5 0.153076 0.513864 0.148115
O O6 0.380029 0.611204 0.867792
O O7 0.096059 0.258425 0.912626
O O8 0.500000 0.500000 0.000000
O O9 0.710346 0.221147 0.901070
O O10 0.533286 0.222366 0.636990
O O11 0.324653 0.020462 0.011052
O O12 0.000000 0.000000 0.000000
O O13 0.569857 0.208190 0.296314
#
# Coordination Sequence:
#
# PCOD9108517 Si02
#       6
#     2   2   2   2   2   2
#     4  11  23  41  72 104 143 186 240 299 350 427
#     4  10  20  40  69 100 139 193 226 287 365 416
#     4  10  24  45  70 105 143 187 240 296 356 422
#     4  12  20  41  71 102 145 192 227 299 369 411
#     4  10  24  43  70 105 143 185 241 292 356 433
#     4  11  22  43  74 104 141 192 241 288 362 433
#
# _framework density 26.371676000000001
#
# number of rings (size 3 to 8) (size 9 to 14) (size 15 to 20)
#    1.000    0.333    5.000    0.500    2.333    1.333 
#    0.000    5.000    0.000    0.000    0.000    0.000 
#    0.000    0.000    0.000    0.000    0.000    0.000 
#
# Total GULP energy -66925.030929 kJ/mol
# GULP energy per Si atom -5577.085911 kJ/mol
# Density = 2.631165 g / cm^3
# Si number density = 26.371676 Si / 1000 Ang^3
#
#
#
# Elastic Constant Matrix: (Units=GPa)
#
#
# Indices 1 2 3 4 5 6 
#
# 1 163.8323 37.4931 33.1413 -7.5144 5.3371 7.9464
# 2 37.4931 129.5456 23.6827 16.5023 -2.9020 -3.0559
# 3 33.1413 23.6827 142.7792 15.6659 -8.4668 -5.7326
# 4 -7.5144 16.5023 15.6659 29.7475 9.3701 3.3845
# 5 5.3371 -2.9020 -8.4668 9.3701 36.3513 1.7772
# 6 7.9464 -3.0559 -5.7326 3.3845 1.7772 29.6597
#
#
#
# Elastic Compliance Matrix: (Units=1/GPa)
#
#
# Indices 1 2 3 4 5 6 
#
# 1 0.007761 -0.002753 -0.002351 0.006152 -0.003330 -0.003320
# 2 -0.002753 0.009540 0.000123 -0.007254 0.002947 0.002396
# 3 -0.002351 0.000123 0.008622 -0.006778 0.003971 0.002844
# 4 0.006152 -0.007254 -0.006778 0.048484 -0.015151 -0.008330
# 5 -0.003330 0.002947 0.003971 -0.015151 0.032980 0.001716
# 6 -0.003320 0.002396 0.002844 -0.008330 0.001716 0.036250
#
#
# Mechanical properties :
#
#
# Convention : Reuss Voigt Hill
#
# Bulk Modulus (GPa) = 62.64545 69.42126 66.03336
# Shear Modulus (GPa) = 31.46268 41.94103 36.70185
#
# Velocity S-wave (km/s) = 3.45780 3.99229 3.73462
# Velocity P-wave (km/s) = 6.30462 6.90163 6.60987
#
# Compressibility (1/GPa) = 0.01596285
#
# Stress axis : x y z
#
# Youngs Moduli (GPa) = 128.84823 104.82095 115.97831
#
# Poissons Ratio (x) = 0.28859 0.27262
# Poissons Ratio (y) = 0.35474 -0.01432
# Poissons Ratio (z) = 0.30288 -0.01294
#
# Static dielectric constant tensor:
#      x y z
#    x 2.006820 -0.154100 0.006390 
#    y -0.154100 2.005070 0.058520 
#    z 0.006390 0.058520 2.122030 
# 
# From -- ./inp_files/197861.got.cif
#   From: 2010.05.17/outbox.cif.g08.bks.cpg/sg2_99_cif.got.tgz:197861.got - 2010.06.03 11:33:40.
