data_PCOD9108164
_publ_section_title
;
Structure prediction by ZEFSAII (Michael W. Deem and Ramdas Pophale) SiO2 
 PCOD9108164
Probable space group: P -1
;
_chemical_formula_sum "Si O2"
_cell_formula_units_Z 16
_cell_length_a 11.581389
_cell_length_b 9.737986
_cell_length_c 9.426494
_cell_angle_alpha 105.375250
_cell_angle_beta 55.480505
_cell_angle_gamma 116.738760
_cell_volume 782.194471
_symmetry_space_group_name_H-M "P -1"
_symmetry_group_IT_number 2
_symmetry_cell_setting 'triclinic'
loop_
_space_group_symop_operation_xyz
x,y,z
-x,-y,-z
loop_
_atom_site_type_symbol
_atom_site_label
_atom_site_fract_x
_atom_site_fract_y
_atom_site_fract_z
Si Si1 0.928997 0.505643 0.700140
Si Si2 0.933861 0.806980 0.819847
Si Si3 0.851365 0.861896 0.289296
Si Si4 0.785497 0.822167 0.654561
Si Si5 0.945752 0.335607 0.909570
Si Si6 0.345132 0.969851 0.010669
Si Si7 0.634166 0.801779 0.186512
Si Si8 0.615151 0.496149 0.798357
O O1 0.994596 0.674191 0.773464
O O2 0.952837 0.385255 0.754568
O O3 0.756729 0.481062 0.776880
O O4 0.000000 0.500000 0.500000
O O5 0.913069 0.804557 0.662828
O O6 0.772686 0.772868 0.998584
O O7 0.044712 0.978786 0.812554
O O8 0.831820 0.864483 0.472881
O O9 0.693767 0.828301 0.311753
O O10 0.934467 0.744390 0.167278
O O11 0.659042 0.649820 0.714799
O O12 0.740835 0.949801 0.803739
O O13 0.774642 0.201183 0.997085
O O14 0.000000 0.500000 0.000000
O O15 0.500000 0.000000 0.000000
O O16 0.383569 0.065935 0.863013
O O17 0.477096 0.658753 0.261391
O O18 0.500000 0.500000 0.000000
#
# Coordination Sequence:
#
# PCOD9108164 Si02
#       8
#     2   2   2   2   2   2   2   2
#     4  11  24  40  65  99 131 172 220 281 337 392
#     4  10  20  40  67  88 130 176 224 257 327 413
#     4  12  24  41  67  98 136 169 226 278 342 402
#     4  10  22  39  68  97 122 177 226 271 323 406
#     4  12  26  39  65 102 137 168 216 290 341 390
#     4  11  24  43  65  95 131 177 228 271 335 408
#     4  11  22  40  69  94 126 181 221 276 333 411
#     4  11  20  42  68  93 129 176 233 265 327 413
#
# _framework density 20.455269000000001
#
# number of rings (size 3 to 8) (size 9 to 14) (size 15 to 20)
#    0.000    1.000    6.250    3.750    3.500    0.500 
#    0.000    1.875    0.000    0.000    0.000    0.000 
#    0.000    0.000    0.000    0.000    0.000    0.000 
#
# Total GULP energy -89167.801842 kJ/mol
# GULP energy per Si atom -5572.987615 kJ/mol
# Density = 2.040871 g / cm^3
# Si number density = 20.455269 Si / 1000 Ang^3
#
#
#
# Elastic Constant Matrix: (Units=GPa)
#
#
# Indices 1 2 3 4 5 6 
#
# 1 90.1363 26.5247 0.1705 1.1500 9.4845 0.6984
# 2 26.5247 143.3785 5.1617 -4.3337 -0.9594 14.7444
# 3 0.1705 5.1617 51.4491 -5.8967 9.8487 4.0999
# 4 1.1500 -4.3337 -5.8967 26.0343 -4.5492 0.7309
# 5 9.4845 -0.9594 9.8487 -4.5492 29.8132 3.2818
# 6 0.6984 14.7444 4.0999 0.7309 3.2818 31.9747
#
#
#
# Elastic Compliance Matrix: (Units=1/GPa)
#
#
# Indices 1 2 3 4 5 6 
#
# 1 0.012338 -0.002527 0.000815 -0.001634 -0.004669 0.001308
# 2 -0.002527 0.007917 -0.000663 0.001726 0.001954 -0.003750
# 3 0.000815 -0.000663 0.021317 0.003586 -0.006572 -0.001853
# 4 -0.001634 0.001726 0.003586 0.040691 0.005903 -0.002756
# 5 -0.004669 0.001954 -0.006572 0.005903 0.038608 -0.004054
# 6 0.001308 -0.003750 -0.001853 -0.002756 -0.004054 0.033692
#
#
# Mechanical properties :
#
#
# Convention : Reuss Voigt Hill
#
# Bulk Modulus (GPa) = 27.15791 38.74196 32.94994
# Shear Modulus (GPa) = 29.13940 34.43823 31.78882
#
# Velocity S-wave (km/s) = 3.77841 4.10761 3.94644
# Velocity P-wave (km/s) = 5.68689 6.44030 6.07529
#
# Compressibility (1/GPa) = 0.03682169
#
# Stress axis : x y z
#
# Youngs Moduli (GPa) = 81.04772 126.31306 46.91071
#
# Poissons Ratio (x) = 0.31920 -0.03823
# Poissons Ratio (y) = 0.20481 0.03111
# Poissons Ratio (z) = -0.06605 0.08378
#
# Static dielectric constant tensor:
#      x y z
#    x 1.747350 0.086670 0.041100 
#    y 0.086670 1.865230 0.054420 
#    z 0.041100 0.054420 1.734240 
# 
# From -- ./inp_files/244899.got.cif
#   From: 2010.05.17/outbox.cif.g08.bks.cpg/sg2_123_cif.got.tgz:244899.got - 2010.06.03 11:33:40.
