data_PCOD9108181
_publ_section_title
;
Structure prediction by ZEFSAII (Michael W. Deem and Ramdas Pophale) SiO2 
 PCOD9108181
Probable space group: P -1
;
_chemical_formula_sum "Si O2"
_cell_formula_units_Z 14
_cell_length_a 14.544075
_cell_length_b 11.829482
_cell_length_c 16.765101
_cell_angle_alpha 156.131176
_cell_angle_beta 147.446272
_cell_angle_gamma 27.964195
_cell_volume 537.812710
_symmetry_space_group_name_H-M "P -1"
_symmetry_group_IT_number 2
_symmetry_cell_setting 'triclinic'
loop_
_space_group_symop_operation_xyz
x,y,z
-x,-y,-z
loop_
_atom_site_type_symbol
_atom_site_label
_atom_site_fract_x
_atom_site_fract_y
_atom_site_fract_z
Si Si1 0.125277 0.236309 0.838057
Si Si2 0.451272 0.750460 0.259133
Si Si3 0.831087 0.136450 0.660980
Si Si4 0.385341 0.606487 0.703748
Si Si5 0.379824 0.887671 0.646403
Si Si6 0.033478 0.891780 0.108872
Si Si7 0.323306 0.093496 0.230628
O O1 0.928190 0.266581 0.751134
O O2 0.286221 0.986208 0.857426
O O3 0.229792 0.041048 0.708521
O O4 0.077649 0.590258 0.006157
O O5 0.597568 0.439332 0.218293
O O6 0.228237 0.825757 0.160942
O O7 0.500000 0.000000 0.500000
O O8 0.457217 0.810812 0.209524
O O9 0.612279 0.411684 0.711435
O O10 0.762941 0.955146 0.433122
O O11 0.967571 0.900047 0.680125
O O12 0.287013 0.425556 0.465467
O O13 0.500000 0.500000 0.500000
O O14 0.557419 0.941730 0.785702
O O15 0.867220 0.925003 0.948279
#
# Coordination Sequence:
#
# PCOD9108181 Si02
#       7
#     2   2   2   2   2   2   2
#     4  12  23  38  68 100 135 164 215 267 327 382
#     4   9  20  43  68  86 125 182 216 259 324 380
#     4  10  22  40  58  95 137 170 206 256 324 389
#     4   9  21  40  67  95 127 176 213 257 321 386
#     4  11  21  40  65  93 131 177 213 254 325 391
#     4  11  24  38  64 104 130 163 216 274 326 376
#     4  10  20  40  67  90 131 172 214 264 315 380
#
# _framework density 26.031366999999999
#
# number of rings (size 3 to 8) (size 9 to 14) (size 15 to 20)
#    0.000    1.714    2.857    3.000    2.000    2.286 
#    5.143    0.714    6.286    8.571    0.000    0.000 
#    0.000    0.000    0.000    0.000    0.000    0.000 
#
# Total GULP energy -78023.918641 kJ/mol
# GULP energy per Si atom -5573.137046 kJ/mol
# Density = 2.597212 g / cm^3
# Si number density = 26.031367 Si / 1000 Ang^3
#
#
#
# Elastic Constant Matrix: (Units=GPa)
#
#
# Indices 1 2 3 4 5 6 
#
# 1 119.6920 50.7579 30.5072 2.0388 10.4773 11.8101
# 2 50.7579 96.5099 33.0081 -34.6436 -11.2688 19.8691
# 3 30.5072 33.0081 100.7219 -33.7027 0.8053 -1.4409
# 4 2.0388 -34.6436 -33.7027 43.7041 -7.3084 -1.5782
# 5 10.4773 -11.2688 0.8053 -7.3084 41.2023 -10.4988
# 6 11.8101 19.8691 -1.4409 -1.5782 -10.4988 53.1452
#
#
#
# Elastic Compliance Matrix: (Units=1/GPa)
#
#
# Indices 1 2 3 4 5 6 
#
# 1 0.019229 -0.016852 -0.007781 -0.022613 -0.013759 -0.001573
# 2 -0.016852 0.032172 0.005561 0.033457 0.017997 -0.003583
# 3 -0.007781 0.005561 0.016783 0.018969 0.007062 0.002063
# 4 -0.022613 0.033457 0.018969 0.069613 0.026987 0.000430
# 5 -0.013759 0.017997 0.007062 0.026987 0.038601 0.004948
# 6 -0.001573 -0.003583 0.002063 0.000430 0.004948 0.021552
#
#
# Mechanical properties :
#
#
# Convention : Reuss Voigt Hill
#
# Bulk Modulus (GPa) = 33.28907 60.60778 46.94842
# Shear Modulus (GPa) = 20.31644 41.12036 30.71840
#
# Velocity S-wave (km/s) = 2.79670 3.97879 3.43892
# Velocity P-wave (km/s) = 4.82126 6.66639 5.81745
#
# Compressibility (1/GPa) = 0.03003989
#
# Stress axis : x y z
#
# Youngs Moduli (GPa) = 52.00419 31.08325 59.58504
#
# Poissons Ratio (x) = 0.52382 0.46361
# Poissons Ratio (y) = 0.87638 -0.33135
# Poissons Ratio (z) = 0.40463 -0.17285
#
# Static dielectric constant tensor:
#      x y z
#    x 2.140620 0.056830 -0.423810 
#    y 0.056830 2.193360 -0.520450 
#    z -0.423810 -0.520450 6.190150 
# 
# From -- ./inp_files/573524.got.cif
#   From: 2010.05.17/outbox.cif.g08.bks.cpg/sg2_287_cif.got.tgz:573524.got - 2010.06.03 11:33:40.
