data_PCOD9108610
_publ_section_title
;
Structure prediction by ZEFSAII (Michael W. Deem and Ramdas Pophale) SiO2 
 PCOD9108610
Probable space group: P -1
;
_chemical_formula_sum "Si O2"
_cell_formula_units_Z 14
_cell_length_a 22.502769
_cell_length_b 8.067464
_cell_length_c 9.315570
_cell_angle_alpha 67.665684
_cell_angle_beta 33.033275
_cell_angle_gamma 47.660417
_cell_volume 605.675991
_symmetry_space_group_name_H-M "P -1"
_symmetry_group_IT_number 2
_symmetry_cell_setting 'triclinic'
loop_
_space_group_symop_operation_xyz
x,y,z
-x,-y,-z
loop_
_atom_site_type_symbol
_atom_site_label
_atom_site_fract_x
_atom_site_fract_y
_atom_site_fract_z
Si Si1 0.327627 0.271271 0.752727
Si Si2 0.150219 0.672032 0.210037
Si Si3 0.949546 0.636574 0.818650
Si Si4 0.329165 0.350026 0.403204
Si Si5 0.379809 0.797511 0.174278
Si Si6 0.174405 0.152041 0.708330
Si Si7 0.833731 0.141962 0.603656
O O1 0.314921 0.391255 0.588748
O O2 0.500000 0.000000 0.500000
O O3 0.287435 0.436253 0.917284
O O4 0.195049 0.273112 0.004920
O O5 0.194313 0.774421 0.200958
O O6 0.067501 0.611373 0.491529
O O7 0.013590 0.896106 0.309738
O O8 0.038374 0.369365 0.804659
O O9 0.890198 0.822264 0.013528
O O10 0.267006 0.228325 0.526841
O O11 0.229000 0.615881 0.437934
O O12 0.509101 0.160792 0.063609
O O13 0.259362 0.918927 0.249348
O O14 0.286087 0.893416 0.480036
O O15 0.500000 0.500000 0.000000
#
# Coordination Sequence:
#
# PCOD9108610 Si02
#       7
#     2   2   2   2   2   2   2
#     4  11  26  40  65 104 131 166 217 272 332 381
#     4  11  23  44  66  94 134 173 214 274 321 383
#     4  10  22  40  68  97 125 172 217 273 321 376
#     4  10  22  42  65  98 131 172 217 266 325 386
#     4  10  22  39  63  97 134 171 209 267 327 384
#     4  10  20  40  69  99 122 169 230 262 317 391
#     4  10  23  43  65  94 128 179 220 256 329 385
#
# _framework density 23.11467
#
# number of rings (size 3 to 8) (size 9 to 14) (size 15 to 20)
#    0.000    1.714    1.429    1.714    4.000    5.143 
#   10.286    0.714    0.000    0.000    0.000    0.000 
#    0.000    0.000    0.000    0.000    0.000    0.000 
#
# Total GULP energy -78289.377310 kJ/mol
# GULP energy per Si atom -5592.098379 kJ/mol
# Density = 2.306206 g / cm^3
# Si number density = 23.114670 Si / 1000 Ang^3
#
#
#
# Elastic Constant Matrix: (Units=GPa)
#
#
# Indices 1 2 3 4 5 6 
#
# 1 84.3593 21.8078 46.0337 15.8878 -7.1068 -4.5881
# 2 21.8078 59.7844 20.0808 9.1897 3.4614 -16.5048
# 3 46.0337 20.0808 120.6930 29.7263 24.1913 6.3903
# 4 15.8878 9.1897 29.7263 29.5036 12.2282 7.4709
# 5 -7.1068 3.4614 24.1913 12.2282 49.3385 1.5877
# 6 -4.5881 -16.5048 6.3903 7.4709 1.5877 27.0216
#
#
#
# Elastic Compliance Matrix: (Units=1/GPa)
#
#
# Indices 1 2 3 4 5 6 
#
# 1 0.018296 -0.002631 -0.006676 -0.006575 0.007580 0.004451
# 2 -0.002631 0.024455 -0.001891 -0.008891 0.000477 0.017368
# 3 -0.006676 -0.001891 0.014197 -0.006766 -0.006003 -0.003423
# 4 -0.006575 -0.008891 -0.006766 0.056346 -0.010330 -0.019919
# 5 0.007580 0.000477 -0.006003 -0.010330 0.026692 0.004286
# 6 0.004451 0.017368 -0.003423 -0.019919 0.004286 0.054436
#
#
# Mechanical properties :
#
#
# Convention : Reuss Voigt Hill
#
# Bulk Modulus (GPa) = 28.94077 48.96458 38.95267
# Shear Modulus (GPa) = 21.89744 32.96704 27.43224
#
# Velocity S-wave (km/s) = 3.08123 3.78065 3.44872
# Velocity P-wave (km/s) = 5.02059 6.34721 5.72247
#
# Compressibility (1/GPa) = 0.03455334
#
# Stress axis : x y z
#
# Youngs Moduli (GPa) = 54.65609 40.89068 70.43631
#
# Poissons Ratio (x) = 0.10758 0.47024
# Poissons Ratio (y) = 0.14379 0.13318
# Poissons Ratio (z) = 0.36489 0.07731
#
# Static dielectric constant tensor:
#      x y z
#    x 1.884790 0.025200 -0.027350 
#    y 0.025200 1.915650 -0.032570 
#    z -0.027350 -0.032570 1.880910 
# 
# From -- ./inp_files/159517.got.cif
#   From: 2010.05.17/outbox.cif.g08.bks.cpg/sg2_80_cif.got.tgz:159517.got - 2010.06.03 11:33:40.
