data_PCOD9108823
_publ_section_title
;
Structure prediction by ZEFSAII (Michael W. Deem and Ramdas Pophale) SiO2 
 PCOD9108823
Probable space group: P -1
;
_chemical_formula_sum "Si O2"
_cell_formula_units_Z 15
_cell_length_a 7.805399
_cell_length_b 11.416190
_cell_length_c 19.992516
_cell_angle_alpha 139.906385
_cell_angle_beta 144.114627
_cell_angle_gamma 53.705537
_cell_volume 670.703071
_symmetry_space_group_name_H-M "P -1"
_symmetry_group_IT_number 2
_symmetry_cell_setting 'triclinic'
loop_
_space_group_symop_operation_xyz
x,y,z
-x,-y,-z
loop_
_atom_site_type_symbol
_atom_site_label
_atom_site_fract_x
_atom_site_fract_y
_atom_site_fract_z
Si Si1 0.791998 0.024487 0.383581
Si Si2 0.469781 0.277762 0.202122
Si Si3 0.172868 0.568369 0.150364
Si Si4 0.323810 0.182737 0.536230
Si Si5 0.803380 0.103113 0.037526
Si Si6 0.626253 0.695899 0.102863
Si Si7 0.629824 0.690764 0.654400
Si Si8 0.000000 0.500000 0.500000
O O1 0.544511 0.161438 0.374935
O O2 0.006858 0.111782 0.432626
O O3 0.640511 0.834768 0.228993
O O4 0.000000 0.000000 0.500000
O O5 0.249331 0.396675 0.144374
O O6 0.448063 0.306966 0.289313
O O7 0.798950 0.357655 0.328761
O O8 0.386356 0.068318 0.066299
O O9 0.472089 0.696734 0.293725
O O10 0.950943 0.682637 0.172003
O O11 0.000000 0.500000 0.000000
O O12 0.238914 0.333849 0.520287
O O13 0.500000 0.000000 0.500000
O O14 0.030636 0.237513 0.208714
O O15 0.581092 0.225262 0.983436
O O16 0.000000 0.000000 0.000000
O O17 0.500000 0.500000 0.000000
O O18 0.500000 0.500000 0.500000
#
# Coordination Sequence:
#
# PCOD9108823 Si02
#       8
#     2   2   2   2   2   2   2   1
#     4  12  27  43  70 107 140 181 237 296 354 427
#     4  10  21  44  68  91 138 175 228 278 348 409
#     4  11  27  43  70 100 137 182 231 287 351 422
#     4  11  23  46  72  98 142 186 237 287 361 419
#     4  10  20  41  68  93 132 179 222 281 340 414
#     4  12  24  43  71  99 139 184 228 285 353 417
#     4  11  24  41  69 101 135 175 233 288 354 419
#     4  10  20  40  72  94 126 188 230 284 338 432
#
# _framework density 22.364591999999998
#
# number of rings (size 3 to 8) (size 9 to 14) (size 15 to 20)
#    0.000    1.067    5.333    1.600    5.600    0.000 
#    0.000    0.667    0.000    0.000    0.000    0.000 
#    0.000    0.000    0.000    0.000    0.000    0.000 
#
# Total GULP energy -83503.060297 kJ/mol
# GULP energy per Si atom -5566.870686 kJ/mol
# Density = 2.231369 g / cm^3
# Si number density = 22.364592 Si / 1000 Ang^3
#
#
#
# Elastic Constant Matrix: (Units=GPa)
#
#
# Indices 1 2 3 4 5 6 
#
# 1 14.8617 10.0253 11.2788 4.0728 -5.8688 -0.8450
# 2 10.0253 201.5708 103.4812 -12.5490 -1.4285 -0.9940
# 3 11.2788 103.4812 215.9501 9.8716 1.4189 -2.4730
# 4 4.0728 -12.5490 9.8716 60.7161 1.3921 3.8154
# 5 -5.8688 -1.4285 1.4189 1.3921 29.2088 -2.7236
# 6 -0.8450 -0.9940 -2.4730 3.8154 -2.7236 15.0755
#
#
#
# Elastic Compliance Matrix: (Units=1/GPa)
#
#
# Indices 1 2 3 4 5 6 
#
# 1 0.080251 -0.002954 -0.002492 -0.006528 0.017220 0.008658
# 2 -0.002954 0.006919 -0.003271 0.002220 -0.000282 -0.000859
# 3 -0.002492 -0.003271 0.006417 -0.001594 -0.000807 0.000955
# 4 -0.006528 0.002220 -0.001594 0.018029 -0.002497 -0.005495
# 5 0.017220 -0.000282 -0.000807 -0.002497 0.038626 0.008424
# 6 0.008658 -0.000859 0.000955 -0.005495 0.008424 0.069831
#
#
# Mechanical properties :
#
#
# Convention : Reuss Voigt Hill
#
# Bulk Modulus (GPa) = 13.13105 75.77257 44.45181
# Shear Modulus (GPa) = 19.01930 41.50657 30.26294
#
# Velocity S-wave (km/s) = 2.91936 4.31270 3.68253
# Velocity P-wave (km/s) = 4.15303 7.66507 6.16445
#
# Compressibility (1/GPa) = 0.07615534
#
# Stress axis : x y z
#
# Youngs Moduli (GPa) = 12.46083 144.52801 155.83029
#
# Poissons Ratio (x) = 0.42693 0.38826
# Poissons Ratio (y) = 0.03681 0.50968
# Poissons Ratio (z) = 0.03105 0.47272
#
# Static dielectric constant tensor:
#      x y z
#    x 1.964590 0.022350 0.026920 
#    y 0.022350 1.829350 0.029250 
#    z 0.026920 0.029250 1.821120 
# 
# From -- ./inp_files/260632.got.cif
#   From: 2010.05.17/outbox.cif.g08.bks.cpg/sg2_131_cif.got.tgz:260632.got - 2010.06.03 11:33:40.
