data_PCOD9108957
_publ_section_title
;
Structure prediction by ZEFSAII (Michael W. Deem and Ramdas Pophale) SiO2 
 PCOD9108957
Probable space group: P -1
;
_chemical_formula_sum "Si O2"
_cell_formula_units_Z 15
_cell_length_a 8.226516
_cell_length_b 28.369216
_cell_length_c 9.213620
_cell_angle_alpha 148.181778
_cell_angle_beta 130.208408
_cell_angle_gamma 32.325724
_cell_volume 585.846002
_symmetry_space_group_name_H-M "P -1"
_symmetry_group_IT_number 2
_symmetry_cell_setting 'triclinic'
loop_
_space_group_symop_operation_xyz
x,y,z
-x,-y,-z
loop_
_atom_site_type_symbol
_atom_site_label
_atom_site_fract_x
_atom_site_fract_y
_atom_site_fract_z
Si Si1 0.500000 0.500000 0.500000
Si Si2 0.750297 0.655987 0.759751
Si Si3 0.970234 0.908075 0.492095
Si Si4 0.333520 0.754655 0.038855
Si Si5 0.418314 0.137593 0.942459
Si Si6 0.722834 0.854264 0.806435
Si Si7 0.592482 0.331153 0.658498
Si Si8 0.813253 0.406901 0.756646
O O1 0.601583 0.454413 0.614548
O O2 0.473415 0.617358 0.818193
O O3 0.506964 0.702027 0.615944
O O4 0.000000 0.500000 0.500000
O O5 0.587406 0.718517 0.983274
O O6 0.852517 0.717677 0.909192
O O7 0.712712 0.921771 0.306610
O O8 0.199242 0.858869 0.361994
O O9 0.170018 0.791181 0.418481
O O10 0.748051 0.045499 0.808608
O O11 0.032893 0.814133 0.928335
O O12 0.430481 0.145852 0.142180
O O13 0.848549 0.733904 0.466169
O O14 0.500000 0.000000 0.000000
O O15 0.742178 0.367986 0.754883
O O16 0.280732 0.464814 0.909938
#
# Coordination Sequence:
#
# PCOD9108957 Si02
#       8
#     1   2   2   2   2   2   2   2
#     4  10  16  36  66  94 116 170 222 258 316 392
#     4  12  28  43  62 101 142 174 213 282 344 386
#     4  10  22  45  72  93 124 175 236 266 323 408
#     4  10  22  40  66  91 131 177 215 263 343 385
#     4  10  25  41  69 100 133 171 220 282 330 393
#     4  10  20  40  65  98 127 174 224 265 323 405
#     4  11  22  39  65  99 123 175 225 270 325 393
#     4  10  21  33  69  93 125 164 227 265 317 393
#
# _framework density 25.603995999999999
#
# number of rings (size 3 to 8) (size 9 to 14) (size 15 to 20)
#    0.000    1.600    4.000    0.800    9.333    1.067 
#    0.000    2.667    0.000    0.000    0.000    0.000 
#    0.000    0.000    0.000    0.000    0.000    0.000 
#
# Total GULP energy -83608.509641 kJ/mol
# GULP energy per Si atom -5573.900643 kJ/mol
# Density = 2.554572 g / cm^3
# Si number density = 25.603996 Si / 1000 Ang^3
#
#
#
# Elastic Constant Matrix: (Units=GPa)
#
#
# Indices 1 2 3 4 5 6 
#
# 1 65.2986 24.8441 43.2303 10.4255 -27.5618 22.8002
# 2 24.8441 108.1949 49.3234 16.8212 -18.8491 30.2191
# 3 43.2303 49.3234 198.5484 18.5124 -44.4609 22.6335
# 4 10.4255 16.8212 18.5124 41.7683 10.7548 8.1812
# 5 -27.5618 -18.8491 -44.4609 10.7548 40.1764 -5.7309
# 6 22.8002 30.2191 22.6335 8.1812 -5.7309 42.7994
#
#
#
# Elastic Compliance Matrix: (Units=1/GPa)
#
#
# Indices 1 2 3 4 5 6 
#
# 1 0.030904 0.002456 0.000961 -0.013071 0.025083 -0.012848
# 2 0.002456 0.013636 -0.000632 -0.006208 0.007852 -0.008364
# 3 0.000961 -0.000632 0.008155 -0.006015 0.010742 -0.001790
# 4 -0.013071 -0.006208 -0.006015 0.039085 -0.028537 0.003235
# 5 0.025083 0.007852 0.010742 -0.028537 0.063798 -0.010590
# 6 -0.012848 -0.008364 -0.001790 0.003235 -0.010590 0.035025
#
#
# Mechanical properties :
#
#
# Convention : Reuss Voigt Hill
#
# Bulk Modulus (GPa) = 17.16271 67.42641 42.29456
# Shear Modulus (GPa) = 24.45555 41.92508 33.19032
#
# Velocity S-wave (km/s) = 3.09390 4.05092 3.60431
# Velocity P-wave (km/s) = 4.41368 6.94777 5.82031
#
# Compressibility (1/GPa) = 0.05826587
#
# Stress axis : x y z
#
# Youngs Moduli (GPa) = 32.35855 73.33653 122.63055
#
# Poissons Ratio (x) = -0.18012 -0.11789
# Poissons Ratio (y) = -0.07948 0.07744
# Poissons Ratio (z) = -0.03111 0.04631
#
# Static dielectric constant tensor:
#      x y z
#    x 2.262650 -0.021890 0.060030 
#    y -0.021890 1.999230 0.019640 
#    z 0.060030 0.019640 2.124120 
# 
# From -- ./inp_files/227592.got.cif
#   From: 2010.05.17/outbox.cif.g08.bks.cpg/sg2_114_cif.got.tgz:227592.got - 2010.06.03 11:33:40.
