data_PCOD9108073
_publ_section_title
;
Structure prediction by ZEFSAII (Michael W. Deem and Ramdas Pophale) SiO2 
 PCOD9108073
Probable space group: P -1
;
_chemical_formula_sum "Si O2"
_cell_formula_units_Z 16
_cell_length_a 12.724523
_cell_length_b 11.446658
_cell_length_c 13.128314
_cell_angle_alpha 54.260066
_cell_angle_beta 34.341886
_cell_angle_gamma 76.782581
_cell_volume 728.964613
_symmetry_space_group_name_H-M "P -1"
_symmetry_group_IT_number 2
_symmetry_cell_setting 'triclinic'
loop_
_space_group_symop_operation_xyz
x,y,z
-x,-y,-z
loop_
_atom_site_type_symbol
_atom_site_label
_atom_site_fract_x
_atom_site_fract_y
_atom_site_fract_z
Si Si1 0.608486 0.230036 0.989935
Si Si2 0.189156 0.254117 0.328801
Si Si3 0.246243 0.309627 0.485514
Si Si4 0.493222 0.831801 0.560907
Si Si5 0.277137 0.030109 0.059628
Si Si6 0.165132 0.545156 0.101912
Si Si7 0.154489 0.008681 0.963529
Si Si8 0.317543 0.620759 0.352914
O O1 0.360326 0.196742 0.199523
O O2 0.617690 0.065996 0.032605
O O3 0.710533 0.320542 0.971003
O O4 0.746789 0.360453 0.720062
O O5 0.258905 0.344985 0.338211
O O6 0.208485 0.393647 0.163275
O O7 0.930108 0.098091 0.635160
O O8 0.341888 0.192504 0.487822
O O9 0.370473 0.475420 0.372843
O O10 0.989603 0.195053 0.786889
O O11 0.600289 0.878717 0.339301
O O12 0.500000 0.000000 0.500000
O O13 0.261313 0.657084 0.865008
O O14 0.176864 0.084027 0.019921
O O15 0.475220 0.196039 0.872238
O O16 0.900355 0.451748 0.368403
O O17 0.000000 0.000000 0.000000
#
# Coordination Sequence:
#
# PCOD9108073 Si02
#       8
#     2   2   2   2   2   2   2   2
#     4  12  22  39  65  97 135 177 221 265 333 398
#     4  11  22  41  68 101 129 175 225 276 331 387
#     4  10  20  40  66  97 124 166 226 275 327 387
#     4  11  21  37  63  97 123 161 222 284 323 369
#     4  11  25  44  63  97 144 174 216 272 336 411
#     4  12  22  39  66  99 136 167 224 282 322 398
#     4   9  21  42  69  89 120 172 228 275 323 378
#     4  12  24  40  62  99 141 181 206 267 352 399
#
# _framework density 21.948937999999998
#
# number of rings (size 3 to 8) (size 9 to 14) (size 15 to 20)
#    0.000    1.000    3.750    4.875    0.000    0.500 
#    2.250    3.125    0.000    0.000    0.000    0.000 
#    0.000    0.000    0.000    0.000    0.000    0.000 
#
# Total GULP energy -89197.072328 kJ/mol
# GULP energy per Si atom -5574.817021 kJ/mol
# Density = 2.189898 g / cm^3
# Si number density = 21.948938 Si / 1000 Ang^3
#
#
#
# Elastic Constant Matrix: (Units=GPa)
#
#
# Indices 1 2 3 4 5 6 
#
# 1 40.7606 31.8607 19.4230 -5.1871 -2.9125 -4.3062
# 2 31.8607 98.0029 51.8790 -6.5863 -24.1808 -15.7520
# 3 19.4230 51.8790 184.4945 12.8027 0.4615 2.6732
# 4 -5.1871 -6.5863 12.8027 25.2552 1.8579 -5.4591
# 5 -2.9125 -24.1808 0.4615 1.8579 46.8759 -4.1396
# 6 -4.3062 -15.7520 2.6732 -5.4591 -4.1396 29.5403
#
#
#
# Elastic Compliance Matrix: (Units=1/GPa)
#
#
# Indices 1 2 3 4 5 6 
#
# 1 0.034078 -0.011654 -0.000588 0.004354 -0.004147 -0.000970
# 2 -0.011654 0.023262 -0.006187 0.009076 0.012272 0.014662
# 3 -0.000588 -0.006187 0.007778 -0.006674 -0.003554 -0.005820
# 4 0.004354 0.009076 -0.006674 0.049332 0.004460 0.015820
# 5 -0.004147 0.012272 -0.003554 0.004460 0.028239 0.011042
# 6 -0.000970 0.014662 -0.005820 0.015820 0.011042 0.046527
#
#
# Mechanical properties :
#
#
# Convention : Reuss Voigt Hill
#
# Bulk Modulus (GPa) = 35.38565 58.84259 47.11412
# Shear Modulus (GPa) = 21.23180 35.00731 28.11955
#
# Velocity S-wave (km/s) = 3.11356 3.99801 3.58318
# Velocity P-wave (km/s) = 5.39282 6.94112 6.21537
#
# Compressibility (1/GPa) = 0.02826004
#
# Stress axis : x y z
#
# Youngs Moduli (GPa) = 29.34406 42.98802 128.56139
#
# Poissons Ratio (x) = 0.50098 0.07564
# Poissons Ratio (y) = 0.34197 0.79545
# Poissons Ratio (z) = 0.01726 0.26598
#
# Static dielectric constant tensor:
#      x y z
#    x 1.872980 -0.078670 0.024540 
#    y -0.078670 1.903730 -0.013020 
#    z 0.024540 -0.013020 1.978270 
# 
# From -- ./inp_files/532387.got.cif
#   From: 2010.05.17/outbox.cif.g08.bks.cpg/sg2_267_cif.got.tgz:532387.got - 2010.06.03 11:33:40.
