data_PCOD9108074
_publ_section_title
;
Structure prediction by ZEFSAII (Michael W. Deem and Ramdas Pophale) SiO2 
 PCOD9108074
Probable space group: P -1
;
_chemical_formula_sum "Si O2"
_cell_formula_units_Z 14
_cell_length_a 14.641529
_cell_length_b 8.597655
_cell_length_c 9.358529
_cell_angle_alpha 128.074962
_cell_angle_beta 41.029382
_cell_angle_gamma 123.263324
_cell_volume 600.824238
_symmetry_space_group_name_H-M "P -1"
_symmetry_group_IT_number 2
_symmetry_cell_setting 'triclinic'
loop_
_space_group_symop_operation_xyz
x,y,z
-x,-y,-z
loop_
_atom_site_type_symbol
_atom_site_label
_atom_site_fract_x
_atom_site_fract_y
_atom_site_fract_z
Si Si1 0.142039 0.692408 0.014353
Si Si2 0.579867 0.734061 0.282578
Si Si3 0.009027 0.018150 0.830416
Si Si4 0.065763 0.218014 0.476506
Si Si5 0.396755 0.329125 0.229153
Si Si6 0.408449 0.994891 0.832504
Si Si7 0.726570 0.687290 0.350060
O O1 0.192886 0.489742 0.793126
O O2 0.283409 0.846729 0.970819
O O3 0.033815 0.650466 0.249924
O O4 0.073975 0.808979 0.034801
O O5 0.468788 0.556279 0.245300
O O6 0.647493 0.877587 0.158836
O O7 0.684090 0.641588 0.210944
O O8 0.507028 0.867554 0.556973
O O9 0.170961 0.102779 0.649001
O O10 0.959108 0.820364 0.683705
O O11 0.000000 0.000000 0.000000
O O12 0.230971 0.282174 0.352510
O O13 0.000000 0.000000 0.500000
O O14 0.397326 0.308219 0.388079
O O15 0.470451 0.164455 0.968156
#
# Coordination Sequence:
#
# PCOD9108074 Si02
#       7
#     2   2   2   2   2   2   2
#     4  11  21  42  68  97 129 176 215 269 332 389
#     4  11  27  44  63 104 131 177 221 268 329 386
#     4  11  22  41  67  95 131 171 220 277 328 386
#     4  10  20  40  66  97 124 170 224 257 336 389
#     4  12  22  43  71  95 133 174 222 274 316 403
#     4  11  23  45  70  90 136 177 218 269 334 382
#     4  12  24  41  66 100 134 170 227 268 320 399
#
# _framework density 23.301323
#
# number of rings (size 3 to 8) (size 9 to 14) (size 15 to 20)
#    0.000    0.857    7.143    2.143    0.000    0.571 
#    2.571    2.143    0.000    0.000    0.000    0.000 
#    0.000    0.000    0.000    0.000    0.000    0.000 
#
# Total GULP energy -78213.939911 kJ/mol
# GULP energy per Si atom -5586.709994 kJ/mol
# Density = 2.324829 g / cm^3
# Si number density = 23.301323 Si / 1000 Ang^3
#
#
#
# Elastic Constant Matrix: (Units=GPa)
#
#
# Indices 1 2 3 4 5 6 
#
# 1 75.1769 17.6838 15.0007 -0.7096 23.5782 -2.3178
# 2 17.6838 76.9352 23.3780 3.4496 6.5189 21.3741
# 3 15.0007 23.3780 111.8347 20.6707 19.6919 -1.4877
# 4 -0.7096 3.4496 20.6707 28.9246 4.8040 5.1442
# 5 23.5782 6.5189 19.6919 4.8040 35.0442 -6.8230
# 6 -2.3178 21.3741 -1.4877 5.1442 -6.8230 37.5241
#
#
#
# Elastic Compliance Matrix: (Units=1/GPa)
#
#
# Indices 1 2 3 4 5 6 
#
# 1 0.017775 -0.003324 -0.000165 0.002775 -0.011529 0.000508
# 2 -0.003324 0.018033 -0.003685 0.002675 -0.001611 -0.011283
# 3 -0.000165 -0.003685 0.011995 -0.007934 -0.004297 0.002870
# 4 0.002775 0.002675 -0.007934 0.042386 -0.005363 -0.008453
# 5 -0.011529 -0.001611 -0.004297 -0.005363 0.041356 0.008290
# 6 0.000508 -0.011283 0.002870 -0.008453 0.008290 0.035888
#
#
# Mechanical properties :
#
#
# Convention : Reuss Voigt Hill
#
# Bulk Modulus (GPa) = 29.89095 41.78576 35.83836
# Shear Modulus (GPa) = 25.91587 34.15751 30.03669
#
# Velocity S-wave (km/s) = 3.33859 3.83287 3.59424
# Velocity P-wave (km/s) = 5.26474 6.12858 5.71301
#
# Compressibility (1/GPa) = 0.03345494
#
# Stress axis : x y z
#
# Youngs Moduli (GPa) = 56.25968 55.45481 83.36469
#
# Poissons Ratio (x) = 0.18433 0.01379
# Poissons Ratio (y) = 0.18700 0.30717
# Poissons Ratio (z) = 0.00931 0.20433
#
# Static dielectric constant tensor:
#      x y z
#    x 1.948390 0.000220 -0.012930 
#    y 0.000220 1.896570 0.019960 
#    z -0.012930 0.019960 1.935580 
# 
# From -- ./inp_files/293880.got.cif
#   From: 2010.05.17/outbox.cif.g08.bks.cpg/sg2_147_cif.got.tgz:293880.got - 2010.06.03 11:33:40.
