data_PCOD9108867
_publ_section_title
;
Structure prediction by ZEFSAII (Michael W. Deem and Ramdas Pophale) SiO2 
 PCOD9108867
Probable space group: P -1
;
_chemical_formula_sum "Si O2"
_cell_formula_units_Z 16
_cell_length_a 10.003100
_cell_length_b 11.506493
_cell_length_c 11.986475
_cell_angle_alpha 127.380169
_cell_angle_beta 129.810512
_cell_angle_gamma 54.293598
_cell_volume 798.045285
_symmetry_space_group_name_H-M "P -1"
_symmetry_group_IT_number 2
_symmetry_cell_setting 'triclinic'
loop_
_space_group_symop_operation_xyz
x,y,z
-x,-y,-z
loop_
_atom_site_type_symbol
_atom_site_label
_atom_site_fract_x
_atom_site_fract_y
_atom_site_fract_z
Si Si1 0.216182 0.450742 0.598993
Si Si2 0.599691 0.748525 0.608339
Si Si3 0.536417 0.147394 0.161029
Si Si4 0.887423 0.921073 0.317123
Si Si5 0.659217 0.743221 0.231021
Si Si6 0.240306 0.769297 0.291584
Si Si7 0.533622 0.568403 0.878633
Si Si8 0.650093 0.016521 0.679995
O O1 0.300479 0.410595 0.495302
O O2 0.267780 0.313832 0.639460
O O3 0.327626 0.558501 0.770993
O O4 0.000000 0.500000 0.500000
O O5 0.577006 0.781268 0.745804
O O6 0.390351 0.791644 0.474017
O O7 0.714248 0.853234 0.678879
O O8 0.487216 0.289044 0.132334
O O9 0.747222 0.064522 0.260576
O O10 0.500000 0.000000 0.000000
O O11 0.779075 0.829793 0.279061
O O12 0.040390 0.798843 0.252824
O O13 0.000000 0.000000 0.500000
O O14 0.460916 0.866815 0.217351
O O15 0.626108 0.607813 0.061838
O O16 0.338364 0.598866 0.195074
O O17 0.223708 0.902993 0.269297
O O18 0.500000 0.000000 0.500000
#
# Coordination Sequence:
#
# PCOD9108867 Si02
#       8
#     2   2   2   2   2   2   2   2
#     4  11  26  41  67 103 128 172 225 282 326 398
#     4  10  20  40  66  91 130 178 215 268 339 395
#     4  12  24  44  65  96 137 174 222 277 340 395
#     4  12  24  40  70 104 128 175 233 275 320 395
#     4  12  22  43  70  91 133 177 219 269 333 402
#     4  10  22  38  64  99 127 176 224 271 328 401
#     4  11  25  44  66  93 139 181 215 268 351 398
#     4  10  16  36  65  89 119 168 223 257 321 394
#
# _framework density 20.048987
#
# number of rings (size 3 to 8) (size 9 to 14) (size 15 to 20)
#    0.000    1.000    7.500    1.125    1.750    3.500 
#    2.250    0.000    0.000    3.000    0.000    0.000 
#    0.000    0.000    0.000    0.000    0.000    0.000 
#
# Total GULP energy -89146.558577 kJ/mol
# GULP energy per Si atom -5571.659911 kJ/mol
# Density = 2.000335 g / cm^3
# Si number density = 20.048987 Si / 1000 Ang^3
#
#
#
# Elastic Constant Matrix: (Units=GPa)
#
#
# Indices 1 2 3 4 5 6 
#
# 1 94.5222 0.4956 25.0059 -2.0188 -7.6335 3.1189
# 2 0.4956 47.9027 26.4903 1.3687 -0.9525 8.8800
# 3 25.0059 26.4903 83.9157 4.2006 -20.0010 -5.4083
# 4 -2.0188 1.3687 4.2006 26.1522 -3.5747 5.1899
# 5 -7.6335 -0.9525 -20.0010 -3.5747 20.7741 2.1516
# 6 3.1189 8.8800 -5.4083 5.1899 2.1516 33.1626
#
#
#
# Elastic Compliance Matrix: (Units=1/GPa)
#
#
# Indices 1 2 3 4 5 6 
#
# 1 0.012003 0.002961 -0.004634 0.002234 0.000788 -0.003078
# 2 0.002961 0.029734 -0.013105 0.001561 -0.008857 -0.010047
# 3 -0.004634 -0.013105 0.022287 -0.002116 0.018092 0.006737
# 4 0.002234 0.001561 -0.002116 0.041149 0.006750 -0.007851
# 5 0.000788 -0.008857 0.018092 0.006750 0.066614 -0.000130
# 6 -0.003078 -0.010047 0.006737 -0.007851 -0.000130 0.035470
#
#
# Mechanical properties :
#
#
# Convention : Reuss Voigt Hill
#
# Bulk Modulus (GPa) = 29.01323 36.70269 32.85796
# Shear Modulus (GPa) = 20.13671 27.64104 23.88888
#
# Velocity S-wave (km/s) = 3.17263 3.71708 3.45559
# Velocity P-wave (km/s) = 5.28425 6.06370 5.68735
#
# Compressibility (1/GPa) = 0.03446704
#
# Stress axis : x y z
#
# Youngs Moduli (GPa) = 83.31398 33.63137 44.86948
#
# Poissons Ratio (x) = -0.09957 0.20791
# Poissons Ratio (y) = -0.24667 0.58803
# Poissons Ratio (z) = 0.38605 0.44075
#
# Static dielectric constant tensor:
#      x y z
#    x 1.750820 0.017180 -0.058390 
#    y 0.017180 1.798620 -0.013990 
#    z -0.058390 -0.013990 1.828660 
# 
# From -- ./inp_files/393223.got.cif
#   From: 2010.05.17/outbox.cif.g08.bks.cpg/sg2_197_cif.got.tgz:393223.got - 2010.06.03 11:33:40.
