data_PCOD9108933
_publ_section_title
;
Structure prediction by ZEFSAII (Michael W. Deem and Ramdas Pophale) SiO2 
 PCOD9108933
Probable space group: P -1
;
_chemical_formula_sum "Si O2"
_cell_formula_units_Z 16
_cell_length_a 5.233257
_cell_length_b 12.860571
_cell_length_c 14.092749
_cell_angle_alpha 41.503959
_cell_angle_beta 102.050469
_cell_angle_gamma 113.121567
_cell_volume 572.351787
_symmetry_space_group_name_H-M "P -1"
_symmetry_group_IT_number 2
_symmetry_cell_setting 'triclinic'
loop_
_space_group_symop_operation_xyz
x,y,z
-x,-y,-z
loop_
_atom_site_type_symbol
_atom_site_label
_atom_site_fract_x
_atom_site_fract_y
_atom_site_fract_z
Si Si1 0.043262 0.717636 0.896550
Si Si2 0.443787 0.190335 0.275175
Si Si3 0.344173 0.031418 0.822306
Si Si4 0.960598 0.638478 0.269324
Si Si5 0.803700 0.488879 0.803053
Si Si6 0.688279 0.850179 0.047004
Si Si7 0.349235 0.672008 0.455900
Si Si8 0.143886 0.799805 0.535023
O O1 0.313903 0.790968 0.797761
O O2 0.744637 0.699861 0.840256
O O3 0.096629 0.862393 0.884322
O O4 0.056472 0.552757 0.063300
O O5 0.618399 0.227761 0.360359
O O6 0.221680 0.999162 0.399643
O O7 0.365715 0.109577 0.875633
O O8 0.364457 0.177584 0.649255
O O9 0.608533 0.968259 0.887230
O O10 0.971855 0.818472 0.110600
O O11 0.675837 0.510809 0.384759
O O12 0.030382 0.555147 0.240188
O O13 0.183030 0.650608 0.359458
O O14 0.503116 0.338324 0.876487
O O15 0.860291 0.682188 0.647882
O O16 0.188710 0.740166 0.474793
#
# Coordination Sequence:
#
# PCOD9108933 Si02
#       8
#     2   2   2   2   2   2   2   2
#     4  11  26  45  73 100 136 177 229 281 343 398
#     4  11  26  50  70 101 132 178 233 288 338 398
#     4  10  21  39  61  95 133 172 223 268 332 400
#     4  10  22  37  63  91 137 170 217 270 329 411
#     4  10  23  44  64 102 134 174 223 277 340 408
#     4  10  22  38  59  95 133 176 217 268 331 402
#     4  10  20  41  59  95 130 174 220 268 334 401
#     4  10  24  45  70  94 135 176 229 285 340 396
#
# _framework density 27.954836
#
# number of rings (size 3 to 8) (size 9 to 14) (size 15 to 20)
#    0.000    1.750    2.500    0.000    5.250    5.000 
#    4.500    0.000    0.000    0.000    0.000    0.000 
#    0.000    0.000    0.000    0.000    0.000    0.000 
#
# Total GULP energy -89481.474264 kJ/mol
# GULP energy per Si atom -5592.592142 kJ/mol
# Density = 2.789121 g / cm^3
# Si number density = 27.954836 Si / 1000 Ang^3
#
#
#
# Elastic Constant Matrix: (Units=GPa)
#
#
# Indices 1 2 3 4 5 6 
#
# 1 79.2379 18.9889 27.4533 10.5626 7.2333 6.0342
# 2 18.9889 89.1360 34.5837 9.9005 -9.0273 1.1930
# 3 27.4533 34.5837 146.8552 17.7977 -5.9429 13.4690
# 4 10.5626 9.9005 17.7977 51.2331 5.9292 -15.9822
# 5 7.2333 -9.0273 -5.9429 5.9292 44.4946 -4.2029
# 6 6.0342 1.1930 13.4690 -15.9822 -4.2029 32.6571
#
#
#
# Elastic Compliance Matrix: (Units=1/GPa)
#
#
# Indices 1 2 3 4 5 6 
#
# 1 0.014708 -0.002458 -0.001613 -0.002804 -0.003084 -0.003732
# 2 -0.002458 0.013118 -0.002415 -0.001312 0.002981 0.000713
# 3 -0.001613 -0.002415 0.008639 -0.003855 0.000973 -0.004938
# 4 -0.002804 -0.001312 -0.003855 0.026611 -0.002467 0.014862
# 5 -0.003084 0.002981 0.000973 -0.002467 0.024226 0.001970
# 6 -0.003732 0.000713 -0.004938 0.014862 0.001970 0.040848
#
#
# Mechanical properties :
#
#
# Convention : Reuss Voigt Hill
#
# Bulk Modulus (GPa) = 42.56998 53.03122 47.80060
# Shear Modulus (GPa) = 33.56753 41.29051 37.42902
#
# Velocity S-wave (km/s) = 3.46898 3.84740 3.66308
# Velocity P-wave (km/s) = 5.59520 6.22480 5.91838
#
# Compressibility (1/GPa) = 0.02349073
#
# Stress axis : x y z
#
# Youngs Moduli (GPa) = 67.99135 76.23318 115.74973
#
# Poissons Ratio (x) = 0.18740 0.18674
# Poissons Ratio (y) = 0.16714 0.27958
# Poissons Ratio (z) = 0.10969 0.18414
#
# Static dielectric constant tensor:
#      x y z
#    x 2.242950 0.093770 -0.046240 
#    y 0.093770 2.329330 -0.134370 
#    z -0.046240 -0.134370 2.178780 
# 
# From -- ./inp_files/484282.got.cif
#   From: 2010.05.17/outbox.cif.g08.bks.cpg/sg2_243_cif.got.tgz:484282.got - 2010.06.03 11:33:40.
