data_PCOD9108409
_publ_section_title
;
Structure prediction by ZEFSAII (Michael W. Deem and Ramdas Pophale) SiO2 
 PCOD9108409
Probable space group: P -1
;
_chemical_formula_sum "Si O2"
_cell_formula_units_Z 14
_cell_length_a 13.537578
_cell_length_b 9.398977
_cell_length_c 12.168573
_cell_angle_alpha 123.251814
_cell_angle_beta 118.602526
_cell_angle_gamma 32.301405
_cell_volume 691.509545
_symmetry_space_group_name_H-M "P -1"
_symmetry_group_IT_number 2
_symmetry_cell_setting 'triclinic'
loop_
_space_group_symop_operation_xyz
x,y,z
-x,-y,-z
loop_
_atom_site_type_symbol
_atom_site_label
_atom_site_fract_x
_atom_site_fract_y
_atom_site_fract_z
Si Si1 0.710970 0.117606 0.539482
Si Si2 0.489732 0.809379 0.923971
Si Si3 0.395158 0.136721 0.617205
Si Si4 0.594048 0.166600 0.869848
Si Si5 0.683679 0.241403 0.344405
Si Si6 0.211665 0.696039 0.788421
Si Si7 0.177116 0.857234 0.164848
O O1 0.780358 0.107704 0.456351
O O2 0.500074 0.428751 0.586684
O O3 0.816972 0.061900 0.676954
O O4 0.694566 0.936224 0.439189
O O5 0.390546 0.848201 0.781365
O O6 0.683606 0.471893 0.897824
O O7 0.381272 0.891073 0.012603
O O8 0.500000 0.000000 0.000000
O O9 0.546036 0.036653 0.739053
O O10 0.235597 0.469944 0.673199
O O11 0.500000 0.000000 0.500000
O O12 0.749591 0.084157 0.853073
O O13 0.597316 0.506216 0.127798
O O14 0.787380 0.201178 0.280451
O O15 0.035406 0.939973 0.872398
#
# Coordination Sequence:
#
# PCOD9108409 Si02
#       7
#     2   2   2   2   2   2   2
#     4  10  18  35  59  84 118 155 192 232 288 346
#     4  11  22  41  63  85 114 159 199 235 297 349
#     4  10  16  36  57  85 116 148 188 238 285 332
#     4  10  21  40  61  86 119 153 193 241 290 348
#     4  10  20  36  58  83 118 156 190 239 287 340
#     4  10  22  37  59  93 116 153 194 240 293 344
#     4  11  22  39  62  89 115 157 196 237 296 345
#
# _framework density 20.245562
#
# number of rings (size 3 to 8) (size 9 to 14) (size 15 to 20)
#    0.857    0.857    5.714    1.286    0.000    1.714 
#    0.000    2.143    0.000    0.000    0.000    0.000 
#    0.000    0.000    0.000    0.000    0.000    0.000 
#
# Total GULP energy -78038.679317 kJ/mol
# GULP energy per Si atom -5574.191380 kJ/mol
# Density = 2.019948 g / cm^3
# Si number density = 20.245562 Si / 1000 Ang^3
#
#
#
# Elastic Constant Matrix: (Units=GPa)
#
#
# Indices 1 2 3 4 5 6 
#
# 1 118.5771 35.1460 38.4571 2.2060 -11.5187 13.8462
# 2 35.1460 30.3070 22.0242 6.6011 -4.4214 -1.2232
# 3 38.4571 22.0242 103.7667 12.0552 -2.6721 17.8857
# 4 2.2060 6.6011 12.0552 21.6445 14.2654 2.8447
# 5 -11.5187 -4.4214 -2.6721 14.2654 47.0467 7.6327
# 6 13.8462 -1.2232 17.8857 2.8447 7.6327 32.7482
#
#
#
# Elastic Compliance Matrix: (Units=1/GPa)
#
#
# Indices 1 2 3 4 5 6 
#
# 1 0.014863 -0.017408 -0.000998 0.004054 0.001882 -0.007180
# 2 -0.017408 0.063749 -0.007259 -0.018548 0.004631 0.014238
# 3 -0.000998 -0.007259 0.013631 -0.006241 0.002947 -0.007438
# 4 0.004054 -0.018548 -0.006241 0.069544 -0.022214 0.000138
# 5 0.001882 0.004631 0.002947 -0.022214 0.030247 -0.007352
# 6 -0.007180 0.014238 -0.007438 0.000138 -0.007352 0.039867
#
#
# Mechanical properties :
#
#
# Convention : Reuss Voigt Hill
#
# Bulk Modulus (GPa) = 24.44329 49.32280 36.88304
# Shear Modulus (GPa) = 16.84249 30.75612 23.79930
#
# Velocity S-wave (km/s) = 2.88741 3.90186 3.43232
# Velocity P-wave (km/s) = 4.81828 6.68689 5.82796
#
# Compressibility (1/GPa) = 0.04091103
#
# Stress axis : x y z
#
# Youngs Moduli (GPa) = 67.28249 15.68660 73.36431
#
# Poissons Ratio (x) = 0.27308 0.07324
# Poissons Ratio (y) = 1.17128 0.53253
# Poissons Ratio (z) = 0.06717 0.11386
#
# Static dielectric constant tensor:
#      x y z
#    x 1.729650 0.003640 0.039130 
#    y 0.003640 1.747570 -0.031450 
#    z 0.039130 -0.031450 1.783340 
# 
# From -- ./inp_files/177638.got.cif
#   From: 2010.05.17/outbox.cif.g08.bks.cpg/sg2_89_cif.got.tgz:177638.got - 2010.06.03 11:33:40.
