data_PCOD9108190
_publ_section_title
;
Structure prediction by ZEFSAII (Michael W. Deem and Ramdas Pophale) SiO2 
 PCOD9108190
Probable space group: P -1
;
_chemical_formula_sum "Si O2"
_cell_formula_units_Z 16
_cell_length_a 18.234894
_cell_length_b 9.201019
_cell_length_c 12.656495
_cell_angle_alpha 138.907949
_cell_angle_beta 38.029432
_cell_angle_gamma 140.394075
_cell_volume 773.562727
_symmetry_space_group_name_H-M "P -1"
_symmetry_group_IT_number 2
_symmetry_cell_setting 'triclinic'
loop_
_space_group_symop_operation_xyz
x,y,z
-x,-y,-z
loop_
_atom_site_type_symbol
_atom_site_label
_atom_site_fract_x
_atom_site_fract_y
_atom_site_fract_z
Si Si1 0.707781 0.626207 0.283782
Si Si2 0.898761 0.733056 0.928158
Si Si3 0.587828 0.782704 0.077279
Si Si4 0.612540 0.918570 0.356918
Si Si5 0.858006 0.809076 0.768185
Si Si6 0.127288 0.577427 0.620544
Si Si7 0.923600 0.649014 0.215413
Si Si8 0.465963 0.162349 0.378924
O O1 0.804165 0.592956 0.240893
O O2 0.576470 0.370590 0.299837
O O3 0.677219 0.847759 0.490552
O O4 0.776737 0.661054 0.109461
O O5 0.866580 0.750153 0.850820
O O6 0.986668 0.583514 0.762375
O O7 0.000000 0.000000 0.000000
O O8 0.623788 0.804972 0.172617
O O9 0.507492 0.939621 0.221293
O O10 0.500000 0.500000 0.000000
O O11 0.732413 0.861204 0.907844
O O12 0.749548 0.149451 0.360811
O O13 0.500000 0.000000 0.500000
O O14 0.543566 0.748197 0.441321
O O15 0.847934 0.578345 0.585084
O O16 0.984885 0.059997 0.733764
O O17 0.120671 0.449065 0.670310
O O18 0.000000 0.500000 0.000000
#
# Coordination Sequence:
#
# PCOD9108190 Si02
#       8
#     2   2   2   2   2   2   2   2
#     4  11  22  39  71  98 137 178 232 285 337 421
#     4  12  23  43  68 100 135 182 228 282 346 413
#     4  11  23  41  68  98 135 179 232 285 339 418
#     4  10  20  40  67  91 128 180 233 274 338 407
#     4  12  25  41  66 103 139 176 229 282 348 409
#     4  12  25  42  68 100 142 178 226 288 345 412
#     4  12  22  42  68  99 135 180 226 279 347 409
#     4  10  22  40  66  98 132 181 230 281 345 405
#
# _framework density 20.683520000000001
#
# number of rings (size 3 to 8) (size 9 to 14) (size 15 to 20)
#    0.000    0.750    2.500    7.500    0.000    0.000 
#    2.250    0.000    0.000    5.250    0.000    0.000 
#    0.000    0.000    0.000    0.000    0.000    0.000 
#
# Total GULP energy -89175.106253 kJ/mol
# GULP energy per Si atom -5573.444141 kJ/mol
# Density = 2.063644 g / cm^3
# Si number density = 20.683520 Si / 1000 Ang^3
#
#
#
# Elastic Constant Matrix: (Units=GPa)
#
#
# Indices 1 2 3 4 5 6 
#
# 1 107.3818 42.8841 64.7381 2.5129 -6.8977 -16.6120
# 2 42.8841 111.9872 48.9594 -8.7446 17.1018 -20.5456
# 3 64.7381 48.9594 144.1235 2.6351 -3.6055 -4.2017
# 4 2.5129 -8.7446 2.6351 38.7476 -0.3071 2.8881
# 5 -6.8977 17.1018 -3.6055 -0.3071 48.9648 0.2162
# 6 -16.6120 -20.5456 -4.2017 2.8881 0.2162 33.8911
#
#
#
# Elastic Compliance Matrix: (Units=1/GPa)
#
#
# Indices 1 2 3 4 5 6 
#
# 1 0.014670 -0.002906 -0.005365 -0.001585 0.002655 0.004882
# 2 -0.002906 0.013733 -0.003369 0.003007 -0.005463 0.006262
# 3 -0.005365 -0.003369 0.010442 -0.000866 0.001199 -0.003311
# 4 -0.001585 0.003007 -0.000866 0.026738 -0.001164 -0.001333
# 5 0.002655 -0.005463 0.001199 -0.001164 0.022794 -0.001908
# 6 0.004882 0.006262 -0.003311 -0.001333 -0.001908 0.035411
#
#
# Mechanical properties :
#
#
# Convention : Reuss Voigt Hill
#
# Bulk Modulus (GPa) = 64.24231 75.18395 69.71313
# Shear Modulus (GPa) = 32.83926 38.11478 35.47702
#
# Velocity S-wave (km/s) = 3.98892 4.29740 4.14603
# Velocity P-wave (km/s) = 7.23480 7.81358 7.52976
#
# Compressibility (1/GPa) = 0.01556606
#
# Stress axis : x y z
#
# Youngs Moduli (GPa) = 68.16487 72.81681 95.76683
#
# Poissons Ratio (x) = 0.21160 0.51377
# Poissons Ratio (y) = 0.19808 0.32264
# Poissons Ratio (z) = 0.36569 0.24532
#
# Static dielectric constant tensor:
#      x y z
#    x 1.461790 -0.021790 0.276500 
#    y -0.021790 1.745680 -0.049250 
#    z 0.276500 -0.049250 1.514550 
# 
# From -- ./inp_files/283090.got.cif
#   From: 2010.05.17/outbox.cif.g08.bks.cpg/sg2_142_cif.got.tgz:283090.got - 2010.06.03 11:33:40.
