data_PCOD9108128
_publ_section_title
;
Structure prediction by ZEFSAII (Michael W. Deem and Ramdas Pophale) SiO2 
 PCOD9108128
Probable space group: P -1
;
_chemical_formula_sum "Si O2"
_cell_formula_units_Z 14
_cell_length_a 9.326536
_cell_length_b 8.596124
_cell_length_c 14.767568
_cell_angle_alpha 58.298037
_cell_angle_beta 135.990781
_cell_angle_gamma 104.804183
_cell_volume 684.663665
_symmetry_space_group_name_H-M "P -1"
_symmetry_group_IT_number 2
_symmetry_cell_setting 'triclinic'
loop_
_space_group_symop_operation_xyz
x,y,z
-x,-y,-z
loop_
_atom_site_type_symbol
_atom_site_label
_atom_site_fract_x
_atom_site_fract_y
_atom_site_fract_z
Si Si1 0.369234 0.718683 0.665947
Si Si2 0.509040 0.917333 0.428035
Si Si3 0.135386 0.761358 0.354211
Si Si4 0.718631 0.066148 0.093584
Si Si5 0.150140 0.468433 0.298574
Si Si6 0.791602 0.419874 0.903968
Si Si7 0.721043 0.355576 0.157860
O O1 0.241195 0.723878 0.512664
O O2 0.587180 0.570302 0.797735
O O3 0.246990 0.671221 0.712350
O O4 0.426745 0.919644 0.650156
O O5 0.278950 0.874666 0.325753
O O6 0.682046 0.726854 0.560742
O O7 0.500000 0.000000 0.500000
O O8 0.142612 0.576478 0.356247
O O9 0.905798 0.886625 0.224495
O O10 0.715169 0.166703 0.158713
O O11 0.769504 0.224364 0.998922
O O12 0.500000 0.000000 0.000000
O O13 0.212245 0.582311 0.206443
O O14 0.918314 0.431211 0.186179
O O15 0.000000 0.500000 0.000000
O O16 0.500000 0.500000 0.000000
#
# Coordination Sequence:
#
# PCOD9108128 Si02
#       7
#     2   2   2   2   2   2   2
#     4  11  24  43  73 100 138 186 235 288 354 413
#     4  10  20  40  67 101 131 175 234 289 338 405
#     4  11  25  43  68 103 142 178 234 295 345 414
#     4  12  27  46  70 104 147 181 234 294 351 419
#     4  12  24  42  73 101 139 183 236 290 346 419
#     4  12  23  44  75 100 136 191 232 282 353 417
#     4  12  24  45  68 100 140 187 232 285 355 419
#
# _framework density 20.447996
#
# number of rings (size 3 to 8) (size 9 to 14) (size 15 to 20)
#    0.000    0.571    5.714    3.857    0.000    4.571 
#    0.000    0.000    0.000    0.000    0.000    0.000 
#    0.000    0.000    0.000    0.000    0.000    0.000 
#
# Total GULP energy -78242.366721 kJ/mol
# GULP energy per Si atom -5588.740480 kJ/mol
# Density = 2.040145 g / cm^3
# Si number density = 20.447996 Si / 1000 Ang^3
#
#
#
# Elastic Constant Matrix: (Units=GPa)
#
#
# Indices 1 2 3 4 5 6 
#
# 1 124.7305 48.1462 49.5883 -3.3255 1.3960 -9.6578
# 2 48.1462 127.1183 44.3914 2.4199 13.7180 -22.2536
# 3 49.5883 44.3914 90.9454 -12.5496 22.6527 -14.8669
# 4 -3.3255 2.4199 -12.5496 32.8957 -2.6192 9.5553
# 5 1.3960 13.7180 22.6527 -2.6192 51.2265 -1.8214
# 6 -9.6578 -22.2536 -14.8669 9.5553 -1.8214 40.4966
#
#
#
# Elastic Compliance Matrix: (Units=1/GPa)
#
#
# Indices 1 2 3 4 5 6 
#
# 1 0.011221 -0.002680 -0.005694 -0.000420 0.002885 -0.000658
# 2 -0.002680 0.011184 -0.003340 -0.003982 -0.001466 0.005154
# 3 -0.005694 -0.003340 0.018518 0.005621 -0.006782 0.001974
# 4 -0.000420 -0.003982 0.005621 0.035284 0.000092 -0.008546
# 5 0.002885 -0.001466 -0.006782 0.000092 0.022782 -0.001604
# 6 -0.000658 0.005154 0.001974 -0.008546 -0.001604 0.030038
#
#
# Mechanical properties :
#
#
# Convention : Reuss Voigt Hill
#
# Bulk Modulus (GPa) = 57.15809 69.67178 63.41493
# Shear Modulus (GPa) = 31.58823 38.30163 34.94493
#
# Velocity S-wave (km/s) = 3.93467 4.33266 4.13845
# Velocity P-wave (km/s) = 6.97537 7.69258 7.34274
#
# Compressibility (1/GPa) = 0.01749534
#
# Stress axis : x y z
#
# Youngs Moduli (GPa) = 89.11662 89.41098 54.00105
#
# Poissons Ratio (x) = 0.23963 0.30751
# Poissons Ratio (y) = 0.23884 0.18034
# Poissons Ratio (z) = 0.50747 0.29860
#
# Static dielectric constant tensor:
#      x y z
#    x 1.747070 0.025030 -0.025260 
#    y 0.025030 1.797490 0.031670 
#    z -0.025260 0.031670 1.718450 
# 
# From -- ./inp_files/156672.got.cif
#   From: 2010.05.17/outbox.cif.g08.bks.cpg/sg2_79_cif.got.tgz:156672.got - 2010.06.03 11:33:40.
