data_PCOD9108441
_publ_section_title
;
Structure prediction by ZEFSAII (Michael W. Deem and Ramdas Pophale) SiO2 
 PCOD9108441
Probable space group: P -1
;
_chemical_formula_sum "Si O2"
_cell_formula_units_Z 12
_cell_length_a 5.222471
_cell_length_b 15.421128
_cell_length_c 9.926195
_cell_angle_alpha 122.953494
_cell_angle_beta 46.891388
_cell_angle_gamma 123.302432
_cell_volume 468.760536
_symmetry_space_group_name_H-M "P -1"
_symmetry_group_IT_number 2
_symmetry_cell_setting 'triclinic'
loop_
_space_group_symop_operation_xyz
x,y,z
-x,-y,-z
loop_
_atom_site_type_symbol
_atom_site_label
_atom_site_fract_x
_atom_site_fract_y
_atom_site_fract_z
Si Si1 0.912896 0.332968 0.016073
Si Si2 0.036301 0.034418 0.859348
Si Si3 0.595741 0.249806 0.774657
Si Si4 0.516318 0.488388 0.323942
Si Si5 0.471120 0.166097 0.226459
Si Si6 0.222702 0.678848 0.518860
O O1 0.880581 0.453779 0.135816
O O2 0.569557 0.267984 0.178680
O O3 0.813332 0.286471 0.863984
O O4 0.272965 0.308300 0.922926
O O5 0.405764 0.121524 0.752702
O O6 0.913328 0.924786 0.725282
O O7 0.744649 0.102587 0.014899
O O8 0.000000 0.000000 0.000000
O O9 0.824898 0.284673 0.585046
O O10 0.500000 0.500000 0.500000
O O11 0.464428 0.594562 0.363073
O O12 0.149777 0.392495 0.337091
O O13 0.584617 0.215613 0.373880
#
# Coordination Sequence:
#
# PCOD9108441 Si02
#       6
#     2   2   2   2   2   2
#     4  11  23  44  69  97 137 184 222 272 334 411
#     4  10  20  40  68  96 128 185 221 263 339 414
#     4  11  26  43  68 105 141 170 226 287 335 388
#     4  11  24  44  70  94 131 187 228 265 345 411
#     4  10  21  40  68  94 132 179 225 267 332 412
#     4  11  26  43  66 103 136 173 227 290 331 393
#
# _framework density 25.599425
#
# number of rings (size 3 to 8) (size 9 to 14) (size 15 to 20)
#    0.000    1.333    3.333    2.000    4.667    2.000 
#    0.000    0.833    0.000    0.000    0.000    0.000 
#    0.000    0.000    0.000    0.000    0.000    0.000 
#
# Total GULP energy -67189.108990 kJ/mol
# GULP energy per Si atom -5599.092416 kJ/mol
# Density = 2.554116 g / cm^3
# Si number density = 25.599425 Si / 1000 Ang^3
#
#
#
# Elastic Constant Matrix: (Units=GPa)
#
#
# Indices 1 2 3 4 5 6 
#
# 1 78.9492 10.6717 8.5459 0.7944 3.6031 4.3887
# 2 10.6717 74.4945 25.4469 -14.0192 -2.9269 3.8348
# 3 8.5459 25.4469 76.2278 -8.0065 21.6130 13.0022
# 4 0.7944 -14.0192 -8.0065 48.0469 -9.8787 6.8947
# 5 3.6031 -2.9269 21.6130 -9.8787 56.3482 3.9355
# 6 4.3887 3.8348 13.0022 6.8947 3.9355 43.4039
#
#
#
# Elastic Compliance Matrix: (Units=1/GPa)
#
#
# Indices 1 2 3 4 5 6 
#
# 1 0.013067 -0.001834 -0.000587 -0.000906 -0.000811 -0.000766
# 2 -0.001834 0.016852 -0.005979 0.004910 0.004194 -0.000673
# 3 -0.000587 -0.005979 0.017863 0.000461 -0.006749 -0.004225
# 4 -0.000906 0.004910 0.000461 0.023973 0.004668 -0.004712
# 5 -0.000811 0.004194 -0.006749 0.004668 0.021490 -0.000957
# 6 -0.000766 -0.000673 -0.004225 -0.004712 -0.000957 0.025277
#
#
# Mechanical properties :
#
#
# Convention : Reuss Voigt Hill
#
# Bulk Modulus (GPa) = 32.27748 35.44450 33.86099
# Shear Modulus (GPa) = 34.32903 41.89360 38.11132
#
# Velocity S-wave (km/s) = 3.66595 4.04976 3.86263
# Velocity P-wave (km/s) = 5.52765 5.97857 5.75753
#
# Compressibility (1/GPa) = 0.03098135
#
# Stress axis : x y z
#
# Youngs Moduli (GPa) = 76.53128 59.33924 55.98259
#
# Poissons Ratio (x) = 0.10884 0.03287
# Poissons Ratio (y) = 0.14037 0.33470
# Poissons Ratio (z) = 0.04494 0.35477
#
# Static dielectric constant tensor:
#      x y z
#    x 2.104250 -0.052680 -0.078490 
#    y -0.052680 2.178250 0.021050 
#    z -0.078490 0.021050 1.987490 
# 
# From -- ./inp_files/19093.got.cif
#   From: 2010.05.17/outbox.cif.g08.bks.cpg/sg2_10_cif.got.tgz:19093.got - 2010.06.03 11:33:40.
