data_PCOD9108286
_publ_section_title
;
Structure prediction by ZEFSAII (Michael W. Deem and Ramdas Pophale) SiO2 
 PCOD9108286
Probable space group: P -1
;
_chemical_formula_sum "Si O2"
_cell_formula_units_Z 16
_cell_length_a 10.645721
_cell_length_b 11.067945
_cell_length_c 9.490814
_cell_angle_alpha 56.255815
_cell_angle_beta 101.355278
_cell_angle_gamma 129.487909
_cell_volume 696.009406
_symmetry_space_group_name_H-M "P -1"
_symmetry_group_IT_number 2
_symmetry_cell_setting 'triclinic'
loop_
_space_group_symop_operation_xyz
x,y,z
-x,-y,-z
loop_
_atom_site_type_symbol
_atom_site_label
_atom_site_fract_x
_atom_site_fract_y
_atom_site_fract_z
Si Si1 0.241363 0.429662 0.977946
Si Si2 0.481555 0.591727 0.306480
Si Si3 0.577192 0.681239 0.752873
Si Si4 0.429730 0.045134 0.826993
Si Si5 0.872907 0.548015 0.768365
Si Si6 0.000859 0.642195 0.245959
Si Si7 0.260107 0.766648 0.429065
Si Si8 0.233959 0.919102 0.602893
O O1 0.417391 0.628836 0.833412
O O2 0.097868 0.320256 0.899330
O O3 0.292370 0.308428 0.125795
O O4 0.174582 0.478008 0.061128
O O5 0.500000 0.500000 0.500000
O O6 0.507083 0.511258 0.228952
O O7 0.598075 0.816508 0.203647
O O8 0.292478 0.514492 0.304379
O O9 0.675567 0.862742 0.555337
O O10 0.577774 0.155548 0.672520
O O11 0.276064 0.896623 0.785113
O O12 0.500000 0.000000 0.000000
O O13 0.921779 0.428276 0.791372
O O14 0.033368 0.769246 0.639694
O O15 0.855388 0.458054 0.424579
O O16 0.147404 0.791285 0.290231
O O17 0.295361 0.859737 0.528595
#
# Coordination Sequence:
#
# PCOD9108286 Si02
#       8
#     2   2   2   2   2   2   2   2
#     4  10  22  38  69  95 133 178 230 285 338 417
#     4  11  23  44  71  94 135 191 230 273 340 432
#     4  10  23  43  66  99 136 189 233 271 353 431
#     4  12  26  43  69 105 142 178 235 291 347 408
#     4  10  23  40  71 101 133 178 229 289 346 410
#     4  10  20  40  67  97 129 175 234 282 340 411
#     4  10  23  40  66  95 136 177 223 282 348 410
#     4  11  24  44  67 102 141 179 227 294 350 406
#
# _framework density 22.988192999999999
#
# number of rings (size 3 to 8) (size 9 to 14) (size 15 to 20)
#    0.000    1.500    2.500    1.500    1.750   10.000 
#    0.000    0.625    0.000    0.000    0.000    0.000 
#    0.000    0.000    0.000    0.000    0.000    0.000 
#
# Total GULP energy -89425.536137 kJ/mol
# GULP energy per Si atom -5589.096009 kJ/mol
# Density = 2.293587 g / cm^3
# Si number density = 22.988193 Si / 1000 Ang^3
#
#
#
# Elastic Constant Matrix: (Units=GPa)
#
#
# Indices 1 2 3 4 5 6 
#
# 1 58.1176 7.7772 32.6387 7.5576 -8.8833 7.6579
# 2 7.7772 77.6163 22.8504 19.1355 5.9154 -1.5769
# 3 32.6387 22.8504 95.8659 20.8488 11.9249 -2.5646
# 4 7.5576 19.1355 20.8488 35.4544 14.6267 8.2578
# 5 -8.8833 5.9154 11.9249 14.6267 56.5470 10.1286
# 6 7.6579 -1.5769 -2.5646 8.2578 10.1286 34.8500
#
#
#
# Elastic Compliance Matrix: (Units=1/GPa)
#
#
# Indices 1 2 3 4 5 6 
#
# 1 0.024857 -0.000259 -0.009373 -0.000880 0.007598 -0.008163
# 2 -0.000259 0.015419 -0.001854 -0.007875 0.000347 0.002383
# 3 -0.009373 -0.001854 0.016058 -0.006092 -0.004128 0.005801
# 4 -0.000880 -0.007875 -0.006092 0.041115 -0.007184 -0.008265
# 5 0.007598 0.000347 -0.004128 -0.007184 0.022803 -0.006883
# 6 -0.008163 0.002383 0.005801 -0.008265 -0.006883 0.034982
#
#
# Mechanical properties :
#
#
# Convention : Reuss Voigt Hill
#
# Bulk Modulus (GPa) = 29.97466 39.79249 34.88357
# Shear Modulus (GPa) = 26.40949 36.59254 31.50101
#
# Velocity S-wave (km/s) = 3.39311 3.99406 3.70579
# Velocity P-wave (km/s) = 5.33089 6.21430 5.78947
#
# Compressibility (1/GPa) = 0.03336151
#
# Stress axis : x y z
#
# Youngs Moduli (GPa) = 40.23080 64.85477 62.27467
#
# Poissons Ratio (x) = 0.01680 0.58370
# Poissons Ratio (y) = 0.01042 0.11545
# Poissons Ratio (z) = 0.37709 0.12023
#
# Static dielectric constant tensor:
#      x y z
#    x 1.859950 0.012540 0.007420 
#    y 0.012540 1.910130 0.016390 
#    z 0.007420 0.016390 1.900600 
# 
# From -- ./inp_files/262101.got.cif
#   From: 2010.05.17/outbox.cif.g08.bks.cpg/sg2_132_cif.got.tgz:262101.got - 2010.06.03 11:33:40.
