data_PCOD9108598
_publ_section_title
;
Structure prediction by ZEFSAII (Michael W. Deem and Ramdas Pophale) SiO2 
 PCOD9108598
Probable space group: P -1
;
_chemical_formula_sum "Si O2"
_cell_formula_units_Z 16
_cell_length_a 15.647572
_cell_length_b 8.365295
_cell_length_c 9.193037
_cell_angle_alpha 110.027009
_cell_angle_beta 47.377294
_cell_angle_gamma 124.605477
_cell_volume 727.033756
_symmetry_space_group_name_H-M "P -1"
_symmetry_group_IT_number 2
_symmetry_cell_setting 'triclinic'
loop_
_space_group_symop_operation_xyz
x,y,z
-x,-y,-z
loop_
_atom_site_type_symbol
_atom_site_label
_atom_site_fract_x
_atom_site_fract_y
_atom_site_fract_z
Si Si1 0.537130 0.196976 0.878642
Si Si2 0.702202 0.029420 0.738032
Si Si3 0.867131 0.971912 0.068654
Si Si4 0.862402 0.931620 0.716203
Si Si5 0.341974 0.244082 0.538983
Si Si6 0.146559 0.636713 0.806031
Si Si7 0.565708 0.149237 0.333219
Si Si8 0.291075 0.459992 0.407018
O O1 0.583952 0.368371 0.764599
O O2 0.665002 0.195856 0.799824
O O3 0.461374 0.996901 0.813781
O O4 0.433558 0.163761 0.113360
O O5 0.805298 0.065551 0.756426
O O6 0.736169 0.958269 0.527483
O O7 0.743441 0.788558 0.228397
O O8 0.852196 0.163212 0.172607
O O9 0.870353 0.944709 0.883618
O O10 0.000000 0.000000 0.000000
O O11 0.771234 0.716213 0.690172
O O12 0.000000 0.000000 0.500000
O O13 0.480992 0.258218 0.429591
O O14 0.335772 0.395405 0.481822
O O15 0.278290 0.711473 0.778939
O O16 0.185435 0.530749 0.600123
O O17 0.000000 0.500000 0.000000
O O18 0.500000 0.000000 0.500000
#
# Coordination Sequence:
#
# PCOD9108598 Si02
#       8
#     2   2   2   2   2   2   2   2
#     4  10  20  40  69  97 129 182 228 296 344 415
#     4   9  20  40  66  92 131 174 232 277 356 416
#     4  12  24  45  71  97 142 189 233 281 361 425
#     4  11  24  43  66  96 137 185 224 280 355 425
#     4  10  22  40  66 100 135 183 226 291 346 421
#     4  12  24  42  68 101 137 181 235 290 339 414
#     4  11  20  41  67 100 140 187 231 280 361 419
#     4  11  24  44  69 102 141 172 238 296 347 410
#
# _framework density 22.00723
#
# number of rings (size 3 to 8) (size 9 to 14) (size 15 to 20)
#    0.000    1.250    2.500    4.500    0.000    2.500 
#    0.000   13.750    0.000    0.000    0.000    0.000 
#    0.000    0.000    0.000    0.000    0.000    0.000 
#
# Total GULP energy -89384.148148 kJ/mol
# GULP energy per Si atom -5586.509259 kJ/mol
# Density = 2.195714 g / cm^3
# Si number density = 22.007230 Si / 1000 Ang^3
#
#
#
# Elastic Constant Matrix: (Units=GPa)
#
#
# Indices 1 2 3 4 5 6 
#
# 1 179.8389 40.0517 59.4501 -2.1715 5.2557 -14.3646
# 2 40.0517 74.4158 28.9878 -0.4225 6.2960 -9.5580
# 3 59.4501 28.9878 137.5431 -11.8559 20.8412 -9.5956
# 4 -2.1715 -0.4225 -11.8559 45.7294 2.1688 2.7243
# 5 5.2557 6.2960 20.8412 2.1688 41.2287 0.2806
# 6 -14.3646 -9.5580 -9.5956 2.7243 0.2806 40.0651
#
#
#
# Elastic Compliance Matrix: (Units=1/GPa)
#
#
# Indices 1 2 3 4 5 6 
#
# 1 0.007089 -0.002721 -0.002565 -0.000470 0.000824 0.001304
# 2 -0.002721 0.016054 -0.001916 -0.000570 -0.001123 0.002442
# 3 -0.002565 -0.001916 0.009732 0.002546 -0.004439 0.000812
# 4 -0.000470 -0.000570 0.002546 0.022683 -0.002325 -0.001221
# 5 0.000824 -0.001123 -0.004439 -0.002325 0.026695 -0.001064
# 6 0.001304 0.002442 0.000812 -0.001221 -0.001064 0.026295
#
#
# Mechanical properties :
#
#
# Convention : Reuss Voigt Hill
#
# Bulk Modulus (GPa) = 54.13974 72.08633 63.11304
# Shear Modulus (GPa) = 38.72712 42.95852 40.84282
#
# Velocity S-wave (km/s) = 4.19948 4.42296 4.31267
# Velocity P-wave (km/s) = 6.94035 7.67530 7.31706
#
# Compressibility (1/GPa) = 0.01847072
#
# Stress axis : x y z
#
# Youngs Moduli (GPa) = 141.06620 62.28864 102.75746
#
# Poissons Ratio (x) = 0.16949 0.26357
# Poissons Ratio (y) = 0.38385 0.19688
# Poissons Ratio (z) = 0.36183 0.11935
#
# Static dielectric constant tensor:
#      x y z
#    x 1.829200 -0.000720 -0.022320 
#    y -0.000720 1.859040 0.019010 
#    z -0.022320 0.019010 1.830770 
# 
# From -- ./inp_files/295469.got.cif
#   From: 2010.05.17/outbox.cif.g08.bks.cpg/sg2_148_cif.got.tgz:295469.got - 2010.06.03 11:33:40.
