data_PCOD9108814
_publ_section_title
;
Structure prediction by ZEFSAII (Michael W. Deem and Ramdas Pophale) SiO2 
 PCOD9108814
Probable space group: P -1
;
_chemical_formula_sum "Si O2"
_cell_formula_units_Z 15
_cell_length_a 9.585302
_cell_length_b 12.383115
_cell_length_c 9.282071
_cell_angle_alpha 143.184822
_cell_angle_beta 122.777696
_cell_angle_gamma 70.231520
_cell_volume 545.086493
_symmetry_space_group_name_H-M "P -1"
_symmetry_group_IT_number 2
_symmetry_cell_setting 'triclinic'
loop_
_space_group_symop_operation_xyz
x,y,z
-x,-y,-z
loop_
_atom_site_type_symbol
_atom_site_label
_atom_site_fract_x
_atom_site_fract_y
_atom_site_fract_z
Si Si1 0.334749 0.057394 0.407689
Si Si2 0.901835 0.229500 0.385573
Si Si3 0.425224 0.600287 0.693136
Si Si4 0.000000 0.500000 0.000000
Si Si5 0.751654 0.585222 0.332936
Si Si6 0.003797 0.911217 0.251581
Si Si7 0.240244 0.688412 0.195883
Si Si8 0.505660 0.984697 0.160049
O O1 0.033868 0.703464 0.090200
O O2 0.341487 0.005599 0.187959
O O3 0.500000 0.000000 0.500000
O O4 0.176572 0.957135 0.303495
O O5 0.732847 0.303057 0.335194
O O6 0.051856 0.305700 0.433628
O O7 0.887979 0.015043 0.197861
O O8 0.974740 0.341507 0.685864
O O9 0.500000 0.500000 0.500000
O O10 0.344863 0.458871 0.619037
O O11 0.552426 0.786918 0.009540
O O12 0.212941 0.528020 0.125260
O O13 0.661790 0.728793 0.353420
O O14 0.727871 0.395825 0.028880
O O15 0.355562 0.853904 0.519609
O O16 0.000000 0.000000 0.500000
O O17 0.500000 0.000000 0.000000
#
# Coordination Sequence:
#
# PCOD9108814 Si02
#       8
#     2   2   2   1   2   2   2   2
#     4  11  24  49  76 114 154 205 259 326 399 471
#     4  10  23  45  71 108 151 197 266 317 394 461
#     4  12  27  49  76 111 159 211 259 325 401 469
#     4  10  20  40  72 108 140 194 258 322 370 448
#     4  10  25  47  78 113 152 204 265 333 388 463
#     4  11  22  41  74 110 148 200 257 327 379 458
#     4  11  23  46  76 113 153 198 271 314 395 465
#     4  12  27  48  75 112 164 206 262 325 404 471
#
# _framework density 27.518568999999999
#
# number of rings (size 3 to 8) (size 9 to 14) (size 15 to 20)
#    0.000    1.067    2.667    2.800    0.000    2.667 
#    4.800    8.667    0.000    0.000    0.000    0.000 
#    0.000    0.000    0.000    0.000    0.000    0.000 
#
# Total GULP energy -83635.989944 kJ/mol
# GULP energy per Si atom -5575.732663 kJ/mol
# Density = 2.745594 g / cm^3
# Si number density = 27.518569 Si / 1000 Ang^3
#
#
#
# Elastic Constant Matrix: (Units=GPa)
#
#
# Indices 1 2 3 4 5 6 
#
# 1 180.6022 46.8232 43.4637 -1.3503 -28.7586 23.7339
# 2 46.8232 158.9732 46.7475 11.9799 -4.2686 -7.5128
# 3 43.4637 46.7475 102.4220 10.9233 -21.7926 -5.2675
# 4 -1.3503 11.9799 10.9233 45.0579 -1.5687 -8.1604
# 5 -28.7586 -4.2686 -21.7926 -1.5687 44.6395 3.5843
# 6 23.7339 -7.5128 -5.2675 -8.1604 3.5843 69.7459
#
#
#
# Elastic Compliance Matrix: (Units=1/GPa)
#
#
# Indices 1 2 3 4 5 6 
#
# 1 0.007455 -0.001776 -0.001719 0.000713 0.004058 -0.002983
# 2 -0.001776 0.007804 -0.003045 -0.001248 -0.002023 0.001173
# 3 -0.001719 -0.003045 0.013193 -0.002133 0.004907 0.000752
# 4 0.000713 -0.001248 -0.002133 0.023462 -0.000054 0.002210
# 5 0.004058 -0.002023 0.004907 -0.000054 0.027429 -0.002644
# 6 -0.002983 0.001173 0.000752 0.002210 -0.002644 0.015930
#
#
# Mechanical properties :
#
#
# Convention : Reuss Voigt Hill
#
# Bulk Modulus (GPa) = 65.05473 79.56290 72.30882
# Shear Modulus (GPa) = 44.06168 52.21953 48.14060
#
# Velocity S-wave (km/s) = 4.00579 4.36088 4.18710
# Velocity P-wave (km/s) = 6.71467 7.37100 7.05048
#
# Compressibility (1/GPa) = 0.01537167
#
# Stress axis : x y z
#
# Youngs Moduli (GPa) = 134.14340 128.13783 75.79738
#
# Poissons Ratio (x) = 0.22757 0.13029
# Poissons Ratio (y) = 0.23824 0.23082
# Poissons Ratio (z) = 0.23058 0.39021
#
# Static dielectric constant tensor:
#      x y z
#    x -1.074470 -8.322230 -1.846480 
#    y -8.322230 -18.051610 -4.785140 
#    z -1.846480 -4.785140 1.047840 
# 
# From -- ./inp_files/190982.got.cif
#   From: 2010.05.17/outbox.cif.g08.bks.cpg/sg2_96_cif.got.tgz:190982.got - 2010.06.03 11:33:40.
