data_PCOD9108695
_publ_section_title
;
Structure prediction by ZEFSAII (Michael W. Deem and Ramdas Pophale) SiO2 
 PCOD9108695
Probable space group: P -1
;
_chemical_formula_sum "Si O2"
_cell_formula_units_Z 16
_cell_length_a 16.140843
_cell_length_b 8.856065
_cell_length_c 6.678666
_cell_angle_alpha 78.325779
_cell_angle_beta 93.038273
_cell_angle_gamma 133.488165
_cell_volume 673.289869
_symmetry_space_group_name_H-M "P -1"
_symmetry_group_IT_number 2
_symmetry_cell_setting 'triclinic'
loop_
_space_group_symop_operation_xyz
x,y,z
-x,-y,-z
loop_
_atom_site_type_symbol
_atom_site_label
_atom_site_fract_x
_atom_site_fract_y
_atom_site_fract_z
Si Si1 0.034675 0.563889 0.222791
Si Si2 0.229138 0.591561 0.152837
Si Si3 0.062978 0.241022 0.893815
Si Si4 0.175071 0.907819 0.572663
Si Si5 0.229559 0.256787 0.726174
Si Si6 0.368847 0.024033 0.860966
Si Si7 0.395670 0.554266 0.350048
Si Si8 0.680064 0.795622 0.862620
O O1 0.134665 0.391467 0.052905
O O2 0.019106 0.727617 0.198014
O O3 0.935499 0.342233 0.384897
O O4 0.000000 0.500000 0.000000
O O5 0.292587 0.539852 0.294220
O O6 0.156700 0.634063 0.241011
O O7 0.331100 0.806305 0.983575
O O8 0.160471 0.325382 0.721638
O O9 0.748144 0.782837 0.040171
O O10 0.000000 0.000000 0.000000
O O11 0.151713 0.040628 0.643214
O O12 0.264670 0.945371 0.728080
O O13 0.239434 0.027691 0.344330
O O14 0.353224 0.426263 0.587414
O O15 0.485645 0.201357 0.707197
O O16 0.374915 0.139394 0.029085
O O17 0.397317 0.422508 0.217237
#
# Coordination Sequence:
#
# PCOD9108695 Si02
#       8
#     2   2   2   2   2   2   2   2
#     4  10  20  40  70  94 134 171 216 283 334 397
#     4  11  23  43  66  97 141 176 224 280 337 405
#     4  11  22  40  72  99 130 176 218 277 347 394
#     4  10  21  42  67 101 133 178 226 275 342 397
#     4  10  22  42  65  97 140 174 229 280 331 399
#     4  11  23  42  68  95 140 181 223 283 332 397
#     4  11  24  43  65 100 136 183 229 273 333 401
#     4  10  23  41  69  98 133 179 232 277 332 399
#
# _framework density 23.763911
#
# number of rings (size 3 to 8) (size 9 to 14) (size 15 to 20)
#    0.000    1.500    3.750    2.250    1.750    6.500 
#    2.250    3.750    0.000    0.000    0.000    0.000 
#    0.000    0.000    0.000    0.000    0.000    0.000 
#
# Total GULP energy -89520.323355 kJ/mol
# GULP energy per Si atom -5595.020210 kJ/mol
# Density = 2.370982 g / cm^3
# Si number density = 23.763911 Si / 1000 Ang^3
#
#
#
# Elastic Constant Matrix: (Units=GPa)
#
#
# Indices 1 2 3 4 5 6 
#
# 1 49.4688 13.8851 0.7551 6.9401 1.2993 -13.0952
# 2 13.8851 118.1567 36.1541 -30.8866 -8.4718 -2.2241
# 3 0.7551 36.1541 122.3473 -19.1166 2.0124 -6.6166
# 4 6.9401 -30.8866 -19.1166 40.8139 -2.3434 -4.2346
# 5 1.2993 -8.4718 2.0124 -2.3434 27.7411 -6.0963
# 6 -13.0952 -2.2241 -6.6166 -4.2346 -6.0963 32.7928
#
#
#
# Elastic Compliance Matrix: (Units=1/GPa)
#
#
# Indices 1 2 3 4 5 6 
#
# 1 0.024816 -0.004828 0.000710 -0.006727 -0.001366 0.008603
# 2 -0.004828 0.012642 -0.002236 0.009714 0.005224 0.000704
# 3 0.000710 -0.002236 0.009399 0.002786 -0.000665 0.002264
# 4 -0.006727 0.009714 0.002786 0.035158 0.007011 0.004378
# 5 -0.001366 0.005224 -0.000665 0.007011 0.040114 0.008037
# 6 0.008603 0.000704 0.002264 0.004378 0.008037 0.036494
#
#
# Mechanical properties :
#
#
# Convention : Reuss Voigt Hill
#
# Bulk Modulus (GPa) = 29.28348 43.50682 36.39515
# Shear Modulus (GPa) = 27.36536 36.21477 31.79007
#
# Velocity S-wave (km/s) = 3.39713 3.90800 3.66149
# Velocity P-wave (km/s) = 5.26657 6.22182 5.76402
#
# Compressibility (1/GPa) = 0.03414895
#
# Stress axis : x y z
#
# Youngs Moduli (GPa) = 40.29658 79.10234 106.39951
#
# Poissons Ratio (x) = 0.38190 -0.07557
# Poissons Ratio (y) = 0.19455 0.23792
# Poissons Ratio (z) = -0.02862 0.17688
#
# Static dielectric constant tensor:
#      x y z
#    x 1.898570 -0.028990 -0.037660 
#    y -0.028990 1.962710 0.031220 
#    z -0.037660 0.031220 1.954990 
# 
# From -- ./inp_files/298239.got.cif
#   From: 2010.05.17/outbox.cif.g08.bks.cpg/sg2_150_cif.got.tgz:298239.got - 2010.06.03 11:33:40.
