data_PCOD9108515
_publ_section_title
;
Structure prediction by ZEFSAII (Michael W. Deem and Ramdas Pophale) SiO2 
 PCOD9108515
Probable space group: P -1
;
_chemical_formula_sum "Si O2"
_cell_formula_units_Z 13
_cell_length_a 7.340899
_cell_length_b 8.630899
_cell_length_c 10.951046
_cell_angle_alpha 109.309915
_cell_angle_beta 87.450291
_cell_angle_gamma 52.158545
_cell_volume 487.800385
_symmetry_space_group_name_H-M "P -1"
_symmetry_group_IT_number 2
_symmetry_cell_setting 'triclinic'
loop_
_space_group_symop_operation_xyz
x,y,z
-x,-y,-z
loop_
_atom_site_type_symbol
_atom_site_label
_atom_site_fract_x
_atom_site_fract_y
_atom_site_fract_z
Si Si1 0.672074 0.794746 0.038024
Si Si2 0.009328 0.485865 0.259270
Si Si3 0.522088 0.161017 0.298831
Si Si4 0.500000 0.000000 0.500000
Si Si5 0.824076 0.289696 0.326741
Si Si6 0.886834 0.246990 0.590616
Si Si7 0.347279 0.827515 0.241429
O O1 0.536052 0.731447 0.099242
O O2 0.703240 0.917476 0.170148
O O3 0.895975 0.590999 0.900249
O O4 0.500000 0.000000 0.000000
O O5 0.251670 0.311693 0.289068
O O6 0.829550 0.448012 0.286889
O O7 0.925022 0.718131 0.366927
O O8 0.507636 0.148004 0.439563
O O9 0.635440 0.266310 0.287580
O O10 0.577451 0.080878 0.636081
O O11 0.790854 0.351592 0.487186
O O12 0.090664 0.045454 0.250027
O O13 0.710699 0.310253 0.725787
O O14 0.000000 0.000000 0.500000
#
# Coordination Sequence:
#
# PCOD9108515 Si02
#       7
#     2   2   2   1   2   2   2
#     4   9  18  38  60  90 122 165 199 244 309 369
#     4  11  22  41  59  89 131 158 207 254 299 377
#     4  10  21  34  64  97 121 166 200 246 313 367
#     4  10  16  36  58  92 128 158 202 248 300 370
#     4  11  20  37  62  92 123 159 201 256 306 360
#     4  10  23  38  61  91 117 165 208 257 315 352
#     4  10  19  36  62  89 122 164 201 250 304 366
#
# _framework density 26.650243
#
# number of rings (size 3 to 8) (size 9 to 14) (size 15 to 20)
#    0.000    1.846    6.154    0.462    0.000    1.846 
#    0.000    0.000    0.000    3.692    0.000    0.000 
#    0.000    0.000    0.000    0.000    0.000    0.000 
#
# Total GULP energy -72640.450703 kJ/mol
# GULP energy per Si atom -5587.726977 kJ/mol
# Density = 2.658959 g / cm^3
# Si number density = 26.650243 Si / 1000 Ang^3
#
#
#
# Elastic Constant Matrix: (Units=GPa)
#
#
# Indices 1 2 3 4 5 6 
#
# 1 88.9577 35.6564 -6.2040 -6.2035 -8.0467 36.5715
# 2 35.6564 121.4535 51.1621 -13.5803 -24.4670 23.1256
# 3 -6.2040 51.1621 134.7713 -16.6128 -33.0443 16.8518
# 4 -6.2035 -13.5803 -16.6128 49.3625 8.5896 -8.5471
# 5 -8.0467 -24.4670 -33.0443 8.5896 35.6014 -11.3339
# 6 36.5715 23.1256 16.8518 -8.5471 -11.3339 75.6614
#
#
#
# Elastic Compliance Matrix: (Units=1/GPa)
#
#
# Indices 1 2 3 4 5 6 
#
# 1 0.016536 -0.004753 0.003950 0.000568 0.001741 -0.007095
# 2 -0.004753 0.012019 -0.003846 0.000831 0.003444 0.000090
# 3 0.003950 -0.003846 0.011424 0.001583 0.007860 -0.001922
# 4 0.000568 0.000831 0.001583 0.021765 -0.002710 0.001172
# 5 0.001741 0.003444 0.007860 -0.002710 0.039420 0.001954
# 6 -0.007095 0.000090 -0.001922 0.001172 0.001954 0.017471
#
#
# Mechanical properties :
#
#
# Convention : Reuss Voigt Hill
#
# Bulk Modulus (GPa) = 32.59448 56.26795 44.43121
# Shear Modulus (GPa) = 36.18963 49.76292 42.97627
#
# Velocity S-wave (km/s) = 3.68903 4.32587 4.02008
# Velocity P-wave (km/s) = 5.51383 6.79045 6.18516
#
# Compressibility (1/GPa) = 0.03068004
#
# Stress axis : x y z
#
# Youngs Moduli (GPa) = 60.47518 83.20427 87.53327
#
# Poissons Ratio (x) = 0.39549 -0.34573
# Poissons Ratio (y) = 0.28745 0.33663
# Poissons Ratio (z) = -0.23886 0.31998
#
# Static dielectric constant tensor:
#      x y z
#    x 2.053620 0.041140 0.017420 
#    y 0.041140 2.084260 -0.019770 
#    z 0.017420 -0.019770 2.008950 
# 
# From -- ./inp_files/374978.got.cif
#   From: 2010.05.17/outbox.cif.g08.bks.cpg/sg2_188_cif.got.tgz:374978.got - 2010.06.03 11:33:40.
