data_PCOD9108840
_publ_section_title
;
Structure prediction by ZEFSAII (Michael W. Deem and Ramdas Pophale) SiO2 
 PCOD9108840
Probable space group: P -1
;
_chemical_formula_sum "Si O2"
_cell_formula_units_Z 16
_cell_length_a 27.457378
_cell_length_b 6.605115
_cell_length_c 5.750016
_cell_angle_alpha 103.349209
_cell_angle_beta 78.645931
_cell_angle_gamma 136.713266
_cell_volume 695.040412
_symmetry_space_group_name_H-M "P -1"
_symmetry_group_IT_number 2
_symmetry_cell_setting 'triclinic'
loop_
_space_group_symop_operation_xyz
x,y,z
-x,-y,-z
loop_
_atom_site_type_symbol
_atom_site_label
_atom_site_fract_x
_atom_site_fract_y
_atom_site_fract_z
Si Si1 0.485897 0.134793 0.861768
Si Si2 0.564025 0.677525 0.674280
Si Si3 0.844245 0.335928 0.358766
Si Si4 0.745527 0.170783 0.025553
Si Si5 0.235097 0.164006 0.362101
Si Si6 0.996299 0.865411 0.215024
Si Si7 0.648251 0.180240 0.373711
Si Si8 0.848339 0.748392 0.796589
O O1 0.554995 0.424729 0.734481
O O2 0.422348 0.916232 0.678210
O O3 0.455997 0.226786 0.077356
O O4 0.500000 0.000000 0.000000
O O5 0.500000 0.500000 0.500000
O O6 0.629871 0.970979 0.550770
O O7 0.775080 0.138034 0.211138
O O8 0.918734 0.529967 0.209751
O O9 0.845576 0.564365 0.547028
O O10 0.830258 0.108967 0.490735
O O11 0.680676 0.124401 0.134165
O O12 0.811486 0.514795 0.979865
O O13 0.731400 0.950100 0.792908
O O14 0.292397 0.477032 0.519828
O O15 0.200101 0.202117 0.207644
O O16 0.000000 0.000000 0.500000
O O17 0.069098 0.951910 0.166691
O O18 0.000000 0.000000 0.000000
#
# Coordination Sequence:
#
# PCOD9108840 Si02
#       8
#     2   2   2   2   2   2   2   2
#     4  10  23  49  75 102 134 175 227 284 343 417
#     4   9  22  47  68 101 136 173 220 276 341 420
#     4  10  22  43  66  99 143 182 246 297 357 428
#     4  11  24  44  67  99 142 184 232 296 351 430
#     4  11  26  43  66 107 139 187 235 296 355 428
#     4  10  20  40  73 101 137 205 246 307 383 428
#     4  11  25  47  71 100 145 182 225 286 359 420
#     4  10  22  43  68  95 146 182 243 300 357 428
#
# _framework density 23.020244000000002
#
# number of rings (size 3 to 8) (size 9 to 14) (size 15 to 20)
#    0.000    1.750    2.500    0.000    3.500    2.500 
#   18.000    0.625    0.000    0.000    0.000    0.000 
#    0.000    0.000    0.000    0.000    0.000    0.000 
#
# Total GULP energy -89338.442814 kJ/mol
# GULP energy per Si atom -5583.652676 kJ/mol
# Density = 2.296785 g / cm^3
# Si number density = 23.020244 Si / 1000 Ang^3
#
#
#
# Elastic Constant Matrix: (Units=GPa)
#
#
# Indices 1 2 3 4 5 6 
#
# 1 91.8128 52.3678 16.8630 1.7665 3.3450 -2.0280
# 2 52.3678 118.8941 35.8609 -13.9285 -15.1209 -1.5544
# 3 16.8630 35.8609 73.7029 -14.5110 -3.8192 -2.0370
# 4 1.7665 -13.9285 -14.5110 30.5978 3.0170 5.3971
# 5 3.3450 -15.1209 -3.8192 3.0170 38.9656 -6.9219
# 6 -2.0280 -1.5544 -2.0370 5.3971 -6.9219 28.2255
#
#
#
# Elastic Compliance Matrix: (Units=1/GPa)
#
#
# Indices 1 2 3 4 5 6 
#
# 1 0.015669 -0.007643 -0.000950 -0.004538 -0.003958 0.000533
# 2 -0.007643 0.014206 -0.004001 0.004385 0.005519 0.000459
# 3 -0.000950 -0.004001 0.016959 0.006379 -0.000369 -0.000375
# 4 -0.004538 0.004385 0.006379 0.039470 -0.001687 -0.007585
# 5 -0.003958 0.005519 -0.000369 -0.001687 0.029584 0.007571
# 6 0.000533 0.000459 -0.000375 -0.007585 0.007571 0.038772
#
#
# Mechanical properties :
#
#
# Convention : Reuss Voigt Hill
#
# Bulk Modulus (GPa) = 46.20094 54.95481 50.57788
# Shear Modulus (GPa) = 26.72900 31.51232 29.12066
#
# Velocity S-wave (km/s) = 3.41120 3.70387 3.56055
# Velocity P-wave (km/s) = 5.96895 6.49737 6.23875
#
# Compressibility (1/GPa) = 0.02164458
#
# Stress axis : x y z
#
# Youngs Moduli (GPa) = 63.82077 70.39445 58.96733
#
# Poissons Ratio (x) = 0.53802 0.05602
# Poissons Ratio (y) = 0.48778 0.23594
# Poissons Ratio (z) = 0.06064 0.28166
#
# Static dielectric constant tensor:
#      x y z
#    x 1.939880 -0.033780 0.073670 
#    y -0.033780 1.912620 -0.029300 
#    z 0.073670 -0.029300 1.952530 
# 
# From -- ./inp_files/14816.got.cif
#   From: 2010.05.17/outbox.cif.g08.bks.cpg/sg2_8_cif.got.tgz:14816.got - 2010.06.03 11:33:40.
