data_PCOD9108945
_publ_section_title
;
Structure prediction by ZEFSAII (Michael W. Deem and Ramdas Pophale) SiO2 
 PCOD9108945
Probable space group: P -1
;
_chemical_formula_sum "Si O2"
_cell_formula_units_Z 16
_cell_length_a 13.018215
_cell_length_b 13.945531
_cell_length_c 8.138672
_cell_angle_alpha 47.580012
_cell_angle_beta 115.600421
_cell_angle_gamma 141.201287
_cell_volume 669.302981
_symmetry_space_group_name_H-M "P -1"
_symmetry_group_IT_number 2
_symmetry_cell_setting 'triclinic'
loop_
_space_group_symop_operation_xyz
x,y,z
-x,-y,-z
loop_
_atom_site_type_symbol
_atom_site_label
_atom_site_fract_x
_atom_site_fract_y
_atom_site_fract_z
Si Si1 0.260313 0.975779 0.631233
Si Si2 0.617391 0.724172 0.425503
Si Si3 0.147259 0.032794 0.993833
Si Si4 0.872213 0.257243 0.857654
Si Si5 0.159420 0.659865 0.760781
Si Si6 0.601232 0.129587 0.614031
Si Si7 0.478477 0.398704 0.939390
Si Si8 0.604986 0.293043 0.947899
O O1 0.134372 0.790403 0.642225
O O2 0.273892 0.136305 0.501814
O O3 0.449818 0.100993 0.564541
O O4 0.225565 0.886274 0.890638
O O5 0.762784 0.833606 0.262156
O O6 0.508706 0.519202 0.665846
O O7 0.475373 0.700654 0.271302
O O8 0.300328 0.175802 0.063773
O O9 0.099062 0.842976 0.130479
O O10 0.000000 0.000000 0.000000
O O11 0.759597 0.273869 0.676280
O O12 0.030879 0.464282 0.800891
O O13 0.320905 0.804834 0.587005
O O14 0.218564 0.634270 0.997972
O O15 0.530051 0.931372 0.850978
O O16 0.610003 0.396836 0.985072
O O17 0.500000 0.500000 0.000000
#
# Coordination Sequence:
#
# PCOD9108945 Si02
#       8
#     2   2   2   2   2   2   2   2
#     4  10  21  39  65  90 125 164 216 250 312 373
#     4  10  22  42  71  90 125 172 215 257 321 380
#     4  10  22  42  67  88 133 170 209 262 320 374
#     4  11  22  41  61  92 131 169 202 261 319 374
#     4  11  25  35  64  95 133 160 213 259 310 372
#     4  11  21  39  64  88 127 172 208 252 312 375
#     4  11  24  40  71  94 122 160 223 269 313 375
#     4  10  20  41  60  89 126 166 214 257 306 377
#
# _framework density 23.905466000000001
#
# number of rings (size 3 to 8) (size 9 to 14) (size 15 to 20)
#    0.000    1.500    3.750    4.125    7.000    0.000 
#    0.000    0.625   13.750    0.000    0.000    0.000 
#    0.000    0.000    0.000    0.000    0.000    0.000 
#
# Total GULP energy -89142.946318 kJ/mol
# GULP energy per Si atom -5571.434145 kJ/mol
# Density = 2.385106 g / cm^3
# Si number density = 23.905466 Si / 1000 Ang^3
#
#
#
# Elastic Constant Matrix: (Units=GPa)
#
#
# Indices 1 2 3 4 5 6 
#
# 1 57.0052 38.9349 -18.3946 -13.5831 -10.2928 -20.9288
# 2 38.9349 171.2096 9.6005 -22.0574 4.9988 -25.7578
# 3 -18.3946 9.6005 59.5788 -2.1087 -5.6721 3.8780
# 4 -13.5831 -22.0574 -2.1087 30.9840 -4.0322 2.8041
# 5 -10.2928 4.9988 -5.6721 -4.0322 29.0344 4.0969
# 6 -20.9288 -25.7578 3.8780 2.8041 4.0969 39.3094
#
#
#
# Elastic Compliance Matrix: (Units=1/GPa)
#
#
# Indices 1 2 3 4 5 6 
#
# 1 0.036707 -0.006109 0.013688 0.013860 0.017051 0.011424
# 2 -0.006109 0.008271 -0.003751 0.002121 -0.004430 0.002848
# 3 0.013688 -0.003751 0.022781 0.006175 0.010661 0.001031
# 4 0.013860 0.002121 0.006175 0.041333 0.010920 0.004073
# 5 0.017051 -0.004430 0.010661 0.010920 0.044896 -0.000334
# 6 0.011424 0.002848 0.001031 0.004073 -0.000334 0.033030
#
#
# Mechanical properties :
#
#
# Convention : Reuss Voigt Hill
#
# Bulk Modulus (GPa) = 13.25982 38.67503 25.96742
# Shear Modulus (GPa) = 24.44977 37.04241 30.74609
#
# Velocity S-wave (km/s) = 3.20155 3.94069 3.59019
# Velocity P-wave (km/s) = 4.38467 6.07608 5.29831
#
# Compressibility (1/GPa) = 0.07541583
#
# Stress axis : x y z
#
# Youngs Moduli (GPa) = 27.24291 120.89997 43.89574
#
# Poissons Ratio (x) = 0.73852 -0.60083
# Poissons Ratio (y) = 0.16641 0.16465
# Poissons Ratio (z) = -0.37289 0.45347
#
# Static dielectric constant tensor:
#      x y z
#    x 2.001280 -0.053290 0.024540 
#    y -0.053290 2.031680 0.015690 
#    z 0.024540 0.015690 1.950430 
# 
# From -- ./inp_files/312551.got.cif
#   From: 2010.05.17/outbox.cif.g08.bks.cpg/sg2_157_cif.got.tgz:312551.got - 2010.06.03 11:33:40.
