data_PCOD9108464
_publ_section_title
;
Structure prediction by ZEFSAII (Michael W. Deem and Ramdas Pophale) SiO2 
 PCOD9108464
Probable space group: P -1
;
_chemical_formula_sum "Si O2"
_cell_formula_units_Z 16
_cell_length_a 12.470637
_cell_length_b 7.018741
_cell_length_c 17.912689
_cell_angle_alpha 46.546753
_cell_angle_beta 143.989114
_cell_angle_gamma 133.825540
_cell_volume 634.223933
_symmetry_space_group_name_H-M "P -1"
_symmetry_group_IT_number 2
_symmetry_cell_setting 'triclinic'
loop_
_space_group_symop_operation_xyz
x,y,z
-x,-y,-z
loop_
_atom_site_type_symbol
_atom_site_label
_atom_site_fract_x
_atom_site_fract_y
_atom_site_fract_z
Si Si1 0.946305 0.148149 0.275207
Si Si2 0.470450 0.363678 0.193396
Si Si3 0.649692 0.618495 0.615790
Si Si4 0.646930 0.152657 0.833613
Si Si5 0.104064 0.859108 0.320817
Si Si6 0.145854 0.403892 0.555842
Si Si7 0.062924 0.166830 0.066703
Si Si8 0.553079 0.209124 0.042150
O O1 0.782530 0.286598 0.155943
O O2 0.147074 0.375687 0.308069
O O3 0.940144 0.940933 0.255605
O O4 0.921733 0.928339 0.387917
O O5 0.646927 0.474331 0.319600
O O6 0.271826 0.386322 0.109777
O O7 0.416362 0.046256 0.221654
O O8 0.508626 0.535668 0.090750
O O9 0.500000 0.500000 0.500000
O O10 0.594032 0.421266 0.708664
O O11 0.701767 0.934090 0.586960
O O12 0.542570 0.965936 0.893358
O O13 0.874760 0.255104 0.951328
O O14 0.085762 0.967047 0.199601
O O15 0.120016 0.555494 0.423875
O O16 0.000000 0.500000 0.500000
O O17 0.000000 0.000000 0.000000
O O18 0.500000 0.000000 0.000000
#
# Coordination Sequence:
#
# PCOD9108464 Si02
#       8
#     2   2   2   2   2   2   2   2
#     4   9  21  40  68  99 130 176 221 279 325 401
#     4  11  24  42  68  94 139 171 226 274 334 396
#     4  10  22  42  67  94 134 176 223 268 335 391
#     4  11  25  42  66  98 136 178 216 276 340 395
#     4   9  21  39  72  95 134 176 221 271 337 391
#     4  10  20  40  68  97 130 173 222 271 333 394
#     4  10  23  43  64 100 131 173 221 277 330 396
#     4  12  23  40  67  99 136 169 225 276 327 399
#
# _framework density 25.227684
#
# number of rings (size 3 to 8) (size 9 to 14) (size 15 to 20)
#    0.750    1.000    1.250    2.625    3.500    1.000 
#    0.000    3.125    2.750    0.000    0.000    0.000 
#    0.000    0.000    0.000    0.000    0.000    0.000 
#
# Total GULP energy -89412.452584 kJ/mol
# GULP energy per Si atom -5588.278286 kJ/mol
# Density = 2.517026 g / cm^3
# Si number density = 25.227684 Si / 1000 Ang^3
#
#
#
# Elastic Constant Matrix: (Units=GPa)
#
#
# Indices 1 2 3 4 5 6 
#
# 1 87.0154 20.7566 38.6998 16.7014 -14.1113 19.8935
# 2 20.7566 79.1541 27.6339 -0.1507 -5.9621 12.6417
# 3 38.6998 27.6339 129.5755 0.5642 -24.0693 26.4221
# 4 16.7014 -0.1507 0.5642 50.9974 16.4122 2.3051
# 5 -14.1113 -5.9621 -24.0693 16.4122 48.7827 -0.5714
# 6 19.8935 12.6417 26.4221 2.3051 -0.5714 36.8420
#
#
#
# Elastic Compliance Matrix: (Units=1/GPa)
#
#
# Indices 1 2 3 4 5 6 
#
# 1 0.016672 -0.002215 -0.002142 -0.007026 0.005787 -0.006177
# 2 -0.002215 0.014256 -0.001938 0.000963 -0.000206 -0.002369
# 3 -0.002142 -0.001938 0.010823 -0.000652 0.004634 -0.005827
# 4 -0.007026 0.000963 -0.000652 0.025269 -0.010712 0.002184
# 5 0.005787 -0.000206 0.004634 -0.010712 0.027977 -0.005273
# 6 -0.006177 -0.002369 -0.005827 0.002184 -0.005273 0.035252
#
#
# Mechanical properties :
#
#
# Convention : Reuss Voigt Hill
#
# Bulk Modulus (GPa) = 34.29342 52.21395 43.25368
# Shear Modulus (GPa) = 32.77430 41.23474 37.00452
#
# Velocity S-wave (km/s) = 3.60827 4.04729 3.83407
# Velocity P-wave (km/s) = 5.56620 6.52554 6.06487
#
# Compressibility (1/GPa) = 0.02916011
#
# Stress axis : x y z
#
# Youngs Moduli (GPa) = 59.97922 70.14723 92.39951
#
# Poissons Ratio (x) = 0.15539 0.19792
# Poissons Ratio (y) = 0.13287 0.17908
# Poissons Ratio (z) = 0.12848 0.13595
#
# Static dielectric constant tensor:
#      x y z
#    x 2.091420 -0.021450 0.050610 
#    y -0.021450 2.007910 -0.021990 
#    z 0.050610 -0.021990 2.035400 
# 
# From -- ./inp_files/597122.got.cif
#   From: 2010.05.17/outbox.cif.g08.bks.cpg/sg2_299_cif.got.tgz:597122.got - 2010.06.03 11:33:40.
