data_PCOD9108651
_publ_section_title
;
Structure prediction by ZEFSAII (Michael W. Deem and Ramdas Pophale) SiO2 
 PCOD9108651
Probable space group: P -1
;
_chemical_formula_sum "Si O2"
_cell_formula_units_Z 16
_cell_length_a 11.498493
_cell_length_b 13.557081
_cell_length_c 8.845011
_cell_angle_alpha 136.589528
_cell_angle_beta 124.521471
_cell_angle_gamma 42.199537
_cell_volume 635.263340
_symmetry_space_group_name_H-M "P -1"
_symmetry_group_IT_number 2
_symmetry_cell_setting 'triclinic'
loop_
_space_group_symop_operation_xyz
x,y,z
-x,-y,-z
loop_
_atom_site_type_symbol
_atom_site_label
_atom_site_fract_x
_atom_site_fract_y
_atom_site_fract_z
Si Si1 0.968309 0.750303 0.821760
Si Si2 0.343185 0.676759 0.494921
Si Si3 0.220666 0.433025 0.473050
Si Si4 0.461112 0.673987 0.240269
Si Si5 0.777622 0.719934 0.180062
Si Si6 0.520070 0.827465 0.881922
Si Si7 0.319600 0.020947 0.356430
Si Si8 0.048483 0.692300 0.143935
O O1 0.906218 0.626365 0.682642
O O2 0.793245 0.920083 0.813205
O O3 0.116369 0.637431 0.676347
O O4 0.037622 0.768648 0.054151
O O5 0.500000 0.500000 0.500000
O O6 0.390886 0.674012 0.352373
O O7 0.351327 0.829802 0.741853
O O8 0.159084 0.708712 0.373304
O O9 0.364170 0.340124 0.608022
O O10 0.331012 0.343386 0.299869
O O11 0.344007 0.848762 0.251600
O O12 0.500000 0.500000 0.000000
O O13 0.800427 0.807133 0.435357
O O14 0.862904 0.759904 0.150781
O O15 0.584085 0.799864 0.069828
O O16 0.860033 0.516665 0.037780
O O17 0.500000 0.000000 0.000000
O O18 0.500000 0.000000 0.500000
#
# Coordination Sequence:
#
# PCOD9108651 Si02
#       8
#     2   2   2   2   2   2   2   2
#     4  11  22  41  73 104 141 185 248 305 356 434
#     4  11  24  45  72 106 143 189 242 297 369 430
#     4  10  20  40  70 103 139 189 239 297 360 430
#     4  11  25  46  69 104 148 191 240 303 367 440
#     4  11  23  41  73 107 149 187 249 300 369 436
#     4  11  23  42  70 108 148 192 243 304 357 433
#     4  12  27  45  73 111 142 191 253 305 357 436
#     4  11  24  43  73 112 142 194 241 306 372 439
#
# _framework density 25.186405000000001
#
# number of rings (size 3 to 8) (size 9 to 14) (size 15 to 20)
#    0.000    1.000    3.750    3.750    3.500    0.000 
#    0.000    5.000    0.000    0.000    0.000    0.000 
#    0.000    0.000    0.000    0.000    0.000    0.000 
#
# Total GULP energy -89383.741321 kJ/mol
# GULP energy per Si atom -5586.483833 kJ/mol
# Density = 2.512908 g / cm^3
# Si number density = 25.186405 Si / 1000 Ang^3
#
#
#
# Elastic Constant Matrix: (Units=GPa)
#
#
# Indices 1 2 3 4 5 6 
#
# 1 50.9998 24.1692 26.2351 -0.3604 3.2819 -3.8677
# 2 24.1692 144.4871 37.9876 -33.9819 11.4891 5.0103
# 3 26.2351 37.9876 144.3923 -25.7486 13.9460 1.6612
# 4 -0.3604 -33.9819 -25.7486 43.1165 -1.6509 8.5998
# 5 3.2819 11.4891 13.9460 -1.6509 39.7261 -2.4561
# 6 -3.8677 5.0103 1.6612 8.5998 -2.4561 33.3040
#
#
#
# Elastic Compliance Matrix: (Units=1/GPa)
#
#
# Indices 1 2 3 4 5 6 
#
# 1 0.024731 -0.004998 -0.004726 -0.007695 0.001108 0.005928
# 2 -0.004998 0.010168 0.000104 0.008854 -0.002480 -0.004584
# 3 -0.004726 0.000104 0.009112 0.005928 -0.002763 -0.002753
# 4 -0.007695 0.008854 0.005928 0.035923 -0.003257 -0.012037
# 5 0.001108 -0.002480 -0.002763 -0.003257 0.026846 0.003460
# 6 0.005928 -0.004584 -0.002753 -0.012037 0.003460 0.034905
#
#
# Mechanical properties :
#
#
# Convention : Reuss Voigt Hill
#
# Bulk Modulus (GPa) = 40.36739 57.40700 48.88720
# Shear Modulus (GPa) = 29.55365 39.99514 34.77440
#
# Velocity S-wave (km/s) = 3.42920 3.98925 3.71978
# Velocity P-wave (km/s) = 5.63396 6.63786 6.15641
#
# Compressibility (1/GPa) = 0.02477247
#
# Stress axis : x y z
#
# Youngs Moduli (GPa) = 40.43436 98.34629 109.74012
#
# Poissons Ratio (x) = 0.49152 0.51864
# Poissons Ratio (y) = 0.20208 -0.01142
# Poissons Ratio (z) = 0.19109 -0.01023
#
# Static dielectric constant tensor:
#      x y z
#    x 2.045640 -0.059400 0.059270 
#    y -0.059400 1.963640 0.012730 
#    z 0.059270 0.012730 1.864990 
# 
# From -- ./inp_files/263560.got.cif
#   From: 2010.05.17/outbox.cif.g08.bks.cpg/sg2_132_cif.got.tgz:263560.got - 2010.06.03 11:33:40.
