data_PCOD9108407
_publ_section_title
;
Structure prediction by ZEFSAII (Michael W. Deem and Ramdas Pophale) SiO2 
 PCOD9108407
Probable space group: P -1
;
_chemical_formula_sum "Si O2"
_cell_formula_units_Z 16
_cell_length_a 12.442596
_cell_length_b 12.980851
_cell_length_c 9.283282
_cell_angle_alpha 114.673174
_cell_angle_beta 91.308373
_cell_angle_gamma 141.535789
_cell_volume 665.856728
_symmetry_space_group_name_H-M "P -1"
_symmetry_group_IT_number 2
_symmetry_cell_setting 'triclinic'
loop_
_space_group_symop_operation_xyz
x,y,z
-x,-y,-z
loop_
_atom_site_type_symbol
_atom_site_label
_atom_site_fract_x
_atom_site_fract_y
_atom_site_fract_z
Si Si1 0.481041 0.592313 0.865811
Si Si2 0.195477 0.610967 0.989634
Si Si3 0.152572 0.240190 0.915007
Si Si4 0.932482 0.663265 0.784025
Si Si5 0.124133 0.838053 0.464419
Si Si6 0.438450 0.811829 0.402515
Si Si7 0.136467 0.227316 0.417087
Si Si8 0.642889 0.000625 0.140222
O O1 0.296063 0.403076 0.873633
O O2 0.370162 0.462205 0.634353
O O3 0.683021 0.693732 0.957402
O O4 0.564085 0.797382 0.998669
O O5 0.065648 0.409599 0.759853
O O6 0.326259 0.678579 0.168789
O O7 0.414321 0.859906 0.059450
O O8 0.000000 0.500000 0.000000
O O9 0.085507 0.282673 0.038003
O O10 0.935455 0.967155 0.718701
O O11 0.740547 0.393111 0.609641
O O12 0.896233 0.724301 0.695370
O O13 0.162981 0.810490 0.859674
O O14 0.038125 0.878923 0.537962
O O15 0.332141 0.040675 0.484825
O O16 0.223405 0.868293 0.627509
O O17 0.500000 0.000000 0.500000
#
# Coordination Sequence:
#
# PCOD9108407 Si02
#       8
#     2   2   2   2   2   2   2   2
#     4  11  22  40  67  97 137 190 231 272 328 416
#     4  11  21  41  73  98 124 178 234 283 335 421
#     4  11  23  42  65 100 143 184 237 269 334 411
#     4  11  25  45  65 101 145 184 221 295 350 398
#     4  10  20  40  68  93 131 178 224 280 335 411
#     4  11  24  45  70  96 132 180 235 287 346 410
#     4  11  23  42  65 101 143 179 226 283 342 402
#     4  10  22  42  64  95 145 177 215 286 352 395
#
# _framework density 24.029192999999999
#
# number of rings (size 3 to 8) (size 9 to 14) (size 15 to 20)
#    0.000    1.250    5.000    2.250    1.750    0.500 
#    2.250    6.250    0.000    0.000    0.000    0.000 
#    0.000    0.000    0.000    0.000    0.000    0.000 
#
# Total GULP energy -89402.535589 kJ/mol
# GULP energy per Si atom -5587.658474 kJ/mol
# Density = 2.397450 g / cm^3
# Si number density = 24.029193 Si / 1000 Ang^3
#
#
#
# Elastic Constant Matrix: (Units=GPa)
#
#
# Indices 1 2 3 4 5 6 
#
# 1 67.6253 28.0032 25.6304 0.7871 -10.7025 17.2467
# 2 28.0032 111.2484 23.7486 28.0913 -12.5462 17.0190
# 3 25.6304 23.7486 148.2688 15.4990 -5.0505 -0.3016
# 4 0.7871 28.0913 15.4990 27.6024 -0.3657 -0.5918
# 5 -10.7025 -12.5462 -5.0505 -0.3657 34.8047 5.9292
# 6 17.2467 17.0190 -0.3016 -0.5918 5.9292 38.7868
#
#
#
# Elastic Compliance Matrix: (Units=1/GPa)
#
#
# Indices 1 2 3 4 5 6 
#
# 1 0.020634 -0.003810 -0.003297 0.005040 0.005971 -0.008365
# 2 -0.003810 0.015434 -0.000010 -0.015654 0.005269 -0.006122
# 3 -0.003297 -0.000010 0.007754 -0.004220 -0.000192 0.001496
# 4 0.005040 -0.015654 -0.004220 0.054451 -0.005193 0.006220
# 5 0.005971 0.005269 -0.000192 -0.005193 0.034134 -0.010266
# 6 -0.008365 -0.006122 0.001496 0.006220 -0.010266 0.033864
#
#
# Mechanical properties :
#
#
# Convention : Reuss Voigt Hill
#
# Bulk Modulus (GPa) = 33.79759 53.54522 43.67141
# Shear Modulus (GPa) = 26.26512 36.88948 31.57730
#
# Velocity S-wave (km/s) = 3.30972 3.92241 3.62902
# Velocity P-wave (km/s) = 5.35737 6.54565 5.98109
#
# Compressibility (1/GPa) = 0.02958791
#
# Stress axis : x y z
#
# Youngs Moduli (GPa) = 48.46287 64.79322 128.97003
#
# Poissons Ratio (x) = 0.24684 0.42524
# Poissons Ratio (y) = 0.18463 0.00130
# Poissons Ratio (z) = 0.15979 0.00065
#
# Static dielectric constant tensor:
#      x y z
#    x 1.947080 0.028000 0.030090 
#    y 0.028000 2.078060 -0.036750 
#    z 0.030090 -0.036750 1.902000 
# 
# From -- ./inp_files/315644.got.cif
#   From: 2010.05.17/outbox.cif.g08.bks.cpg/sg2_158_cif.got.tgz:315644.got - 2010.06.03 11:33:40.
