data_PCOD9108790
_publ_section_title
;
Structure prediction by ZEFSAII (Michael W. Deem and Ramdas Pophale) SiO2 
 PCOD9108790
Probable space group: P -1
;
_chemical_formula_sum "Si O2"
_cell_formula_units_Z 16
_cell_length_a 13.579357
_cell_length_b 14.276288
_cell_length_c 8.699360
_cell_angle_alpha 122.699660
_cell_angle_beta 44.840754
_cell_angle_gamma 148.189392
_cell_volume 617.968823
_symmetry_space_group_name_H-M "P -1"
_symmetry_group_IT_number 2
_symmetry_cell_setting 'triclinic'
loop_
_space_group_symop_operation_xyz
x,y,z
-x,-y,-z
loop_
_atom_site_type_symbol
_atom_site_label
_atom_site_fract_x
_atom_site_fract_y
_atom_site_fract_z
Si Si1 0.503472 0.914243 0.556031
Si Si2 0.714940 0.556279 0.529109
Si Si3 0.370853 0.509678 0.988207
Si Si4 0.833299 0.462397 0.537446
Si Si5 0.732945 0.422392 0.136628
Si Si6 0.936598 0.081152 0.082100
Si Si7 0.238231 0.806844 0.031593
Si Si8 0.965065 0.099068 0.699102
O O1 0.282920 0.702018 0.582813
O O2 0.452737 0.938913 0.795861
O O3 0.500000 0.000000 0.500000
O O4 0.729877 0.990037 0.336696
O O5 0.564189 0.538503 0.789255
O O6 0.898054 0.604461 0.475677
O O7 0.604216 0.387729 0.401086
O O8 0.801769 0.694123 0.423713
O O9 0.365428 0.574642 0.894657
O O10 0.365292 0.602596 0.203082
O O11 0.136564 0.295819 0.073066
O O12 0.000000 0.500000 0.500000
O O13 0.730215 0.288728 0.995338
O O14 0.994461 0.624631 0.056399
O O15 0.905974 0.057253 0.908541
O O16 0.000000 0.000000 0.000000
O O17 0.205365 0.917364 0.204101
O O18 0.000000 0.000000 0.500000
#
# Coordination Sequence:
#
# PCOD9108790 Si02
#       8
#     2   2   2   2   2   2   2   2
#     4  12  23  45  71  99 146 193 229 294 364 424
#     4  11  24  44  75  99 148 189 241 299 359 424
#     4  12  25  44  69 113 142 188 245 297 359 430
#     4  12  27  43  72 108 141 187 250 302 351 426
#     4  10  20  40  73 102 135 178 246 295 355 425
#     4  12  27  44  70 104 149 194 237 292 366 438
#     4  10  20  40  71  98 133 186 237 286 357 414
#     4  11  26  45  70 102 146 190 236 297 369 427
#
# _framework density 25.891273999999999
#
# number of rings (size 3 to 8) (size 9 to 14) (size 15 to 20)
#    0.000    0.750    5.000    3.000    7.000    0.000 
#    0.000    0.000    0.000    3.000    0.000    0.000 
#    0.000    0.000    0.000    0.000    0.000    0.000 
#
# Total GULP energy -89374.689866 kJ/mol
# GULP energy per Si atom -5585.918117 kJ/mol
# Density = 2.583234 g / cm^3
# Si number density = 25.891274 Si / 1000 Ang^3
#
#
#
# Elastic Constant Matrix: (Units=GPa)
#
#
# Indices 1 2 3 4 5 6 
#
# 1 140.4116 32.2456 16.6107 8.3624 -24.9401 -55.2122
# 2 32.2456 71.8891 22.3400 18.8824 -14.3400 -29.7138
# 3 16.6107 22.3400 157.0569 20.4147 -37.3833 -15.4960
# 4 8.3624 18.8824 20.4147 47.2810 -10.9143 -3.7763
# 5 -24.9401 -14.3400 -37.3833 -10.9143 52.0981 4.3620
# 6 -55.2122 -29.7138 -15.4960 -3.7763 4.3620 42.6960
#
#
#
# Elastic Compliance Matrix: (Units=1/GPa)
#
#
# Indices 1 2 3 4 5 6 
#
# 1 0.017489 0.004039 0.002360 -0.001699 0.008708 0.025244
# 2 0.004039 0.023459 0.000534 -0.007404 0.005504 0.020526
# 3 0.002360 0.000534 0.008413 -0.002348 0.006351 0.005620
# 4 -0.001699 -0.007404 -0.002348 0.025225 0.001259 -0.006099
# 5 0.008708 0.005504 0.006351 0.001259 0.028477 0.014598
# 6 0.025244 0.020526 0.005620 -0.006099 0.014598 0.070359
#
#
# Mechanical properties :
#
#
# Convention : Reuss Voigt Hill
#
# Bulk Modulus (GPa) = 15.81593 56.86113 36.33853
# Shear Modulus (GPa) = 27.68040 48.29242 37.98641
#
# Velocity S-wave (km/s) = 3.27326 4.32348 3.83450
# Velocity P-wave (km/s) = 4.51747 6.85073 5.80259
#
# Compressibility (1/GPa) = 0.06322738
#
# Stress axis : x y z
#
# Youngs Moduli (GPa) = 57.17732 42.62693 118.86328
#
# Poissons Ratio (x) = -0.17218 -0.28052
# Poissons Ratio (y) = -0.23095 -0.06342
# Poissons Ratio (z) = -0.13494 -0.02274
#
# Static dielectric constant tensor:
#      x y z
#    x 1.965390 0.019710 -0.033390 
#    y 0.019710 2.085580 0.050340 
#    z -0.033390 0.050340 2.084890 
# 
# From -- ./inp_files/313783.got.cif
#   From: 2010.05.17/outbox.cif.g08.bks.cpg/sg2_157_cif.got.tgz:313783.got - 2010.06.03 11:33:40.
