data_PCOD9108689
_publ_section_title
;
Structure prediction by ZEFSAII (Michael W. Deem and Ramdas Pophale) SiO2 
 PCOD9108689
Probable space group: P -1
;
_chemical_formula_sum "Si O2"
_cell_formula_units_Z 11
_cell_length_a 7.687522
_cell_length_b 8.971039
_cell_length_c 10.808164
_cell_angle_alpha 65.138950
_cell_angle_beta 43.936880
_cell_angle_gamma 84.602423
_cell_volume 442.739597
_symmetry_space_group_name_H-M "P -1"
_symmetry_group_IT_number 2
_symmetry_cell_setting 'triclinic'
loop_
_space_group_symop_operation_xyz
x,y,z
-x,-y,-z
loop_
_atom_site_type_symbol
_atom_site_label
_atom_site_fract_x
_atom_site_fract_y
_atom_site_fract_z
Si Si1 0.880562 0.363345 0.900779
Si Si2 0.140334 0.944296 0.666647
Si Si3 0.469343 0.718523 0.668467
Si Si4 0.540793 0.815111 0.028124
Si Si5 0.754765 0.453755 0.543664
Si Si6 0.000000 0.000000 0.000000
O O1 0.657334 0.298543 0.931911
O O2 0.111761 0.522663 0.667042
O O3 0.736243 0.395148 0.085846
O O4 0.973125 0.197585 0.937472
O O5 0.313617 0.818371 0.632112
O O6 0.299278 0.115714 0.447362
O O7 0.838118 0.844777 0.822172
O O8 0.108221 0.016026 0.795149
O O9 0.611398 0.597274 0.575996
O O10 0.460236 0.724247 0.235670
O O11 0.500000 0.000000 0.000000
O O12 0.000000 0.500000 0.500000
#
# Coordination Sequence:
#
# PCOD9108689 Si02
#       6
#     2   2   2   2   2   1
#     4  10  21  37  66  87 117 161 194 238 299 355
#     4  10  20  36  62  88 120 156 198 242 289 357
#     4  10  21  39  61  88 117 161 198 235 298 358
#     4  11  21  38  61  90 119 154 202 248 291 345
#     4  10  21  39  62  84 124 156 195 244 297 350
#     4  10  16  36  62  82 116 156 192 226 298 350
#
# _framework density 24.845305
#
# number of rings (size 3 to 8) (size 9 to 14) (size 15 to 20)
#    0.000    1.818    3.636    1.091    0.000    4.364 
#    0.000    5.455    0.000    0.000    0.000    0.000 
#    0.000    0.000    0.000    0.000    0.000    0.000 
#
# Total GULP energy -61312.429933 kJ/mol
# GULP energy per Si atom -5573.857267 kJ/mol
# Density = 2.478876 g / cm^3
# Si number density = 24.845305 Si / 1000 Ang^3
#
#
#
# Elastic Constant Matrix: (Units=GPa)
#
#
# Indices 1 2 3 4 5 6 
#
# 1 57.7008 17.6659 36.6478 -1.8675 -23.8075 -10.8953
# 2 17.6659 69.5729 36.1051 2.3635 -14.7785 -8.3244
# 3 36.6478 36.1051 177.8854 -17.3809 0.7412 -16.1422
# 4 -1.8675 2.3635 -17.3809 38.5448 -4.1802 8.6538
# 5 -23.8075 -14.7785 0.7412 -4.1802 38.1003 6.3681
# 6 -10.8953 -8.3244 -16.1422 8.6538 6.3681 28.3056
#
#
#
# Elastic Compliance Matrix: (Units=1/GPa)
#
#
# Indices 1 2 3 4 5 6 
#
# 1 0.028906 -0.000242 -0.005631 -0.000128 0.017401 0.003968
# 2 -0.000242 0.018053 -0.003670 -0.002672 0.006204 0.002544
# 3 -0.005631 -0.003670 0.007952 0.002621 -0.005082 0.001630
# 4 -0.000128 -0.002672 0.002621 0.029757 0.003645 -0.009258
# 5 0.017401 0.006204 -0.005082 0.003645 0.040805 -0.004670
# 6 0.003968 0.002544 0.001630 -0.009258 -0.004670 0.042415
#
#
# Mechanical properties :
#
#
# Convention : Reuss Voigt Hill
#
# Bulk Modulus (GPa) = 27.91461 53.99964 40.95712
# Shear Modulus (GPa) = 25.13627 35.30618 30.22122
#
# Velocity S-wave (km/s) = 3.18419 3.77376 3.49144
# Velocity P-wave (km/s) = 4.97780 6.38513 5.72487
#
# Compressibility (1/GPa) = 0.03582354
#
# Stress axis : x y z
#
# Youngs Moduli (GPa) = 34.59487 55.39364 125.75808
#
# Poissons Ratio (x) = 0.01342 0.70813
# Poissons Ratio (y) = 0.00838 0.46157
# Poissons Ratio (z) = 0.19480 0.20331
#
# Static dielectric constant tensor:
#      x y z
#    x 2.034850 0.037620 -0.005640 
#    y 0.037620 1.857850 -0.001330 
#    z -0.005640 -0.001330 2.018030 
# 
# From -- ./inp_files/152470.got.cif
#   From: 2010.05.17/outbox.cif.g08.bks.cpg/sg2_77_cif.got.tgz:152470.got - 2010.06.03 11:33:40.
