data_PCOD9108874
_publ_section_title
;
Structure prediction by ZEFSAII (Michael W. Deem and Ramdas Pophale) SiO2 
 PCOD9108874
Probable space group: P -1
;
_chemical_formula_sum "Si O2"
_cell_formula_units_Z 15
_cell_length_a 9.531886
_cell_length_b 9.117081
_cell_length_c 8.970873
_cell_angle_alpha 120.558356
_cell_angle_beta 102.171626
_cell_angle_gamma 52.494613
_cell_volume 526.966482
_symmetry_space_group_name_H-M "P -1"
_symmetry_group_IT_number 2
_symmetry_cell_setting 'triclinic'
loop_
_space_group_symop_operation_xyz
x,y,z
-x,-y,-z
loop_
_atom_site_type_symbol
_atom_site_label
_atom_site_fract_x
_atom_site_fract_y
_atom_site_fract_z
Si Si1 0.171766 0.032483 0.140660
Si Si2 0.500000 0.500000 0.500000
Si Si3 0.716129 0.015546 0.372853
Si Si4 0.690581 0.504213 0.743666
Si Si5 0.625005 0.433025 0.140451
Si Si6 0.165249 0.263917 0.977270
Si Si7 0.468321 0.126469 0.680544
Si Si8 0.019296 0.949690 0.327388
O O1 0.362407 0.960471 0.216567
O O2 0.043977 0.072751 0.268464
O O3 0.220942 0.812644 0.967462
O O4 0.109617 0.213776 0.101506
O O5 0.570381 0.252386 0.412550
O O6 0.715953 0.424874 0.540833
O O7 0.606076 0.007861 0.489939
O O8 0.887254 0.991691 0.479098
O O9 0.683225 0.844838 0.205967
O O10 0.494718 0.547882 0.734953
O O11 0.815905 0.301841 0.769836
O O12 0.701089 0.687293 0.886288
O O13 0.638460 0.624891 0.256916
O O14 0.500000 0.500000 0.000000
O O15 0.137443 0.079764 0.791786
O O16 0.000000 0.500000 0.000000
#
# Coordination Sequence:
#
# PCOD9108874 Si02
#       8
#     2   1   2   2   2   2   2   2
#     4  11  25  47  76 109 154 207 260 315 385 473
#     4  12  26  44  74 106 142 210 256 306 374 474
#     4  12  26  44  75 110 155 203 255 322 388 454
#     4  12  23  47  77 109 152 201 259 316 391 458
#     4  10  20  40  74 110 146 197 253 314 379 465
#     4  12  27  47  73 113 156 201 258 328 387 454
#     4  11  22  41  73 116 150 195 261 321 382 461
#     4  12  24  48  79 109 156 203 250 320 398 472
#
# _framework density 28.464808999999999
#
# number of rings (size 3 to 8) (size 9 to 14) (size 15 to 20)
#    0.000    0.533    5.333    4.800    0.000    2.133 
#    0.000    3.333    0.000    0.000    0.000    0.000 
#    0.000    0.000    0.000    0.000    0.000    0.000 
#
# Total GULP energy -83637.284933 kJ/mol
# GULP energy per Si atom -5575.818996 kJ/mol
# Density = 2.840002 g / cm^3
# Si number density = 28.464809 Si / 1000 Ang^3
#
#
#
# Elastic Constant Matrix: (Units=GPa)
#
#
# Indices 1 2 3 4 5 6 
#
# 1 270.7102 82.0460 70.2164 -4.6771 9.0778 46.8495
# 2 82.0460 182.1884 57.3031 -12.6215 -14.7437 45.8898
# 3 70.2164 57.3031 176.1609 8.4469 -3.3388 39.0896
# 4 -4.6771 -12.6215 8.4469 63.8239 -0.2558 1.7825
# 5 9.0778 -14.7437 -3.3388 -0.2558 57.1878 11.1352
# 6 46.8495 45.8898 39.0896 1.7825 11.1352 57.7242
#
#
#
# Elastic Compliance Matrix: (Units=1/GPa)
#
#
# Indices 1 2 3 4 5 6 
#
# 1 0.004743 -0.001373 -0.001050 0.000265 -0.000797 -0.001902
# 2 -0.001373 0.008166 -0.000922 0.001802 0.003339 -0.005453
# 3 -0.001050 -0.000922 0.007240 -0.001116 0.001024 -0.003481
# 4 0.000265 0.001802 -0.001116 0.016237 0.000729 -0.001534
# 5 -0.000797 0.003339 0.001024 0.000729 0.019811 -0.006546
# 6 -0.001902 -0.005453 -0.003481 -0.001534 -0.006546 0.026869
#
#
# Mechanical properties :
#
#
# Convention : Reuss Voigt Hill
#
# Bulk Modulus (GPa) = 74.29825 116.46560 95.38192
# Shear Modulus (GPa) = 53.05490 63.71344 58.38417
#
# Velocity S-wave (km/s) = 4.32195 4.73622 4.53382
# Velocity P-wave (km/s) = 7.14591 8.42102 7.80953
#
# Compressibility (1/GPa) = 0.01345927
#
# Stress axis : x y z
#
# Youngs Moduli (GPa) = 210.85067 122.46618 138.11395
#
# Poissons Ratio (x) = 0.16812 0.14498
# Poissons Ratio (y) = 0.28946 0.12736
# Poissons Ratio (z) = 0.22133 0.11293
#
# Static dielectric constant tensor:
#      x y z
#    x 2.371000 0.002490 -0.102940 
#    y 0.002490 2.002300 -0.123650 
#    z -0.102940 -0.123650 2.499050 
# 
# From -- ./inp_files/415101.got.cif
#   From: 2010.05.17/outbox.cif.g08.bks.cpg/sg2_208_cif.got.tgz:415101.got - 2010.06.03 11:33:40.
