data_PCOD9109714
_publ_section_title
;
Structure prediction by ZEFSAII (Michael W. Deem and Ramdas Pophale) SiO2 
 PCOD9109714
Probable space group: P -1
;
_chemical_formula_sum "Si O2"
_cell_formula_units_Z 14
_cell_length_a 10.986817
_cell_length_b 9.199693
_cell_length_c 10.890800
_cell_angle_alpha 102.447629
_cell_angle_beta 74.470678
_cell_angle_gamma 40.907110
_cell_volume 520.335912
_symmetry_space_group_name_H-M "P -1"
_symmetry_group_IT_number 2
_symmetry_cell_setting 'triclinic'
loop_
_space_group_symop_operation_xyz
x,y,z
-x,-y,-z
loop_
_atom_site_type_symbol
_atom_site_label
_atom_site_fract_x
_atom_site_fract_y
_atom_site_fract_z
Si Si1 0.995112 0.981562 0.143254
Si Si2 0.488360 0.377251 0.326235
Si Si3 0.367052 0.817505 0.348948
Si Si4 0.179490 0.550047 0.652772
Si Si5 0.384500 0.318739 0.964375
Si Si6 0.729164 0.852227 0.159519
Si Si7 0.027894 0.368215 0.692155
O O1 0.716301 0.223456 0.310425
O O2 0.028079 0.113767 0.204380
O O3 0.166812 0.667739 0.070317
O O4 0.000000 0.000000 0.000000
O O5 0.362251 0.643881 0.340801
O O6 0.308157 0.464578 0.475048
O O7 0.649506 0.085830 0.157373
O O8 0.611117 0.637144 0.327471
O O9 0.411598 0.795780 0.189533
O O10 0.126935 0.149088 0.526973
O O11 0.064275 0.503245 0.670428
O O12 0.436627 0.113170 0.835430
O O13 0.251471 0.383370 0.135021
O O14 0.765384 0.851353 0.292430
O O15 0.000000 0.500000 0.000000
#
# Coordination Sequence:
#
# PCOD9109714 Si02
#       7
#     2   2   2   2   2   2   2
#     4  11  17  25  31  40  46  51  61  68  74  81
#     4  11  19  26  32  38  46  53  63  67  74  84
#     4  11  19  26  34  40  46  55  61  68  76  80
#     4  11  19  25  33  38  46  55  59  69  75  81
#     4  11  19  25  35  39  48  55  60  69  75  81
#     4  10  17  23  32  38  46  54  58  67  74  80
#     4  11  19  27  31  42  48  52  63  67  74  84
#
# _framework density 26.905697
#
# number of rings (size 3 to 8) (size 9 to 14) (size 15 to 20)
#    0.000    1.143    8.571    3.857    2.000    0.000 
#    0.000    0.000    0.000    0.000    0.000    0.000 
#    0.000    0.000    0.000    0.000    0.000    0.000 
#
# Total GULP energy -78009.714005 kJ/mol
# GULP energy per Si atom -5572.122429 kJ/mol
# Density = 2.684446 g / cm^3
# Si number density = 26.905697 Si / 1000 Ang^3
#
#
#
# Elastic Constant Matrix: (Units=GPa)
#
#
# Indices 1 2 3 4 5 6 
#
# 1 65.5561 110.6186 52.9304 6.5314 -4.4485 9.0605
# 2 110.6186 149.3818 66.0803 -6.1234 -6.9907 69.6296
# 3 52.9304 66.0803 171.7804 -19.3336 -3.3424 25.5249
# 4 6.5314 -6.1234 -19.3336 34.1912 43.7615 0.8418
# 5 -4.4485 -6.9907 -3.3424 43.7615 -11.7144 8.3791
# 6 9.0605 69.6296 25.5249 0.8418 8.3791 61.4802
#
#
#
# Elastic Compliance Matrix: (Units=1/GPa)
#
#
# Indices 1 2 3 4 5 6 
#
# 1 -0.011540 0.016927 0.000263 0.005097 0.000566 -0.017726
# 2 0.016927 -0.009108 -0.003546 -0.002785 -0.003380 0.009792
# 3 0.000263 -0.003546 0.007092 0.000459 0.002225 0.000724
# 4 0.005097 -0.002785 0.000459 0.004989 0.018011 -0.000311
# 5 0.000566 -0.003380 0.002225 0.018011 -0.013732 0.004446
# 6 -0.017726 0.009792 0.000724 -0.000311 0.004446 0.006886
#
#
# Mechanical properties :
#
#
# Convention : Reuss Voigt Hill
#
# Bulk Modulus (GPa) = 72.82655 93.99744 83.41200
# Shear Modulus (GPa) = -131.15261 27.26399 -51.94431
#
# Velocity S-wave (km/s) = -6.98936 3.18672 -4.39863
# Velocity P-wave (km/s) = 6.16512 6.96792 2.29600
#
# Compressibility (1/GPa) = 0.01373126
#
# Stress axis : x y z
#
# Youngs Moduli (GPa) = -86.65642 -109.79186 141.00464
#
# Poissons Ratio (x) = 1.85844 -0.03707
# Poissons Ratio (y) = 1.46682 0.50002
# Poissons Ratio (z) = 0.02278 -0.38934
#
# Static dielectric constant tensor:
#      x y z
#    x 2.272250 -0.018360 0.091280 
#    y -0.018360 2.169190 0.024140 
#    z 0.091280 0.024140 2.336150 
# 
# From -- ./inp_files/527533.got.cif
#   From: 2010.05.17/outbox.cif.g08.bks.cpg/sg2_264_cif.got.tgz:527533.got - 2010.06.03 11:33:40.
