data_PCOD9109884
_publ_section_title
;
Structure prediction by ZEFSAII (Michael W. Deem and Ramdas Pophale) SiO2 
 PCOD9109884
Probable space group: P -1
;
_chemical_formula_sum "Si O2"
_cell_formula_units_Z 15
_cell_length_a 10.272972
_cell_length_b 10.181528
_cell_length_c 9.913381
_cell_angle_alpha 62.927020
_cell_angle_beta 77.694083
_cell_angle_gamma 38.969255
_cell_volume 562.016460
_symmetry_space_group_name_H-M "P -1"
_symmetry_group_IT_number 2
_symmetry_cell_setting 'triclinic'
loop_
_space_group_symop_operation_xyz
x,y,z
-x,-y,-z
loop_
_atom_site_type_symbol
_atom_site_label
_atom_site_fract_x
_atom_site_fract_y
_atom_site_fract_z
Si Si1 0.559984 0.707744 0.113325
Si Si2 0.187729 0.224814 0.433059
Si Si3 0.000000 0.000000 0.500000
Si Si4 0.436909 0.735046 0.663580
Si Si5 0.331822 0.092670 0.158821
Si Si6 0.238711 0.861910 0.921305
Si Si7 0.889115 0.378397 0.630199
Si Si8 0.023840 0.801505 0.850306
O O1 0.575111 0.837954 0.951841
O O2 0.363547 0.780751 0.069107
O O3 0.780426 0.438788 0.162797
O O4 0.512941 0.812348 0.223039
O O5 0.237999 0.188135 0.282519
O O6 0.143167 0.425886 0.403168
O O7 0.979707 0.309088 0.488906
O O8 0.382982 0.957904 0.572387
O O9 0.238323 0.832863 0.586361
O O10 0.926631 0.995943 0.669607
O O11 0.421056 0.703709 0.837642
O O12 0.658642 0.510337 0.647212
O O13 0.130077 0.199291 0.072744
O O14 0.110646 0.821817 0.945522
O O15 0.076922 0.132482 0.784562
#
# Coordination Sequence:
#
# PCOD9109884 Si02
#       8
#     2   2   1   2   2   2   2   2
#     4  11  26  46  71 103 143 195 235 292 358 415
#     4  10  21  41  66 105 140 180 240 288 350 428
#     4  10  22  44  68 104 142 168 242 284 356 422
#     4  10  20  41  68 102 140 181 223 298 349 417
#     4  11  25  45  70 105 142 184 246 289 353 431
#     4  10  24  44  69 107 139 181 250 282 351 439
#     4  10  22  39  71 102 141 184 230 295 359 408
#     4  11  24  47  71 100 144 188 232 303 350 427
#
# _framework density 26.689612
#
# number of rings (size 3 to 8) (size 9 to 14) (size 15 to 20)
#    0.000    1.600    1.333    2.000    0.000   10.133 
#    0.000    6.667    0.000    0.000    0.000    0.000 
#    0.000    0.000    0.000    0.000    0.000    0.000 
#
# Total GULP energy -83794.930767 kJ/mol
# GULP energy per Si atom -5586.328718 kJ/mol
# Density = 2.662887 g / cm^3
# Si number density = 26.689612 Si / 1000 Ang^3
#
#
#
# Elastic Constant Matrix: (Units=GPa)
#
#
# Indices 1 2 3 4 5 6 
#
# 1 97.7886 23.7888 18.3537 -1.8447 -14.7661 -23.9624
# 2 23.7888 181.0438 27.5894 12.0254 -3.8742 -6.3534
# 3 18.3537 27.5894 71.1126 21.0660 -3.7367 4.7346
# 4 -1.8447 12.0254 21.0660 49.8529 3.7458 -2.5786
# 5 -14.7661 -3.8742 -3.7367 3.7458 32.1561 6.2603
# 6 -23.9624 -6.3534 4.7346 -2.5786 6.2603 44.8603
#
#
#
# Elastic Compliance Matrix: (Units=1/GPa)
#
#
# Indices 1 2 3 4 5 6 
#
# 1 0.013662 -0.000993 -0.004177 0.002584 0.003967 0.007193
# 2 -0.000993 0.006006 -0.001910 -0.000656 0.000029 0.000480
# 3 -0.004177 -0.001910 0.018707 -0.008016 0.001974 -0.005212
# 4 0.002584 -0.000656 -0.008016 0.024164 -0.003417 0.003999
# 5 0.003967 0.000029 0.001974 -0.003417 0.034144 -0.003046
# 6 0.007193 0.000480 -0.005212 0.003999 -0.003046 0.027407
#
#
# Mechanical properties :
#
#
# Convention : Reuss Voigt Hill
#
# Bulk Modulus (GPa) = 41.29630 54.37877 47.83753
# Shear Modulus (GPa) = 34.17154 44.05472 39.11313
#
# Velocity S-wave (km/s) = 3.58205 4.06720 3.83231
# Velocity P-wave (km/s) = 5.71091 6.51728 6.12738
#
# Compressibility (1/GPa) = 0.02421524
#
# Stress axis : x y z
#
# Youngs Moduli (GPa) = 73.19616 166.49746 53.45669
#
# Poissons Ratio (x) = 0.16533 0.22327
# Poissons Ratio (y) = 0.07268 0.10211
# Poissons Ratio (z) = 0.30572 0.31803
#
# Static dielectric constant tensor:
#      x y z
#    x 2.185960 0.037210 -0.074800 
#    y 0.037210 2.131500 -0.002690 
#    z -0.074800 -0.002690 2.103360 
# 
# From -- ./inp_files/425453.got.cif
#   From: 2010.05.17/outbox.cif.g08.bks.cpg/sg2_213_cif.got.tgz:425453.got - 2010.06.03 11:33:40.
