data_PCOD9109969
_publ_section_title
;
Structure prediction by ZEFSAII (Michael W. Deem and Ramdas Pophale) SiO2 
 PCOD9109969
Probable space group: P -1
;
_chemical_formula_sum "Si O2"
_cell_formula_units_Z 16
_cell_length_a 14.376685
_cell_length_b 9.720824
_cell_length_c 12.246952
_cell_angle_alpha 72.977078
_cell_angle_beta 148.837039
_cell_angle_gamma 96.028509
_cell_volume 809.444233
_symmetry_space_group_name_H-M "P -1"
_symmetry_group_IT_number 2
_symmetry_cell_setting 'triclinic'
loop_
_space_group_symop_operation_xyz
x,y,z
-x,-y,-z
loop_
_atom_site_type_symbol
_atom_site_label
_atom_site_fract_x
_atom_site_fract_y
_atom_site_fract_z
Si Si1 0.343791 0.815091 0.298114
Si Si2 0.653402 0.153462 0.459543
Si Si3 0.609507 0.826654 0.163158
Si Si4 0.618180 0.329946 0.171008
Si Si5 0.042935 0.320810 0.608364
Si Si6 0.667224 0.829179 0.472640
Si Si7 0.082269 0.158488 0.914044
Si Si8 0.989917 0.331089 0.006675
O O1 0.419346 0.812552 0.498563
O O2 0.518350 0.768035 0.402916
O O3 0.209077 0.706944 0.179029
O O4 0.224650 0.990312 0.112163
O O5 0.578388 0.279048 0.263931
O O6 0.876748 0.132371 0.701391
O O7 0.615423 0.005957 0.406642
O O8 0.796615 0.769250 0.291936
O O9 0.658847 0.795219 0.345751
O O10 0.461444 0.749754 0.985123
O O11 0.500000 0.000000 0.000000
O O12 0.840987 0.295079 0.393136
O O13 0.500000 0.500000 0.000000
O O14 0.107212 0.253675 0.810076
O O15 0.000000 0.500000 0.500000
O O16 0.874702 0.763526 0.743038
O O17 0.073274 0.260264 0.989424
O O18 0.000000 0.500000 0.000000
#
# Coordination Sequence:
#
# PCOD9109969 Si02
#       8
#     2   2   2   2   2   2   2   2
#     4  11  22  42  70  98 122 171 224 263 327 397
#     4  10  20  41  68  96 128 167 224 274 317 399
#     4  12  26  43  64  99 138 172 222 279 328 391
#     4  11  24  44  68  99 134 176 224 276 330 397
#     4  11  25  44  71 100 130 182 228 269 337 399
#     4  12  24  40  67  98 130 169 218 268 330 390
#     4  10  21  42  70  96 124 169 227 267 320 402
#     4  11  25  42  64  97 137 164 206 280 336 378
#
# _framework density 19.766648
#
# number of rings (size 3 to 8) (size 9 to 14) (size 15 to 20)
#    0.000    1.000    5.000    1.875    1.750    3.000 
#    0.000    0.000    0.000    0.000    0.000    0.000 
#    0.000    0.000    0.000    0.000    0.000    0.000 
#
# Total GULP energy -89360.557179 kJ/mol
# GULP energy per Si atom -5585.034824 kJ/mol
# Density = 1.972166 g / cm^3
# Si number density = 19.766648 Si / 1000 Ang^3
#
#
#
# Elastic Constant Matrix: (Units=GPa)
#
#
# Indices 1 2 3 4 5 6 
#
# 1 125.3359 25.5627 38.4316 18.1465 -24.1277 -2.9856
# 2 25.5627 128.4535 34.4221 8.5524 -10.6301 -2.6013
# 3 38.4316 34.4221 87.1214 19.2061 -27.6821 -3.9171
# 4 18.1465 8.5524 19.2061 32.9502 -4.8984 -6.9657
# 5 -24.1277 -10.6301 -27.6821 -4.8984 43.1312 0.6676
# 6 -2.9856 -2.6013 -3.9171 -6.9657 0.6676 24.7289
#
#
#
# Elastic Compliance Matrix: (Units=1/GPa)
#
#
# Indices 1 2 3 4 5 6 
#
# 1 0.010023 -0.000888 -0.002153 -0.003567 0.003606 -0.000327
# 2 -0.000888 0.008790 -0.003209 0.000094 -0.000384 0.000346
# 3 -0.002153 -0.003209 0.018078 -0.007213 0.008789 -0.000003
# 4 -0.003567 0.000094 -0.007213 0.038085 -0.002419 0.009230
# 5 0.003606 -0.000384 0.008789 -0.002419 0.030469 0.000283
# 6 -0.000327 0.000346 -0.000003 0.009230 0.000283 0.043027
#
#
# Mechanical properties :
#
#
# Convention : Reuss Voigt Hill
#
# Bulk Modulus (GPa) = 40.99719 59.74929 50.37324
# Shear Modulus (GPa) = 29.56788 36.32837 32.94813
#
# Velocity S-wave (km/s) = 3.87181 4.29168 4.08714
# Velocity P-wave (km/s) = 6.38542 7.40614 6.91464
#
# Compressibility (1/GPa) = 0.02439192
#
# Stress axis : x y z
#
# Youngs Moduli (GPa) = 99.77317 113.75976 55.31548
#
# Poissons Ratio (x) = 0.10106 0.11908
# Poissons Ratio (y) = 0.08863 0.17748
# Poissons Ratio (z) = 0.21479 0.36501
#
# Static dielectric constant tensor:
#      x y z
#    x 1.703250 0.044410 0.015540 
#    y 0.044410 1.705810 0.002340 
#    z 0.015540 0.002340 1.690820 
# 
# From -- ./inp_files/246060.got.cif
#   From: 2010.05.17/outbox.cif.g08.bks.cpg/sg2_124_cif.got.tgz:246060.got - 2010.06.03 11:33:40.
