data_PCOD9109135
_publ_section_title
;
Structure prediction by ZEFSAII (Michael W. Deem and Ramdas Pophale) SiO2 
 PCOD9109135
Probable space group: P -1
;
_chemical_formula_sum "Si O2"
_cell_formula_units_Z 16
_cell_length_a 7.928906
_cell_length_b 11.625883
_cell_length_c 10.939863
_cell_angle_alpha 93.201129
_cell_angle_beta 115.455609
_cell_angle_gamma 130.606195
_cell_volume 602.781299
_symmetry_space_group_name_H-M "P -1"
_symmetry_group_IT_number 2
_symmetry_cell_setting 'triclinic'
loop_
_space_group_symop_operation_xyz
x,y,z
-x,-y,-z
loop_
_atom_site_type_symbol
_atom_site_label
_atom_site_fract_x
_atom_site_fract_y
_atom_site_fract_z
Si Si1 0.867336 0.098607 0.356964
Si Si2 0.265643 0.486080 0.468869
Si Si3 0.663552 0.237402 0.946992
Si Si4 0.166370 0.007214 0.411699
Si Si5 0.804100 0.689028 0.139842
Si Si6 0.405730 0.192512 0.260700
Si Si7 0.902983 0.108053 0.010829
Si Si8 0.059723 0.574497 0.215637
O O1 0.728546 0.013640 0.440697
O O2 0.991522 0.282285 0.395360
O O3 0.645852 0.956629 0.177658
O O4 0.115274 0.117194 0.434807
O O5 0.500000 0.500000 0.500000
O O6 0.358804 0.603652 0.624318
O O7 0.206495 0.553020 0.349975
O O8 0.840322 0.206789 0.040928
O O9 0.770390 0.330098 0.852553
O O10 0.754281 0.380427 0.072811
O O11 0.861856 0.814837 0.264047
O O12 0.371313 0.099325 0.365488
O O13 0.993789 0.671245 0.246954
O O14 0.931407 0.794041 0.059161
O O15 0.500000 0.500000 0.000000
O O16 0.370237 0.092357 0.127246
O O17 0.117712 0.134938 0.159814
#
# Coordination Sequence:
#
# PCOD9109135 Si02
#       8
#     2   2   2   2   2   2   2   2
#     4  11  24  39  62  94 122 165 212 256 313 364
#     4  12  24  40  63  92 129 165 208 262 311 367
#     4  10  21  41  63  89 128 157 209 261 308 378
#     4  10  22  40  61  89 120 167 208 248 309 372
#     4  10  21  40  65  93 126 163 205 260 308 371
#     4  10  20  41  63  89 123 166 209 249 312 379
#     4   9  21  39  65  91 120 168 206 250 319 370
#     4  10  23  41  65  97 121 168 206 255 318 371
#
# _framework density 26.543626
#
# number of rings (size 3 to 8) (size 9 to 14) (size 15 to 20)
#    0.000    1.750    1.250    2.250    3.500    1.500 
#    6.750    5.000    0.000    0.000    0.000    0.000 
#    0.000    0.000    0.000    0.000    0.000    0.000 
#
# Total GULP energy -89600.832717 kJ/mol
# GULP energy per Si atom -5600.052045 kJ/mol
# Density = 2.648321 g / cm^3
# Si number density = 26.543626 Si / 1000 Ang^3
#
#
#
# Elastic Constant Matrix: (Units=GPa)
#
#
# Indices 1 2 3 4 5 6 
#
# 1 48.3815 28.9894 10.3640 -9.7649 5.3444 -29.6800
# 2 28.9894 156.7284 55.1056 8.3003 5.2185 -20.2704
# 3 10.3640 55.1056 120.0702 24.3280 -0.7704 -12.9751
# 4 -9.7649 8.3003 24.3280 72.7099 -12.3034 2.7673
# 5 5.3444 5.2185 -0.7704 -12.3034 33.8195 3.3201
# 6 -29.6800 -20.2704 -12.9751 2.7673 3.3201 46.2131
#
#
#
# Elastic Compliance Matrix: (Units=1/GPa)
#
#
# Indices 1 2 3 4 5 6 
#
# 1 0.039056 -0.004280 0.000365 0.003615 -0.006501 0.023559
# 2 -0.004280 0.008435 -0.003382 -0.000565 -0.000918 0.000101
# 3 0.000365 -0.003382 0.010743 -0.003356 -0.000710 0.002019
# 4 0.003615 -0.000565 -0.003356 0.016351 0.005411 -0.000236
# 5 -0.006501 -0.000918 -0.000710 0.005411 0.033427 -0.007503
# 6 0.023559 0.000101 0.002019 -0.000236 -0.007503 0.037934
#
#
# Mechanical properties :
#
#
# Convention : Reuss Voigt Hill
#
# Bulk Modulus (GPa) = 22.91561 57.12203 40.01882
# Shear Modulus (GPa) = 28.55744 45.92991 37.24367
#
# Velocity S-wave (km/s) = 3.28360 4.16427 3.74988
# Velocity P-wave (km/s) = 4.79875 6.68493 5.81877
#
# Compressibility (1/GPa) = 0.04363837
#
# Stress axis : x y z
#
# Youngs Moduli (GPa) = 25.60450 118.55525 93.08496
#
# Poissons Ratio (x) = 0.50745 -0.03397
# Poissons Ratio (y) = 0.10960 0.31483
# Poissons Ratio (z) = -0.00934 0.40097
#
# Static dielectric constant tensor:
#      x y z
#    x 2.071050 0.077060 0.006650 
#    y 0.077060 2.067120 0.029850 
#    z 0.006650 0.029850 2.096270 
# 
# From -- ./inp_files/392632.got.cif
#   From: 2010.05.17/outbox.cif.g08.bks.cpg/sg2_197_cif.got.tgz:392632.got - 2010.06.03 11:33:40.
