data_PCOD9109040
_publ_section_title
;
Structure prediction by ZEFSAII (Michael W. Deem and Ramdas Pophale) SiO2 
 PCOD9109040
Probable space group: P -1
;
_chemical_formula_sum "Si O2"
_cell_formula_units_Z 14
_cell_length_a 7.233969
_cell_length_b 17.153231
_cell_length_c 21.377155
_cell_angle_alpha 17.590764
_cell_angle_beta 59.749014
_cell_angle_gamma 54.178253
_cell_volume 633.975016
_symmetry_space_group_name_H-M "P -1"
_symmetry_group_IT_number 2
_symmetry_cell_setting 'triclinic'
loop_
_space_group_symop_operation_xyz
x,y,z
-x,-y,-z
loop_
_atom_site_type_symbol
_atom_site_label
_atom_site_fract_x
_atom_site_fract_y
_atom_site_fract_z
Si Si1 0.840072 0.364643 0.331838
Si Si2 0.830653 0.439534 0.803984
Si Si3 0.471925 0.005022 0.108226
Si Si4 0.206590 0.921084 0.105491
Si Si5 0.734261 0.669544 0.437868
Si Si6 0.496943 0.079819 0.599145
Si Si7 0.325402 0.246459 0.296407
O O1 0.718471 0.149966 0.527859
O O2 0.952265 0.461305 0.298929
O O3 0.070985 0.232261 0.350752
O O4 0.657127 0.663163 0.107536
O O5 0.651811 0.663613 0.617671
O O6 0.726676 0.477729 0.862848
O O7 0.933509 0.126826 0.997317
O O8 0.287076 0.933586 0.153391
O O9 0.571674 0.810676 0.299146
O O10 0.675086 0.956129 0.060145
O O11 0.303307 0.594119 0.324264
O O12 0.664056 0.895636 0.332420
O O13 0.000000 0.500000 0.500000
O O14 0.576805 0.807120 0.749209
O O15 0.500000 0.000000 0.500000
#
# Coordination Sequence:
#
# PCOD9109040 Si02
#       7
#     2   2   2   2   2   2   2
#     4   9  18  35  61  87 116 156 200 242 298 351
#     4   8  19  33  60  88 113 156 200 243 289 356
#     4  10  21  39  59  88 120 156 206 239 295 365
#     4  10  20  41  62  81 122 161 194 249 300 346
#     4  12  26  36  56  96 122 157 200 244 301 360
#     4  11  19  36  60  88 123 153 198 251 295 351
#     4   8  17  35  58  92 114 149 207 242 293 364
#
# _framework density 22.082889000000002
#
# number of rings (size 3 to 8) (size 9 to 14) (size 15 to 20)
#    0.857    1.429    1.429    1.714    2.000    1.143 
#    2.571    0.714    0.000    0.857    0.000    0.000 
#    0.000    0.000    0.000    0.000    0.000    0.000 
#
# Total GULP energy -77951.135819 kJ/mol
# GULP energy per Si atom -5567.938273 kJ/mol
# Density = 2.203263 g / cm^3
# Si number density = 22.082889 Si / 1000 Ang^3
#
#
#
# Elastic Constant Matrix: (Units=GPa)
#
#
# Indices 1 2 3 4 5 6 
#
# 1 51.4979 15.6587 12.1091 -2.3252 12.3616 8.3087
# 2 15.6587 149.5431 21.1483 -13.3750 19.1814 2.0912
# 3 12.1091 21.1483 39.3722 -13.5602 0.9721 0.1645
# 4 -2.3252 -13.3750 -13.5602 26.2401 -1.1422 8.0144
# 5 12.3616 19.1814 0.9721 -1.1422 20.3389 -4.1458
# 6 8.3087 2.0912 0.1645 8.0144 -4.1458 27.5859
#
#
#
# Elastic Compliance Matrix: (Units=1/GPa)
#
#
# Indices 1 2 3 4 5 6 
#
# 1 0.027704 0.001080 -0.008005 0.001618 -0.019793 -0.011823
# 2 0.001080 0.008576 -0.003598 0.003205 -0.009054 -0.003246
# 3 -0.008005 -0.003598 0.035251 0.016352 0.007250 -0.001187
# 4 0.001618 0.003205 0.016352 0.053335 -0.005282 -0.017117
# 5 -0.019793 -0.009054 0.007250 -0.005282 0.072988 0.019108
# 6 -0.011823 -0.003246 -0.001187 -0.017117 0.019108 0.047909
#
#
# Mechanical properties :
#
#
# Convention : Reuss Voigt Hill
#
# Bulk Modulus (GPa) = 19.80787 37.58282 28.69535
# Shear Modulus (GPa) = 17.62817 27.59944 22.61380
#
# Velocity S-wave (km/s) = 2.82844 3.53910 3.20354
# Velocity P-wave (km/s) = 4.43351 5.81001 5.16780
#
# Compressibility (1/GPa) = 0.05048498
#
# Stress axis : x y z
#
# Youngs Moduli (GPa) = 36.09590 116.60258 28.36808
#
# Poissons Ratio (x) = -0.12594 0.22710
# Poissons Ratio (y) = -0.03899 0.10206
# Poissons Ratio (z) = 0.28896 0.41951
#
# Static dielectric constant tensor:
#      x y z
#    x 1.902160 -0.031690 -0.071710 
#    y -0.031690 1.873790 -0.021360 
#    z -0.071710 -0.021360 1.833700 
# 
# From -- ./inp_files/305520.got.cif
#   From: 2010.05.17/outbox.cif.g08.bks.cpg/sg2_153_cif.got.tgz:305520.got - 2010.06.03 11:33:40.
