data_PCOD9109935
_publ_section_title
;
Structure prediction by ZEFSAII (Michael W. Deem and Ramdas Pophale) SiO2 
 PCOD9109935
Probable space group: P -1
;
_chemical_formula_sum "Si O2"
_cell_formula_units_Z 14
_cell_length_a 18.618647
_cell_length_b 12.572399
_cell_length_c 11.671188
_cell_angle_alpha 36.722398
_cell_angle_beta 29.914238
_cell_angle_gamma 27.630993
_cell_volume 625.162711
_symmetry_space_group_name_H-M "P -1"
_symmetry_group_IT_number 2
_symmetry_cell_setting 'triclinic'
loop_
_space_group_symop_operation_xyz
x,y,z
-x,-y,-z
loop_
_atom_site_type_symbol
_atom_site_label
_atom_site_fract_x
_atom_site_fract_y
_atom_site_fract_z
Si Si1 0.798556 0.507309 0.232248
Si Si2 0.683419 0.954698 0.733085
Si Si3 0.419900 0.659605 0.641900
Si Si4 0.735309 0.939895 0.319837
Si Si5 0.131055 0.063883 0.278712
Si Si6 0.161443 0.528834 0.065603
Si Si7 0.400021 0.995585 0.807370
O O1 0.645326 0.469552 0.489824
O O2 0.837948 0.494871 0.053584
O O3 0.683389 0.761491 0.226849
O O4 0.987736 0.323020 0.199295
O O5 0.809276 0.934055 0.678411
O O6 0.632710 0.154917 0.545393
O O7 0.792489 0.700677 0.748189
O O8 0.500000 0.000000 0.000000
O O9 0.315282 0.557060 0.856114
O O10 0.346755 0.814801 0.723667
O O11 0.688886 0.966315 0.226627
O O12 0.617514 0.868277 0.598237
O O13 0.956223 0.753738 0.192518
O O14 0.321171 0.907372 0.075843
O O15 0.000000 0.000000 0.500000
#
# Coordination Sequence:
#
# PCOD9109935 Si02
#       7
#     2   2   2   2   2   2   2
#     4  11  21  42  68  98 127 177 233 276 337 395
#     4  12  25  42  67 105 138 172 226 291 341 393
#     4  11  25  43  65 102 138 178 227 279 339 410
#     4  10  22  40  66  96 134 184 224 265 341 422
#     4  12  24  39  70 107 130 166 232 292 331 393
#     4  12  22  41  72  94 137 182 225 277 345 400
#     4  10  20  41  68  93 132 175 225 279 335 402
#
# _framework density 22.394169999999999
#
# number of rings (size 3 to 8) (size 9 to 14) (size 15 to 20)
#    0.000    0.857    4.286    3.857    2.000    0.571 
#    0.000    0.000    3.143    3.429    0.000    0.000 
#    0.000    0.000    0.000    0.000    0.000    0.000 
#
# Total GULP energy -78307.251807 kJ/mol
# GULP energy per Si atom -5593.375129 kJ/mol
# Density = 2.234320 g / cm^3
# Si number density = 22.394170 Si / 1000 Ang^3
#
#
#
# Elastic Constant Matrix: (Units=GPa)
#
#
# Indices 1 2 3 4 5 6 
#
# 1 129.5271 16.4450 47.6103 -3.6978 -20.4599 -2.4630
# 2 16.4450 47.9568 17.1494 6.6459 -1.8327 -0.3719
# 3 47.6103 17.1494 108.0842 -6.4948 -19.0878 7.2172
# 4 -3.6978 6.6459 -6.4948 38.7737 2.4658 -4.3449
# 5 -20.4599 -1.8327 -19.0878 2.4658 40.8132 3.5427
# 6 -2.4630 -0.3719 7.2172 -4.3449 3.5427 35.3434
#
#
#
# Elastic Compliance Matrix: (Units=1/GPa)
#
#
# Indices 1 2 3 4 5 6 
#
# 1 0.009784 -0.002074 -0.003481 0.000640 0.003046 0.001144
# 2 -0.002074 0.023346 -0.003320 -0.004635 -0.001294 0.000339
# 3 -0.003481 -0.003320 0.012326 0.001711 0.004026 -0.002988
# 4 0.000640 -0.004635 0.001711 0.027345 -0.001009 0.003109
# 5 0.003046 -0.001294 0.004026 -0.001009 0.028225 -0.003577
# 6 0.001144 0.000339 -0.002988 0.003109 -0.003577 0.029728
#
#
# Mechanical properties :
#
#
# Convention : Reuss Voigt Hill
#
# Bulk Modulus (GPa) = 36.09351 49.77531 42.93441
# Shear Modulus (GPa) = 31.69770 36.61028 34.15399
#
# Velocity S-wave (km/s) = 3.76632 4.04767 3.90953
# Velocity P-wave (km/s) = 5.92165 6.64229 6.29229
#
# Compressibility (1/GPa) = 0.02770581
#
# Stress axis : x y z
#
# Youngs Moduli (GPa) = 102.20439 42.83363 81.13209
#
# Poissons Ratio (x) = 0.08883 0.28241
# Poissons Ratio (y) = 0.21195 0.26939
# Poissons Ratio (z) = 0.35577 0.14222
#
# Static dielectric constant tensor:
#      x y z
#    x 1.825050 0.000110 -0.024440 
#    y 0.000110 1.894320 -0.077520 
#    z -0.024440 -0.077520 1.934880 
# 
# From -- ./inp_files/174130.got.cif
#   From: 2010.05.17/outbox.cif.g08.bks.cpg/sg2_88_cif.got.tgz:174130.got - 2010.06.03 11:33:40.
