data_PCOD9109343
_publ_section_title
;
Structure prediction by ZEFSAII (Michael W. Deem and Ramdas Pophale) SiO2 
 PCOD9109343
Probable space group: P -1
;
_chemical_formula_sum "Si O2"
_cell_formula_units_Z 15
_cell_length_a 8.632419
_cell_length_b 13.868405
_cell_length_c 10.892417
_cell_angle_alpha 53.121960
_cell_angle_beta 75.578735
_cell_angle_gamma 41.468679
_cell_volume 639.292638
_symmetry_space_group_name_H-M "P -1"
_symmetry_group_IT_number 2
_symmetry_cell_setting 'triclinic'
loop_
_space_group_symop_operation_xyz
x,y,z
-x,-y,-z
loop_
_atom_site_type_symbol
_atom_site_label
_atom_site_fract_x
_atom_site_fract_y
_atom_site_fract_z
Si Si1 0.280898 0.207184 0.534239
Si Si2 0.260611 0.863625 0.126603
Si Si3 0.523816 0.923034 0.921201
Si Si4 0.500000 0.500000 0.500000
Si Si5 0.735614 0.508370 0.662071
Si Si6 0.178077 0.064781 0.494146
Si Si7 0.983321 0.784681 0.966829
Si Si8 0.255298 0.758911 0.744712
O O1 0.183322 0.398933 0.424943
O O2 0.114336 0.216532 0.474514
O O3 0.345164 0.094942 0.728967
O O4 0.554158 0.066018 0.522687
O O5 0.376475 0.674262 0.298969
O O6 0.187654 0.996098 0.151916
O O7 0.450433 0.827853 0.029075
O O8 0.000000 0.000000 0.000000
O O9 0.814490 0.781479 0.936739
O O10 0.500000 0.000000 0.000000
O O11 0.642964 0.522197 0.537165
O O12 0.496217 0.630479 0.707902
O O13 0.943043 0.306921 0.844078
O O14 0.968656 0.155744 0.366021
O O15 0.204947 0.925489 0.672105
O O16 0.226580 0.684717 0.919632
#
# Coordination Sequence:
#
# PCOD9109343 Si02
#       8
#     2   2   2   1   2   2   2   2
#     4  10  20  41  64  97 135 177 224 283 337 415
#     4  11  25  46  69 101 133 181 231 282 349 409
#     4  10  22  41  65  91 134 175 221 276 343 402
#     4  12  26  46  72 102 136 176 240 288 336 424
#     4  11  24  42  66 101 141 179 236 278 342 413
#     4   9  20  36  67  98 129 175 229 277 347 397
#     4  11  22  45  65  97 139 181 224 290 345 404
#     4  10  21  39  68 100 132 180 226 289 335 408
#
# _framework density 23.463432000000001
#
# number of rings (size 3 to 8) (size 9 to 14) (size 15 to 20)
#    0.000    1.600    2.667    2.000    5.600    0.000 
#    4.800    2.667    0.000    0.000    0.000    0.000 
#    0.000    0.000    0.000    0.000    0.000    0.000 
#
# Total GULP energy -83592.414512 kJ/mol
# GULP energy per Si atom -5572.827634 kJ/mol
# Density = 2.341003 g / cm^3
# Si number density = 23.463432 Si / 1000 Ang^3
#
#
#
# Elastic Constant Matrix: (Units=GPa)
#
#
# Indices 1 2 3 4 5 6 
#
# 1 129.4416 28.2734 57.0171 -0.4807 -31.5679 19.3830
# 2 28.2734 47.2559 15.5358 8.1829 -26.2596 -4.8995
# 3 57.0171 15.5358 159.2161 -1.8674 -17.2936 3.8504
# 4 -0.4807 8.1829 -1.8674 24.5728 4.4864 -8.6028
# 5 -31.5679 -26.2596 -17.2936 4.4864 32.1217 9.9559
# 6 19.3830 -4.8995 3.8504 -8.6028 9.9559 37.9095
#
#
#
# Elastic Compliance Matrix: (Units=1/GPa)
#
#
# Indices 1 2 3 4 5 6 
#
# 1 0.017420 0.007287 -0.003539 -0.014046 0.028825 -0.018363
# 2 0.007287 0.059465 -0.000946 -0.040163 0.067976 -0.022911
# 3 -0.003539 -0.000946 0.007527 0.001499 -0.000870 0.001491
# 4 -0.014046 -0.040163 0.001499 0.079762 -0.068747 0.037994
# 5 0.028825 0.067976 -0.000870 -0.068747 0.142409 -0.058865
# 6 -0.018363 -0.022911 0.001491 0.037994 -0.058865 0.056737
#
#
# Mechanical properties :
#
#
# Convention : Reuss Voigt Hill
#
# Bulk Modulus (GPa) = 11.10897 59.72958 35.41927
# Shear Modulus (GPa) = 12.89588 34.59327 23.74458
#
# Velocity S-wave (km/s) = 2.34693 3.84389 3.18462
# Velocity P-wave (km/s) = 3.47692 6.72401 5.35263
#
# Compressibility (1/GPa) = 0.09001737
#
# Stress axis : x y z
#
# Youngs Moduli (GPa) = 57.40481 16.81661 132.84710
#
# Poissons Ratio (x) = -0.12255 0.47017
# Poissons Ratio (y) = -0.41832 0.12563
# Poissons Ratio (z) = 0.20316 0.01590
#
# Static dielectric constant tensor:
#      x y z
#    x 1.911220 -0.070060 -0.021710 
#    y -0.070060 1.982830 0.013070 
#    z -0.021710 0.013070 1.845500 
# 
# From -- ./inp_files/204091.got.cif
#   From: 2010.05.17/outbox.cif.g08.bks.cpg/sg2_103_cif.got.tgz:204091.got - 2010.06.03 11:33:40.
