data_PCOD9109371
_publ_section_title
;
Structure prediction by ZEFSAII (Michael W. Deem and Ramdas Pophale) SiO2 
 PCOD9109371
Probable space group: P -1
;
_chemical_formula_sum "Si O2"
_cell_formula_units_Z 10
_cell_length_a 9.282504
_cell_length_b 9.700653
_cell_length_c 13.160579
_cell_angle_alpha 34.720330
_cell_angle_beta 34.529642
_cell_angle_gamma 42.176737
_cell_volume 375.022050
_symmetry_space_group_name_H-M "P -1"
_symmetry_group_IT_number 2
_symmetry_cell_setting 'triclinic'
loop_
_space_group_symop_operation_xyz
x,y,z
-x,-y,-z
loop_
_atom_site_type_symbol
_atom_site_label
_atom_site_fract_x
_atom_site_fract_y
_atom_site_fract_z
Si Si1 0.683308 0.661804 0.524605
Si Si2 0.234573 0.990578 0.292046
Si Si3 0.765168 0.766243 0.199931
Si Si4 0.583985 0.325776 0.960690
Si Si5 0.881128 0.115358 0.236991
O O1 0.803262 0.608064 0.375812
O O2 0.722369 0.463528 0.712369
O O3 0.369647 0.738022 0.647040
O O4 0.774742 0.902121 0.369268
O O5 0.113436 0.994398 0.249375
O O6 0.485715 0.779905 0.299997
O O7 0.347752 0.237083 0.094882
O O8 0.000000 0.000000 0.500000
O O9 0.993341 0.720903 0.013864
O O10 0.738250 0.058004 0.068968
O O11 0.500000 0.500000 0.000000
#
# Coordination Sequence:
#
# PCOD9109371 Si02
#       5
#     2   2   2   2   2
#     4  11  22  40  64  90 124 161 199 250 303 356
#     4  10  20  41  65  86 124 163 199 249 305 355
#     4  10  23  41  64  89 122 162 204 246 301 362
#     4  10  22  39  63  93 120 160 204 246 307 357
#     4  11  21  40  65  89 124 162 200 249 304 358
#
# _framework density 26.665095999999998
#
# number of rings (size 3 to 8) (size 9 to 14) (size 15 to 20)
#    1.200    0.400    2.000    4.800    0.000    1.600 
#    0.000    5.000    0.000    0.000    0.000    0.000 
#    0.000    0.000    0.000    0.000    0.000    0.000 
#
# Total GULP energy -56042.792847 kJ/mol
# GULP energy per Si atom -5604.279285 kJ/mol
# Density = 2.660440 g / cm^3
# Si number density = 26.665096 Si / 1000 Ang^3
#
#
#
# Elastic Constant Matrix: (Units=GPa)
#
#
# Indices 1 2 3 4 5 6 
#
# 1 170.2638 23.6239 69.0238 1.5691 11.2607 -23.2065
# 2 23.6239 65.5691 12.9465 -1.4677 0.5945 -15.0161
# 3 69.0238 12.9465 205.1825 15.4741 21.8561 -4.9587
# 4 1.5691 -1.4677 15.4741 40.4327 -10.4334 3.3222
# 5 11.2607 0.5945 21.8561 -10.4334 50.3937 1.7233
# 6 -23.2065 -15.0161 -4.9587 3.3222 1.7233 34.5396
#
#
#
# Elastic Compliance Matrix: (Units=1/GPa)
#
#
# Indices 1 2 3 4 5 6 
#
# 1 0.007619 -0.001310 -0.002284 -0.000039 -0.000851 0.004268
# 2 -0.001310 0.017333 -0.000545 0.000400 0.000184 0.006530
# 3 -0.002284 -0.000545 0.006184 -0.002974 -0.002765 -0.000459
# 4 -0.000039 0.000400 -0.002974 0.028021 0.007209 -0.003335
# 5 -0.000851 0.000184 -0.002765 0.007209 0.022817 -0.002720
# 6 0.004268 0.006530 -0.000459 -0.003335 -0.002720 0.035049
#
#
# Mechanical properties :
#
#
# Convention : Reuss Voigt Hill
#
# Bulk Modulus (GPa) = 43.74579 72.46711 58.10645
# Shear Modulus (GPa) = 37.61657 47.43460 42.52558
#
# Velocity S-wave (km/s) = 3.76001 4.22228 3.99783
# Velocity P-wave (km/s) = 5.94066 7.14185 6.56877
#
# Compressibility (1/GPa) = 0.02285934
#
# Stress axis : x y z
#
# Youngs Moduli (GPa) = 131.24842 57.69238 161.70621
#
# Poissons Ratio (x) = 0.07557 0.36929
# Poissons Ratio (y) = 0.17193 0.08812
# Poissons Ratio (z) = 0.29973 0.03144
#
# Static dielectric constant tensor:
#      x y z
#    x 2.071870 -0.069080 -0.041780 
#    y -0.069080 2.118530 0.004310 
#    z -0.041780 0.004310 2.049040 
# 
# From -- ./inp_files/147487.got.cif
#   From: 2010.05.17/outbox.cif.g08.bks.cpg/sg2_74_cif.got.tgz:147487.got - 2010.06.03 11:33:40.
