data_PCOD9109554
_publ_section_title
;
Structure prediction by ZEFSAII (Michael W. Deem and Ramdas Pophale) SiO2 
 PCOD9109554
Probable space group: P -1
;
_chemical_formula_sum "Si O2"
_cell_formula_units_Z 12
_cell_length_a 11.483767
_cell_length_b 7.238276
_cell_length_c 22.868274
_cell_angle_alpha 142.933477
_cell_angle_beta 153.939042
_cell_angle_gamma 45.242238
_cell_volume 502.773618
_symmetry_space_group_name_H-M "P -1"
_symmetry_group_IT_number 2
_symmetry_cell_setting 'triclinic'
loop_
_space_group_symop_operation_xyz
x,y,z
-x,-y,-z
loop_
_atom_site_type_symbol
_atom_site_label
_atom_site_fract_x
_atom_site_fract_y
_atom_site_fract_z
Si Si1 0.064409 0.735263 0.639817
Si Si2 0.693798 0.276582 0.134858
Si Si3 0.747182 0.245060 0.604583
Si Si4 0.551894 0.927402 0.189470
Si Si5 0.005445 0.873074 0.879521
Si Si6 0.585335 0.208049 0.395406
O O1 0.163714 0.600005 0.710677
O O2 0.000000 0.500000 0.500000
O O3 0.289993 0.964408 0.769709
O O4 0.812999 0.940302 0.589870
O O5 0.571180 0.567354 0.121237
O O6 0.893304 0.130714 0.142139
O O7 0.500000 0.000000 0.000000
O O8 0.758381 0.164966 0.520125
O O9 0.484536 0.432776 0.542660
O O10 0.963076 0.513700 0.786147
O O11 0.669712 0.108054 0.344617
O O12 0.244923 0.010959 0.061575
O O13 0.704024 0.977000 0.773228
#
# Coordination Sequence:
#
# PCOD9109554 Si02
#       6
#     2   2   2   2   2   2
#     4  12  26  39  65  98 122 163 213 257 307 368
#     4  12  24  41  66  94 125 164 208 256 312 369
#     4   9  20  42  63  90 121 167 205 243 318 365
#     4  12  22  42  65  94 127 159 209 263 306 362
#     4  10  20  41  66  87 125 163 204 249 316 362
#     4   9  21  38  70  87 122 175 197 251 322 360
#
# _framework density 23.867599999999999
#
# number of rings (size 3 to 8) (size 9 to 14) (size 15 to 20)
#    1.000    0.333    3.333    3.000    2.333    1.333 
#    0.000    5.833    0.000    0.000    0.000    0.000 
#    0.000    0.000    0.000    0.000    0.000    0.000 
#
# Total GULP energy -66998.731793 kJ/mol
# GULP energy per Si atom -5583.227649 kJ/mol
# Density = 2.381328 g / cm^3
# Si number density = 23.867600 Si / 1000 Ang^3
#
#
#
# Elastic Constant Matrix: (Units=GPa)
#
#
# Indices 1 2 3 4 5 6 
#
# 1 82.5593 9.7152 -4.7695 1.0018 -6.2014 19.4869
# 2 9.7152 64.6975 11.5953 -3.6669 9.7673 15.6648
# 3 -4.7695 11.5953 86.9835 -8.5464 -17.6917 10.1703
# 4 1.0018 -3.6669 -8.5464 29.5725 3.6276 -2.5077
# 5 -6.2014 9.7673 -17.6917 3.6276 40.9148 -4.9162
# 6 19.4869 15.6648 10.1703 -2.5077 -4.9162 30.5260
#
#
#
# Elastic Compliance Matrix: (Units=1/GPa)
#
#
# Indices 1 2 3 4 5 6 
#
# 1 0.014790 -0.000764 0.002422 -0.001002 0.002412 -0.009550
# 2 -0.000764 0.019634 -0.002854 0.001717 -0.007352 -0.009680
# 3 0.002422 -0.002854 0.013977 0.002516 0.006449 -0.003493
# 4 -0.001002 0.001717 0.002516 0.035207 -0.002424 0.001422
# 5 0.002412 -0.007352 0.006449 -0.002424 0.030135 0.004738
# 6 -0.009550 -0.009680 -0.003493 0.001422 0.004738 0.045866
#
#
# Mechanical properties :
#
#
# Convention : Reuss Voigt Hill
#
# Bulk Modulus (GPa) = 21.73514 29.70249 25.71881
# Shear Modulus (GPa) = 28.19494 34.71594 31.45544
#
# Velocity S-wave (km/s) = 3.44074 3.81796 3.63425
# Velocity P-wave (km/s) = 4.99112 5.64867 5.33004
#
# Compressibility (1/GPa) = 0.04600845
#
# Stress axis : x y z
#
# Youngs Moduli (GPa) = 67.61435 50.93286 71.54617
#
# Poissons Ratio (x) = 0.03889 -0.17326
# Poissons Ratio (y) = 0.05163 0.20419
# Poissons Ratio (z) = -0.16373 0.14536
#
# Static dielectric constant tensor:
#      x y z
#    x 1.944530 -0.019960 0.059390 
#    y -0.019960 1.868260 0.014460 
#    z 0.059390 0.014460 1.965750 
# 
# From -- ./inp_files/39401.got.cif
#   From: 2010.05.17/outbox.cif.g08.bks.cpg/sg2_20_cif.got.tgz:39401.got - 2010.06.03 11:33:40.
