data_PCOD9109151
_publ_section_title
;
Structure prediction by ZEFSAII (Michael W. Deem and Ramdas Pophale) SiO2 
 PCOD9109151
Probable space group: P -1
;
_chemical_formula_sum "Si O2"
_cell_formula_units_Z 16
_cell_length_a 31.518310
_cell_length_b 8.342769
_cell_length_c 7.789225
_cell_angle_alpha 120.101731
_cell_angle_beta 147.880244
_cell_angle_gamma 43.315989
_cell_volume 709.189643
_symmetry_space_group_name_H-M "P -1"
_symmetry_group_IT_number 2
_symmetry_cell_setting 'triclinic'
loop_
_space_group_symop_operation_xyz
x,y,z
-x,-y,-z
loop_
_atom_site_type_symbol
_atom_site_label
_atom_site_fract_x
_atom_site_fract_y
_atom_site_fract_z
Si Si1 0.249325 0.770387 0.350456
Si Si2 0.678375 0.379873 0.112152
Si Si3 0.302522 0.071355 0.050420
Si Si4 0.870980 0.398285 0.172418
Si Si5 0.488410 0.054312 0.190407
Si Si6 0.861601 0.374915 0.731740
Si Si7 0.017860 0.254226 0.910389
Si Si8 0.691199 0.939270 0.339647
O O1 0.324087 0.607389 0.680201
O O2 0.208856 0.642671 0.059533
O O3 0.298854 0.862294 0.461253
O O4 0.140861 0.019151 0.193419
O O5 0.790665 0.302739 0.409585
O O6 0.586884 0.652768 0.876538
O O7 0.670735 0.176795 0.930212
O O8 0.195767 0.311083 0.896397
O O9 0.397858 0.066158 0.412434
O O10 0.284915 0.095928 0.799745
O O11 0.898121 0.316886 0.023811
O O12 0.034093 0.731511 0.439030
O O13 0.424449 0.974088 0.994307
O O14 0.500000 0.000000 0.000000
O O15 0.777399 0.674022 0.581802
O O16 0.955982 0.257673 0.858943
O O17 0.000000 0.500000 0.000000
#
# Coordination Sequence:
#
# PCOD9109151 Si02
#       8
#     2   2   2   2   2   2   2   2
#     4  10  21  41  63  90 129 166 211 266 309 373
#     4   9  21  39  63  90 129 164 208 261 312 373
#     4  11  20  41  64  92 126 172 207 260 318 374
#     4  11  24  41  64  96 130 166 215 259 310 374
#     4  11  22  39  63  94 127 162 214 260 315 384
#     4  10  21  42  63  93 130 166 210 264 309 372
#     4  12  22  42  66  92 130 170 210 260 318 370
#     4  10  20  41  63  91 125 167 208 260 319 373
#
# _framework density 22.560962
#
# number of rings (size 3 to 8) (size 9 to 14) (size 15 to 20)
#    0.000    1.500    2.500    4.125    0.000    2.500 
#    4.500    6.875    0.000    0.000    0.000    0.000 
#    0.000    0.000    0.000    0.000    0.000    0.000 
#
# Total GULP energy -89480.305598 kJ/mol
# GULP energy per Si atom -5592.519100 kJ/mol
# Density = 2.250961 g / cm^3
# Si number density = 22.560962 Si / 1000 Ang^3
#
#
#
# Elastic Constant Matrix: (Units=GPa)
#
#
# Indices 1 2 3 4 5 6 
#
# 1 95.4072 16.8259 43.8961 8.8522 12.1820 4.6634
# 2 16.8259 60.3794 1.9998 7.4663 10.0406 12.6720
# 3 43.8961 1.9998 103.5193 9.3628 -3.8773 1.3997
# 4 8.8522 7.4663 9.3628 26.7909 3.6640 9.3134
# 5 12.1820 10.0406 -3.8773 3.6640 35.5532 7.3824
# 6 4.6634 12.6720 1.3997 9.3134 7.3824 35.6687
#
#
#
# Elastic Compliance Matrix: (Units=1/GPa)
#
#
# Indices 1 2 3 4 5 6 
#
# 1 0.014572 -0.003044 -0.006183 -0.001420 -0.004825 0.000788
# 2 -0.003044 0.019271 0.001108 -0.002536 -0.002933 -0.005223
# 3 -0.006183 0.001108 0.012680 -0.003185 0.003512 0.000022
# 4 -0.001420 -0.002536 -0.003185 0.043219 -0.001575 -0.009747
# 5 -0.004825 -0.002933 0.003512 -0.001575 0.032131 -0.004704
# 6 0.000788 -0.005223 0.000022 -0.009747 -0.004704 0.033306
#
#
# Mechanical properties :
#
#
# Convention : Reuss Voigt Hill
#
# Bulk Modulus (GPa) = 33.01856 42.74994 37.88425
# Shear Modulus (GPa) = 27.54653 32.70816 30.12734
#
# Velocity S-wave (km/s) = 3.49805 3.81171 3.65824
# Velocity P-wave (km/s) = 5.56616 6.19370 5.88830
#
# Compressibility (1/GPa) = 0.03028600
#
# Stress axis : x y z
#
# Youngs Moduli (GPa) = 68.62286 51.89219 78.86469
#
# Poissons Ratio (x) = 0.15793 0.48765
# Poissons Ratio (y) = 0.20885 -0.08741
# Poissons Ratio (z) = 0.42432 -0.05752
#
# Static dielectric constant tensor:
#      x y z
#    x 1.845900 0.036410 0.022450 
#    y 0.036410 1.861270 0.033330 
#    z 0.022450 0.033330 1.822070 
# 
# From -- ./inp_files/358434.got.cif
#   From: 2010.05.17/outbox.cif.g08.bks.cpg/sg2_180_cif.got.tgz:358434.got - 2010.06.03 11:33:40.
