data_PCOD9109895
_publ_section_title
;
Structure prediction by ZEFSAII (Michael W. Deem and Ramdas Pophale) SiO2 
 PCOD9109895
Probable space group: P -1
;
_chemical_formula_sum "Si O2"
_cell_formula_units_Z 16
_cell_length_a 11.621557
_cell_length_b 12.893829
_cell_length_c 11.716496
_cell_angle_alpha 35.009628
_cell_angle_beta 95.105541
_cell_angle_gamma 71.230473
_cell_volume 725.567867
_symmetry_space_group_name_H-M "P -1"
_symmetry_group_IT_number 2
_symmetry_cell_setting 'triclinic'
loop_
_space_group_symop_operation_xyz
x,y,z
-x,-y,-z
loop_
_atom_site_type_symbol
_atom_site_label
_atom_site_fract_x
_atom_site_fract_y
_atom_site_fract_z
Si Si1 0.869111 0.998104 0.714947
Si Si2 0.365912 0.495995 0.989034
Si Si3 0.650171 0.358178 0.792532
Si Si4 0.985689 0.521982 0.842387
Si Si5 0.303910 0.330036 0.927864
Si Si6 0.868639 0.020902 0.316994
Si Si7 0.685575 0.435847 0.481750
Si Si8 0.457909 0.839333 0.500246
O O1 0.958905 0.071381 0.600908
O O2 0.787375 0.166905 0.670125
O O3 0.717967 0.061305 0.583422
O O4 0.007822 0.692621 0.008333
O O5 0.350790 0.451233 0.898652
O O6 0.435921 0.257870 0.288292
O O7 0.500000 0.500000 0.000000
O O8 0.217317 0.751672 0.806310
O O9 0.719811 0.384128 0.664951
O O10 0.505482 0.387567 0.710049
O O11 0.560867 0.590774 0.658951
O O12 0.781986 0.122352 0.095189
O O13 0.141820 0.432678 0.875340
O O14 0.863371 0.817581 0.539239
O O15 0.000000 0.500000 0.000000
O O16 0.430078 0.041278 0.235078
O O17 0.282325 0.415221 0.719638
#
# Coordination Sequence:
#
# PCOD9109895 Si02
#       8
#     2   2   2   2   2   2   2   2
#     4  10  21  41  61  89 123 161 205 250 299 365
#     4  11  23  37  59  88 122 162 203 252 303 367
#     4   9  21  42  63  91 118 163 205 256 308 360
#     4  11  25  38  60  92 128 164 204 249 303 372
#     4  11  21  37  62  90 121 165 203 250 307 365
#     4  11  23  41  64  88 123 165 204 251 309 363
#     4  10  20  41  68  85 123 163 202 256 312 356
#     4   9  21  39  59  89 125 155 208 253 300 367
#
# _framework density 22.051691999999999
#
# number of rings (size 3 to 8) (size 9 to 14) (size 15 to 20)
#    0.000    1.750    1.250    3.375    5.250    2.000 
#   11.250    0.625    0.000    0.000    0.000    0.000 
#    0.000    0.000    0.000    0.000    0.000    0.000 
#
# Total GULP energy -89254.046017 kJ/mol
# GULP energy per Si atom -5578.377876 kJ/mol
# Density = 2.200150 g / cm^3
# Si number density = 22.051692 Si / 1000 Ang^3
#
#
#
# Elastic Constant Matrix: (Units=GPa)
#
#
# Indices 1 2 3 4 5 6 
#
# 1 38.6545 8.5110 15.7766 1.3785 -9.2906 -11.2816
# 2 8.5110 60.7087 44.4530 25.0509 1.7136 -23.3812
# 3 15.7766 44.4530 176.2090 17.6830 -23.7230 -0.7699
# 4 1.3785 25.0509 17.6830 41.8349 -3.2259 -7.2874
# 5 -9.2906 1.7136 -23.7230 -3.2259 32.6614 1.7969
# 6 -11.2816 -23.3812 -0.7699 -7.2874 1.7969 27.9015
#
#
#
# Elastic Compliance Matrix: (Units=1/GPa)
#
#
# Indices 1 2 3 4 5 6 
#
# 1 0.032335 0.002301 -0.002724 0.001816 0.006454 0.014986
# 2 0.002301 0.046198 -0.011830 -0.017618 -0.014062 0.035621
# 3 -0.002724 -0.011830 0.009709 0.001784 0.007667 -0.010775
# 4 0.001816 -0.017618 0.001784 0.033128 0.006324 -0.005735
# 5 0.006454 -0.014062 0.007667 0.006324 0.039928 -0.009882
# 6 0.014986 0.035621 -0.010775 -0.005735 -0.009882 0.070591
#
#
# Mechanical properties :
#
#
# Convention : Reuss Voigt Hill
#
# Bulk Modulus (GPa) = 15.68912 45.89481 30.79197
# Shear Modulus (GPa) = 18.00890 34.26833 26.13861
#
# Velocity S-wave (km/s) = 2.86084 3.94636 3.44660
# Velocity P-wave (km/s) = 4.24767 6.45155 5.46192
#
# Compressibility (1/GPa) = 0.06373842
#
# Stress axis : x y z
#
# Youngs Moduli (GPa) = 30.92592 21.64602 102.99201
#
# Poissons Ratio (x) = -0.04982 0.28051
# Poissons Ratio (y) = -0.07118 1.21840
# Poissons Ratio (z) = 0.08423 0.25607
#
# Static dielectric constant tensor:
#      x y z
#    x 1.920740 0.028190 -0.019360 
#    y 0.028190 1.823620 -0.038170 
#    z -0.019360 -0.038170 1.967250 
# 
# From -- ./inp_files/390552.got.cif
#   From: 2010.05.17/outbox.cif.g08.bks.cpg/sg2_196_cif.got.tgz:390552.got - 2010.06.03 11:33:40.
