data_PCOD9109654
_publ_section_title
;
Structure prediction by ZEFSAII (Michael W. Deem and Ramdas Pophale) SiO2 
 PCOD9109654
Probable space group: P -1
;
_chemical_formula_sum "Si O2"
_cell_formula_units_Z 16
_cell_length_a 9.065382
_cell_length_b 9.457445
_cell_length_c 12.173669
_cell_angle_alpha 103.699150
_cell_angle_beta 88.799700
_cell_angle_gamma 49.102957
_cell_volume 744.150691
_symmetry_space_group_name_H-M "P -1"
_symmetry_group_IT_number 2
_symmetry_cell_setting 'triclinic'
loop_
_space_group_symop_operation_xyz
x,y,z
-x,-y,-z
loop_
_atom_site_type_symbol
_atom_site_label
_atom_site_fract_x
_atom_site_fract_y
_atom_site_fract_z
Si Si1 0.910282 0.408722 0.025750
Si Si2 0.291531 0.323394 0.731255
Si Si3 0.338335 0.343743 0.310477
Si Si4 0.856356 0.406646 0.432041
Si Si5 0.953776 0.921109 0.887916
Si Si6 0.776458 0.162085 0.327933
Si Si7 0.960545 0.288749 0.763329
Si Si8 0.292713 0.049567 0.273673
O O1 0.722208 0.575247 0.136039
O O2 0.046130 0.233913 0.079285
O O3 0.902908 0.318933 0.898877
O O4 0.000000 0.500000 0.000000
O O5 0.225904 0.459596 0.651682
O O6 0.132237 0.297581 0.742824
O O7 0.518481 0.115633 0.684622
O O8 0.197345 0.456714 0.440140
O O9 0.563431 0.233138 0.320225
O O10 0.237632 0.521371 0.259092
O O11 0.335964 0.177982 0.242274
O O12 0.756580 0.314486 0.434784
O O13 0.089588 0.211234 0.375602
O O14 0.761799 0.036764 0.831962
O O15 0.136209 0.826490 0.783579
O O16 0.000000 0.000000 0.000000
O O17 0.938412 0.930198 0.315709
#
# Coordination Sequence:
#
# PCOD9109654 Si02
#       8
#     2   2   2   2   2   2   2   2
#     4  10  20  41  66  94 134 170 213 276 324 392
#     4  11  22  42  69 101 132 176 231 273 331 400
#     4  12  25  44  69  98 133 186 228 270 343 391
#     4  11  25  45  68  97 139 171 230 294 320 391
#     4  11  22  44  69  99 141 171 216 282 333 398
#     4  11  24  43  65 100 137 175 219 281 338 391
#     4  11  23  41  66  98 138 173 224 279 327 405
#     4  11  23  41  71  98 128 180 226 270 339 395
#
# _framework density 21.501021999999999
#
# number of rings (size 3 to 8) (size 9 to 14) (size 15 to 20)
#    0.000    1.000    6.250    1.500    0.000    5.000 
#    0.000    3.750    0.000    0.000    0.000    0.000 
#    0.000    0.000    0.000    0.000    0.000    0.000 
#
# Total GULP energy -89246.061936 kJ/mol
# GULP energy per Si atom -5577.878871 kJ/mol
# Density = 2.145209 g / cm^3
# Si number density = 21.501022 Si / 1000 Ang^3
#
#
#
# Elastic Constant Matrix: (Units=GPa)
#
#
# Indices 1 2 3 4 5 6 
#
# 1 49.6864 1.8437 -21.1577 10.1136 12.5623 8.1206
# 2 1.8437 98.2686 3.1406 -0.4423 -0.8160 -7.8022
# 3 -21.1577 3.1406 42.7317 1.3180 5.4765 -0.2044
# 4 10.1136 -0.4423 1.3180 18.6663 11.2131 1.2840
# 5 12.5623 -0.8160 5.4765 11.2131 23.9687 7.0549
# 6 8.1206 -7.8022 -0.2044 1.2840 7.0549 37.0173
#
#
#
# Elastic Compliance Matrix: (Units=1/GPa)
#
#
# Indices 1 2 3 4 5 6 
#
# 1 0.036292 -0.001893 0.020670 -0.010228 -0.017693 -0.004520
# 2 -0.001893 0.010474 -0.001804 0.000848 0.000640 0.002462
# 3 0.020670 -0.001804 0.036066 -0.003390 -0.017159 -0.001328
# 4 -0.010228 0.000848 -0.003390 0.078305 -0.032182 0.005821
# 5 -0.017693 0.000640 -0.017159 -0.032182 0.072580 -0.008795
# 6 -0.004520 0.002462 -0.001328 0.005821 -0.008795 0.029992
#
#
# Mechanical properties :
#
#
# Convention : Reuss Voigt Hill
#
# Bulk Modulus (GPa) = 8.56328 17.59333 13.07830
# Shear Modulus (GPa) = 18.60885 29.72114 24.16500
#
# Velocity S-wave (km/s) = 2.94511 3.72198 3.35610
# Velocity P-wave (km/s) = 3.94414 5.16441 4.59497
#
# Compressibility (1/GPa) = 0.11677772
#
# Stress axis : x y z
#
# Youngs Moduli (GPa) = 27.55418 95.47513 27.72706
#
# Poissons Ratio (x) = 0.18076 -0.57311
# Poissons Ratio (y) = 0.05217 0.05001
# Poissons Ratio (z) = -0.56954 0.17220
#
# Static dielectric constant tensor:
#      x y z
#    x 1.824270 0.052590 0.039530 
#    y 0.052590 1.818160 0.038720 
#    z 0.039530 0.038720 1.804630 
# 
# From -- ./inp_files/187969.got.cif
#   From: 2010.05.17/outbox.cif.g08.bks.cpg/sg2_94_cif.got.tgz:187969.got - 2010.06.03 11:33:40.
