data_PCOD9109005
_publ_section_title
;
Structure prediction by ZEFSAII (Michael W. Deem and Ramdas Pophale) SiO2 
 PCOD9109005
Probable space group: P -1
;
_chemical_formula_sum "Si O2"
_cell_formula_units_Z 16
_cell_length_a 12.270211
_cell_length_b 8.737004
_cell_length_c 14.168582
_cell_angle_alpha 75.525869
_cell_angle_beta 28.286242
_cell_angle_gamma 79.820270
_cell_volume 693.826141
_symmetry_space_group_name_H-M "P -1"
_symmetry_group_IT_number 2
_symmetry_cell_setting 'triclinic'
loop_
_space_group_symop_operation_xyz
x,y,z
-x,-y,-z
loop_
_atom_site_type_symbol
_atom_site_label
_atom_site_fract_x
_atom_site_fract_y
_atom_site_fract_z
Si Si1 0.979869 0.161500 0.746130
Si Si2 0.124230 0.679625 0.876606
Si Si3 0.773994 0.901059 0.071169
Si Si4 0.576343 0.592772 0.627180
Si Si5 0.185715 0.644200 0.622326
Si Si6 0.279034 0.962706 0.422160
Si Si7 0.477622 0.148505 0.062818
Si Si8 0.678664 0.642818 0.011648
O O1 0.186752 0.297947 0.568999
O O2 0.077419 0.037039 0.619028
O O3 0.733271 0.210064 0.893623
O O4 0.925565 0.057943 0.896964
O O5 0.353089 0.683989 0.763206
O O6 0.206535 0.716638 0.700152
O O7 0.930328 0.796201 0.030599
O O8 0.000000 0.500000 0.000000
O O9 0.710660 0.785254 0.044788
O O10 0.528844 0.953215 0.283905
O O11 0.616553 0.468675 0.531882
O O12 0.517115 0.487281 0.781215
O O13 0.197084 0.776081 0.510753
O O14 0.922309 0.566844 0.834013
O O15 0.333014 0.069639 0.272679
O O16 0.373673 0.281252 0.059539
O O17 0.500000 0.000000 0.000000
#
# Coordination Sequence:
#
# PCOD9109005 Si02
#       8
#     2   2   2   2   2   2   2   2
#     4  11  25  41  60  98 132 158 204 268 315 360
#     4  11  20  41  69  91 122 167 211 254 303 375
#     4  10  20  41  61  91 127 155 215 255 297 375
#     4  12  25  41  63  95 134 159 206 266 312 360
#     4  11  21  40  69  91 121 168 217 246 307 377
#     4  11  20  40  67  92 124 165 211 255 308 373
#     4  11  21  40  67  91 125 166 214 256 305 372
#     4  11  21  40  63  93 124 163 212 262 294 374
#
# _framework density 23.060531999999998
#
# number of rings (size 3 to 8) (size 9 to 14) (size 15 to 20)
#    0.000    1.000    8.750    0.375    0.000    6.000 
#    0.000    1.875    0.000    0.000    0.000    0.000 
#    0.000    0.000    0.000    0.000    0.000    0.000 
#
# Total GULP energy -89381.887717 kJ/mol
# GULP energy per Si atom -5586.367982 kJ/mol
# Density = 2.300805 g / cm^3
# Si number density = 23.060532 Si / 1000 Ang^3
#
#
#
# Elastic Constant Matrix: (Units=GPa)
#
#
# Indices 1 2 3 4 5 6 
#
# 1 67.3958 24.6739 19.2330 -11.2186 -6.7261 -27.0561
# 2 24.6739 31.3968 11.0566 -9.2174 -2.5378 -19.2270
# 3 19.2330 11.0566 132.6991 -34.4728 0.8889 -8.2130
# 4 -11.2186 -9.2174 -34.4728 47.7651 1.5390 -0.5690
# 5 -6.7261 -2.5378 0.8889 1.5390 13.9056 -5.9251
# 6 -27.0561 -19.2270 -8.2130 -0.5690 -5.9251 27.0069
#
#
#
# Elastic Compliance Matrix: (Units=1/GPa)
#
#
# Indices 1 2 3 4 5 6 
#
# 1 0.040997 0.010783 -0.000824 0.010341 0.045740 0.058751
# 2 0.010783 0.083426 0.001098 0.018684 0.053528 0.082668
# 3 -0.000824 0.001098 0.009556 0.006961 -0.000328 0.002936
# 4 0.010341 0.018684 0.006961 0.031795 0.017338 0.030252
# 5 0.045740 0.053528 -0.000328 0.017338 0.151994 0.117543
# 6 0.058751 0.082668 0.002936 0.030252 0.117543 0.182058
#
#
# Mechanical properties :
#
#
# Convention : Reuss Voigt Hill
#
# Bulk Modulus (GPa) = 6.40646 37.93539 22.17093
# Shear Modulus (GPa) = 9.43854 29.50405 19.47129
#
# Velocity S-wave (km/s) = 2.02530 3.58077 2.90893
# Velocity P-wave (km/s) = 2.87285 5.79500 4.57358
#
# Compressibility (1/GPa) = 0.15609249
#
# Stress axis : x y z
#
# Youngs Moduli (GPa) = 24.39207 11.98668 104.64621
#
# Poissons Ratio (x) = -0.12926 0.08625
# Poissons Ratio (y) = -0.26303 -0.11487
# Poissons Ratio (z) = 0.02010 -0.01316
#
# Static dielectric constant tensor:
#      x y z
#    x 1.899670 0.031860 0.004920 
#    y 0.031860 1.945410 -0.024980 
#    z 0.004920 -0.024980 1.858190 
# 
# From -- ./inp_files/315657.got.cif
#   From: 2010.05.17/outbox.cif.g08.bks.cpg/sg2_158_cif.got.tgz:315657.got - 2010.06.03 11:33:40.
