data_PCOD9109945
_publ_section_title
;
Structure prediction by ZEFSAII (Michael W. Deem and Ramdas Pophale) SiO2 
 PCOD9109945
Probable space group: P -1
;
_chemical_formula_sum "Si O2"
_cell_formula_units_Z 16
_cell_length_a 6.245458
_cell_length_b 8.183901
_cell_length_c 15.010174
_cell_angle_alpha 101.722736
_cell_angle_beta 125.504290
_cell_angle_gamma 81.265084
_cell_volume 610.979565
_symmetry_space_group_name_H-M "P -1"
_symmetry_group_IT_number 2
_symmetry_cell_setting 'triclinic'
loop_
_space_group_symop_operation_xyz
x,y,z
-x,-y,-z
loop_
_atom_site_type_symbol
_atom_site_label
_atom_site_fract_x
_atom_site_fract_y
_atom_site_fract_z
Si Si1 0.704386 0.365085 0.890982
Si Si2 0.110417 0.389566 0.315142
Si Si3 0.058489 0.300800 0.480577
Si Si4 0.498581 0.839950 0.710142
Si Si5 0.124557 0.907362 0.233070
Si Si6 0.127847 0.255394 0.689985
Si Si7 0.819156 0.116968 0.035983
Si Si8 0.478176 0.729748 0.880961
O O1 0.846237 0.270819 0.830853
O O2 0.405471 0.299553 0.805361
O O3 0.668087 0.564404 0.907755
O O4 0.836176 0.289480 0.003607
O O5 0.313633 0.322205 0.284158
O O6 0.201541 0.299420 0.419521
O O7 0.083589 0.587568 0.338640
O O8 0.811419 0.341519 0.216347
O O9 0.789956 0.207399 0.391419
O O10 0.000000 0.500000 0.500000
O O11 0.176013 0.235482 0.594060
O O12 0.524420 0.856210 0.824867
O O13 0.604482 0.996987 0.701255
O O14 0.005240 0.884997 0.299248
O O15 0.945117 0.038398 0.147660
O O16 0.531941 0.172019 0.017748
O O17 0.000000 0.000000 0.000000
#
# Coordination Sequence:
#
# PCOD9109945 Si02
#       8
#     2   2   2   2   2   2   2   2
#     4  10  23  42  65  92 127 175 218 266 321 370
#     4   9  19  39  65  94 126 167 218 265 314 383
#     4   9  21  39  64  98 127 171 219 264 316 387
#     4  11  22  38  67  94 130 175 205 265 333 372
#     4  11  24  40  60  95 136 166 216 262 326 389
#     4  10  22  39  62  92 131 170 218 266 314 382
#     4  10  22  43  67  96 130 168 215 268 326 386
#     4  10  20  41  68  94 128 166 221 265 313 388
#
# _framework density 26.187457999999999
#
# number of rings (size 3 to 8) (size 9 to 14) (size 15 to 20)
#    0.000    2.000    1.250    1.875    1.750    4.000 
#    4.500    1.875    0.000    0.000    0.000    0.000 
#    0.000    0.000    0.000    0.000    0.000    0.000 
#
# Total GULP energy -89301.628853 kJ/mol
# GULP energy per Si atom -5581.351803 kJ/mol
# Density = 2.612785 g / cm^3
# Si number density = 26.187458 Si / 1000 Ang^3
#
#
#
# Elastic Constant Matrix: (Units=GPa)
#
#
# Indices 1 2 3 4 5 6 
#
# 1 83.5728 53.9622 52.0646 -10.4297 -19.8300 1.7131
# 2 53.9622 142.4229 53.5029 -18.3269 -0.5771 -17.1050
# 3 52.0646 53.5029 118.8733 -30.6175 -24.8288 18.0696
# 4 -10.4297 -18.3269 -30.6175 41.3318 8.3486 -3.6830
# 5 -19.8300 -0.5771 -24.8288 8.3486 41.2824 3.9191
# 6 1.7131 -17.1050 18.0696 -3.6830 3.9191 62.5088
#
#
#
# Elastic Compliance Matrix: (Units=1/GPa)
#
#
# Indices 1 2 3 4 5 6 
#
# 1 0.020833 -0.006493 -0.005202 -0.003137 0.007565 -0.001503
# 2 -0.006493 0.011874 -0.003976 0.002413 -0.006318 0.005115
# 3 -0.005202 -0.003976 0.016612 0.007411 0.006481 -0.005717
# 4 -0.003137 0.002413 0.007411 0.030680 -0.003279 0.000617
# 5 0.007565 -0.006318 0.006481 -0.003279 0.032906 -0.006066
# 6 -0.001503 0.005115 -0.005717 0.000617 -0.006066 0.019508
#
#
# Mechanical properties :
#
#
# Convention : Reuss Voigt Hill
#
# Bulk Modulus (GPa) = 55.62488 73.76983 64.69736
# Shear Modulus (GPa) = 29.45567 41.38054 35.41811
#
# Velocity S-wave (km/s) = 3.35744 3.97944 3.68160
# Velocity P-wave (km/s) = 6.02636 7.02465 6.54457
#
# Compressibility (1/GPa) = 0.01797757
#
# Stress axis : x y z
#
# Youngs Moduli (GPa) = 48.00128 84.21512 60.19839
#
# Poissons Ratio (x) = 0.54679 0.31313
# Poissons Ratio (y) = 0.31166 0.23936
# Poissons Ratio (z) = 0.24968 0.33486
#
# Static dielectric constant tensor:
#      x y z
#    x 2.076690 0.004500 0.028360 
#    y 0.004500 2.076550 0.101160 
#    z 0.028360 0.101160 2.135320 
# 
# From -- ./inp_files/480574.got.cif
#   From: 2010.05.17/outbox.cif.g08.bks.cpg/sg2_241_cif.got.tgz:480574.got - 2010.06.03 11:33:40.
