data_PCOD9109105
_publ_section_title
;
Structure prediction by ZEFSAII (Michael W. Deem and Ramdas Pophale) SiO2 
 PCOD9109105
Probable space group: P -1
;
_chemical_formula_sum "Si O2"
_cell_formula_units_Z 13
_cell_length_a 11.443047
_cell_length_b 8.572636
_cell_length_c 15.754074
_cell_angle_alpha 69.392111
_cell_angle_beta 158.986342
_cell_angle_gamma 118.321758
_cell_volume 467.175314
_symmetry_space_group_name_H-M "P -1"
_symmetry_group_IT_number 2
_symmetry_cell_setting 'triclinic'
loop_
_space_group_symop_operation_xyz
x,y,z
-x,-y,-z
loop_
_atom_site_type_symbol
_atom_site_label
_atom_site_fract_x
_atom_site_fract_y
_atom_site_fract_z
Si Si1 0.129368 0.376533 0.881853
Si Si2 0.500000 0.500000 0.500000
Si Si3 0.747771 0.874398 0.480420
Si Si4 0.362218 0.244537 0.900849
Si Si5 0.455758 0.352444 0.353637
Si Si6 0.442379 0.145405 0.236745
Si Si7 0.970007 0.697632 0.534554
O O1 0.439837 0.583947 0.062104
O O2 0.186484 0.225681 0.004001
O O3 0.149567 0.314385 0.810679
O O4 0.747763 0.390200 0.624509
O O5 0.675840 0.694600 0.520837
O O6 0.194716 0.393018 0.229388
O O7 0.791486 0.826147 0.422448
O O8 0.436167 0.945756 0.259253
O O9 0.103646 0.045673 0.727389
O O10 0.688947 0.248006 0.179571
O O11 0.378888 0.165643 0.289886
O O12 0.675683 0.495983 0.402043
O O13 0.827792 0.267441 0.425172
#
# Coordination Sequence:
#
# PCOD9109105 Si02
#       7
#     2   1   2   2   2   2   2
#     4   9  19  35  58  97 123 136 197 249 295 366
#     4  10  26  44  60  78 122 166 212 238 270 360
#     4  11  21  37  60  88 120 167 195 236 296 341
#     4   9  17  33  60  91 121 159 181 238 315 347
#     4  10  20  41  63  83 120 164 189 242 301 340
#     4  11  21  34  65  94 117 153 191 247 308 349
#     4   9  20  34  59  95 127 141 191 251 298 362
#
# _framework density 27.826812
#
# number of rings (size 3 to 8) (size 9 to 14) (size 15 to 20)
#    0.000    2.154    1.538    2.308    2.154    0.615 
#    0.000    1.538    3.385    0.000    0.000    0.000 
#    0.000    0.000    0.000    0.000    0.000    0.000 
#
# Total GULP energy -72457.069617 kJ/mol
# GULP energy per Si atom -5573.620740 kJ/mol
# Density = 2.776348 g / cm^3
# Si number density = 27.826812 Si / 1000 Ang^3
#
#
#
# Elastic Constant Matrix: (Units=GPa)
#
#
# Indices 1 2 3 4 5 6 
#
# 1 211.8710 55.1808 13.8522 9.9913 -25.1893 -25.8493
# 2 55.1808 181.0666 38.4949 -7.2316 -7.7792 -18.1479
# 3 13.8522 38.4949 66.7162 -12.4196 2.1735 4.2184
# 4 9.9913 -7.2316 -12.4196 51.7744 0.3341 -2.8943
# 5 -25.1893 -7.7792 2.1735 0.3341 42.5057 8.3129
# 6 -25.8493 -18.1479 4.2184 -2.8943 8.3129 58.7233
#
#
#
# Elastic Compliance Matrix: (Units=1/GPa)
#
#
# Indices 1 2 3 4 5 6 
#
# 1 0.005741 -0.001321 -0.000898 -0.001431 0.002884 0.001705
# 2 -0.001321 0.006940 -0.003778 0.000417 0.000323 0.001810
# 3 -0.000898 -0.003778 0.018293 0.003908 -0.001712 -0.002442
# 4 -0.001431 0.000417 0.003908 0.020617 -0.001213 0.000406
# 5 0.002884 0.000323 -0.001712 -0.001213 0.025827 -0.002223
# 6 0.001705 0.001810 -0.002442 0.000406 -0.002223 0.018849
#
#
# Mechanical properties :
#
#
# Convention : Reuss Voigt Hill
#
# Bulk Modulus (GPa) = 52.68436 74.96772 63.82604
# Shear Modulus (GPa) = 43.63519 54.07575 48.85547
#
# Velocity S-wave (km/s) = 3.96422 4.41307 4.19465
# Velocity P-wave (km/s) = 6.31881 7.27779 6.81519
#
# Compressibility (1/GPa) = 0.01898097
#
# Stress axis : x y z
#
# Youngs Moduli (GPa) = 174.18634 144.08221 54.66684
#
# Poissons Ratio (x) = 0.19035 0.04908
# Poissons Ratio (y) = 0.23012 0.20651
# Poissons Ratio (z) = 0.15639 0.54428
#
# Static dielectric constant tensor:
#      x y z
#    x 2.236240 -0.080210 0.006390 
#    y -0.080210 2.237670 0.015170 
#    z 0.006390 0.015170 2.380480 
# 
# From -- ./inp_files/418075.got.cif
#   From: 2010.05.17/outbox.cif.g08.bks.cpg/sg2_210_cif.got.tgz:418075.got - 2010.06.03 11:33:40.
