data_PCOD9109290
_publ_section_title
;
Structure prediction by ZEFSAII (Michael W. Deem and Ramdas Pophale) SiO2 
 PCOD9109290
Probable space group: P -1
;
_chemical_formula_sum "Si O2"
_cell_formula_units_Z 16
_cell_length_a 13.221333
_cell_length_b 12.662612
_cell_length_c 7.612642
_cell_angle_alpha 104.922849
_cell_angle_beta 43.564511
_cell_angle_gamma 123.820107
_cell_volume 705.661838
_symmetry_space_group_name_H-M "P -1"
_symmetry_group_IT_number 2
_symmetry_cell_setting 'triclinic'
loop_
_space_group_symop_operation_xyz
x,y,z
-x,-y,-z
loop_
_atom_site_type_symbol
_atom_site_label
_atom_site_fract_x
_atom_site_fract_y
_atom_site_fract_z
Si Si1 0.383551 0.041954 0.880585
Si Si2 0.833303 0.932185 0.306031
Si Si3 0.935085 0.655178 0.509078
Si Si4 0.503151 0.245600 0.543731
Si Si5 0.232281 0.185594 0.308347
Si Si6 0.221734 0.831738 0.503468
Si Si7 0.426162 0.590922 0.119872
Si Si8 0.824046 0.256683 0.071210
O O1 0.442908 0.102157 0.636340
O O2 0.573704 0.114471 0.765691
O O3 0.277122 0.887294 0.950987
O O4 0.257026 0.086432 0.122749
O O5 0.667075 0.798655 0.374793
O O6 0.872043 0.887477 0.418622
O O7 0.790111 0.041639 0.442513
O O8 0.000000 0.000000 0.000000
O O9 0.853433 0.744838 0.645525
O O10 0.780702 0.507189 0.693605
O O11 0.093967 0.724189 0.476233
O O12 0.002538 0.656790 0.227491
O O13 0.536047 0.334545 0.709493
O O14 0.690032 0.302987 0.242791
O O15 0.439172 0.297739 0.137262
O O16 0.163553 0.768146 0.746737
O O17 0.500000 0.500000 0.000000
#
# Coordination Sequence:
#
# PCOD9109290 Si02
#       8
#     2   2   2   2   2   2   2   2
#     4  10  20  41  64  92 135 169 203 257 332 393
#     4  12  24  36  65 103 128 159 212 265 331 387
#     4  11  25  42  65  94 129 173 223 266 302 378
#     4  10  21  41  65  91 132 168 203 269 323 378
#     4  10  24  42  64  92 130 173 210 260 323 378
#     4  11  23  39  66  98 133 167 207 265 327 383
#     4   9  22  47  63  83 127 176 218 262 313 370
#     4  11  21  41  65  98 134 165 211 264 327 381
#
# _framework density 22.673750999999999
#
# number of rings (size 3 to 8) (size 9 to 14) (size 15 to 20)
#    0.000    1.500    2.500    2.250    7.000    2.500 
#    2.250    6.875    0.000    0.000    0.000    0.000 
#    0.000    0.000    0.000    0.000    0.000    0.000 
#
# Total GULP energy -89379.270051 kJ/mol
# GULP energy per Si atom -5586.204378 kJ/mol
# Density = 2.262214 g / cm^3
# Si number density = 22.673751 Si / 1000 Ang^3
#
#
#
# Elastic Constant Matrix: (Units=GPa)
#
#
# Indices 1 2 3 4 5 6 
#
# 1 71.9006 16.6498 24.2142 -15.2754 -5.9211 19.0385
# 2 16.6498 63.7787 30.1195 -4.8995 -4.5320 14.1457
# 3 24.2142 30.1195 112.4732 -9.1222 1.1547 -2.4437
# 4 -15.2754 -4.8995 -9.1222 35.6664 -5.5053 -9.3955
# 5 -5.9211 -4.5320 1.1547 -5.5053 26.1280 0.4121
# 6 19.0385 14.1457 -2.4437 -9.3955 0.4121 24.6448
#
#
#
# Elastic Compliance Matrix: (Units=1/GPa)
#
#
# Indices 1 2 3 4 5 6 
#
# 1 0.020941 0.001079 -0.004814 0.004774 0.006397 -0.015561
# 2 0.001079 0.021969 -0.006594 -0.001421 0.004279 -0.014711
# 3 -0.004814 -0.006594 0.012113 0.002287 -0.002440 0.009618
# 4 0.004774 -0.001421 0.002287 0.034403 0.007820 0.010340
# 5 0.006397 0.004279 -0.002440 0.007820 0.042305 -0.005366
# 6 -0.015561 -0.014711 0.009618 0.010340 -0.005366 0.066027
#
#
# Mechanical properties :
#
#
# Convention : Reuss Voigt Hill
#
# Bulk Modulus (GPa) = 29.09953 43.34661 36.22307
# Shear Modulus (GPa) = 21.75136 29.09910 25.42523
#
# Velocity S-wave (km/s) = 3.10065 3.58632 3.35229
# Velocity P-wave (km/s) = 5.06760 6.02561 5.56725
#
# Compressibility (1/GPa) = 0.03436482
#
# Stress axis : x y z
#
# Youngs Moduli (GPa) = 47.75398 45.51781 82.55695
#
# Poissons Ratio (x) = -0.04912 0.39742
# Poissons Ratio (y) = -0.05154 0.54441
# Poissons Ratio (z) = 0.22988 0.30016
#
# Static dielectric constant tensor:
#      x y z
#    x 1.885670 0.019170 -0.022390 
#    y 0.019170 1.850780 -0.007840 
#    z -0.022390 -0.007840 1.897660 
# 
# From -- ./inp_files/313647.got.cif
#   From: 2010.05.17/outbox.cif.g08.bks.cpg/sg2_157_cif.got.tgz:313647.got - 2010.06.03 11:33:40.
