data_PCOD9109495
_publ_section_title
;
Structure prediction by ZEFSAII (Michael W. Deem and Ramdas Pophale) SiO2 
 PCOD9109495
Probable space group: P -1
;
_chemical_formula_sum "Si O2"
_cell_formula_units_Z 14
_cell_length_a 8.832036
_cell_length_b 11.793391
_cell_length_c 7.234406
_cell_angle_alpha 83.404333
_cell_angle_beta 74.051487
_cell_angle_gamma 121.477302
_cell_volume 586.447641
_symmetry_space_group_name_H-M "P -1"
_symmetry_group_IT_number 2
_symmetry_cell_setting 'triclinic'
loop_
_space_group_symop_operation_xyz
x,y,z
-x,-y,-z
loop_
_atom_site_type_symbol
_atom_site_label
_atom_site_fract_x
_atom_site_fract_y
_atom_site_fract_z
Si Si1 0.376398 0.776739 0.605616
Si Si2 0.423805 0.350016 0.401065
Si Si3 0.719971 0.660407 0.165309
Si Si4 0.269937 0.913108 0.079165
Si Si5 0.918963 0.347415 0.973821
Si Si6 0.215651 0.935906 0.655368
Si Si7 0.192265 0.124026 0.206381
O O1 0.407762 0.659026 0.558979
O O2 0.585228 0.919621 0.488088
O O3 0.229165 0.814742 0.581056
O O4 0.294268 0.734460 0.847062
O O5 0.525339 0.502660 0.248335
O O6 0.276011 0.315185 0.621097
O O7 0.321715 0.234221 0.300548
O O8 0.898679 0.658154 0.038299
O O9 0.732638 0.782705 0.024832
O O10 0.152558 0.744480 0.175559
O O11 0.206428 0.994360 0.205954
O O12 0.500000 0.000000 0.000000
O O13 0.223292 0.926646 0.878150
O O14 0.000000 0.500000 0.000000
O O15 0.026542 0.927437 0.678354
#
# Coordination Sequence:
#
# PCOD9109495 Si02
#       7
#     2   2   2   2   2   2   2
#     4  10  20  41  65  95 133 183 226 280 343 407
#     4  11  25  42  71 105 139 189 235 291 347 424
#     4  11  24  45  71 102 144 186 238 285 353 419
#     4  11  24  42  68 105 139 185 233 286 354 419
#     4  11  22  44  72  95 137 191 228 281 357 420
#     4  10  22  39  66 100 141 180 228 294 348 409
#     4  12  23  44  73 104 143 181 238 292 353 412
#
# _framework density 23.872551000000001
#
# number of rings (size 3 to 8) (size 9 to 14) (size 15 to 20)
#    0.000    1.143    4.286    3.429    2.000    0.571 
#    7.714    0.000    0.000    3.429    0.000    0.000 
#    0.000    0.000    0.000    0.000    0.000    0.000 
#
# Total GULP energy -77972.685029 kJ/mol
# GULP energy per Si atom -5569.477502 kJ/mol
# Density = 2.381822 g / cm^3
# Si number density = 23.872551 Si / 1000 Ang^3
#
#
#
# Elastic Constant Matrix: (Units=GPa)
#
#
# Indices 1 2 3 4 5 6 
#
# 1 107.1392 35.7890 23.9772 14.2018 -29.8180 -10.9239
# 2 35.7890 169.5205 36.4961 22.7842 -11.2840 -4.6663
# 3 23.9772 36.4961 102.5977 -3.2049 -22.0177 8.0443
# 4 14.2018 22.7842 -3.2049 26.7998 -3.7951 -0.9478
# 5 -29.8180 -11.2840 -22.0177 -3.7951 34.0530 8.6559
# 6 -10.9239 -4.6663 8.0443 -0.9478 8.6559 38.2609
#
#
#
# Elastic Compliance Matrix: (Units=1/GPa)
#
#
# Indices 1 2 3 4 5 6 
#
# 1 0.013504 -0.001351 -0.000798 -0.004639 0.009965 0.001489
# 2 -0.001351 0.007620 -0.003070 -0.006321 -0.001708 0.001419
# 3 -0.000798 -0.003070 0.013570 0.005750 0.009062 -0.005363
# 4 -0.004639 -0.006321 0.005750 0.046220 0.003460 -0.002942
# 5 0.009965 -0.001708 0.009062 0.003460 0.046220 -0.009639
# 6 0.001489 0.001419 -0.005363 -0.002942 -0.009639 0.029970
#
#
# Mechanical properties :
#
#
# Convention : Reuss Voigt Hill
#
# Bulk Modulus (GPa) = 41.22930 63.53134 52.38032
# Shear Modulus (GPa) = 28.46914 38.68908 33.57911
#
# Velocity S-wave (km/s) = 3.45707 4.03010 3.75453
# Velocity P-wave (km/s) = 5.76569 6.95170 6.38629
#
# Compressibility (1/GPa) = 0.02425459
#
# Stress axis : x y z
#
# Youngs Moduli (GPa) = 74.05341 131.23028 73.69026
#
# Poissons Ratio (x) = 0.17732 0.05883
# Poissons Ratio (y) = 0.10006 0.22625
# Poissons Ratio (z) = 0.05912 0.40291
#
# Static dielectric constant tensor:
#      x y z
#    x 2.011490 -0.063610 0.107080 
#    y -0.063610 2.044200 -0.010610 
#    z 0.107080 -0.010610 2.040740 
# 
# From -- ./inp_files/163921.got.cif
#   From: 2010.05.17/outbox.cif.g08.bks.cpg/sg2_82_cif.got.tgz:163921.got - 2010.06.03 11:33:40.
