data_PCOD9109147
_publ_section_title
;
Structure prediction by ZEFSAII (Michael W. Deem and Ramdas Pophale) SiO2 
 PCOD9109147
Probable space group: P -1
;
_chemical_formula_sum "Si O2"
_cell_formula_units_Z 16
_cell_length_a 20.186988
_cell_length_b 6.334023
_cell_length_c 17.548997
_cell_angle_alpha 113.131044
_cell_angle_beta 20.503412
_cell_angle_gamma 116.540993
_cell_volume 700.759315
_symmetry_space_group_name_H-M "P -1"
_symmetry_group_IT_number 2
_symmetry_cell_setting 'triclinic'
loop_
_space_group_symop_operation_xyz
x,y,z
-x,-y,-z
loop_
_atom_site_type_symbol
_atom_site_label
_atom_site_fract_x
_atom_site_fract_y
_atom_site_fract_z
Si Si1 0.105031 0.554321 0.281308
Si Si2 0.379128 0.829346 0.383137
Si Si3 0.995167 0.417133 0.772024
Si Si4 0.559440 0.863632 0.488015
Si Si5 0.414978 0.362406 0.979672
Si Si6 0.841736 0.024185 0.494951
Si Si7 0.235832 0.223304 0.299825
Si Si8 0.836567 0.539394 0.121153
O O1 0.135817 0.578869 0.161027
O O2 0.982109 0.739540 0.464547
O O3 0.294523 0.560354 0.126696
O O4 0.977470 0.286585 0.394557
O O5 0.202822 0.600277 0.556746
O O6 0.566268 0.752150 0.138173
O O7 0.414875 0.980582 0.441694
O O8 0.314040 0.966543 0.401399
O O9 0.036056 0.158080 0.692833
O O10 0.913868 0.501153 0.948476
O O11 0.759340 0.778189 0.247535
O O12 0.367105 0.653185 0.676199
O O13 0.500000 0.000000 0.500000
O O14 0.629471 0.510471 0.792326
O O15 0.317478 0.175969 0.122969
O O16 0.752440 0.926664 0.658879
O O17 0.000000 0.500000 0.000000
#
# Coordination Sequence:
#
# PCOD9109147 Si02
#       8
#     2   2   2   2   2   2   2   2
#     4  10  22  40  61  93 124 166 214 259 311 374
#     4  11  23  42  63  97 127 165 212 263 315 375
#     4  10  22  41  65  90 129 166 207 260 317 374
#     4  11  27  44  69 101 131 164 220 267 317 394
#     4  11  22  40  65  89 129 168 209 263 315 370
#     4  10  20  41  63  90 131 163 210 266 306 380
#     4  10  22  44  59  91 129 169 211 260 314 369
#     4  11  25  46  68  97 129 173 210 266 328 384
#
# _framework density 22.832374999999999
#
# number of rings (size 3 to 8) (size 9 to 14) (size 15 to 20)
#    0.000    1.500    3.750    1.875    3.500    6.000 
#    2.250    0.000    0.000    0.000    0.000    0.000 
#    0.000    0.000    0.000    0.000    0.000    0.000 
#
# Total GULP energy -89491.987510 kJ/mol
# GULP energy per Si atom -5593.249219 kJ/mol
# Density = 2.278041 g / cm^3
# Si number density = 22.832375 Si / 1000 Ang^3
#
#
#
# Elastic Constant Matrix: (Units=GPa)
#
#
# Indices 1 2 3 4 5 6 
#
# 1 142.6210 33.6980 59.4724 16.1123 18.1552 -12.3292
# 2 33.6980 74.7987 33.5447 16.1097 10.7464 -9.6678
# 3 59.4724 33.5447 128.4749 14.0267 23.0166 -12.4059
# 4 16.1123 16.1097 14.0267 30.2726 -1.8427 0.4069
# 5 18.1552 10.7464 23.0166 -1.8427 55.2035 0.4178
# 6 -12.3292 -9.6678 -12.4059 0.4069 0.4178 37.3044
#
#
#
# Elastic Compliance Matrix: (Units=1/GPa)
#
#
# Indices 1 2 3 4 5 6 
#
# 1 0.009392 -0.001808 -0.003151 -0.002692 -0.001525 0.001634
# 2 -0.001808 0.017537 -0.002211 -0.007522 -0.002174 0.003318
# 3 -0.003151 -0.002211 0.010843 -0.002390 -0.003150 0.002053
# 4 -0.002692 -0.007522 -0.002390 0.039918 0.004710 -0.004122
# 5 -0.001525 -0.002174 -0.003150 0.004710 0.020528 -0.002396
# 6 0.001634 0.003318 0.002053 -0.004122 -0.002396 0.028961
#
#
# Mechanical properties :
#
#
# Convention : Reuss Voigt Hill
#
# Bulk Modulus (GPa) = 42.67590 66.59162 54.63376
# Shear Modulus (GPa) = 33.48316 39.16807 36.32561
#
# Velocity S-wave (km/s) = 3.83362 4.14631 3.99302
# Velocity P-wave (km/s) = 6.19088 7.22158 6.72600
#
# Compressibility (1/GPa) = 0.02343243
#
# Stress axis : x y z
#
# Youngs Moduli (GPa) = 106.47146 57.02372 92.22799
#
# Poissons Ratio (x) = 0.10312 0.29058
# Poissons Ratio (y) = 0.19253 0.20388
# Poissons Ratio (z) = 0.33545 0.12606
#
# Static dielectric constant tensor:
#      x y z
#    x 1.782090 0.011230 -0.001540 
#    y 0.011230 1.882920 0.011150 
#    z -0.001540 0.011150 1.876040 
# 
# From -- ./inp_files/120058.got.cif
#   From: 2010.05.17/outbox.cif.g08.bks.cpg/sg2_61_cif.got.tgz:120058.got - 2010.06.03 11:33:40.
