data_PCOD9109471
_publ_section_title
;
Structure prediction by ZEFSAII (Michael W. Deem and Ramdas Pophale) SiO2 
 PCOD9109471
Probable space group: P -1
;
_chemical_formula_sum "Si O2"
_cell_formula_units_Z 16
_cell_length_a 13.778855
_cell_length_b 14.024107
_cell_length_c 10.872322
_cell_angle_alpha 30.388308
_cell_angle_beta 47.327982
_cell_angle_gamma 44.305120
_cell_volume 731.364579
_symmetry_space_group_name_H-M "P -1"
_symmetry_group_IT_number 2
_symmetry_cell_setting 'triclinic'
loop_
_space_group_symop_operation_xyz
x,y,z
-x,-y,-z
loop_
_atom_site_type_symbol
_atom_site_label
_atom_site_fract_x
_atom_site_fract_y
_atom_site_fract_z
Si Si1 0.118851 0.701886 0.803995
Si Si2 0.553789 0.033610 0.780700
Si Si3 0.584628 0.443797 0.365197
Si Si4 0.877177 0.848124 0.675685
Si Si5 0.230023 0.406153 0.269338
Si Si6 0.219259 0.765422 0.045750
Si Si7 0.490605 0.825611 0.845192
Si Si8 0.035771 0.186221 0.631673
O O1 0.248377 0.614487 0.694963
O O2 0.972234 0.723138 0.843356
O O3 0.112285 0.929108 0.581393
O O4 0.165178 0.561884 0.038954
O O5 0.560903 0.254600 0.532862
O O6 0.713861 0.879368 0.796402
O O7 0.472612 0.001134 0.765392
O O8 0.500000 0.000000 0.000000
O O9 0.500000 0.500000 0.500000
O O10 0.529556 0.629864 0.115490
O O11 0.937628 0.762340 0.587225
O O12 0.260536 0.549558 0.185048
O O13 0.373096 0.228154 0.300835
O O14 0.114807 0.305016 0.513789
O O15 0.125370 0.760322 0.250990
O O16 0.352088 0.829549 0.889175
O O17 0.114684 0.947349 0.851265
#
# Coordination Sequence:
#
# PCOD9109471 Si02
#       8
#     2   2   2   2   2   2   2   2
#     4   9  21  37  68  92 126 165 210 256 329 382
#     4  11  22  41  63  95 134 161 212 261 316 397
#     4  10  21  38  61  93 130 161 203 262 317 378
#     4  10  20  41  65  94 126 175 203 265 327 379
#     4  11  22  45  66  96 127 165 223 267 311 384
#     4  11  26  44  64  94 130 172 219 268 315 374
#     4  11  24  41  66  92 126 173 211 261 322 377
#     4  11  24  43  67  88 134 166 219 267 320 372
#
# _framework density 21.876913999999999
#
# number of rings (size 3 to 8) (size 9 to 14) (size 15 to 20)
#    0.000    1.500    3.750    0.750    1.750    3.000 
#    2.250    0.000    0.000    0.000    0.000    0.000 
#    0.000    0.000    0.000    0.000    0.000    0.000 
#
# Total GULP energy -89423.902423 kJ/mol
# GULP energy per Si atom -5588.993901 kJ/mol
# Density = 2.182712 g / cm^3
# Si number density = 21.876914 Si / 1000 Ang^3
#
#
#
# Elastic Constant Matrix: (Units=GPa)
#
#
# Indices 1 2 3 4 5 6 
#
# 1 63.9775 35.9782 -3.5038 7.2192 -13.6580 6.1108
# 2 35.9782 90.0792 19.0751 2.3360 -5.3826 13.9412
# 3 -3.5038 19.0751 56.2590 0.1573 -15.3666 2.3907
# 4 7.2192 2.3360 0.1573 33.3185 11.0056 -9.3433
# 5 -13.6580 -5.3826 -15.3666 11.0056 25.2111 -2.4372
# 6 6.1108 13.9412 2.3907 -9.3433 -2.4372 28.7362
#
#
#
# Elastic Compliance Matrix: (Units=1/GPa)
#
#
# Indices 1 2 3 4 5 6 
#
# 1 0.033766 -0.013612 0.015944 -0.018725 0.032775 -0.005211
# 2 -0.013612 0.018643 -0.010242 0.004264 -0.011975 -0.004927
# 3 0.015944 -0.010242 0.030898 -0.013968 0.031101 -0.002896
# 4 -0.018725 0.004264 -0.013968 0.051164 -0.038492 0.016446
# 5 0.032775 -0.011975 0.031101 -0.038492 0.089788 -0.008648
# 6 -0.005211 -0.004927 -0.002896 0.016446 -0.008648 0.043153
#
#
# Mechanical properties :
#
#
# Convention : Reuss Voigt Hill
#
# Bulk Modulus (GPa) = 14.81771 34.82387 24.82079
# Shear Modulus (GPa) = 16.35440 28.03755 22.19598
#
# Velocity S-wave (km/s) = 2.73713 3.58383 3.18871
# Velocity P-wave (km/s) = 4.09598 5.75133 4.99274
#
# Compressibility (1/GPa) = 0.06748682
#
# Stress axis : x y z
#
# Youngs Moduli (GPa) = 29.61555 53.63812 32.36475
#
# Poissons Ratio (x) = 0.73013 -0.51603
# Poissons Ratio (y) = 0.40313 0.33149
# Poissons Ratio (z) = -0.47220 0.54938
#
# Static dielectric constant tensor:
#      x y z
#    x 1.725630 -0.022690 -0.013440 
#    y -0.022690 1.788970 -0.024280 
#    z -0.013440 -0.024280 1.801480 
# 
# From -- ./inp_files/454318.got.cif
#   From: 2010.05.17/outbox.cif.g08.bks.cpg/sg2_228_cif.got.tgz:454318.got - 2010.06.03 11:33:40.
