data_PCOD9109071
_publ_section_title
;
Structure prediction by ZEFSAII (Michael W. Deem and Ramdas Pophale) SiO2 
 PCOD9109071
Probable space group: P -1
;
_chemical_formula_sum "Si O2"
_cell_formula_units_Z 16
_cell_length_a 13.173263
_cell_length_b 5.295873
_cell_length_c 10.549613
_cell_angle_alpha 110.559291
_cell_angle_beta 117.496826
_cell_angle_gamma 94.647297
_cell_volume 584.478846
_symmetry_space_group_name_H-M "P -1"
_symmetry_group_IT_number 2
_symmetry_cell_setting 'triclinic'
loop_
_space_group_symop_operation_xyz
x,y,z
-x,-y,-z
loop_
_atom_site_type_symbol
_atom_site_label
_atom_site_fract_x
_atom_site_fract_y
_atom_site_fract_z
Si Si1 0.520026 0.077695 0.236298
Si Si2 0.191927 0.465109 0.580511
Si Si3 0.629353 0.548725 0.869569
Si Si4 0.639841 0.667639 0.147490
Si Si5 0.061952 0.752105 0.982270
Si Si6 0.387935 0.741518 0.436041
Si Si7 0.816439 0.004849 0.678727
Si Si8 0.995664 0.342912 0.645348
O O1 0.436126 0.205006 0.125919
O O2 0.563491 0.315267 0.410578
O O3 0.442610 0.777578 0.197459
O O4 0.630740 0.978992 0.227343
O O5 0.312332 0.473354 0.732150
O O6 0.113246 0.658926 0.514379
O O7 0.097819 0.296868 0.605384
O O8 0.207015 0.314838 0.430138
O O9 0.661454 0.508044 0.736356
O O10 0.712748 0.642814 0.057211
O O11 0.500000 0.500000 0.000000
O O12 0.053276 0.632806 0.813532
O O13 0.182237 0.900644 0.157397
O O14 0.000000 0.500000 0.000000
O O15 0.000000 0.000000 0.000000
O O16 0.283796 0.882921 0.422526
O O17 0.500000 0.000000 0.500000
O O18 0.937801 0.138823 0.692022
#
# Coordination Sequence:
#
# PCOD9109071 Si02
#       8
#     2   2   2   2   2   2   2   2
#     4  10  20  41  62  90 128 179 218 274 330 405
#     4  11  22  44  68  99 136 178 238 282 347 408
#     4  10  22  39  61  91 133 171 224 273 331 405
#     4  10  22  40  65  94 135 178 224 280 344 406
#     4  10  21  42  69  99 134 172 225 288 347 407
#     4  10  22  41  65  97 132 178 222 282 342 416
#     4  11  22  42  69  96 135 177 231 285 349 408
#     4  10  24  42  70 100 133 181 235 289 343 412
#
# _framework density 27.374814000000001
#
# number of rings (size 3 to 8) (size 9 to 14) (size 15 to 20)
#    0.000    1.750    2.500    1.125    1.750    2.000 
#    9.000    0.000    0.000    0.000    0.000    0.000 
#    0.000    0.000    0.000    0.000    0.000    0.000 
#
# Total GULP energy -89120.319126 kJ/mol
# GULP energy per Si atom -5570.019945 kJ/mol
# Density = 2.731251 g / cm^3
# Si number density = 27.374814 Si / 1000 Ang^3
#
#
#
# Elastic Constant Matrix: (Units=GPa)
#
#
# Indices 1 2 3 4 5 6 
#
# 1 73.0664 16.8667 19.4567 14.6118 -5.1303 -2.1586
# 2 16.8667 125.0756 19.0929 -9.3768 5.1825 -6.9924
# 3 19.4567 19.0929 167.8941 -20.1136 -31.3855 -14.8268
# 4 14.6118 -9.3768 -20.1136 34.3921 -13.2080 2.4134
# 5 -5.1303 5.1825 -31.3855 -13.2080 52.8401 1.3776
# 6 -2.1586 -6.9924 -14.8268 2.4134 1.3776 40.1285
#
#
#
# Elastic Compliance Matrix: (Units=1/GPa)
#
#
# Indices 1 2 3 4 5 6 
#
# 1 0.017289 -0.002499 -0.003662 -0.011349 -0.003086 -0.000070
# 2 -0.002499 0.008693 -0.000371 0.002901 -0.000619 0.001090
# 3 -0.003662 -0.000371 0.009153 0.009501 0.007432 0.002294
# 4 -0.011349 0.002901 0.009501 0.046321 0.015833 0.000076
# 5 -0.003086 -0.000619 0.007432 0.015833 0.027043 0.000592
# 6 -0.000070 0.001090 0.002294 0.000076 0.000592 0.025929
#
#
# Mechanical properties :
#
#
# Convention : Reuss Voigt Hill
#
# Bulk Modulus (GPa) = 45.30950 52.98539 49.14744
# Shear Modulus (GPa) = 32.28959 46.18014 39.23487
#
# Velocity S-wave (km/s) = 3.43816 4.11171 3.78993
# Velocity P-wave (km/s) = 5.68760 6.47604 6.09458
#
# Compressibility (1/GPa) = 0.02207043
#
# Stress axis : x y z
#
# Youngs Moduli (GPa) = 57.84006 115.03694 109.25538
#
# Poissons Ratio (x) = 0.28751 0.40010
# Poissons Ratio (y) = 0.14456 0.04051
# Poissons Ratio (z) = 0.21182 0.04266
#
# Static dielectric constant tensor:
#      x y z
#    x 2.283620 0.086640 -0.022580 
#    y 0.086640 2.139110 0.080230 
#    z -0.022580 0.080230 2.375920 
# 
# From -- ./inp_files/442185.got.cif
#   From: 2010.05.17/outbox.cif.g08.bks.cpg/sg2_222_cif.got.tgz:442185.got - 2010.06.03 11:33:40.
