data_PCOD9109986
_publ_section_title
;
Structure prediction by ZEFSAII (Michael W. Deem and Ramdas Pophale) SiO2 
 PCOD9109986
Probable space group: P -1
;
_chemical_formula_sum "Si O2"
_cell_formula_units_Z 16
_cell_length_a 15.296369
_cell_length_b 12.493904
_cell_length_c 9.644605
_cell_angle_alpha 40.038418
_cell_angle_beta 137.056919
_cell_angle_gamma 133.831917
_cell_volume 770.238273
_symmetry_space_group_name_H-M "P -1"
_symmetry_group_IT_number 2
_symmetry_cell_setting 'triclinic'
loop_
_space_group_symop_operation_xyz
x,y,z
-x,-y,-z
loop_
_atom_site_type_symbol
_atom_site_label
_atom_site_fract_x
_atom_site_fract_y
_atom_site_fract_z
Si Si1 0.696345 0.277959 0.609948
Si Si2 0.213813 0.478675 0.293439
Si Si3 0.997940 0.430828 0.721373
Si Si4 0.310325 0.033885 0.648881
Si Si5 0.550942 0.369254 0.095874
Si Si6 0.552022 0.916692 0.948647
Si Si7 0.735667 0.630438 0.834917
Si Si8 0.061874 0.723149 0.737632
O O1 0.697138 0.442557 0.547629
O O2 0.616472 0.272199 0.380726
O O3 0.633185 0.104665 0.795979
O O4 0.850748 0.313200 0.710501
O O5 0.285728 0.447606 0.268616
O O6 0.088179 0.306304 0.348789
O O7 0.142008 0.628138 0.026433
O O8 0.036912 0.602832 0.691893
O O9 0.000000 0.500000 0.500000
O O10 0.108347 0.334745 0.979077
O O11 0.399744 0.921908 0.796184
O O12 0.306819 0.194544 0.389636
O O13 0.160607 0.912117 0.630946
O O14 0.384223 0.106419 0.807239
O O15 0.447738 0.228498 0.019710
O O16 0.500000 0.500000 0.000000
O O17 0.656744 0.488698 0.993259
#
# Coordination Sequence:
#
# PCOD9109986 Si02
#       8
#     2   2   2   2   2   2   2   2
#     4  11  22  42  69  96 131 171 222 263 331 392
#     4   9  19  37  68  94 125 169 216 266 323 384
#     4  10  20  41  68  97 130 176 209 263 341 394
#     4  11  24  41  67 101 132 169 225 269 320 381
#     4  12  27  45  66  95 133 174 223 267 326 392
#     4  11  25  44  67  94 130 182 216 269 325 382
#     4  11  24  41  67  97 132 168 220 275 321 388
#     4   9  18  38  64  94 127 167 217 263 323 387
#
# _framework density 20.772791000000002
#
# number of rings (size 3 to 8) (size 9 to 14) (size 15 to 20)
#    0.000    1.500    2.500    3.375    3.500    1.000 
#    0.000    0.625    0.000    0.000    0.000    0.000 
#    0.000    0.000    0.000    0.000    0.000    0.000 
#
# Total GULP energy -89415.670635 kJ/mol
# GULP energy per Si atom -5588.479415 kJ/mol
# Density = 2.072551 g / cm^3
# Si number density = 20.772791 Si / 1000 Ang^3
#
#
#
# Elastic Constant Matrix: (Units=GPa)
#
#
# Indices 1 2 3 4 5 6 
#
# 1 76.0889 14.0865 2.3358 9.1388 -13.2928 -11.9283
# 2 14.0865 65.3717 1.2198 9.4294 2.5481 -10.0907
# 3 2.3358 1.2198 74.1989 6.0560 -10.4149 -7.5448
# 4 9.1388 9.4294 6.0560 17.4566 -6.3460 -7.6790
# 5 -13.2928 2.5481 -10.4149 -6.3460 28.0556 -1.8014
# 6 -11.9283 -10.0907 -7.5448 -7.6790 -1.8014 27.4132
#
#
#
# Elastic Compliance Matrix: (Units=1/GPa)
#
#
# Indices 1 2 3 4 5 6 
#
# 1 0.016325 -0.002621 0.001548 -0.001596 0.008616 0.006684
# 2 -0.002621 0.017711 0.000129 -0.008744 -0.004609 0.002662
# 3 0.001548 0.000129 0.014917 -0.001720 0.006175 0.004751
# 4 -0.001596 -0.008744 -0.001720 0.078359 0.018329 0.018768
# 5 0.008616 -0.004609 0.006175 0.018329 0.047353 0.011998
# 6 0.006684 0.002662 0.004751 0.018768 0.011998 0.047721
#
#
# Mechanical properties :
#
#
# Convention : Reuss Voigt Hill
#
# Bulk Modulus (GPa) = 21.24672 27.88263 24.56467
# Shear Modulus (GPa) = 20.83671 27.78624 24.31147
#
# Velocity S-wave (km/s) = 3.17058 3.66133 3.42475
# Velocity P-wave (km/s) = 4.86351 5.59692 5.24306
#
# Compressibility (1/GPa) = 0.04706610
#
# Stress axis : x y z
#
# Youngs Moduli (GPa) = 61.25638 56.46099 67.03898
#
# Poissons Ratio (x) = 0.14796 -0.10381
# Poissons Ratio (y) = 0.16053 -0.00863
# Poissons Ratio (z) = -0.09485 -0.00727
#
# Static dielectric constant tensor:
#      x y z
#    x 1.766590 0.007860 0.017310 
#    y 0.007860 1.740380 0.019180 
#    z 0.017310 0.019180 1.747610 
# 
# From -- ./inp_files/306376.got.cif
#   From: 2010.05.17/outbox.cif.g08.bks.cpg/sg2_154_cif.got.tgz:306376.got - 2010.06.03 11:33:40.
