data_PCOD9109360
_publ_section_title
;
Structure prediction by ZEFSAII (Michael W. Deem and Ramdas Pophale) SiO2 
 PCOD9109360
Probable space group: P -1
;
_chemical_formula_sum "Si O2"
_cell_formula_units_Z 14
_cell_length_a 8.307982
_cell_length_b 9.984673
_cell_length_c 16.729131
_cell_angle_alpha 137.138279
_cell_angle_beta 67.131232
_cell_angle_gamma 136.122076
_cell_volume 624.894064
_symmetry_space_group_name_H-M "P -1"
_symmetry_group_IT_number 2
_symmetry_cell_setting 'triclinic'
loop_
_space_group_symop_operation_xyz
x,y,z
-x,-y,-z
loop_
_atom_site_type_symbol
_atom_site_label
_atom_site_fract_x
_atom_site_fract_y
_atom_site_fract_z
Si Si1 0.111963 0.645588 0.434731
Si Si2 0.082972 0.065759 0.604943
Si Si3 0.479708 0.887076 0.041383
Si Si4 0.341799 0.918212 0.656564
Si Si5 0.206055 0.804787 0.206272
Si Si6 0.037045 0.375220 0.174995
Si Si7 0.490990 0.455356 0.807385
O O1 0.920746 0.338356 0.370097
O O2 0.342550 0.824000 0.526587
O O3 0.129398 0.612848 0.324084
O O4 0.020491 0.797156 0.528653
O O5 0.367915 0.328811 0.688165
O O6 0.949036 0.128543 0.709320
O O7 0.000000 0.000000 0.500000
O O8 0.283039 0.836635 0.113940
O O9 0.417638 0.609150 0.921772
O O10 0.752159 0.114175 0.124795
O O11 0.500000 0.000000 0.000000
O O12 0.540108 0.978318 0.700790
O O13 0.389789 0.188624 0.759346
O O14 0.085038 0.512107 0.139291
O O15 0.217709 0.339215 0.148019
#
# Coordination Sequence:
#
# PCOD9109360 Si02
#       7
#     2   2   2   2   2   2   2
#     4  10  20  41  65 103 144 168 232 279 337 417
#     4  11  23  40  71 105 140 183 224 278 355 414
#     4  12  27  49  69 101 141 180 237 286 341 413
#     4   9  21  40  67 101 132 181 225 283 336 406
#     4  11  24  44  71 101 141 184 226 283 349 404
#     4  11  23  44  72 101 137 183 231 283 341 407
#     4  10  25  44  68  99 134 186 227 284 341 400
#
# _framework density 22.403796
#
# number of rings (size 3 to 8) (size 9 to 14) (size 15 to 20)
#    0.000    1.429    2.857    1.286    2.000    6.857 
#   10.286    0.000    0.000    0.000    0.000    0.000 
#    0.000    0.000    0.000    0.000    0.000    0.000 
#
# Total GULP energy -78159.786408 kJ/mol
# GULP energy per Si atom -5582.841886 kJ/mol
# Density = 2.235280 g / cm^3
# Si number density = 22.403796 Si / 1000 Ang^3
#
#
#
# Elastic Constant Matrix: (Units=GPa)
#
#
# Indices 1 2 3 4 5 6 
#
# 1 90.9145 15.6296 53.6990 -12.3346 3.4989 0.8887
# 2 15.6296 78.0799 37.6912 -12.0719 11.6312 2.0375
# 3 53.6990 37.6912 116.5964 -13.6005 -1.4856 5.1528
# 4 -12.3346 -12.0719 -13.6005 42.6267 5.8858 8.5064
# 5 3.4989 11.6312 -1.4856 5.8858 42.6729 -2.1609
# 6 0.8887 2.0375 5.1528 8.5064 -2.1609 21.7269
#
#
#
# Elastic Compliance Matrix: (Units=1/GPa)
#
#
# Indices 1 2 3 4 5 6 
#
# 1 0.015542 0.001167 -0.007205 0.002923 -0.002267 -0.000406
# 2 0.001167 0.016810 -0.005372 0.004716 -0.005655 -0.002759
# 3 -0.007205 -0.005372 0.013902 0.001054 0.002258 -0.002687
# 4 0.002923 0.004716 0.001054 0.029417 -0.006201 -0.012946
# 5 -0.002267 -0.005655 0.002258 -0.006201 0.026355 0.005137
# 6 -0.000406 -0.002759 -0.002687 -0.012946 0.005137 0.052518
#
#
# Mechanical properties :
#
#
# Convention : Reuss Voigt Hill
#
# Bulk Modulus (GPa) = 42.67134 55.51449 49.09292
# Shear Modulus (GPa) = 27.00137 33.31005 30.15571
#
# Velocity S-wave (km/s) = 3.47539 3.86009 3.67278
# Velocity P-wave (km/s) = 5.93230 6.68580 6.32029
#
# Compressibility (1/GPa) = 0.02343493
#
# Stress axis : x y z
#
# Youngs Moduli (GPa) = 64.34019 59.48718 71.93211
#
# Poissons Ratio (x) = -0.06944 0.51830
# Poissons Ratio (y) = -0.07511 0.38641
# Poissons Ratio (z) = 0.46360 0.31955
#
# Static dielectric constant tensor:
#      x y z
#    x 1.887900 0.018610 0.044530 
#    y 0.018610 1.867850 -0.032000 
#    z 0.044530 -0.032000 1.846520 
# 
# From -- ./inp_files/415340.got.cif
#   From: 2010.05.17/outbox.cif.g08.bks.cpg/sg2_208_cif.got.tgz:415340.got - 2010.06.03 11:33:40.
