data_PCOD9109073
_publ_section_title
;
Structure prediction by ZEFSAII (Michael W. Deem and Ramdas Pophale) SiO2 
 PCOD9109073
Probable space group: P -1
;
_chemical_formula_sum "Si O2"
_cell_formula_units_Z 13
_cell_length_a 11.467956
_cell_length_b 6.527830
_cell_length_c 13.823284
_cell_angle_alpha 64.863700
_cell_angle_beta 150.113844
_cell_angle_gamma 106.490607
_cell_volume 458.550770
_symmetry_space_group_name_H-M "P -1"
_symmetry_group_IT_number 2
_symmetry_cell_setting 'triclinic'
loop_
_space_group_symop_operation_xyz
x,y,z
-x,-y,-z
loop_
_atom_site_type_symbol
_atom_site_label
_atom_site_fract_x
_atom_site_fract_y
_atom_site_fract_z
Si Si1 0.321795 0.803343 0.772657
Si Si2 0.784813 0.683504 0.640749
Si Si3 0.950877 0.153308 0.712356
Si Si4 0.576843 0.643220 0.699318
Si Si5 0.000000 0.500000 0.500000
Si Si6 0.598125 0.040735 0.794078
Si Si7 0.286177 0.581524 0.970823
O O1 0.389638 0.022032 0.726687
O O2 0.312969 0.801634 0.882114
O O3 0.099100 0.700695 0.594495
O O4 0.540886 0.615958 0.923938
O O5 0.754876 0.624035 0.742516
O O6 0.020586 0.532848 0.795016
O O7 0.870728 0.930104 0.650250
O O8 0.524565 0.726298 0.396209
O O9 0.695381 0.279230 0.545537
O O10 0.020935 0.324503 0.646456
O O11 0.153613 0.030895 0.956794
O O12 0.619770 0.852641 0.759608
O O13 0.615439 0.434669 0.846545
#
# Coordination Sequence:
#
# PCOD9109073 Si02
#       7
#     2   2   2   2   1   2   2
#     4  10  21  40  66  85 120 163 205 253 303 373
#     4  11  23  40  59  94 133 156 201 255 303 354
#     4  11  22  37  66  92 120 166 207 247 300 364
#     4  10  21  40  64  88 123 172 204 243 294 369
#     4  12  18  40  68  88 114 156 216 242 306 370
#     4  10  21  41  61  93 120 163 203 248 308 357
#     4  10  20  41  62  91 121 165 200 254 307 352
#
# _framework density 28.350187999999999
#
# number of rings (size 3 to 8) (size 9 to 14) (size 15 to 20)
#    0.000    1.538    4.615    5.077    0.000    3.077 
#    2.769    1.538    0.000    7.385    0.000    0.000 
#    0.000    0.000    0.000    0.000    0.000    0.000 
#
# Total GULP energy -72488.858728 kJ/mol
# GULP energy per Si atom -5576.066056 kJ/mol
# Density = 2.828566 g / cm^3
# Si number density = 28.350188 Si / 1000 Ang^3
#
#
#
# Elastic Constant Matrix: (Units=GPa)
#
#
# Indices 1 2 3 4 5 6 
#
# 1 219.1943 3.5178 91.4533 -21.5235 -21.3330 17.2979
# 2 3.5178 76.3087 16.6150 -7.9911 -1.6302 13.5245
# 3 91.4533 16.6150 203.5422 3.8822 -27.9869 -3.5992
# 4 -21.5235 -7.9911 3.8822 46.9033 -8.0330 0.7427
# 5 -21.3330 -1.6302 -27.9869 -8.0330 41.1170 -5.8607
# 6 17.2979 13.5245 -3.5992 0.7427 -5.8607 21.4268
#
#
#
# Elastic Compliance Matrix: (Units=1/GPa)
#
#
# Indices 1 2 3 4 5 6 
#
# 1 0.007071 0.002213 -0.003407 0.004227 0.001195 -0.007497
# 2 0.002213 0.016315 -0.002794 0.004031 -0.001175 -0.013015
# 3 -0.003407 -0.002794 0.007338 -0.002126 0.003674 0.006825
# 4 0.004227 0.004031 -0.002126 0.025067 0.004974 -0.005822
# 5 0.001195 -0.001175 0.003674 0.004974 0.029550 0.008304
# 6 -0.007497 -0.013015 0.006825 -0.005822 0.008304 0.064557
#
#
# Mechanical properties :
#
#
# Convention : Reuss Voigt Hill
#
# Bulk Modulus (GPa) = 43.96165 80.24639 62.10402
# Shear Modulus (GPa) = 30.21924 47.72004 38.96964
#
# Velocity S-wave (km/s) = 3.26840 4.10718 3.71156
# Velocity P-wave (km/s) = 5.45743 7.13153 6.34989
#
# Compressibility (1/GPa) = 0.02274710
#
# Stress axis : x y z
#
# Youngs Moduli (GPa) = 141.42400 61.29411 136.27496
#
# Poissons Ratio (x) = -0.13562 0.46423
# Poissons Ratio (y) = -0.31292 0.38082
# Poissons Ratio (z) = 0.48177 0.17128
#
# Static dielectric constant tensor:
#      x y z
#    x 2.155440 -0.102690 0.064700 
#    y -0.102690 2.531840 -0.075460 
#    z 0.064700 -0.075460 2.315800 
# 
# From -- ./inp_files/512970.got.cif
#   From: 2010.05.17/outbox.cif.g08.bks.cpg/sg2_257_cif.got.tgz:512970.got - 2010.06.03 11:33:40.
