data_PCOD9109081
_publ_section_title
;
Structure prediction by ZEFSAII (Michael W. Deem and Ramdas Pophale) SiO2 
 PCOD9109081
Probable space group: P -1
;
_chemical_formula_sum "Si O2"
_cell_formula_units_Z 14
_cell_length_a 21.439454
_cell_length_b 7.727510
_cell_length_c 27.074610
_cell_angle_alpha 43.412853
_cell_angle_beta 12.040567
_cell_angle_gamma 42.223289
_cell_volume 628.737348
_symmetry_space_group_name_H-M "P -1"
_symmetry_group_IT_number 2
_symmetry_cell_setting 'triclinic'
loop_
_space_group_symop_operation_xyz
x,y,z
-x,-y,-z
loop_
_atom_site_type_symbol
_atom_site_label
_atom_site_fract_x
_atom_site_fract_y
_atom_site_fract_z
Si Si1 0.297690 0.772913 0.618211
Si Si2 0.798979 0.067730 0.448083
Si Si3 0.743731 0.381282 0.572444
Si Si4 0.230433 0.479239 0.371392
Si Si5 0.293371 0.314139 0.855363
Si Si6 0.732787 0.728591 0.887485
Si Si7 0.304542 0.845858 0.771013
O O1 0.500000 0.500000 0.500000
O O2 0.156211 0.906147 0.649593
O O3 0.517658 0.950890 0.431414
O O4 0.019676 0.754844 0.872287
O O5 0.457865 0.205173 0.700751
O O6 0.033657 0.210399 0.264732
O O7 0.822355 0.782949 0.509092
O O8 0.805548 0.326011 0.593801
O O9 0.542084 0.226454 0.726248
O O10 0.522696 0.665597 0.679412
O O11 0.058255 0.364116 0.302865
O O12 0.000000 0.500000 0.500000
O O13 0.549237 0.517808 0.092755
O O14 0.246241 0.622808 0.826678
O O15 0.500000 0.000000 0.000000
O O16 0.000000 0.000000 0.000000
#
# Coordination Sequence:
#
# PCOD9109081 Si02
#       7
#     2   2   2   2   2   2   2
#     4  12  22  40  68  90 124 174 207 255 326 373
#     4  11  24  42  62  95 129 159 219 265 304 393
#     4   9  22  44  62  91 134 165 206 271 315 369
#     4  12  24  41  65  95 128 171 212 265 320 377
#     4   9  22  40  63  90 126 167 207 260 322 363
#     4  11  24  44  65  96 127 168 218 261 322 382
#     4  10  20  41  62  92 128 160 211 258 310 384
#
# _framework density 22.266850000000002
#
# number of rings (size 3 to 8) (size 9 to 14) (size 15 to 20)
#    0.857    0.571    4.286    0.857    2.000    1.714 
#    2.571    0.714    0.000    0.000    0.000    0.000 
#    0.000    0.000    0.000    0.000    0.000    0.000 
#
# Total GULP energy -78120.514960 kJ/mol
# GULP energy per Si atom -5580.036783 kJ/mol
# Density = 2.221617 g / cm^3
# Si number density = 22.266850 Si / 1000 Ang^3
#
#
#
# Elastic Constant Matrix: (Units=GPa)
#
#
# Indices 1 2 3 4 5 6 
#
# 1 118.3453 7.1490 46.5384 3.3912 11.1616 -12.6858
# 2 7.1490 44.9951 7.6666 -7.2855 -3.7613 -11.0965
# 3 46.5384 7.6666 167.6619 -22.7882 7.6248 -1.6161
# 4 3.3912 -7.2855 -22.7882 46.9198 3.3359 0.5352
# 5 11.1616 -3.7613 7.6248 3.3359 21.4949 4.1993
# 6 -12.6858 -11.0965 -1.6161 0.5352 4.1993 20.7237
#
#
#
# Elastic Compliance Matrix: (Units=1/GPa)
#
#
# Indices 1 2 3 4 5 6 
#
# 1 0.011075 -0.000158 -0.002987 -0.001943 -0.005924 0.007712
# 2 -0.000158 0.026417 -0.000633 0.003528 0.001733 0.013556
# 3 -0.002987 -0.000633 0.007399 0.003834 -0.001509 -0.001384
# 4 -0.001943 0.003528 0.003834 0.024113 -0.003696 0.001125
# 5 -0.005924 0.001733 -0.001509 -0.003696 0.053667 -0.013595
# 6 0.007712 0.013556 -0.001384 0.001125 -0.013595 0.062852
#
#
# Mechanical properties :
#
#
# Convention : Reuss Voigt Hill
#
# Bulk Modulus (GPa) = 26.78478 50.41226 38.59852
# Shear Modulus (GPa) = 24.32795 35.80423 30.06609
#
# Velocity S-wave (km/s) = 3.30898 4.01429 3.67858
# Velocity P-wave (km/s) = 5.16278 6.64644 5.95103
#
# Compressibility (1/GPa) = 0.03733464
#
# Stress axis : x y z
#
# Youngs Moduli (GPa) = 90.29124 37.85441 135.15500
#
# Poissons Ratio (x) = 0.00600 0.40374
# Poissons Ratio (y) = 0.01431 0.08549
# Poissons Ratio (z) = 0.26972 0.02395
#
# Static dielectric constant tensor:
#      x y z
#    x 1.868640 0.059980 -0.059670 
#    y 0.059980 1.700190 -0.014450 
#    z -0.059670 -0.014450 1.795500 
# 
# From -- ./inp_files/624122.got.cif
#   From: 2010.05.17/outbox.cif.g08.bks.cpg/sg2_313_cif.got.tgz:624122.got - 2010.06.03 11:33:40.
