data_PCOD9109630
_publ_section_title
;
Structure prediction by ZEFSAII (Michael W. Deem and Ramdas Pophale) SiO2 
 PCOD9109630
Probable space group: P -1
;
_chemical_formula_sum "Si O2"
_cell_formula_units_Z 15
_cell_length_a 12.588500
_cell_length_b 11.106534
_cell_length_c 7.940777
_cell_angle_alpha 100.028045
_cell_angle_beta 89.295385
_cell_angle_gamma 34.226378
_cell_volume 589.944487
_symmetry_space_group_name_H-M "P -1"
_symmetry_group_IT_number 2
_symmetry_cell_setting 'triclinic'
loop_
_space_group_symop_operation_xyz
x,y,z
-x,-y,-z
loop_
_atom_site_type_symbol
_atom_site_label
_atom_site_fract_x
_atom_site_fract_y
_atom_site_fract_z
Si Si1 0.877042 0.419579 0.596897
Si Si2 0.251927 0.959563 0.660003
Si Si3 0.234806 0.744642 0.412459
Si Si4 0.591569 0.140718 0.838680
Si Si5 0.923755 0.766792 0.961899
Si Si6 0.261473 0.312585 0.000867
Si Si7 0.500000 0.500000 0.000000
Si Si8 0.566718 0.798335 0.483898
O O1 0.764841 0.398635 0.583501
O O2 0.795427 0.569492 0.472275
O O3 0.100647 0.168219 0.579286
O O4 0.807134 0.569465 0.790579
O O5 0.129467 0.075684 0.864562
O O6 0.315458 0.763567 0.551939
O O7 0.436208 0.870230 0.655454
O O8 0.340341 0.663797 0.210192
O O9 0.000000 0.000000 0.500000
O O10 0.487341 0.122161 0.916461
O O11 0.509963 0.341908 0.975866
O O12 0.517040 0.204757 0.665408
O O13 0.821683 0.903986 0.823318
O O14 0.818710 0.745530 0.027329
O O15 0.148716 0.510074 0.915497
O O16 0.500000 0.000000 0.500000
#
# Coordination Sequence:
#
# PCOD9109630 Si02
#       8
#     2   2   2   2   2   2   1   2
#     4  10  22  41  68  92 130 185 228 282 351 413
#     4  10  22  41  65  95 128 179 231 280 349 412
#     4  10  22  45  74 100 140 183 234 292 352 414
#     4  12  24  40  61  98 139 171 229 293 339 413
#     4  10  22  39  67  94 128 179 229 283 349 414
#     4  10  20  41  66  93 127 176 233 283 345 415
#     4  12  24  44  70 108 138 184 238 286 350 424
#     4  12  25  39  62  98 136 181 231 282 347 418
#
# _framework density 25.426121999999999
#
# number of rings (size 3 to 8) (size 9 to 14) (size 15 to 20)
#    0.000    1.333    2.667    2.800    0.000    3.200 
#    0.000    0.667    0.000    0.000    0.000    0.000 
#    0.000    0.000    0.000    0.000    0.000    0.000 
#
# Total GULP energy -83537.670931 kJ/mol
# GULP energy per Si atom -5569.178062 kJ/mol
# Density = 2.536825 g / cm^3
# Si number density = 25.426122 Si / 1000 Ang^3
#
#
#
# Elastic Constant Matrix: (Units=GPa)
#
#
# Indices 1 2 3 4 5 6 
#
# 1 70.3650 0.8108 -8.0311 21.1474 14.2083 6.7198
# 2 0.8108 143.3872 38.8545 -6.4627 20.7638 -23.9197
# 3 -8.0311 38.8545 116.0509 6.0111 17.7793 -1.6362
# 4 21.1474 -6.4627 6.0111 37.5431 0.5106 9.4150
# 5 14.2083 20.7638 17.7793 0.5106 38.7438 7.2290
# 6 6.7198 -23.9197 -1.6362 9.4150 7.2290 40.1052
#
#
#
# Elastic Compliance Matrix: (Units=1/GPa)
#
#
# Indices 1 2 3 4 5 6 
#
# 1 0.019857 -0.000098 0.003395 -0.011912 -0.008844 0.001144
# 2 -0.000098 0.009430 -0.002313 0.000526 -0.005149 0.006351
# 3 0.003395 -0.002313 0.010584 -0.004015 -0.004866 0.000303
# 4 -0.011912 0.000526 -0.004015 0.035869 0.006858 -0.007511
# 5 -0.008844 -0.005149 -0.004866 0.006858 0.035793 -0.009849
# 6 0.001144 0.006351 0.000303 -0.007511 -0.009849 0.032082
#
#
# Mechanical properties :
#
#
# Convention : Reuss Voigt Hill
#
# Bulk Modulus (GPa) = 23.90087 43.67462 33.78775
# Shear Modulus (GPa) = 32.13508 43.15635 37.64571
#
# Velocity S-wave (km/s) = 3.55894 4.12433 3.85202
# Velocity P-wave (km/s) = 5.12919 6.31621 5.75339
#
# Compressibility (1/GPa) = 0.04183948
#
# Stress axis : x y z
#
# Youngs Moduli (GPa) = 50.36066 106.04285 94.48271
#
# Poissons Ratio (x) = 0.01035 -0.32076
# Poissons Ratio (y) = 0.00492 0.21853
# Poissons Ratio (z) = -0.17097 0.24527
#
# Static dielectric constant tensor:
#      x y z
#    x 1.975720 0.015210 -0.023910 
#    y 0.015210 2.084600 -0.029430 
#    z -0.023910 -0.029430 2.080100 
# 
# From -- ./inp_files/308074.got.cif
#   From: 2010.05.17/outbox.cif.g08.bks.cpg/sg2_155_cif.got.tgz:308074.got - 2010.06.03 11:33:40.
