data_PCOD9109918
_publ_section_title
;
Structure prediction by ZEFSAII (Michael W. Deem and Ramdas Pophale) SiO2 
 PCOD9109918
Probable space group: P -1
;
_chemical_formula_sum "Si O2"
_cell_formula_units_Z 14
_cell_length_a 9.408497
_cell_length_b 11.896829
_cell_length_c 9.563214
_cell_angle_alpha 74.997426
_cell_angle_beta 112.546639
_cell_angle_gamma 144.523627
_cell_volume 570.902256
_symmetry_space_group_name_H-M "P -1"
_symmetry_group_IT_number 2
_symmetry_cell_setting 'triclinic'
loop_
_space_group_symop_operation_xyz
x,y,z
-x,-y,-z
loop_
_atom_site_type_symbol
_atom_site_label
_atom_site_fract_x
_atom_site_fract_y
_atom_site_fract_z
Si Si1 0.153152 0.446279 0.171619
Si Si2 0.516547 0.864572 0.252660
Si Si3 0.170375 0.755689 0.361907
Si Si4 0.368124 0.744029 0.940044
Si Si5 0.986471 0.123808 0.560249
Si Si6 0.727094 0.734379 0.634337
Si Si7 0.636540 0.312739 0.337313
O O1 0.344530 0.641982 0.275352
O O2 0.217959 0.540481 0.014168
O O3 0.213518 0.347923 0.236473
O O4 0.860879 0.300500 0.150021
O O5 0.329468 0.850095 0.248638
O O6 0.547872 0.890855 0.089578
O O7 0.764501 0.010913 0.396110
O O8 0.061357 0.809588 0.362519
O O9 0.346566 0.794035 0.530297
O O10 0.923012 0.522534 0.334181
O O11 0.497772 0.791036 0.828260
O O12 0.245173 0.283105 0.514333
O O13 0.939718 0.967232 0.653455
O O14 0.484200 0.656066 0.629096
#
# Coordination Sequence:
#
# PCOD9109918 Si02
#       7
#     2   2   2   2   2   2   2
#     4   9  19  40  69  87 122 161 216 252 304 359
#     4  10  20  41  68  92 119 166 206 261 299 371
#     4  11  22  40  68  94 122 160 218 257 302 368
#     4   9  19  41  70  91 118 160 221 258 295 359
#     4  11  25  40  59  93 137 164 195 255 325 372
#     4  11  25  39  61  93 134 163 202 259 314 369
#     4  11  22  39  67  98 117 163 217 261 298 361
#
# _framework density 24.522587999999999
#
# number of rings (size 3 to 8) (size 9 to 14) (size 15 to 20)
#    0.857    0.857    2.857    1.286    2.000    4.000 
#    0.000    3.571    3.143    0.000    0.000    0.000 
#    0.000    0.000    0.000    0.000    0.000    0.000 
#
# Total GULP energy -78268.452949 kJ/mol
# GULP energy per Si atom -5590.603782 kJ/mol
# Density = 2.446677 g / cm^3
# Si number density = 24.522588 Si / 1000 Ang^3
#
#
#
# Elastic Constant Matrix: (Units=GPa)
#
#
# Indices 1 2 3 4 5 6 
#
# 1 161.8180 27.0442 44.3105 -16.5237 -18.2649 -27.8183
# 2 27.0442 64.2684 19.4753 -2.5452 4.8544 -20.1011
# 3 44.3105 19.4753 108.3947 5.0662 -23.3489 -12.5787
# 4 -16.5237 -2.5452 5.0662 27.4129 -4.2061 8.5205
# 5 -18.2649 4.8544 -23.3489 -4.2061 45.1124 -5.7605
# 6 -27.8183 -20.1011 -12.5787 8.5205 -5.7605 58.4595
#
#
#
# Elastic Compliance Matrix: (Units=1/GPa)
#
#
# Indices 1 2 3 4 5 6 
#
# 1 0.008474 -0.002158 -0.002346 0.005102 0.003226 0.002359
# 2 -0.002158 0.019025 -0.002772 -0.001073 -0.003856 0.004695
# 3 -0.002346 -0.002772 0.012237 -0.003588 0.005556 0.001634
# 4 0.005102 -0.001073 -0.003588 0.042076 0.003675 -0.004484
# 5 0.003226 -0.003856 0.005556 0.003675 0.027564 0.003585
# 6 0.002359 0.004695 0.001634 -0.004484 0.003585 0.021201
#
#
# Mechanical properties :
#
#
# Convention : Reuss Voigt Hill
#
# Bulk Modulus (GPa) = 39.70874 57.34902 48.52888
# Shear Modulus (GPa) = 32.56854 42.44036 37.50445
#
# Velocity S-wave (km/s) = 3.64827 4.16464 3.91498
# Velocity P-wave (km/s) = 5.82875 6.82368 6.34574
#
# Compressibility (1/GPa) = 0.02518337
#
# Stress axis : x y z
#
# Youngs Moduli (GPa) = 118.01280 52.56233 81.72200
#
# Poissons Ratio (x) = 0.11345 0.19171
# Poissons Ratio (y) = 0.25473 0.22650
# Poissons Ratio (z) = 0.27685 0.14568
#
# Static dielectric constant tensor:
#      x y z
#    x 1.922970 0.024470 -0.010070 
#    y 0.024470 2.050100 0.013410 
#    z -0.010070 0.013410 1.954260 
# 
# From -- ./inp_files/179292.got.cif
#   From: 2010.05.17/outbox.cif.g08.bks.cpg/sg2_90_cif.got.tgz:179292.got - 2010.06.03 11:33:40.
