data_PCOD9109733
_publ_section_title
;
Structure prediction by ZEFSAII (Michael W. Deem and Ramdas Pophale) SiO2 
 PCOD9109733
Probable space group: P -1
;
_chemical_formula_sum "Si O2"
_cell_formula_units_Z 16
_cell_length_a 8.872180
_cell_length_b 5.358210
_cell_length_c 17.931045
_cell_angle_alpha 57.228093
_cell_angle_beta 55.616358
_cell_angle_gamma 78.420712
_cell_volume 584.705886
_symmetry_space_group_name_H-M "P -1"
_symmetry_group_IT_number 2
_symmetry_cell_setting 'triclinic'
loop_
_space_group_symop_operation_xyz
x,y,z
-x,-y,-z
loop_
_atom_site_type_symbol
_atom_site_label
_atom_site_fract_x
_atom_site_fract_y
_atom_site_fract_z
Si Si1 0.470516 0.317664 0.628731
Si Si2 0.836635 0.693352 0.529524
Si Si3 0.125717 0.626868 0.046926
Si Si4 0.262536 0.437650 0.803925
Si Si5 0.521724 0.808494 0.896730
Si Si6 0.159108 0.928827 0.148097
Si Si7 0.830166 0.939663 0.342465
Si Si8 0.631499 0.742589 0.714164
O O1 0.625860 0.557168 0.585770
O O2 0.310115 0.259043 0.746534
O O3 0.346427 0.309354 0.590407
O O4 0.579618 0.038481 0.640902
O O5 0.866949 0.960098 0.417074
O O6 0.812876 0.705927 0.623010
O O7 0.000000 0.500000 0.500000
O O8 0.141268 0.279843 0.081669
O O9 0.918144 0.674394 0.078446
O O10 0.134848 0.716858 0.117767
O O11 0.310115 0.826378 0.931796
O O12 0.447496 0.504405 0.789718
O O13 0.215993 0.750867 0.729556
O O14 0.637070 0.057006 0.876508
O O15 0.641076 0.795302 0.790952
O O16 0.500000 0.500000 0.000000
O O17 0.005584 0.844458 0.267419
#
# Coordination Sequence:
#
# PCOD9109733 Si02
#       8
#     2   2   2   2   2   2   2   2
#     4  10  21  43  65  96 137 177 227 288 346 410
#     4  11  26  42  64 103 135 182 228 286 351 417
#     4  10  20  41  67 104 131 179 235 287 344 413
#     4   9  20  41  70  98 136 177 234 286 343 411
#     4  10  23  43  67  96 135 187 227 288 355 424
#     4  10  21  39  67 102 135 174 238 288 338 417
#     4  10  21  40  70  96 133 187 231 279 345 422
#     4  10  24  45  64  97 142 174 232 294 348 411
#
# _framework density 27.364183000000001
#
# number of rings (size 3 to 8) (size 9 to 14) (size 15 to 20)
#    0.000    2.000    1.250    0.750    1.750    8.500 
#   13.500    0.625    0.000    0.000    0.000    0.000 
#    0.000    0.000    0.000    0.000    0.000    0.000 
#
# Total GULP energy -89470.579907 kJ/mol
# GULP energy per Si atom -5591.911244 kJ/mol
# Density = 2.730190 g / cm^3
# Si number density = 27.364183 Si / 1000 Ang^3
#
#
#
# Elastic Constant Matrix: (Units=GPa)
#
#
# Indices 1 2 3 4 5 6 
#
# 1 88.3839 30.8404 47.7409 13.4392 17.2100 10.5974
# 2 30.8404 86.4144 22.6198 27.1649 2.6843 -4.3860
# 3 47.7409 22.6198 105.8901 38.3121 -4.2814 -1.0435
# 4 13.4392 27.1649 38.3121 43.5990 -3.1507 -7.2497
# 5 17.2100 2.6843 -4.2814 -3.1507 37.7806 2.6621
# 6 10.5974 -4.3860 -1.0435 -7.2497 2.6621 55.6234
#
#
#
# Elastic Compliance Matrix: (Units=1/GPa)
#
#
# Indices 1 2 3 4 5 6 
#
# 1 0.020394 -0.006147 -0.010195 0.005258 -0.009329 -0.003430
# 2 -0.006147 0.016367 0.003286 -0.010942 0.001023 0.001048
# 3 -0.010195 0.003286 0.019062 -0.015220 0.005279 0.000323
# 4 0.005258 -0.010942 -0.015220 0.042057 -0.000070 0.003335
# 5 -0.009329 0.001023 0.005279 -0.000070 0.031206 0.000454
# 6 -0.003430 0.001048 0.000323 0.003335 0.000454 0.019133
#
#
# Mechanical properties :
#
#
# Convention : Reuss Voigt Hill
#
# Bulk Modulus (GPa) = 33.65851 53.67674 43.66763
# Shear Modulus (GPa) = 27.13939 39.36642 33.25290
#
# Velocity S-wave (km/s) = 3.15268 3.79702 3.48975
# Velocity P-wave (km/s) = 5.05761 6.23550 5.67718
#
# Compressibility (1/GPa) = 0.02971016
#
# Stress axis : x y z
#
# Youngs Moduli (GPa) = 49.03332 61.09877 52.46161
#
# Poissons Ratio (x) = 0.37557 0.53485
# Poissons Ratio (y) = 0.30141 -0.17237
# Poissons Ratio (z) = 0.49990 -0.20075
#
# Static dielectric constant tensor:
#      x y z
#    x 2.159240 0.022050 -0.002010 
#    y 0.022050 2.174270 -0.045210 
#    z -0.002010 -0.045210 2.203730 
# 
# From -- ./inp_files/553240.got.cif
#   From: 2010.05.17/outbox.cif.g08.bks.cpg/sg2_277_cif.got.tgz:553240.got - 2010.06.03 11:33:40.
