data_PCOD9109230
_publ_section_title
;
Structure prediction by ZEFSAII (Michael W. Deem and Ramdas Pophale) SiO2 
 PCOD9109230
Probable space group: P -1
;
_chemical_formula_sum "Si O2"
_cell_formula_units_Z 10
_cell_length_a 8.654479
_cell_length_b 11.914703
_cell_length_c 8.350499
_cell_angle_alpha 45.363979
_cell_angle_beta 112.897577
_cell_angle_gamma 135.767646
_cell_volume 415.922012
_symmetry_space_group_name_H-M "P -1"
_symmetry_group_IT_number 2
_symmetry_cell_setting 'triclinic'
loop_
_space_group_symop_operation_xyz
x,y,z
-x,-y,-z
loop_
_atom_site_type_symbol
_atom_site_label
_atom_site_fract_x
_atom_site_fract_y
_atom_site_fract_z
Si Si1 0.695197 0.103239 0.845782
Si Si2 0.487858 0.318161 0.990116
Si Si3 0.115773 0.274139 0.414798
Si Si4 0.043247 0.157909 0.133421
Si Si5 0.282111 0.753619 0.608502
O O1 0.703170 0.249080 0.574337
O O2 0.924864 0.214331 0.921764
O O3 0.500000 0.000000 0.000000
O O4 0.632656 0.906195 0.918703
O O5 0.626890 0.506813 0.727712
O O6 0.296319 0.285606 0.045712
O O7 0.674876 0.368729 0.140087
O O8 0.026479 0.185124 0.287186
O O9 0.951379 0.304160 0.388685
O O10 0.086045 0.093745 0.681514
O O11 0.500000 0.000000 0.500000
#
# Coordination Sequence:
#
# PCOD9109230 Si02
#       5
#     2   2   2   2   2
#     4  11  24  42  65  90 130 166 204 261 314 358
#     4  11  23  42  67  93 124 165 212 251 306 379
#     4  11  23  40  69  92 124 167 208 251 314 371
#     4  11  23  42  65  92 130 160 206 262 309 363
#     4  10  20  41  64  87 127 166 202 250 313 367
#
# _framework density 24.042967999999998
#
# number of rings (size 3 to 8) (size 9 to 14) (size 15 to 20)
#    0.000    1.200    4.000    4.200    2.800    0.800 
#    0.000    2.000    0.000    0.000    0.000    0.000 
#    0.000    0.000    0.000    0.000    0.000    0.000 
#
# Total GULP energy -55992.594772 kJ/mol
# GULP energy per Si atom -5599.259477 kJ/mol
# Density = 2.398824 g / cm^3
# Si number density = 24.042968 Si / 1000 Ang^3
#
#
#
# Elastic Constant Matrix: (Units=GPa)
#
#
# Indices 1 2 3 4 5 6 
#
# 1 74.8521 -8.3062 33.0682 22.0305 -20.0172 -0.0800
# 2 -8.3062 43.1405 2.2804 12.7700 6.6168 4.6428
# 3 33.0682 2.2804 114.0277 -4.8485 -23.0016 11.7405
# 4 22.0305 12.7700 -4.8485 49.4346 -1.9545 -0.2310
# 5 -20.0172 6.6168 -23.0016 -1.9545 39.8333 9.1628
# 6 -0.0800 4.6428 11.7405 -0.2310 9.1628 32.5693
#
#
#
# Elastic Compliance Matrix: (Units=1/GPa)
#
#
# Indices 1 2 3 4 5 6 
#
# 1 0.021769 0.007151 -0.005664 -0.011868 0.006063 -0.000714
# 2 0.007151 0.028759 -0.003604 -0.011111 -0.003370 -0.001914
# 3 -0.005664 -0.003604 0.012642 0.004931 0.006650 -0.005893
# 4 -0.011868 -0.011111 0.004931 0.028878 0.000161 -0.000063
# 5 0.006063 -0.003370 0.006650 0.000161 0.035279 -0.011826
# 6 -0.000714 -0.001914 -0.005893 -0.000063 -0.011826 0.036426
#
#
# Mechanical properties :
#
#
# Convention : Reuss Voigt Hill
#
# Bulk Modulus (GPa) = 16.96771 31.78945 24.37858
# Shear Modulus (GPa) = 26.64765 38.03264 32.34015
#
# Velocity S-wave (km/s) = 3.33278 3.98158 3.67154
# Velocity P-wave (km/s) = 4.67787 5.86412 5.30426
#
# Compressibility (1/GPa) = 0.05893546
#
# Stress axis : x y z
#
# Youngs Moduli (GPa) = 45.93705 34.77132 79.09885
#
# Poissons Ratio (x) = -0.24864 0.44803
# Poissons Ratio (y) = -0.32848 0.28508
# Poissons Ratio (z) = 0.26019 0.12532
#
# Static dielectric constant tensor:
#      x y z
#    x 1.846030 -0.036120 0.047670 
#    y -0.036120 2.000220 -0.035890 
#    z 0.047670 -0.035890 1.909980 
# 
# From -- ./inp_files/144844.got.cif
#   From: 2010.05.17/outbox.cif.g08.bks.cpg/sg2_73_cif.got.tgz:144844.got - 2010.06.03 11:33:40.
