data_PCOD9109844
_publ_section_title
;
Structure prediction by ZEFSAII (Michael W. Deem and Ramdas Pophale) SiO2 
 PCOD9109844
Probable space group: P -1
;
_chemical_formula_sum "Si O2"
_cell_formula_units_Z 16
_cell_length_a 12.083303
_cell_length_b 5.518218
_cell_length_c 11.163332
_cell_angle_alpha 94.868467
_cell_angle_beta 82.582465
_cell_angle_gamma 118.071228
_cell_volume 651.045190
_symmetry_space_group_name_H-M "P -1"
_symmetry_group_IT_number 2
_symmetry_cell_setting 'triclinic'
loop_
_space_group_symop_operation_xyz
x,y,z
-x,-y,-z
loop_
_atom_site_type_symbol
_atom_site_label
_atom_site_fract_x
_atom_site_fract_y
_atom_site_fract_z
Si Si1 0.271807 0.754762 0.521994
Si Si2 0.889357 0.085058 0.013631
Si Si3 0.910768 0.112041 0.573513
Si Si4 0.980135 0.502849 0.796579
Si Si5 0.776840 0.611215 0.708635
Si Si6 0.388725 0.197117 0.975969
Si Si7 0.442790 0.946293 0.185643
Si Si8 0.514543 0.279304 0.404629
O O1 0.167531 0.857879 0.526763
O O2 0.213993 0.507629 0.426477
O O3 0.340411 0.668076 0.610859
O O4 0.401400 0.995915 0.459462
O O5 0.901594 0.262673 0.139705
O O6 0.749701 0.832894 0.015578
O O7 0.915732 0.275249 0.900254
O O8 0.000000 0.000000 0.000000
O O9 0.991714 0.364549 0.664330
O O10 0.803452 0.911766 0.675819
O O11 0.000000 0.000000 0.500000
O O12 0.889495 0.633139 0.776810
O O13 0.652617 0.357423 0.765878
O O14 0.430104 0.078799 0.852073
O O15 0.500000 0.500000 0.000000
O O16 0.387566 0.997883 0.073999
O O17 0.475258 0.219212 0.269712
O O18 0.500000 0.500000 0.500000
#
# Coordination Sequence:
#
# PCOD9109844 Si02
#       8
#     2   2   2   2   2   2   2   2
#     4   9  21  37  63  98 133 177 237 285 341 426
#     4  11  24  45  71 108 143 187 244 301 372 433
#     4  11  24  43  68 108 139 189 237 299 369 436
#     4  10  23  42  72 100 141 186 248 291 360 443
#     4  10  20  42  71  94 135 193 235 289 358 433
#     4  11  26  44  74 106 144 188 240 308 362 430
#     4  10  24  45  70 103 140 181 251 295 359 442
#     4  10  20  41  67  97 135 186 232 287 357 430
#
# _framework density 24.575869000000001
#
# number of rings (size 3 to 8) (size 9 to 14) (size 15 to 20)
#    0.000    1.750    1.250    1.500    3.500    6.000 
#   11.250    0.000    0.000    0.000    0.000    0.000 
#    0.000    0.000    0.000    0.000    0.000    0.000 
#
# Total GULP energy -89171.358371 kJ/mol
# GULP energy per Si atom -5573.209898 kJ/mol
# Density = 2.451993 g / cm^3
# Si number density = 24.575869 Si / 1000 Ang^3
#
#
#
# Elastic Constant Matrix: (Units=GPa)
#
#
# Indices 1 2 3 4 5 6 
#
# 1 165.6577 35.5306 43.8613 7.5584 10.3795 18.2750
# 2 35.5306 110.7149 33.8849 0.7794 4.8808 21.3915
# 3 43.8613 33.8849 71.2145 15.4045 -0.0952 8.9153
# 4 7.5584 0.7794 15.4045 50.8413 -5.5105 1.9936
# 5 10.3795 4.8808 -0.0952 -5.5105 26.1312 3.8957
# 6 18.2750 21.3915 8.9153 1.9936 3.8957 28.0351
#
#
#
# Elastic Compliance Matrix: (Units=1/GPa)
#
#
# Indices 1 2 3 4 5 6 
#
# 1 0.007734 -0.000532 -0.004132 -0.000051 -0.002557 -0.002963
# 2 -0.000532 0.012137 -0.004867 0.001588 -0.000637 -0.007391
# 3 -0.004132 -0.004867 0.020008 -0.005220 0.001491 0.000208
# 4 -0.000051 0.001588 -0.005220 0.021794 0.004554 -0.001702
# 5 -0.002557 -0.000637 0.001491 0.004554 0.041016 -0.004345
# 6 -0.002963 -0.007391 0.000208 -0.001702 -0.004345 0.043899
#
#
# Mechanical properties :
#
#
# Convention : Reuss Voigt Hill
#
# Bulk Modulus (GPa) = 48.03524 63.79341 55.91432
# Shear Modulus (GPa) = 28.97061 36.62222 32.79641
#
# Velocity S-wave (km/s) = 3.43712 3.86446 3.65704
# Velocity P-wave (km/s) = 5.94474 6.77688 6.37440
#
# Compressibility (1/GPa) = 0.02081805
#
# Stress axis : x y z
#
# Youngs Moduli (GPa) = 129.29957 82.39043 49.98113
#
# Poissons Ratio (x) = 0.04382 0.20652
# Poissons Ratio (y) = 0.06877 0.24324
# Poissons Ratio (z) = 0.53425 0.40097
#
# Static dielectric constant tensor:
#      x y z
#    x 2.041500 -0.079850 -0.001940 
#    y -0.079850 1.214620 -0.471540 
#    z -0.001940 -0.471540 1.814240 
# 
# From -- ./inp_files/410558.got.cif
#   From: 2010.05.17/outbox.cif.g08.bks.cpg/sg2_206_cif.got.tgz:410558.got - 2010.06.03 11:33:40.
