data_PCOD9109462
_publ_section_title
;
Structure prediction by ZEFSAII (Michael W. Deem and Ramdas Pophale) SiO2 
 PCOD9109462
Probable space group: P -1
;
_chemical_formula_sum "Si O2"
_cell_formula_units_Z 15
_cell_length_a 21.949548
_cell_length_b 12.385674
_cell_length_c 6.446630
_cell_angle_alpha 120.369145
_cell_angle_beta 49.841822
_cell_angle_gamma 152.162260
_cell_volume 615.113099
_symmetry_space_group_name_H-M "P -1"
_symmetry_group_IT_number 2
_symmetry_cell_setting 'triclinic'
loop_
_space_group_symop_operation_xyz
x,y,z
-x,-y,-z
loop_
_atom_site_type_symbol
_atom_site_label
_atom_site_fract_x
_atom_site_fract_y
_atom_site_fract_z
Si Si1 0.721364 0.309846 0.402506
Si Si2 0.997523 0.247973 0.499522
Si Si3 0.215515 0.456233 0.881404
Si Si4 0.273070 0.934072 0.594152
Si Si5 0.558165 0.592938 0.234995
Si Si6 0.000000 0.500000 0.500000
Si Si7 0.263335 0.282575 0.334930
Si Si8 0.525057 0.169775 0.010313
O O1 0.867274 0.551374 0.441558
O O2 0.750047 0.370390 0.155282
O O3 0.698037 0.138904 0.373625
O O4 0.585435 0.217283 0.695095
O O5 0.948359 0.317765 0.594113
O O6 0.068283 0.277778 0.167263
O O7 0.872767 0.993862 0.620563
O O8 0.214007 0.345405 0.608454
O O9 0.346772 0.605452 0.902120
O O10 0.105420 0.700666 0.652538
O O11 0.333254 0.142502 0.757450
O O12 0.374522 0.042546 0.270362
O O13 0.500000 0.500000 0.500000
O O14 0.404928 0.413699 0.274037
O O15 0.660478 0.612517 0.956096
O O16 0.500000 0.000000 0.000000
#
# Coordination Sequence:
#
# PCOD9109462 Si02
#       8
#     2   2   2   2   2   1   2   2
#     4   9  22  38  65  98 126 165 217 268 332 384
#     4  10  23  43  64  97 136 167 219 274 320 392
#     4  11  22  41  68  97 131 175 214 269 332 386
#     4  10  20  41  65  93 130 167 217 276 321 385
#     4  11  25  43  66  93 133 179 218 269 323 389
#     4  10  22  42  68  96 126 176 216 270 336 380
#     4  11  25  43  63  99 132 175 225 260 326 399
#     4   9  19  38  60  94 131 161 216 268 318 382
#
# _framework density 24.385760000000001
#
# number of rings (size 3 to 8) (size 9 to 14) (size 15 to 20)
#    0.000    1.867    1.333    2.000    1.867    5.867 
#    0.000    5.333    0.000    0.000    0.000    0.000 
#    0.000    0.000    0.000    0.000    0.000    0.000 
#
# Total GULP energy -83643.519423 kJ/mol
# GULP energy per Si atom -5576.234628 kJ/mol
# Density = 2.433026 g / cm^3
# Si number density = 24.385760 Si / 1000 Ang^3
#
#
#
# Elastic Constant Matrix: (Units=GPa)
#
#
# Indices 1 2 3 4 5 6 
#
# 1 62.4257 9.6284 10.5552 -8.7607 9.9230 -2.0826
# 2 9.6284 92.9322 11.6314 -5.0905 -13.1513 -5.8049
# 3 10.5552 11.6314 113.2603 -21.0792 9.1384 2.2289
# 4 -8.7607 -5.0905 -21.0792 25.6627 -9.6260 2.4108
# 5 9.9230 -13.1513 9.1384 -9.6260 28.8765 -3.1589
# 6 -2.0826 -5.8049 2.2289 2.4108 -3.1589 19.9359
#
#
#
# Elastic Compliance Matrix: (Units=1/GPa)
#
#
# Indices 1 2 3 4 5 6 
#
# 1 0.017870 -0.002533 -0.000341 0.003007 -0.006203 -0.000179
# 2 -0.002533 0.012909 -0.001229 0.003567 0.008831 0.004600
# 3 -0.000341 -0.001229 0.010671 0.008137 -0.001412 -0.002794
# 4 0.003007 0.003567 0.008137 0.053523 0.015466 -0.003579
# 5 -0.006203 0.008831 -0.001412 0.015466 0.047228 0.007694
# 6 -0.000179 0.004600 -0.002794 -0.003579 0.007694 0.053446
#
#
# Mechanical properties :
#
#
# Convention : Reuss Voigt Hill
#
# Bulk Modulus (GPa) = 30.08172 36.91647 33.49909
# Shear Modulus (GPa) = 23.26304 30.68189 26.97247
#
# Velocity S-wave (km/s) = 3.09198 3.55094 3.32938
# Velocity P-wave (km/s) = 5.01095 5.65541 5.34291
#
# Compressibility (1/GPa) = 0.03324278
#
# Stress axis : x y z
#
# Youngs Moduli (GPa) = 55.96093 77.46452 93.71536
#
# Poissons Ratio (x) = 0.19622 0.03200
# Poissons Ratio (y) = 0.14175 0.11516
# Poissons Ratio (z) = 0.01911 0.09519
#
# Static dielectric constant tensor:
#      x y z
#    x 1.966010 0.003610 -0.019990 
#    y 0.003610 1.919720 0.035720 
#    z -0.019990 0.035720 2.082900 
# 
# From -- ./inp_files/118786.got.cif
#   From: 2010.05.17/outbox.cif.g08.bks.cpg/sg2_60_cif.got.tgz:118786.got - 2010.06.03 11:33:40.
