data_PCOD9109889
_publ_section_title
;
Structure prediction by ZEFSAII (Michael W. Deem and Ramdas Pophale) SiO2 
 PCOD9109889
Probable space group: P -1
;
_chemical_formula_sum "Si O2"
_cell_formula_units_Z 15
_cell_length_a 9.196788
_cell_length_b 4.903451
_cell_length_c 13.791868
_cell_angle_alpha 93.030703
_cell_angle_beta 100.987319
_cell_angle_gamma 61.764642
_cell_volume 537.407601
_symmetry_space_group_name_H-M "P -1"
_symmetry_group_IT_number 2
_symmetry_cell_setting 'triclinic'
loop_
_space_group_symop_operation_xyz
x,y,z
-x,-y,-z
loop_
_atom_site_type_symbol
_atom_site_label
_atom_site_fract_x
_atom_site_fract_y
_atom_site_fract_z
Si Si1 0.962684 0.103533 0.804160
Si Si2 0.868598 0.507877 0.089560
Si Si3 0.569490 0.679925 0.946194
Si Si4 0.393604 0.650848 0.312930
Si Si5 0.076004 0.202954 0.630592
Si Si6 0.500000 0.500000 0.500000
Si Si7 0.611979 0.852270 0.221150
Si Si8 0.767397 0.795361 0.543008
O O1 0.983432 0.821060 0.867895
O O2 0.068218 0.243949 0.875706
O O3 0.044364 0.001113 0.704570
O O4 0.769640 0.324584 0.758051
O O5 0.718235 0.595420 0.148966
O O6 0.772081 0.527263 0.977545
O O7 0.481097 0.806263 0.833705
O O8 0.500000 0.500000 0.000000
O O9 0.500000 0.000000 0.000000
O O10 0.519399 0.360271 0.386068
O O11 0.472573 0.794052 0.253121
O O12 0.337872 0.864036 0.412635
O O13 0.240495 0.207146 0.689449
O O14 0.120219 0.144861 0.522281
O O15 0.909689 0.536123 0.623936
O O16 0.649165 0.640391 0.499190
#
# Coordination Sequence:
#
# PCOD9109889 Si02
#       8
#     2   2   2   2   2   1   2   2
#     4  11  23  42  67  95 135 182 232 288 344 426
#     4  10  22  42  69  96 133 178 232 289 347 420
#     4  10  20  41  68 104 137 173 225 294 354 410
#     4  10  22  42  59  98 140 185 226 294 356 407
#     4  10  21  40  66  98 129 189 242 284 342 416
#     4   8  22  40  62  96 146 184 226 300 358 406
#     4  10  22  39  67 100 134 175 236 288 348 425
#     4   9  21  42  63  94 141 184 234 292 347 413
#
# _framework density 27.911773
#
# number of rings (size 3 to 8) (size 9 to 14) (size 15 to 20)
#    0.800    1.333    0.000    4.000    1.867    3.200 
#    4.800    1.333    0.000    0.000    0.000    0.933 
#    0.000    0.000    0.000    0.000    0.000    0.000 
#
# Total GULP energy -83745.108404 kJ/mol
# GULP energy per Si atom -5583.007227 kJ/mol
# Density = 2.784824 g / cm^3
# Si number density = 27.911773 Si / 1000 Ang^3
#
#
#
# Elastic Constant Matrix: (Units=GPa)
#
#
# Indices 1 2 3 4 5 6 
#
# 1 158.6836 23.5516 58.0656 -4.6364 3.5377 3.3394
# 2 23.5516 99.5831 11.7599 -13.3739 2.2822 -4.0989
# 3 58.0656 11.7599 126.1584 -32.8364 21.9851 0.6035
# 4 -4.6364 -13.3739 -32.8364 39.1084 -1.1932 -0.7001
# 5 3.5377 2.2822 21.9851 -1.1932 70.6819 -8.3332
# 6 3.3394 -4.0989 0.6035 -0.7001 -8.3332 39.5224
#
#
#
# Elastic Compliance Matrix: (Units=1/GPa)
#
#
# Indices 1 2 3 4 5 6 
#
# 1 0.008193 -0.001918 -0.004698 -0.003612 0.000972 -0.000678
# 2 -0.001918 0.011029 0.001072 0.004456 -0.000366 0.001291
# 3 -0.004698 0.001072 0.013541 0.011056 -0.003862 -0.000317
# 4 -0.003612 0.004456 0.011056 0.035877 -0.002718 0.000661
# 5 0.000972 -0.000366 -0.003862 -0.002718 0.015642 0.003189
# 6 -0.000678 0.001291 -0.000317 0.000661 0.003189 0.026182
#
#
# Mechanical properties :
#
#
# Convention : Reuss Voigt Hill
#
# Bulk Modulus (GPa) = 46.13690 63.46436 54.80063
# Shear Modulus (GPa) = 38.82656 49.26575 44.04616
#
# Velocity S-wave (km/s) = 3.73372 4.20581 3.97678
# Velocity P-wave (km/s) = 5.92899 6.80970 6.38455
#
# Compressibility (1/GPa) = 0.02167463
#
# Stress axis : x y z
#
# Youngs Moduli (GPa) = 122.05820 90.67094 73.84893
#
# Poissons Ratio (x) = 0.17391 0.34697
# Poissons Ratio (y) = 0.23412 -0.07919
# Poissons Ratio (z) = 0.57347 -0.09723
#
# Static dielectric constant tensor:
#      x y z
#    x 2.147400 -0.095420 0.009350 
#    y -0.095420 2.369380 -0.113790 
#    z 0.009350 -0.113790 2.570900 
# 
# From -- ./inp_files/487693.got.cif
#   From: 2010.05.17/outbox.cif.g08.bks.cpg/sg2_244_cif.got.tgz:487693.got - 2010.06.03 11:33:40.
