data_PCOD9109831
_publ_section_title
;
Structure prediction by ZEFSAII (Michael W. Deem and Ramdas Pophale) SiO2 
 PCOD9109831
Probable space group: P -1
;
_chemical_formula_sum "Si O2"
_cell_formula_units_Z 16
_cell_length_a 19.096225
_cell_length_b 7.484461
_cell_length_c 9.975763
_cell_angle_alpha 65.618008
_cell_angle_beta 48.598911
_cell_angle_gamma 102.378209
_cell_volume 682.638887
_symmetry_space_group_name_H-M "P -1"
_symmetry_group_IT_number 2
_symmetry_cell_setting 'triclinic'
loop_
_space_group_symop_operation_xyz
x,y,z
-x,-y,-z
loop_
_atom_site_type_symbol
_atom_site_label
_atom_site_fract_x
_atom_site_fract_y
_atom_site_fract_z
Si Si1 0.597864 0.135258 0.152246
Si Si2 0.806883 0.686114 0.351914
Si Si3 0.125095 0.164281 0.054642
Si Si4 0.579698 0.825735 0.805754
Si Si5 0.140339 0.600780 0.782520
Si Si6 0.492602 0.672991 0.248513
Si Si7 0.653006 0.547570 0.120752
Si Si8 0.163616 0.289678 0.390850
O O1 0.509893 0.154379 0.168838
O O2 0.614029 0.261751 0.237193
O O3 0.535241 0.837465 0.282639
O O4 0.748960 0.381501 0.829354
O O5 0.888308 0.916740 0.059344
O O6 0.842270 0.510722 0.336919
O O7 0.655533 0.495608 0.556075
O O8 0.827818 0.777660 0.448440
O O9 0.142216 0.427463 0.944288
O O10 0.257871 0.280407 0.916496
O O11 0.990888 0.914412 0.379501
O O12 0.728493 0.066604 0.483774
O O13 0.500000 0.500000 0.000000
O O14 0.579354 0.877067 0.948373
O O15 0.000000 0.500000 0.000000
O O16 0.528342 0.499740 0.273013
O O17 0.757193 0.729237 0.807530
#
# Coordination Sequence:
#
# PCOD9109831 Si02
#       8
#     2   2   2   2   2   2   2   2
#     4  10  21  37  65  99 131 166 238 283 319 389
#     4  10  22  38  66  97 134 169 226 288 338 394
#     4  10  23  45  61  94 147 179 221 284 356 406
#     4  12  21  39  66 103 130 176 238 281 323 409
#     4  10  25  40  64 100 140 176 220 287 355 393
#     4  12  21  40  68  99 138 170 236 283 340 398
#     4  10  24  40  70  98 131 194 225 276 340 423
#     4  10  20  41  67  96 129 181 234 280 330 405
#
# _framework density 23.438454
#
# number of rings (size 3 to 8) (size 9 to 14) (size 15 to 20)
#    1.500    0.000    3.750    1.875    3.500    0.500 
#    0.000    4.375    0.000    0.000    0.000    0.000 
#    0.000    0.000    0.000    0.000    0.000    0.000 
#
# Total GULP energy -89244.866470 kJ/mol
# GULP energy per Si atom -5577.804154 kJ/mol
# Density = 2.338511 g / cm^3
# Si number density = 23.438454 Si / 1000 Ang^3
#
#
#
# Elastic Constant Matrix: (Units=GPa)
#
#
# Indices 1 2 3 4 5 6 
#
# 1 58.9062 7.1868 18.3573 0.4813 -17.0665 1.3817
# 2 7.1868 62.5462 6.9530 0.1188 -3.0773 7.1584
# 3 18.3573 6.9530 143.5543 -15.6264 -32.8620 -12.4157
# 4 0.4813 0.1188 -15.6264 30.5390 7.8029 -3.0957
# 5 -17.0665 -3.0773 -32.8620 7.8029 25.1386 10.4213
# 6 1.3817 7.1584 -12.4157 -3.0957 10.4213 33.2531
#
#
#
# Elastic Compliance Matrix: (Units=1/GPa)
#
#
# Indices 1 2 3 4 5 6 
#
# 1 0.023513 -0.000749 0.000693 -0.006495 0.022152 -0.008104
# 2 -0.000749 0.016889 -0.000554 -0.001738 0.003472 -0.005061
# 3 0.000693 -0.000554 0.010083 0.001810 0.013048 -0.000066
# 4 -0.006495 -0.001738 0.001810 0.039801 -0.019186 0.011038
# 5 0.022152 0.003472 0.013048 -0.019186 0.089264 -0.026557
# 6 -0.008104 -0.005061 -0.000066 0.011038 -0.026557 0.040825
#
#
# Mechanical properties :
#
#
# Convention : Reuss Voigt Hill
#
# Bulk Modulus (GPa) = 20.29921 36.66677 28.48299
# Shear Modulus (GPa) = 21.00687 33.28679 27.14683
#
# Velocity S-wave (km/s) = 2.99700 3.77261 3.40695
# Velocity P-wave (km/s) = 4.54483 5.88682 5.25881
#
# Compressibility (1/GPa) = 0.04926299
#
# Stress axis : x y z
#
# Youngs Moduli (GPa) = 42.53017 59.20919 99.18149
#
# Poissons Ratio (x) = 0.04435 -0.06869
# Poissons Ratio (y) = 0.03186 0.05498
# Poissons Ratio (z) = -0.02946 0.03282
#
# Static dielectric constant tensor:
#      x y z
#    x 1.858950 0.019510 0.043370 
#    y 0.019510 1.952080 0.036750 
#    z 0.043370 0.036750 1.963140 
# 
# From -- ./inp_files/473626.got.cif
#   From: 2010.05.17/outbox.cif.g08.bks.cpg/sg2_237_cif.got.tgz:473626.got - 2010.06.03 11:33:40.
