data_PCOD9109926
_publ_section_title
;
Structure prediction by ZEFSAII (Michael W. Deem and Ramdas Pophale) SiO2 
 PCOD9109926
Probable space group: P -1
;
_chemical_formula_sum "Si O2"
_cell_formula_units_Z 12
_cell_length_a 13.011153
_cell_length_b 7.665606
_cell_length_c 6.496393
_cell_angle_alpha 115.428411
_cell_angle_beta 131.308480
_cell_angle_gamma 71.888057
_cell_volume 439.199680
_symmetry_space_group_name_H-M "P -1"
_symmetry_group_IT_number 2
_symmetry_cell_setting 'triclinic'
loop_
_space_group_symop_operation_xyz
x,y,z
-x,-y,-z
loop_
_atom_site_type_symbol
_atom_site_label
_atom_site_fract_x
_atom_site_fract_y
_atom_site_fract_z
Si Si1 0.085624 0.032306 0.414430
Si Si2 0.364621 0.958568 0.178793
Si Si3 0.717816 0.698559 0.993976
Si Si4 0.136247 0.597419 0.314668
Si Si5 0.139752 0.680088 0.851342
Si Si6 0.439688 0.632803 0.802475
O O1 0.989164 0.171221 0.218353
O O2 0.127252 0.812091 0.314377
O O3 0.219608 0.155354 0.682124
O O4 0.000000 0.000000 0.500000
O O5 0.500000 0.000000 0.500000
O O6 0.280126 0.158428 0.125765
O O7 0.270583 0.811780 0.095119
O O8 0.402203 0.842038 0.959518
O O9 0.562109 0.654095 0.815387
O O10 0.699690 0.456502 0.509929
O O11 0.122165 0.607814 0.552719
O O12 0.183709 0.490997 0.943839
O O13 0.000000 0.500000 0.000000
O O14 0.500000 0.500000 0.000000
#
# Coordination Sequence:
#
# PCOD9109926 Si02
#       6
#     2   2   2   2   2   2
#     4  10  20  41  68  92 134 183 221 278 340 403
#     4  11  24  42  68  99 137 176 232 287 340 409
#     4  12  21  43  77  93 137 186 227 281 357 398
#     4  10  21  41  69  96 139 179 222 284 341 401
#     4  10  22  44  63  99 133 184 226 281 343 408
#     4  11  22  45  70  98 141 178 226 287 344 408
#
# _framework density 27.322423000000001
#
# number of rings (size 3 to 8) (size 9 to 14) (size 15 to 20)
#    0.000    1.333    8.333    1.000    0.000    2.000 
#    0.000    2.500    0.000    0.000    0.000    0.000 
#    0.000    0.000    0.000    0.000    0.000    0.000 
#
# Total GULP energy -67192.345203 kJ/mol
# GULP energy per Si atom -5599.362100 kJ/mol
# Density = 2.726024 g / cm^3
# Si number density = 27.322423 Si / 1000 Ang^3
#
#
#
# Elastic Constant Matrix: (Units=GPa)
#
#
# Indices 1 2 3 4 5 6 
#
# 1 135.6734 39.4116 42.9080 7.9372 32.2941 -4.5632
# 2 39.4116 259.6991 71.7425 0.6263 25.8653 -18.1809
# 3 42.9080 71.7425 197.7107 -6.8188 64.9606 4.7579
# 4 7.9372 0.6263 -6.8188 66.1421 5.4652 -0.5420
# 5 32.2941 25.8653 64.9606 5.4652 57.7248 -1.9917
# 6 -4.5632 -18.1809 4.7579 -0.5420 -1.9917 42.3385
#
#
#
# Elastic Compliance Matrix: (Units=1/GPa)
#
#
# Indices 1 2 3 4 5 6 
#
# 1 0.008732 -0.000805 -0.000284 -0.000726 -0.004121 0.000424
# 2 -0.000805 0.004535 -0.001638 -0.000127 0.000345 0.002060
# 3 -0.000284 -0.001638 0.008901 0.001723 -0.009361 -0.002153
# 4 -0.000726 -0.000127 0.001723 0.015628 -0.002965 -0.000266
# 5 -0.004121 0.000345 -0.009361 -0.002965 0.030364 0.002146
# 6 0.000424 0.002060 -0.002153 -0.000266 0.002146 0.024889
#
#
# Mechanical properties :
#
#
# Convention : Reuss Voigt Hill
#
# Bulk Modulus (GPa) = 59.82947 100.13416 79.98182
# Shear Modulus (GPa) = 48.04227 62.50914 55.27571
#
# Velocity S-wave (km/s) = 4.19781 4.78832 4.50276
# Velocity P-wave (km/s) = 6.74097 8.20362 7.50799
#
# Compressibility (1/GPa) = 0.01671417
#
# Stress axis : x y z
#
# Youngs Moduli (GPa) = 114.52122 220.48350 112.34677
#
# Poissons Ratio (x) = 0.17743 0.03192
# Poissons Ratio (y) = 0.09216 0.18406
# Poissons Ratio (z) = 0.03254 0.36123
#
# Static dielectric constant tensor:
#      x y z
#    x 2.255660 -0.075340 -0.217370 
#    y -0.075340 2.113320 0.088980 
#    z -0.217370 0.088980 2.283390 
# 
# From -- ./inp_files/91227.got.cif
#   From: 2010.05.17/outbox.cif.g08.bks.cpg/sg2_46_cif.got.tgz:91227.got - 2010.06.03 11:33:40.
