data_PCOD9109436
_publ_section_title
;
Structure prediction by ZEFSAII (Michael W. Deem and Ramdas Pophale) SiO2 
 PCOD9109436
Probable space group: P -1
;
_chemical_formula_sum "Si O2"
_cell_formula_units_Z 11
_cell_length_a 12.341519
_cell_length_b 9.375987
_cell_length_c 7.518722
_cell_angle_alpha 106.437804
_cell_angle_beta 121.613817
_cell_angle_gamma 36.520386
_cell_volume 424.189485
_symmetry_space_group_name_H-M "P -1"
_symmetry_group_IT_number 2
_symmetry_cell_setting 'triclinic'
loop_
_space_group_symop_operation_xyz
x,y,z
-x,-y,-z
loop_
_atom_site_type_symbol
_atom_site_label
_atom_site_fract_x
_atom_site_fract_y
_atom_site_fract_z
Si Si1 0.183419 0.300529 0.438598
Si Si2 0.523330 0.110533 0.911385
Si Si3 0.746013 0.109328 0.629858
Si Si4 0.978683 0.311556 0.815529
Si Si5 0.000000 0.000000 0.500000
Si Si6 0.645655 0.489856 0.846921
O O1 0.397246 0.172871 0.654709
O O2 0.113453 0.448967 0.253810
O O3 0.000000 0.500000 0.500000
O O4 0.219170 0.093476 0.372718
O O5 0.419878 0.360754 0.982204
O O6 0.500000 0.000000 0.000000
O O7 0.769948 0.911506 0.028938
O O8 0.690014 0.272169 0.801313
O O9 0.553455 0.301397 0.387015
O O10 0.945259 0.987983 0.650114
O O11 0.847820 0.381908 0.897974
O O12 0.941738 0.222863 0.598841
#
# Coordination Sequence:
#
# PCOD9109436 Si02
#       6
#     2   2   2   2   1   2
#     4  12  22  43  71  98 135 172 221 275 330 386
#     4  12  22  44  67  99 135 171 222 274 327 390
#     4  10  20  38  67  97 127 179 219 264 330 398
#     4  11  24  41  72  96 132 180 216 269 336 391
#     4  10  16  38  70  88 126 178 212 252 336 384
#     4  10  22  42  69  94 135 175 220 269 331 392
#
# _framework density 25.931806999999999
#
# number of rings (size 3 to 8) (size 9 to 14) (size 15 to 20)
#    0.000    1.091    7.273    0.000    0.000    1.455 
#    0.000    3.636    0.000    2.182    0.000    0.000 
#    0.000    0.000    0.000    0.000    0.000    0.000 
#
# Total GULP energy -61533.441719 kJ/mol
# GULP energy per Si atom -5593.949247 kJ/mol
# Density = 2.587279 g / cm^3
# Si number density = 25.931807 Si / 1000 Ang^3
#
#
#
# Elastic Constant Matrix: (Units=GPa)
#
#
# Indices 1 2 3 4 5 6 
#
# 1 41.2311 47.0087 3.1279 20.6828 -28.1827 37.5138
# 2 47.0087 207.9822 48.3880 48.1905 -14.6481 53.8338
# 3 3.1279 48.3880 82.6393 12.8211 -27.7091 24.4369
# 4 20.6828 48.1905 12.8211 48.1598 4.6929 8.7911
# 5 -28.1827 -14.6481 -27.7091 4.6929 -12.5537 26.0219
# 6 37.5138 53.8338 24.4369 8.7911 26.0219 40.7093
#
#
#
# Elastic Compliance Matrix: (Units=1/GPa)
#
#
# Indices 1 2 3 4 5 6 
#
# 1 0.016372 -0.004641 -0.004035 -0.000436 -0.015454 0.003445
# 2 -0.004641 0.008619 -0.003418 -0.005012 -0.000961 -0.003373
# 3 -0.004035 -0.003418 0.011502 0.001840 -0.004177 0.003607
# 4 -0.000436 -0.005012 0.001840 0.025510 0.005663 -0.003203
# 5 -0.015454 -0.000961 -0.004177 0.005663 0.000993 0.016161
# 6 0.003445 -0.003373 0.003607 -0.003203 0.016161 0.014047
#
#
# Mechanical properties :
#
#
# Convention : Reuss Voigt Hill
#
# Bulk Modulus (GPa) = 81.26676 58.76685 70.01681
# Shear Modulus (GPa) = 47.46873 30.81829 39.14351
#
# Velocity S-wave (km/s) = 4.28310 3.45111 3.88942
# Velocity P-wave (km/s) = 7.47440 6.21220 6.87234
#
# Compressibility (1/GPa) = 0.01230515
#
# Stress axis : x y z
#
# Youngs Moduli (GPa) = 61.08147 116.02188 86.93911
#
# Poissons Ratio (x) = 0.53841 0.35082
# Poissons Ratio (y) = 0.28346 0.29716
# Poissons Ratio (z) = 0.24648 0.39657
#
# Static dielectric constant tensor:
#      x y z
#    x 2.043300 0.014130 0.029180 
#    y 0.014130 2.048020 -0.032490 
#    z 0.029180 -0.032490 2.032310 
# 
# From -- ./inp_files/240726.got.cif
#   From: 2010.05.17/outbox.cif.g08.bks.cpg/sg2_121_cif.got.tgz:240726.got - 2010.06.03 11:33:40.
