data_PCOD9109947
_publ_section_title
;
Structure prediction by ZEFSAII (Michael W. Deem and Ramdas Pophale) SiO2 
 PCOD9109947
Probable space group: P -1
;
_chemical_formula_sum "Si O2"
_cell_formula_units_Z 12
_cell_length_a 11.360110
_cell_length_b 9.395553
_cell_length_c 14.872673
_cell_angle_alpha 31.723652
_cell_angle_beta 143.111220
_cell_angle_gamma 125.696378
_cell_volume 476.889726
_symmetry_space_group_name_H-M "P -1"
_symmetry_group_IT_number 2
_symmetry_cell_setting 'triclinic'
loop_
_space_group_symop_operation_xyz
x,y,z
-x,-y,-z
loop_
_atom_site_type_symbol
_atom_site_label
_atom_site_fract_x
_atom_site_fract_y
_atom_site_fract_z
Si Si1 0.705594 0.551568 0.201628
Si Si2 0.374282 0.970101 0.659223
Si Si3 0.954016 0.894513 0.125454
Si Si4 0.952054 0.352882 0.142414
Si Si5 0.672053 0.943423 0.710324
Si Si6 0.725439 0.962990 0.119867
O O1 0.679258 0.255652 0.319329
O O2 0.774163 0.633491 0.296471
O O3 0.886764 0.614065 0.220165
O O4 0.488754 0.785848 0.912838
O O5 0.552889 0.055766 0.669591
O O6 0.161199 0.220714 0.398226
O O7 0.775054 0.069765 0.992417
O O8 0.162082 0.901472 0.296565
O O9 0.000000 0.000000 0.000000
O O10 0.790690 0.607082 0.960644
O O11 0.851436 0.107155 0.184672
O O12 0.000000 0.500000 0.000000
O O13 0.500000 0.000000 0.500000
O O14 0.500000 0.000000 0.000000
#
# Coordination Sequence:
#
# PCOD9109947 Si02
#       6
#     2   2   2   2   2   2
#     4   9  22  42  67  93 134 183 209 274 343 392
#     4  11  22  43  68  95 137 175 225 272 337 405
#     4  10  20  41  68  94 128 176 229 267 333 405
#     4  12  23  41  65 104 130 177 228 275 333 405
#     4  12  22  41  68  94 133 176 219 279 332 393
#     4  10  21  42  63  95 138 169 224 279 331 399
#
# _framework density 25.163049999999998
#
# number of rings (size 3 to 8) (size 9 to 14) (size 15 to 20)
#    1.000    0.333    5.000    1.000    0.000    0.667 
#    3.000   12.500    0.000    0.000    0.000    0.000 
#    0.000    0.000    0.000    0.000    0.000    0.000 
#
# Total GULP energy -66842.581705 kJ/mol
# GULP energy per Si atom -5570.215142 kJ/mol
# Density = 2.510578 g / cm^3
# Si number density = 25.163050 Si / 1000 Ang^3
#
#
#
# Elastic Constant Matrix: (Units=GPa)
#
#
# Indices 1 2 3 4 5 6 
#
# 1 131.8771 20.6793 34.5275 11.8015 22.7810 19.2471
# 2 20.6793 143.4701 31.5049 17.9433 8.5800 22.8049
# 3 34.5275 31.5049 168.8372 14.8496 20.0854 -0.2959
# 4 11.8015 17.9433 14.8496 32.8981 7.0740 6.5464
# 5 22.7810 8.5800 20.0854 7.0740 31.2373 8.3463
# 6 19.2471 22.8049 -0.2959 6.5464 8.3463 46.0698
#
#
#
# Elastic Compliance Matrix: (Units=1/GPa)
#
#
# Indices 1 2 3 4 5 6 
#
# 1 0.009278 -0.000215 -0.001175 -0.001067 -0.004982 -0.002723
# 2 -0.000215 0.008229 -0.001263 -0.003209 0.000399 -0.003608
# 3 -0.001175 -0.001263 0.006959 -0.001696 -0.003427 0.002023
# 4 -0.001067 -0.003209 -0.001696 0.034688 -0.004549 -0.002081
# 5 -0.004982 0.000399 -0.003427 -0.004549 0.040038 -0.004746
# 6 -0.002723 -0.003608 0.002023 -0.002081 -0.004746 0.025798
#
#
# Mechanical properties :
#
#
# Convention : Reuss Voigt Hill
#
# Bulk Modulus (GPa) = 52.19338 68.62308 60.40823
# Shear Modulus (GPa) = 36.58037 45.87256 41.22646
#
# Velocity S-wave (km/s) = 3.81692 4.27431 4.05207
# Velocity P-wave (km/s) = 6.34132 7.18959 6.77873
#
# Compressibility (1/GPa) = 0.01915952
#
# Stress axis : x y z
#
# Youngs Moduli (GPa) = 107.78379 121.51421 143.69063
#
# Poissons Ratio (x) = 0.02611 0.16890
# Poissons Ratio (y) = 0.02316 0.18152
# Poissons Ratio (z) = 0.12669 0.15350
#
# Static dielectric constant tensor:
#      x y z
#    x 2.398540 0.170090 0.166340 
#    y 0.170090 2.120320 0.115240 
#    z 0.166340 0.115240 2.190740 
# 
# From -- ./inp_files/568532.got.cif
#   From: 2010.05.17/outbox.cif.g08.bks.cpg/sg2_285_cif.got.tgz:568532.got - 2010.06.03 11:33:40.
