data_PCOD9109338
_publ_section_title
;
Structure prediction by ZEFSAII (Michael W. Deem and Ramdas Pophale) SiO2 
 PCOD9109338
Probable space group: P -1
;
_chemical_formula_sum "Si O2"
_cell_formula_units_Z 16
_cell_length_a 18.139793
_cell_length_b 30.315419
_cell_length_c 25.062124
_cell_angle_alpha 170.121548
_cell_angle_beta 18.760379
_cell_angle_gamma 162.630823
_cell_volume 699.923868
_symmetry_space_group_name_H-M "P -1"
_symmetry_group_IT_number 2
_symmetry_cell_setting 'triclinic'
loop_
_space_group_symop_operation_xyz
x,y,z
-x,-y,-z
loop_
_atom_site_type_symbol
_atom_site_label
_atom_site_fract_x
_atom_site_fract_y
_atom_site_fract_z
Si Si1 0.873100 0.688022 0.146554
Si Si2 0.676945 0.068921 0.787953
Si Si3 0.061815 0.023772 0.238750
Si Si4 0.721738 0.487878 0.180094
Si Si5 0.967918 0.604810 0.398276
Si Si6 0.567813 0.190645 0.253862
Si Si7 0.620447 0.154509 0.745979
Si Si8 0.276548 0.605138 0.281246
O O1 0.082090 0.773872 0.152483
O O2 0.749206 0.910182 0.501476
O O3 0.665062 0.384811 0.943566
O O4 0.991061 0.639868 0.954320
O O5 0.469734 0.844247 0.698231
O O6 0.607038 0.309431 0.098343
O O7 0.870018 0.084980 0.483250
O O8 0.947993 0.691869 0.906764
O O9 0.069970 0.199273 0.388492
O O10 0.327455 0.053743 0.118419
O O11 0.692658 0.780826 0.547732
O O12 0.602222 0.311085 0.998612
O O13 0.000000 0.500000 0.000000
O O14 0.746569 0.458443 0.417452
O O15 0.207522 0.721214 0.411759
O O16 0.380541 0.869326 0.563714
O O17 0.500000 0.500000 0.000000
#
# Coordination Sequence:
#
# PCOD9109338 Si02
#       8
#     2   2   2   2   2   2   2   2
#     4  10  21  40  63  94 124 166 213 257 301 389
#     4  11  22  39  61  91 129 166 214 250 310 376
#     4   9  21  41  64  93 130 161 209 264 315 380
#     4  12  23  41  67  89 128 176 209 260 319 372
#     4  10  22  42  67  92 131 168 206 262 331 360
#     4  11  23  43  61  96 131 166 210 268 309 379
#     4  10  20  41  64  97 126 161 214 265 308 375
#     4   9  20  37  64 100 128 156 212 270 311 375
#
# _framework density 22.859629999999999
#
# number of rings (size 3 to 8) (size 9 to 14) (size 15 to 20)
#    0.000    1.750    2.500    1.500    5.250    5.000 
#    2.250    4.375    0.000    4.500    0.000    0.000 
#    0.000    0.000    0.000    0.000    0.000    0.000 
#
# Total GULP energy -89099.618256 kJ/mol
# GULP energy per Si atom -5568.726141 kJ/mol
# Density = 2.280760 g / cm^3
# Si number density = 22.859630 Si / 1000 Ang^3
#
#
#
# Elastic Constant Matrix: (Units=GPa)
#
#
# Indices 1 2 3 4 5 6 
#
# 1 83.1173 19.0662 41.7226 -2.1003 -23.5471 -17.1974
# 2 19.0662 66.5538 23.1033 2.7699 0.2230 -21.6548
# 3 41.7226 23.1033 86.7276 7.4239 -13.1590 0.8716
# 4 -2.1003 2.7699 7.4239 37.1028 8.8191 -5.1698
# 5 -23.5471 0.2230 -13.1590 8.8191 53.5258 9.0319
# 6 -17.1974 -21.6548 0.8716 -5.1698 9.0319 31.6584
#
#
#
# Elastic Compliance Matrix: (Units=1/GPa)
#
#
# Indices 1 2 3 4 5 6 
#
# 1 0.020380 0.001271 -0.009990 0.003761 0.003908 0.011715
# 2 0.001271 0.023681 -0.008286 0.003961 -0.005491 0.019330
# 3 -0.009990 -0.008286 0.019871 -0.006807 0.003991 -0.013892
# 4 0.003761 0.003961 -0.006807 0.031669 -0.007311 0.012197
# 5 0.003908 -0.005491 0.003991 -0.007311 0.024275 -0.009862
# 6 0.011715 0.019330 -0.013892 0.012197 -0.009862 0.056361
#
#
# Mechanical properties :
#
#
# Convention : Reuss Voigt Hill
#
# Bulk Modulus (GPa) = 33.41930 44.90921 39.16426
# Shear Modulus (GPa) = 22.70449 34.62449 28.66449
#
# Velocity S-wave (km/s) = 3.15495 3.89608 3.54494
# Velocity P-wave (km/s) = 5.28419 6.31883 5.82453
#
# Compressibility (1/GPa) = 0.02992282
#
# Stress axis : x y z
#
# Youngs Moduli (GPa) = 49.06715 42.22849 50.32333
#
# Poissons Ratio (x) = -0.05369 0.50273
# Poissons Ratio (y) = -0.06239 0.41700
# Poissons Ratio (z) = 0.49018 0.34992
#
# Static dielectric constant tensor:
#      x y z
#    x 1.935970 0.107220 -0.053230 
#    y 0.107220 2.059180 -0.043080 
#    z -0.053230 -0.043080 1.865420 
# 
# From -- ./inp_files/472334.got.cif
#   From: 2010.05.17/outbox.cif.g08.bks.cpg/sg2_237_cif.got.tgz:472334.got - 2010.06.03 11:33:40.
