data_PCOD9109116
_publ_section_title
;
Structure prediction by ZEFSAII (Michael W. Deem and Ramdas Pophale) SiO2 
 PCOD9109116
Probable space group: P -1
;
_chemical_formula_sum "Si O2"
_cell_formula_units_Z 14
_cell_length_a 8.063812
_cell_length_b 11.122660
_cell_length_c 8.807166
_cell_angle_alpha 106.386167
_cell_angle_beta 119.030044
_cell_angle_gamma 50.770922
_cell_volume 534.660327
_symmetry_space_group_name_H-M "P -1"
_symmetry_group_IT_number 2
_symmetry_cell_setting 'triclinic'
loop_
_space_group_symop_operation_xyz
x,y,z
-x,-y,-z
loop_
_atom_site_type_symbol
_atom_site_label
_atom_site_fract_x
_atom_site_fract_y
_atom_site_fract_z
Si Si1 0.089099 0.565382 0.716172
Si Si2 0.590897 0.229787 0.151559
Si Si3 0.760291 0.014523 0.421753
Si Si4 0.877790 0.892665 0.733630
Si Si5 0.056484 0.738009 0.041312
Si Si6 0.516056 0.461609 0.669656
Si Si7 0.206710 0.272144 0.808070
O O1 0.875145 0.742587 0.646051
O O2 0.283412 0.491726 0.646310
O O3 0.062211 0.435973 0.716703
O O4 0.179878 0.610413 0.917443
O O5 0.862100 0.158918 0.214857
O O6 0.466709 0.407127 0.203612
O O7 0.584701 0.144786 0.268629
O O8 0.464745 0.222164 0.945802
O O9 0.796644 0.858314 0.324905
O O10 0.710521 0.023250 0.583154
O O11 0.000000 0.000000 0.500000
O O12 0.889030 0.894533 0.923122
O O13 0.258607 0.705131 0.233077
O O14 0.901474 0.710649 0.068140
O O15 0.500000 0.500000 0.500000
#
# Coordination Sequence:
#
# PCOD9109116 Si02
#       7
#     2   2   2   2   2   2   2
#     4   9  20  39  60  91 129 153 198 260 307 359
#     4  10  20  41  63  86 128 162 207 250 305 364
#     4  10  23  41  63  84 123 173 209 251 303 366
#     4   8  19  40  63  83 123 163 198 250 309 355
#     4  10  21  36  63  94 127 155 201 254 315 360
#     4  11  22  38  68  96 120 164 203 251 315 371
#     4  12  22  37  66  96 121 165 206 254 313 361
#
# _framework density 26.184849
#
# number of rings (size 3 to 8) (size 9 to 14) (size 15 to 20)
#    0.857    1.143    1.429    2.143    6.000    0.571 
#    2.571    3.571    3.143    0.000    0.000    0.000 
#    0.000    0.000    0.000    0.000    0.000    0.000 
#
# Total GULP energy -78182.003529 kJ/mol
# GULP energy per Si atom -5584.428824 kJ/mol
# Density = 2.612525 g / cm^3
# Si number density = 26.184849 Si / 1000 Ang^3
#
#
#
# Elastic Constant Matrix: (Units=GPa)
#
#
# Indices 1 2 3 4 5 6 
#
# 1 81.7902 28.4925 39.2273 -15.6394 -24.4873 16.6927
# 2 28.4925 113.4525 54.0732 -6.6538 -0.1065 42.5237
# 3 39.2273 54.0732 138.5234 -19.6113 -2.7584 21.9160
# 4 -15.6394 -6.6538 -19.6113 41.5806 15.7893 -7.0149
# 5 -24.4873 -0.1065 -2.7584 15.7893 45.9742 -11.7609
# 6 16.6927 42.5237 21.9160 -7.0149 -11.7609 44.3469
#
#
#
# Elastic Compliance Matrix: (Units=1/GPa)
#
#
# Indices 1 2 3 4 5 6 
#
# 1 0.017775 -0.002760 -0.003661 0.001185 0.008915 0.000317
# 2 -0.002760 0.016667 -0.003592 -0.000560 -0.005199 -0.014635
# 3 -0.003661 -0.003592 0.010202 0.003849 -0.002755 -0.000341
# 4 0.001185 -0.000560 0.003849 0.029814 -0.009264 0.000448
# 5 0.008915 -0.005199 -0.002755 -0.009264 0.032070 0.010030
# 6 0.000317 -0.014635 -0.000341 0.000448 0.010030 0.039363
#
#
# Mechanical properties :
#
#
# Convention : Reuss Voigt Hill
#
# Bulk Modulus (GPa) = 40.62060 64.15025 52.38543
# Shear Modulus (GPa) = 28.71530 40.51187 34.61359
#
# Velocity S-wave (km/s) = 3.31515 3.93765 3.63973
# Velocity P-wave (km/s) = 5.49548 6.72500 6.14109
#
# Compressibility (1/GPa) = 0.02461805
#
# Stress axis : x y z
#
# Youngs Moduli (GPa) = 56.25918 59.99849 98.02186
#
# Poissons Ratio (x) = 0.16560 0.35885
# Poissons Ratio (y) = 0.15528 0.35208
# Poissons Ratio (z) = 0.20596 0.21550
#
# Static dielectric constant tensor:
#      x y z
#    x 2.034070 0.020350 0.013740 
#    y 0.020350 2.060180 -0.027070 
#    z 0.013740 -0.027070 2.130310 
# 
# From -- ./inp_files/181937.got.cif
#   From: 2010.05.17/outbox.cif.g08.bks.cpg/sg2_91_cif.got.tgz:181937.got - 2010.06.03 11:33:40.
