data_PCOD9109713
_publ_section_title
;
Structure prediction by ZEFSAII (Michael W. Deem and Ramdas Pophale) SiO2 
 PCOD9109713
Probable space group: P -1
;
_chemical_formula_sum "Si O2"
_cell_formula_units_Z 16
_cell_length_a 14.672324
_cell_length_b 23.406465
_cell_length_c 12.163237
_cell_angle_alpha 157.204161
_cell_angle_beta 29.460376
_cell_angle_gamma 153.890423
_cell_volume 689.370513
_symmetry_space_group_name_H-M "P -1"
_symmetry_group_IT_number 2
_symmetry_cell_setting 'triclinic'
loop_
_space_group_symop_operation_xyz
x,y,z
-x,-y,-z
loop_
_atom_site_type_symbol
_atom_site_label
_atom_site_fract_x
_atom_site_fract_y
_atom_site_fract_z
Si Si1 0.159580 0.753286 0.717699
Si Si2 0.067238 0.469216 0.751065
Si Si3 0.931913 0.697032 0.154993
Si Si4 0.514248 0.971466 0.273119
Si Si5 0.165197 0.933169 0.707917
Si Si6 0.708690 0.986572 0.776871
Si Si7 0.464681 0.295657 0.380495
Si Si8 0.727889 0.517662 0.814842
O O1 0.253647 0.651971 0.505871
O O2 0.910798 0.636543 0.746720
O O3 0.323586 0.839540 0.601529
O O4 0.174752 0.905085 0.044899
O O5 0.315562 0.534003 0.574352
O O6 0.942801 0.266401 0.505455
O O7 0.000000 0.500000 0.000000
O O8 0.013210 0.583721 0.929613
O O9 0.741114 0.693020 0.418364
O O10 0.116196 0.894357 0.287029
O O11 0.827941 0.601562 0.978157
O O12 0.285581 0.950778 0.498503
O O13 0.635967 0.952583 0.216952
O O14 0.498162 0.837929 0.964159
O O15 0.000000 0.000000 0.000000
O O16 0.611392 0.790815 0.570466
O O17 0.500000 0.000000 0.000000
O O18 0.500000 0.500000 0.000000
#
# Coordination Sequence:
#
# PCOD9109713 Si02
#       8
#     2   2   2   2   2   2   2   2
#     4   9  21  39  62  88 134 170 216 280 344 409
#     4  12  26  46  70 103 142 184 239 297 349 411
#     4  11  25  41  70 104 142 183 235 286 351 425
#     4  10  23  45  63  96 133 177 229 291 344 412
#     4  11  26  45  71  94 134 181 240 293 352 414
#     4  10  20  41  66  99 137 180 223 287 351 416
#     4  11  24  42  73 100 141 187 231 291 357 420
#     4  10  22  39  63  97 134 175 222 281 345 421
#
# _framework density 23.209579999999999
#
# number of rings (size 3 to 8) (size 9 to 14) (size 15 to 20)
#    0.000    1.500    2.500    1.125    3.500    6.500 
#    0.000    0.000    0.000    0.000    0.000    0.000 
#    0.000    0.000    0.000    0.000    0.000    0.000 
#
# Total GULP energy -89243.905577 kJ/mol
# GULP energy per Si atom -5577.744099 kJ/mol
# Density = 2.315675 g / cm^3
# Si number density = 23.209580 Si / 1000 Ang^3
#
#
#
# Elastic Constant Matrix: (Units=GPa)
#
#
# Indices 1 2 3 4 5 6 
#
# 1 51.6735 24.3785 18.7015 -7.5855 0.5779 1.7289
# 2 24.3785 165.4867 55.0056 -38.6430 -2.2857 -5.2325
# 3 18.7015 55.0056 119.1813 -30.9972 -13.1123 1.7375
# 4 -7.5855 -38.6430 -30.9972 46.2093 15.6965 -4.7908
# 5 0.5779 -2.2857 -13.1123 15.6965 28.1287 -5.6589
# 6 1.7289 -5.2325 1.7375 -4.7908 -5.6589 24.9249
#
#
#
# Elastic Compliance Matrix: (Units=1/GPa)
#
#
# Indices 1 2 3 4 5 6 
#
# 1 0.021513 -0.002345 -0.002384 0.000596 -0.002535 -0.002279
# 2 -0.002345 0.008822 -0.002339 0.006945 -0.003661 0.002681
# 3 -0.002384 -0.002339 0.011263 0.004300 0.002780 0.000347
# 4 0.000596 0.006945 0.004300 0.036664 -0.017039 0.004295
# 5 -0.002535 -0.003661 0.002780 -0.017039 0.047460 0.006714
# 6 -0.002279 0.002681 0.000347 0.004295 0.006714 0.043167
#
#
# Mechanical properties :
#
#
# Convention : Reuss Voigt Hill
#
# Bulk Modulus (GPa) = 36.41354 59.16807 47.79080
# Shear Modulus (GPa) = 26.01737 35.73632 30.87685
#
# Velocity S-wave (km/s) = 3.35173 3.92819 3.65135
# Velocity P-wave (km/s) = 5.54093 6.79135 6.19776
#
# Compressibility (1/GPa) = 0.02746231
#
# Stress axis : x y z
#
# Youngs Moduli (GPa) = 46.48247 113.35831 88.78346
#
# Poissons Ratio (x) = 0.26577 0.21169
# Poissons Ratio (y) = 0.10898 0.20768
# Poissons Ratio (z) = 0.11083 0.26517
#
# Static dielectric constant tensor:
#      x y z
#    x 1.988980 -0.037690 0.056710 
#    y -0.037690 1.963760 -0.012540 
#    z 0.056710 -0.012540 1.875360 
# 
# From -- ./inp_files/539398.got.cif
#   From: 2010.05.17/outbox.cif.g08.bks.cpg/sg2_270_cif.got.tgz:539398.got - 2010.06.03 11:33:40.
