data_PCOD9109516
_publ_section_title
;
Structure prediction by ZEFSAII (Michael W. Deem and Ramdas Pophale) SiO2 
 PCOD9109516
Probable space group: P -1
;
_chemical_formula_sum "Si O2"
_cell_formula_units_Z 16
_cell_length_a 31.156420
_cell_length_b 5.821034
_cell_length_c 11.922696
_cell_angle_alpha 72.139798
_cell_angle_beta 25.848984
_cell_angle_gamma 57.892618
_cell_volume 707.106538
_symmetry_space_group_name_H-M "P -1"
_symmetry_group_IT_number 2
_symmetry_cell_setting 'triclinic'
loop_
_space_group_symop_operation_xyz
x,y,z
-x,-y,-z
loop_
_atom_site_type_symbol
_atom_site_label
_atom_site_fract_x
_atom_site_fract_y
_atom_site_fract_z
Si Si1 0.566231 0.237953 0.229671
Si Si2 0.921086 0.068924 0.346697
Si Si3 0.894157 0.854751 0.212486
Si Si4 0.357600 0.639751 0.336084
Si Si5 0.055385 0.140136 0.421176
Si Si6 0.675824 0.121886 0.219517
Si Si7 0.557013 0.862284 0.640816
Si Si8 0.661672 0.562316 0.818438
O O1 0.659462 0.058307 0.139201
O O2 0.435806 0.526036 0.544958
O O3 0.531741 0.054165 0.268930
O O4 0.617915 0.373721 0.007543
O O5 0.794703 0.424243 0.582434
O O6 0.889149 0.920759 0.347112
O O7 0.936636 0.951934 0.453184
O O8 0.046244 0.008544 0.016066
O O9 0.757318 0.003899 0.461241
O O10 0.000000 0.500000 0.000000
O O11 0.367105 0.490801 0.453787
O O12 0.323246 0.502231 0.339262
O O13 0.500000 0.500000 0.000000
O O14 0.000000 0.500000 0.500000
O O15 0.000000 0.000000 0.500000
O O16 0.191087 0.963971 0.073579
O O17 0.650888 0.935241 0.386578
O O18 0.454919 0.086617 0.940127
#
# Coordination Sequence:
#
# PCOD9109516 Si02
#       8
#     2   2   2   2   2   2   2   2
#     4  10  20  41  65  98 134 175 233 285 354 430
#     4  10  24  48  69 100 140 189 256 296 368 450
#     4  10  25  46  73  98 137 196 244 307 370 447
#     4  11  23  41  65 103 138 172 239 296 374 426
#     4  12  30  49  74 106 150 201 250 311 371 445
#     4  10  24  43  65  98 138 183 238 286 362 431
#     4  11  23  38  69 102 141 180 220 308 365 437
#     4  10  21  41  66  96 131 180 227 287 359 435
#
# _framework density 22.627426
#
# number of rings (size 3 to 8) (size 9 to 14) (size 15 to 20)
#    0.000    1.500    2.500    0.750    7.000    1.000 
#    2.250    0.000    0.000    0.000    0.000    0.000 
#    0.000    0.000    0.000    0.000    0.000    0.000 
#
# Total GULP energy -89335.133355 kJ/mol
# GULP energy per Si atom -5583.445835 kJ/mol
# Density = 2.257592 g / cm^3
# Si number density = 22.627426 Si / 1000 Ang^3
#
#
#
# Elastic Constant Matrix: (Units=GPa)
#
#
# Indices 1 2 3 4 5 6 
#
# 1 87.2676 27.9218 37.9972 1.3911 -14.7664 -8.5084
# 2 27.9218 73.0828 37.0708 6.7758 -13.7843 -10.1761
# 3 37.9972 37.0708 137.3814 -8.9866 -27.7853 -0.0231
# 4 1.3911 6.7758 -8.9866 26.6436 2.8979 -5.5907
# 5 -14.7664 -13.7843 -27.7853 2.8979 38.4523 0.8490
# 6 -8.5084 -10.1761 -0.0231 -5.5907 0.8490 26.2550
#
#
#
# Elastic Compliance Matrix: (Units=1/GPa)
#
#
# Indices 1 2 3 4 5 6 
#
# 1 0.014368 -0.003200 -0.002648 -0.000411 0.002416 0.003248
# 2 -0.003200 0.018592 -0.003878 -0.005142 0.002911 0.004976
# 3 -0.002648 -0.003878 0.010265 0.003708 0.004768 -0.001717
# 4 -0.000411 -0.005142 0.003708 0.041840 -0.002627 0.006871
# 5 0.002416 0.002911 0.004768 -0.002627 0.031614 0.000334
# 6 0.003248 0.004976 -0.001717 0.006871 0.000334 0.042520
#
#
# Mechanical properties :
#
#
# Convention : Reuss Voigt Hill
#
# Bulk Modulus (GPa) = 42.06799 55.96794 49.01797
# Shear Modulus (GPa) = 26.79889 31.25297 29.02593
#
# Velocity S-wave (km/s) = 3.44518 3.72048 3.58547
# Velocity P-wave (km/s) = 5.87006 6.57603 6.23305
#
# Compressibility (1/GPa) = 0.02377104
#
# Stress axis : x y z
#
# Youngs Moduli (GPa) = 69.59937 53.78746 97.42201
#
# Poissons Ratio (x) = 0.17213 0.25798
# Poissons Ratio (y) = 0.22273 0.37785
# Poissons Ratio (z) = 0.18430 0.20861
#
# Static dielectric constant tensor:
#      x y z
#    x 1.849050 0.010040 -0.002070 
#    y 0.010040 1.920710 0.019240 
#    z -0.002070 0.019240 1.865640 
# 
# From -- ./inp_files/71668.got.cif
#   From: 2010.05.17/outbox.cif.g08.bks.cpg/sg2_36_cif.got.tgz:71668.got - 2010.06.03 11:33:40.
