data_PCOD9109199
_publ_section_title
;
Structure prediction by ZEFSAII (Michael W. Deem and Ramdas Pophale) SiO2 
 PCOD9109199
Probable space group: P -1
;
_chemical_formula_sum "Si O2"
_cell_formula_units_Z 15
_cell_length_a 13.427661
_cell_length_b 10.240895
_cell_length_c 5.039324
_cell_angle_alpha 116.530122
_cell_angle_beta 68.649461
_cell_angle_gamma 108.612260
_cell_volume 567.163738
_symmetry_space_group_name_H-M "P -1"
_symmetry_group_IT_number 2
_symmetry_cell_setting 'triclinic'
loop_
_space_group_symop_operation_xyz
x,y,z
-x,-y,-z
loop_
_atom_site_type_symbol
_atom_site_label
_atom_site_fract_x
_atom_site_fract_y
_atom_site_fract_z
Si Si1 0.000000 0.000000 0.000000
Si Si2 0.202003 0.190737 0.091763
Si Si3 0.491784 0.845128 0.054017
Si Si4 0.503586 0.649619 0.357499
Si Si5 0.680132 0.061522 0.325585
Si Si6 0.890850 0.283461 0.271725
Si Si7 0.311720 0.433663 0.568385
Si Si8 0.887526 0.553786 0.923925
O O1 0.905221 0.921292 0.811207
O O2 0.057611 0.852765 0.787704
O O3 0.269715 0.272737 0.339406
O O4 0.163289 0.316809 0.063554
O O5 0.265341 0.079452 0.774504
O O6 0.516820 0.723023 0.128433
O O7 0.380190 0.881254 0.314730
O O8 0.587045 0.986856 0.141447
O O9 0.495757 0.771196 0.700343
O O10 0.388802 0.538635 0.387922
O O11 0.605635 0.577679 0.281669
O O12 0.769383 0.195772 0.242146
O O13 0.885531 0.412720 0.608722
O O14 0.988408 0.365369 0.055685
O O15 0.201403 0.489905 0.799709
#
# Coordination Sequence:
#
# PCOD9109199 Si02
#       8
#     1   2   2   2   2   2   2   2
#     4   8  18  38  66  88 134 170 222 278 350 402
#     4  10  20  41  63  97 132 183 218 297 332 430
#     4  11  24  45  69  99 142 186 238 292 349 414
#     4  11  26  43  70 106 139 188 239 291 348 416
#     4  10  21  39  69  94 142 179 238 281 361 405
#     4   9  19  39  67  98 129 183 225 292 343 427
#     4  11  24  38  68  99 141 177 238 282 361 406
#     4  10  21  40  68  93 137 174 232 284 353 411
#
# _framework density 26.447389000000001
#
# number of rings (size 3 to 8) (size 9 to 14) (size 15 to 20)
#    0.000    1.867    1.333    1.600    3.733    3.200 
#    2.400   12.000   11.733    0.000    0.000    0.000 
#    0.000    0.000    0.000    0.000    0.000    0.000 
#
# Total GULP energy -83701.466096 kJ/mol
# GULP energy per Si atom -5580.097740 kJ/mol
# Density = 2.638719 g / cm^3
# Si number density = 26.447389 Si / 1000 Ang^3
#
#
#
# Elastic Constant Matrix: (Units=GPa)
#
#
# Indices 1 2 3 4 5 6 
#
# 1 90.7682 66.0061 55.3032 12.5020 -21.7167 39.9268
# 2 66.0061 145.2879 56.7109 14.5168 -6.6987 40.6985
# 3 55.3032 56.7109 120.9068 21.5848 -15.0817 16.5778
# 4 12.5020 14.5168 21.5848 34.9039 1.3468 -2.5591
# 5 -21.7167 -6.6987 -15.0817 1.3468 44.7504 4.0682
# 6 39.9268 40.6985 16.5778 -2.5591 4.0682 73.8829
#
#
#
# Elastic Compliance Matrix: (Units=1/GPa)
#
#
# Indices 1 2 3 4 5 6 
#
# 1 0.027064 -0.005991 -0.005795 -0.004852 0.011413 -0.010821
# 2 -0.005991 0.011159 -0.002154 -0.001271 -0.001709 -0.002376
# 3 -0.005795 -0.002154 0.012791 -0.004896 0.001213 0.001212
# 4 -0.004852 -0.001271 -0.004896 0.034603 -0.005776 0.005938
# 5 0.011413 -0.001709 0.001213 -0.005776 0.028875 -0.007289
# 6 -0.010821 -0.002376 0.001212 0.005938 -0.007289 0.021027
#
#
# Mechanical properties :
#
#
# Convention : Reuss Voigt Hill
#
# Bulk Modulus (GPa) = 43.22761 79.22258 61.22510
# Shear Modulus (GPa) = 29.22071 42.63695 35.92883
#
# Velocity S-wave (km/s) = 3.32755 4.01951 3.68978
# Velocity P-wave (km/s) = 5.58065 7.18065 6.43061
#
# Compressibility (1/GPa) = 0.02313336
#
# Stress axis : x y z
#
# Youngs Moduli (GPa) = 36.94982 89.61013 78.17721
#
# Poissons Ratio (x) = 0.53684 0.45307
# Poissons Ratio (y) = 0.22136 0.16842
# Poissons Ratio (z) = 0.21414 0.19305
#
# Static dielectric constant tensor:
#      x y z
#    x 2.176760 0.033360 -0.065800 
#    y 0.033360 2.235350 -0.064670 
#    z -0.065800 -0.064670 2.022250 
# 
# From -- ./inp_files/94199.got.cif
#   From: 2010.05.17/outbox.cif.g08.bks.cpg/sg2_48_cif.got.tgz:94199.got - 2010.06.03 11:33:40.
