data_PCOD9109404
_publ_section_title
;
Structure prediction by ZEFSAII (Michael W. Deem and Ramdas Pophale) SiO2 
 PCOD9109404
Probable space group: P -1
;
_chemical_formula_sum "Si O2"
_cell_formula_units_Z 16
_cell_length_a 11.158460
_cell_length_b 9.920771
_cell_length_c 8.209135
_cell_angle_alpha 104.316856
_cell_angle_beta 105.531203
_cell_angle_gamma 49.550224
_cell_volume 662.926202
_symmetry_space_group_name_H-M "P -1"
_symmetry_group_IT_number 2
_symmetry_cell_setting 'triclinic'
loop_
_space_group_symop_operation_xyz
x,y,z
-x,-y,-z
loop_
_atom_site_type_symbol
_atom_site_label
_atom_site_fract_x
_atom_site_fract_y
_atom_site_fract_z
Si Si1 0.314208 0.694349 0.185384
Si Si2 0.284541 0.185792 0.797882
Si Si3 0.366555 0.847865 0.800889
Si Si4 0.123011 0.040789 0.056792
Si Si5 0.050519 0.585871 0.423668
Si Si6 0.390481 0.411566 0.901761
Si Si7 0.162693 0.794118 0.502829
Si Si8 0.862221 0.660696 0.885336
O O1 0.249109 0.895002 0.188413
O O2 0.502310 0.588396 0.195975
O O3 0.226657 0.709466 0.321002
O O4 0.277868 0.606503 0.002501
O O5 0.112661 0.263533 0.687120
O O6 0.324376 0.311366 0.783799
O O7 0.396144 0.973703 0.757711
O O8 0.275201 0.216997 0.998615
O O9 0.308042 0.775019 0.630539
O O10 0.208722 0.979338 0.894612
O O11 0.497669 0.709749 0.938169
O O12 0.082409 0.228909 0.130638
O O13 0.000000 0.000000 0.000000
O O14 0.000000 0.500000 0.500000
O O15 0.120910 0.679468 0.543945
O O16 0.168841 0.427937 0.292554
O O17 0.000000 0.000000 0.500000
O O18 0.000000 0.500000 0.000000
#
# Coordination Sequence:
#
# PCOD9109404 Si02
#       8
#     2   2   2   2   2   2   2   2
#     4  10  24  39  64  96 124 177 209 267 320 372
#     4  10  20  41  65  89 128 167 216 270 311 376
#     4  10  22  39  63  95 123 176 209 263 322 379
#     4  10  21  34  63  91 123 162 220 268 315 366
#     4  11  25  37  61  97 130 171 205 265 334 380
#     4  10  22  43  66  93 129 166 233 257 303 385
#     4  12  24  43  66  92 139 163 210 265 333 395
#     4   9  21  37  58  91 124 163 219 260 321 371
#
# _framework density 24.135415999999999
#
# number of rings (size 3 to 8) (size 9 to 14) (size 15 to 20)
#    0.000    1.750    1.250    1.875   10.500    2.500 
#    0.000    1.875    0.000    0.000    0.000    0.000 
#    0.000    0.000    0.000    0.000    0.000    0.000 
#
# Total GULP energy -89301.059962 kJ/mol
# GULP energy per Si atom -5581.316248 kJ/mol
# Density = 2.408048 g / cm^3
# Si number density = 24.135416 Si / 1000 Ang^3
#
#
#
# Elastic Constant Matrix: (Units=GPa)
#
#
# Indices 1 2 3 4 5 6 
#
# 1 84.6700 32.1331 6.7578 13.2711 3.0295 27.1489
# 2 32.1331 143.4225 9.1151 4.8418 8.2929 37.3557
# 3 6.7578 9.1151 32.5895 7.6154 -5.2208 -2.8441
# 4 13.2711 4.8418 7.6154 29.2194 6.7121 6.5978
# 5 3.0295 8.2929 -5.2208 6.7121 40.4408 -1.3673
# 6 27.1489 37.3557 -2.8441 6.5978 -1.3673 44.8355
#
#
#
# Elastic Compliance Matrix: (Units=1/GPa)
#
#
# Indices 1 2 3 4 5 6 
#
# 1 0.015771 -0.000983 -0.002907 -0.004143 -0.000949 -0.008334
# 2 -0.000983 0.009714 -0.004342 0.002562 -0.003183 -0.008248
# 3 -0.002907 -0.004342 0.037428 -0.011805 0.008229 0.009740
# 4 -0.004143 0.002562 -0.011805 0.042381 -0.009006 -0.006886
# 5 -0.000949 -0.003183 0.008229 -0.009006 0.028209 0.005934
# 6 -0.008334 -0.008248 0.009740 -0.006886 0.005934 0.036035
#
#
# Mechanical properties :
#
#
# Convention : Reuss Voigt Hill
#
# Bulk Modulus (GPa) = 21.52795 39.63265 30.58030
# Shear Modulus (GPa) = 24.81566 37.07754 30.94660
#
# Velocity S-wave (km/s) = 3.21001 3.92373 3.58468
# Velocity P-wave (km/s) = 4.76213 6.08146 5.46178
#
# Compressibility (1/GPa) = 0.04645123
#
# Stress axis : x y z
#
# Youngs Moduli (GPa) = 63.40616 102.93973 26.71762
#
# Poissons Ratio (x) = 0.10121 0.07766
# Poissons Ratio (y) = 0.06234 0.11600
# Poissons Ratio (z) = 0.18430 0.44692
#
# Static dielectric constant tensor:
#      x y z
#    x 2.014540 -0.042500 0.021260 
#    y -0.042500 2.121430 0.033880 
#    z 0.021260 0.033880 2.002520 
# 
# From -- ./inp_files/239826.got.cif
#   From: 2010.05.17/outbox.cif.g08.bks.cpg/sg2_120_cif.got.tgz:239826.got - 2010.06.03 11:33:40.
