data_PCOD9109539
_publ_section_title
;
Structure prediction by ZEFSAII (Michael W. Deem and Ramdas Pophale) SiO2 
 PCOD9109539
Probable space group: P -1
;
_chemical_formula_sum "Si O2"
_cell_formula_units_Z 12
_cell_length_a 8.766198
_cell_length_b 9.312116
_cell_length_c 12.604915
_cell_angle_alpha 71.798685
_cell_angle_beta 34.789156
_cell_angle_gamma 88.974386
_cell_volume 500.749443
_symmetry_space_group_name_H-M "P -1"
_symmetry_group_IT_number 2
_symmetry_cell_setting 'triclinic'
loop_
_space_group_symop_operation_xyz
x,y,z
-x,-y,-z
loop_
_atom_site_type_symbol
_atom_site_label
_atom_site_fract_x
_atom_site_fract_y
_atom_site_fract_z
Si Si1 0.370068 0.760927 0.671247
Si Si2 0.783426 0.859157 0.236661
Si Si3 0.708964 0.168989 0.910574
Si Si4 0.321906 0.509378 0.205664
Si Si5 0.268142 0.387984 0.845574
Si Si6 0.258804 0.171229 0.346650
O O1 0.515577 0.862927 0.457884
O O2 0.281906 0.561374 0.752163
O O3 0.609468 0.822158 0.614370
O O4 0.060768 0.745323 0.897352
O O5 0.633362 0.697304 0.284057
O O6 0.006428 0.842989 0.200155
O O7 0.000000 0.000000 0.000000
O O8 0.805055 0.353286 0.760445
O O9 0.519398 0.188091 0.112905
O O10 0.500000 0.000000 0.000000
O O11 0.541917 0.568837 0.166342
O O12 0.134151 0.311163 0.377192
O O13 0.500000 0.500000 0.000000
O O14 0.000000 0.000000 0.500000
#
# Coordination Sequence:
#
# PCOD9109539 Si02
#       6
#     2   2   2   2   2   2
#     4  10  22  42  71  95 133 180 223 282 342 408
#     4  12  25  42  65 101 138 176 229 283 345 411
#     4  11  22  42  65  97 142 177 227 288 336 415
#     4   9  21  41  70  96 132 181 223 281 346 408
#     4  10  21  44  69  97 132 172 230 279 340 413
#     4  10  20  41  66 101 135 178 229 277 347 414
#
# _framework density 23.964079000000002
#
# number of rings (size 3 to 8) (size 9 to 14) (size 15 to 20)
#    0.000    1.667    1.667    2.500    2.333    2.000 
#    6.000    7.500    0.000    0.000    0.000    0.000 
#    0.000    0.000    0.000    0.000    0.000    0.000 
#
# Total GULP energy -67029.176853 kJ/mol
# GULP energy per Si atom -5585.764738 kJ/mol
# Density = 2.390954 g / cm^3
# Si number density = 23.964079 Si / 1000 Ang^3
#
#
#
# Elastic Constant Matrix: (Units=GPa)
#
#
# Indices 1 2 3 4 5 6 
#
# 1 67.7327 47.3914 21.9568 -13.9530 13.0800 9.5022
# 2 47.3914 154.5009 44.9272 -1.5544 15.7684 20.3973
# 3 21.9568 44.9272 119.7757 8.3821 15.7749 7.8467
# 4 -13.9530 -1.5544 8.3821 51.4320 13.3567 6.2956
# 5 13.0800 15.7684 15.7749 13.3567 26.5813 1.7669
# 6 9.5022 20.3973 7.8467 6.2956 1.7669 47.1933
#
#
#
# Elastic Compliance Matrix: (Units=1/GPa)
#
#
# Indices 1 2 3 4 5 6 
#
# 1 0.023782 -0.005080 -0.001262 0.010247 -0.012872 -0.003268
# 2 -0.005080 0.009128 -0.002133 -0.000072 -0.001447 -0.002504
# 3 -0.001262 -0.002133 0.009923 -0.001109 -0.003432 -0.000197
# 4 0.010247 -0.000072 -0.001109 0.027649 -0.017911 -0.004865
# 5 -0.012872 -0.001447 -0.003432 -0.017911 0.055578 0.004096
# 6 -0.003268 -0.002504 -0.000197 -0.004865 0.004096 0.023458
#
#
# Mechanical properties :
#
#
# Convention : Reuss Voigt Hill
#
# Bulk Modulus (GPa) = 38.63389 63.39555 51.01472
# Shear Modulus (GPa) = 28.55577 40.22357 34.38967
#
# Velocity S-wave (km/s) = 3.45571 4.10139 3.79232
# Velocity P-wave (km/s) = 5.66385 6.99574 6.36473
#
# Compressibility (1/GPa) = 0.02588401
#
# Stress axis : x y z
#
# Youngs Moduli (GPa) = 42.04798 109.54790 100.77614
#
# Poissons Ratio (x) = 0.55647 0.12718
# Poissons Ratio (y) = 0.21359 0.21497
# Poissons Ratio (z) = 0.05306 0.23369
#
# Static dielectric constant tensor:
#      x y z
#    x 1.933510 0.020630 -0.022230 
#    y 0.020630 1.998090 -0.105370 
#    z -0.022230 -0.105370 2.041600 
# 
# From -- ./inp_files/381563.got.cif
#   From: 2010.05.17/outbox.cif.g08.bks.cpg/sg2_191_cif.got.tgz:381563.got - 2010.06.03 11:33:40.
