data_PCOD9109365
_publ_section_title
;
Structure prediction by ZEFSAII (Michael W. Deem and Ramdas Pophale) SiO2 
 PCOD9109365
Probable space group: P -1
;
_chemical_formula_sum "Si O2"
_cell_formula_units_Z 16
_cell_length_a 25.163912
_cell_length_b 20.214779
_cell_length_c 9.087115
_cell_angle_alpha 44.094130
_cell_angle_beta 33.259213
_cell_angle_gamma 19.261590
_cell_volume 768.808113
_symmetry_space_group_name_H-M "P -1"
_symmetry_group_IT_number 2
_symmetry_cell_setting 'triclinic'
loop_
_space_group_symop_operation_xyz
x,y,z
-x,-y,-z
loop_
_atom_site_type_symbol
_atom_site_label
_atom_site_fract_x
_atom_site_fract_y
_atom_site_fract_z
Si Si1 0.063024 0.653880 0.323298
Si Si2 0.365832 0.004400 0.722451
Si Si3 0.040540 0.063611 0.725428
Si Si4 0.433506 0.751964 0.106273
Si Si5 0.884897 0.703137 0.918490
Si Si6 0.028433 0.575836 0.234693
Si Si7 0.292479 0.394366 0.641811
Si Si8 0.609961 0.485578 0.862318
O O1 0.988210 0.824602 0.271598
O O2 0.043215 0.642980 0.217930
O O3 0.911776 0.713910 0.672640
O O4 0.324255 0.418758 0.139150
O O5 0.185346 0.216025 0.703153
O O6 0.569564 0.801435 0.464969
O O7 0.346377 0.076347 0.811529
O O8 0.312425 0.943448 0.993282
O O9 0.855868 0.240988 0.741332
O O10 0.284217 0.854834 0.424044
O O11 0.000000 0.000000 0.000000
O O12 0.477814 0.626318 0.093967
O O13 0.061810 0.613193 0.738592
O O14 0.000000 0.500000 0.000000
O O15 0.000000 0.500000 0.500000
O O16 0.234911 0.402645 0.920638
O O17 0.393755 0.410432 0.382690
O O18 0.500000 0.500000 0.000000
#
# Coordination Sequence:
#
# PCOD9109365 Si02
#       8
#     2   2   2   2   2   2   2   2
#     4  11  22  41  62  93 131 162 208 273 314 372
#     4  10  20  41  65  83 122 169 207 256 311 379
#     4  11  23  39  62  94 128 165 211 261 324 380
#     4  10  21  42  65  88 123 167 213 262 309 377
#     4  11  20  38  66  92 121 160 210 259 316 370
#     4  11  25  41  59  93 135 166 205 268 331 377
#     4  10  21  43  62  88 127 165 212 259 310 381
#     4  10  22  40  66  92 122 165 217 264 310 375
#
# _framework density 20.811436
#
# number of rings (size 3 to 8) (size 9 to 14) (size 15 to 20)
#    0.000    1.500    5.000    2.250    0.000    8.500 
#    2.250    0.000    0.000    0.000    0.000    0.000 
#    0.000    0.000    0.000    0.000    0.000    0.000 
#
# Total GULP energy -89245.901972 kJ/mol
# GULP energy per Si atom -5577.868873 kJ/mol
# Density = 2.076407 g / cm^3
# Si number density = 20.811436 Si / 1000 Ang^3
#
#
#
# Elastic Constant Matrix: (Units=GPa)
#
#
# Indices 1 2 3 4 5 6 
#
# 1 93.4086 10.7703 33.4510 8.7011 9.0722 21.1050
# 2 10.7703 84.4872 53.7578 5.5603 6.2247 18.1858
# 3 33.4510 53.7578 157.9828 6.7610 29.1560 21.0540
# 4 8.7011 5.5603 6.7610 41.5967 10.2234 7.2552
# 5 9.0722 6.2247 29.1560 10.2234 35.8262 -0.0726
# 6 21.1050 18.1858 21.0540 7.2552 -0.0726 28.5506
#
#
#
# Elastic Compliance Matrix: (Units=1/GPa)
#
#
# Indices 1 2 3 4 5 6 
#
# 1 0.013584 0.001644 -0.001717 -0.000554 -0.002190 -0.009687
# 2 0.001644 0.016512 -0.005084 -0.000608 0.001010 -0.007826
# 3 -0.001717 -0.005084 0.010197 0.001838 -0.007512 -0.003499
# 4 -0.000554 -0.000608 0.001838 0.027499 -0.009112 -0.007569
# 5 -0.002190 0.001010 -0.007512 -0.009112 0.037023 0.008925
# 6 -0.009687 -0.007826 -0.003499 -0.007569 0.008925 0.051698
#
#
# Mechanical properties :
#
#
# Convention : Reuss Voigt Hill
#
# Bulk Modulus (GPa) = 33.35686 59.09297 46.22491
# Shear Modulus (GPa) = 28.27746 37.05468 32.66607
#
# Velocity S-wave (km/s) = 3.69012 4.22417 3.96614
# Velocity P-wave (km/s) = 5.84969 7.22825 6.57520
#
# Compressibility (1/GPa) = 0.02997885
#
# Stress axis : x y z
#
# Youngs Moduli (GPa) = 73.61614 60.56352 98.06638
#
# Poissons Ratio (x) = -0.09954 0.16835
# Poissons Ratio (y) = -0.12100 0.49856
# Poissons Ratio (z) = 0.12638 0.30790
#
# Static dielectric constant tensor:
#      x y z
#    x 1.737760 0.013240 -0.018690 
#    y 0.013240 1.742610 0.062610 
#    z -0.018690 0.062610 1.731040 
# 
# From -- ./inp_files/39328.got.cif
#   From: 2010.05.17/outbox.cif.g08.bks.cpg/sg2_20_cif.got.tgz:39328.got - 2010.06.03 11:33:40.
