data_PCOD9109811
_publ_section_title
;
Structure prediction by ZEFSAII (Michael W. Deem and Ramdas Pophale) SiO2 
 PCOD9109811
Probable space group: P -1
;
_chemical_formula_sum "Si O2"
_cell_formula_units_Z 16
_cell_length_a 12.207824
_cell_length_b 9.283807
_cell_length_c 9.317853
_cell_angle_alpha 104.588630
_cell_angle_beta 58.104795
_cell_angle_gamma 121.124790
_cell_volume 767.196112
_symmetry_space_group_name_H-M "P -1"
_symmetry_group_IT_number 2
_symmetry_cell_setting 'triclinic'
loop_
_space_group_symop_operation_xyz
x,y,z
-x,-y,-z
loop_
_atom_site_type_symbol
_atom_site_label
_atom_site_fract_x
_atom_site_fract_y
_atom_site_fract_z
Si Si1 0.891254 0.334156 0.446110
Si Si2 0.141566 0.545032 0.812078
Si Si3 0.399341 0.352754 0.926650
Si Si4 0.404327 0.816748 0.212430
Si Si5 0.161312 0.012555 0.045551
Si Si6 0.140470 0.010112 0.717562
Si Si7 0.349017 0.836456 0.938694
Si Si8 0.657003 0.620949 0.351902
O O1 0.890619 0.399288 0.303525
O O2 0.735522 0.259552 0.612121
O O3 0.000000 0.500000 0.500000
O O4 0.908900 0.165158 0.374349
O O5 0.274864 0.698673 0.836059
O O6 0.210462 0.418708 0.709309
O O7 0.000000 0.500000 0.000000
O O8 0.486538 0.246299 0.816177
O O9 0.366100 0.406668 0.810641
O O10 0.500000 0.500000 0.000000
O O11 0.247675 0.213374 0.062778
O O12 0.494749 0.018126 0.184060
O O13 0.362031 0.760939 0.062393
O O14 0.165946 0.985991 0.863255
O O15 0.994740 0.948848 0.183151
O O16 0.243285 0.924144 0.048338
O O17 0.282885 0.178873 0.611040
O O18 0.500000 0.500000 0.500000
#
# Coordination Sequence:
#
# PCOD9109811 Si02
#       8
#     2   2   2   2   2   2   2   2
#     4  12  27  43  66  97 137 176 220 279 340 391
#     4  12  25  42  71  98 132 176 230 274 330 404
#     4  10  21  38  66  92 128 169 215 270 325 394
#     4  10  23  40  62  98 132 168 222 270 339 388
#     4   9  19  39  67  94 119 175 225 264 323 389
#     4  10  22  42  67  93 132 171 222 271 326 400
#     4  10  20  41  67  94 130 172 222 275 322 401
#     4  11  25  43  66  99 133 172 221 273 335 395
#
# _framework density 20.855162
#
# number of rings (size 3 to 8) (size 9 to 14) (size 15 to 20)
#    0.000    1.500    1.250    3.000    7.000    0.500 
#    0.000    1.250    0.000    0.000    0.000    0.000 
#    0.000    0.000    0.000    0.000    0.000    0.000 
#
# Total GULP energy -89300.830016 kJ/mol
# GULP energy per Si atom -5581.301876 kJ/mol
# Density = 2.080770 g / cm^3
# Si number density = 20.855162 Si / 1000 Ang^3
#
#
#
# Elastic Constant Matrix: (Units=GPa)
#
#
# Indices 1 2 3 4 5 6 
#
# 1 68.6135 22.4878 23.3997 -13.3339 -8.0073 1.4190
# 2 22.4878 115.9420 45.5650 3.7488 0.9933 16.4644
# 3 23.3997 45.5650 83.9655 -25.1065 -13.6681 5.3327
# 4 -13.3339 3.7488 -25.1065 29.2336 8.5228 6.9425
# 5 -8.0073 0.9933 -13.6681 8.5228 33.1649 3.8331
# 6 1.4190 16.4644 5.3327 6.9425 3.8331 39.7740
#
#
#
# Elastic Compliance Matrix: (Units=1/GPa)
#
#
# Indices 1 2 3 4 5 6 
#
# 1 0.017595 -0.003464 -0.000292 0.007711 0.002334 -0.000725
# 2 -0.003464 0.013938 -0.010080 -0.010814 -0.002377 -0.002178
# 3 -0.000292 -0.010080 0.025147 0.022043 0.005341 -0.003551
# 4 0.007711 -0.010814 0.022043 0.061197 -0.003404 -0.009108
# 5 0.002334 -0.002377 0.005341 -0.003404 0.034153 -0.002512
# 6 -0.000725 -0.002178 -0.003551 -0.009108 -0.002512 0.028377
#
#
# Mechanical properties :
#
#
# Convention : Reuss Voigt Hill
#
# Bulk Modulus (GPa) = 34.47461 50.15844 42.31652
# Shear Modulus (GPa) = 22.96212 32.23909 27.60060
#
# Velocity S-wave (km/s) = 3.32177 3.93600 3.64186
# Velocity P-wave (km/s) = 5.59273 6.69023 6.16595
#
# Compressibility (1/GPa) = 0.02900686
#
# Stress axis : x y z
#
# Youngs Moduli (GPa) = 56.83371 71.74744 39.76591
#
# Poissons Ratio (x) = 0.24855 0.01161
# Poissons Ratio (y) = 0.19689 0.40086
# Poissons Ratio (z) = 0.01659 0.72324
#
# Static dielectric constant tensor:
#      x y z
#    x 1.747320 -0.010640 -0.035860 
#    y -0.010640 1.769530 0.004660 
#    z -0.035860 0.004660 1.733070 
# 
# From -- ./inp_files/244446.got.cif
#   From: 2010.05.17/outbox.cif.g08.bks.cpg/sg2_123_cif.got.tgz:244446.got - 2010.06.03 11:33:40.
