data_PCOD9109491
_publ_section_title
;
Structure prediction by ZEFSAII (Michael W. Deem and Ramdas Pophale) SiO2 
 PCOD9109491
Probable space group: P -1
;
_chemical_formula_sum "Si O2"
_cell_formula_units_Z 16
_cell_length_a 5.777913
_cell_length_b 14.179347
_cell_length_c 11.470086
_cell_angle_alpha 129.979611
_cell_angle_beta 95.605049
_cell_angle_gamma 70.226909
_cell_volume 668.219268
_symmetry_space_group_name_H-M "P -1"
_symmetry_group_IT_number 2
_symmetry_cell_setting 'triclinic'
loop_
_space_group_symop_operation_xyz
x,y,z
-x,-y,-z
loop_
_atom_site_type_symbol
_atom_site_label
_atom_site_fract_x
_atom_site_fract_y
_atom_site_fract_z
Si Si1 0.783127 0.942512 0.922524
Si Si2 0.230069 0.222566 0.610383
Si Si3 0.887972 0.987929 0.704516
Si Si4 0.588428 0.206276 0.401588
Si Si5 0.814052 0.683395 0.720894
Si Si6 0.187132 0.540247 0.124663
Si Si7 0.250503 0.562992 0.460190
Si Si8 0.433331 0.719053 0.135368
O O1 0.777668 0.944212 0.781300
O O2 0.885108 0.797647 0.871761
O O3 0.500000 0.000000 0.000000
O O4 0.000000 0.000000 0.000000
O O5 0.159786 0.093981 0.474501
O O6 0.404870 0.224661 0.513504
O O7 0.382953 0.225851 0.737646
O O8 0.001274 0.362000 0.715141
O O9 0.185719 0.932443 0.693079
O O10 0.769451 0.145310 0.813291
O O11 0.444110 0.240649 0.299379
O O12 0.705101 0.319353 0.509584
O O13 0.790000 0.564162 0.697122
O O14 0.018837 0.625315 0.584584
O O15 0.308070 0.638486 0.147432
O O16 0.409424 0.397462 0.038709
O O17 0.000000 0.500000 0.000000
O O18 0.500000 0.500000 0.500000
#
# Coordination Sequence:
#
# PCOD9109491 Si02
#       8
#     2   2   2   2   2   2   2   2
#     4  12  27  48  72  98 144 197 242 301 370 434
#     4  11  22  39  72 107 138 178 236 297 357 432
#     4  12  25  43  71 103 139 184 243 298 363 435
#     4  11  20  37  65 104 143 178 229 299 362 419
#     4  10  20  41  65  95 130 181 233 293 347 423
#     4   9  21  45  67  98 144 181 226 283 356 434
#     4   9  19  35  67  93 126 173 226 289 353 405
#     4  10  23  44  72 100 143 184 226 291 362 440
#
# _framework density 23.944234999999999
#
# number of rings (size 3 to 8) (size 9 to 14) (size 15 to 20)
#    0.000    1.500    2.500    1.875    1.750    4.000 
#    0.000    8.750    5.500    0.000    0.000    0.000 
#    0.000    0.000    0.000    0.000    0.000    0.000 
#
# Total GULP energy -89259.384894 kJ/mol
# GULP energy per Si atom -5578.711556 kJ/mol
# Density = 2.388974 g / cm^3
# Si number density = 23.944235 Si / 1000 Ang^3
#
#
#
# Elastic Constant Matrix: (Units=GPa)
#
#
# Indices 1 2 3 4 5 6 
#
# 1 116.4782 32.6518 63.4477 23.0431 -8.5166 -8.9624
# 2 32.6518 107.1692 51.3133 54.3233 -13.1383 -17.2185
# 3 63.4477 51.3133 128.9054 35.8279 -24.7396 1.0614
# 4 23.0431 54.3233 35.8279 53.0389 -1.7522 2.5434
# 5 -8.5166 -13.1383 -24.7396 -1.7522 58.3799 9.2166
# 6 -8.9624 -17.2185 1.0614 2.5434 9.2166 37.1390
#
#
#
# Elastic Compliance Matrix: (Units=1/GPa)
#
#
# Indices 1 2 3 4 5 6 
#
# 1 0.012308 0.000794 -0.005999 -0.002341 -0.001268 0.003985
# 2 0.000794 0.025843 -0.003541 -0.025024 0.001532 0.013608
# 3 -0.005999 -0.003541 0.013845 -0.002744 0.004822 -0.004494
# 4 -0.002341 -0.025024 -0.002744 0.047939 -0.003404 -0.014526
# 5 -0.001268 0.001532 0.004822 -0.003404 0.019932 -0.004447
# 6 0.003985 0.013608 -0.004494 -0.014526 -0.004447 0.036423
#
#
# Mechanical properties :
#
#
# Convention : Reuss Voigt Hill
#
# Bulk Modulus (GPa) = 28.98283 71.93094 50.45689
# Shear Modulus (GPa) = 26.98545 43.38754 35.18649
#
# Velocity S-wave (km/s) = 3.36074 4.26141 3.83759
# Velocity P-wave (km/s) = 5.21441 7.37014 6.38393
#
# Compressibility (1/GPa) = 0.03450318
#
# Stress axis : x y z
#
# Youngs Moduli (GPa) = 81.24993 38.69494 72.22573
#
# Poissons Ratio (x) = -0.03072 0.43332
# Poissons Ratio (y) = -0.06451 0.25576
# Poissons Ratio (z) = 0.48746 0.13702
#
# Static dielectric constant tensor:
#      x y z
#    x 1.957930 -0.084330 0.088890 
#    y -0.084330 2.218500 -0.191020 
#    z 0.088890 -0.191020 2.141050 
# 
# From -- ./inp_files/368059.got.cif
#   From: 2010.05.17/outbox.cif.g08.bks.cpg/sg2_185_cif.got.tgz:368059.got - 2010.06.03 11:33:40.
