data_PCOD9109406
_publ_section_title
;
Structure prediction by ZEFSAII (Michael W. Deem and Ramdas Pophale) SiO2 
 PCOD9109406
Probable space group: P -1
;
_chemical_formula_sum "Si O2"
_cell_formula_units_Z 16
_cell_length_a 14.329852
_cell_length_b 11.404838
_cell_length_c 9.232480
_cell_angle_alpha 93.312207
_cell_angle_beta 27.882746
_cell_angle_gamma 105.621056
_cell_volume 622.788598
_symmetry_space_group_name_H-M "P -1"
_symmetry_group_IT_number 2
_symmetry_cell_setting 'triclinic'
loop_
_space_group_symop_operation_xyz
x,y,z
-x,-y,-z
loop_
_atom_site_type_symbol
_atom_site_label
_atom_site_fract_x
_atom_site_fract_y
_atom_site_fract_z
Si Si1 0.724379 0.339997 0.277481
Si Si2 0.205734 0.614579 0.140372
Si Si3 0.928621 0.182512 0.163228
Si Si4 0.993382 0.241453 0.406040
Si Si5 0.364294 0.067910 0.765803
Si Si6 0.150454 0.095863 0.643265
Si Si7 0.666777 0.958894 0.856225
Si Si8 0.521965 0.523494 0.294833
O O1 0.473667 0.220157 0.574506
O O2 0.688533 0.445440 0.433208
O O3 0.839433 0.395204 0.969993
O O4 0.832882 0.259042 0.201174
O O5 0.183903 0.737264 0.247498
O O6 0.000000 0.500000 0.500000
O O7 0.421730 0.589023 0.856297
O O8 0.144268 0.192956 0.780506
O O9 0.954146 0.247991 0.289271
O O10 0.809675 0.022615 0.348955
O O11 0.914606 0.087551 0.530550
O O12 0.255921 0.346440 0.063688
O O13 0.500000 0.000000 0.500000
O O14 0.399629 0.078073 0.891072
O O15 0.106789 0.977417 0.068366
O O16 0.307454 0.146349 0.290926
O O17 0.500000 0.000000 0.000000
O O18 0.500000 0.500000 0.500000
#
# Coordination Sequence:
#
# PCOD9109406 Si02
#       8
#     2   2   2   2   2   2   2   2
#     4  11  20  38  64  93 122 165 215 260 325 383
#     4   9  20  41  66  88 118 155 213 278 324 374
#     4  10  21  37  60  87 129 171 205 258 307 376
#     4  10  20  41  65  89 129 170 204 261 341 368
#     4  12  22  36  64  94 128 172 219 249 309 397
#     4  10  22  40  57  84 138 175 215 248 306 364
#     4  11  24  40  60  96 138 172 209 260 307 385
#     4   9  20  40  66  92 114 155 219 280 319 378
#
# _framework density 25.690901
#
# number of rings (size 3 to 8) (size 9 to 14) (size 15 to 20)
#    0.000    1.750    1.250    4.125    1.750    0.000 
#    6.750    6.250    0.000    0.000    0.000    0.000 
#    0.000    0.000    0.000    0.000    0.000    0.000 
#
# Total GULP energy -89298.770541 kJ/mol
# GULP energy per Si atom -5581.173159 kJ/mol
# Density = 2.563243 g / cm^3
# Si number density = 25.690901 Si / 1000 Ang^3
#
#
#
# Elastic Constant Matrix: (Units=GPa)
#
#
# Indices 1 2 3 4 5 6 
#
# 1 95.8413 29.2186 47.0822 15.5633 20.5103 -23.7915
# 2 29.2186 99.4851 57.4187 52.6272 5.9162 -21.6924
# 3 47.0822 57.4187 178.4496 31.8558 36.7046 -3.2446
# 4 15.5633 52.6272 31.8558 82.5287 11.4116 3.2442
# 5 20.5103 5.9162 36.7046 11.4116 43.0109 3.9903
# 6 -23.7915 -21.6924 -3.2446 3.2442 3.9903 34.2471
#
#
#
# Elastic Compliance Matrix: (Units=1/GPa)
#
#
# Indices 1 2 3 4 5 6 
#
# 1 0.016302 0.001293 -0.002785 -0.002484 -0.006106 0.012827
# 2 0.001293 0.024202 -0.005941 -0.014513 0.003431 0.016641
# 3 -0.002785 -0.005941 0.009006 0.001784 -0.005610 -0.004360
# 4 -0.002484 -0.014513 0.001784 0.022062 -0.003037 -0.012485
# 5 -0.006106 0.003431 -0.005610 -0.003037 0.031842 -0.006023
# 6 0.012827 0.016641 -0.004360 -0.012485 -0.006023 0.050122
#
#
# Mechanical properties :
#
#
# Convention : Reuss Voigt Hill
#
# Bulk Modulus (GPa) = 28.86346 71.24609 50.05478
# Shear Modulus (GPa) = 27.78558 47.96110 37.87334
#
# Velocity S-wave (km/s) = 3.29224 4.32540 3.84369
# Velocity P-wave (km/s) = 5.07061 7.26207 6.26293
#
# Compressibility (1/GPa) = 0.03464588
#
# Stress axis : x y z
#
# Youngs Moduli (GPa) = 61.34257 41.31819 111.03518
#
# Poissons Ratio (x) = -0.05344 0.30919
# Poissons Ratio (y) = -0.07934 0.65967
# Poissons Ratio (z) = 0.17082 0.24548
#
# Static dielectric constant tensor:
#      x y z
#    x 2.093260 0.076540 -0.052660 
#    y 0.076540 2.361410 0.099850 
#    z -0.052660 0.099850 2.135150 
# 
# From -- ./inp_files/307247.got.cif
#   From: 2010.05.17/outbox.cif.g08.bks.cpg/sg2_154_cif.got.tgz:307247.got - 2010.06.03 11:33:40.
