data_PCOD9109056
_publ_section_title
;
Structure prediction by ZEFSAII (Michael W. Deem and Ramdas Pophale) SiO2 
 PCOD9109056
Probable space group: P -1
;
_chemical_formula_sum "Si O2"
_cell_formula_units_Z 16
_cell_length_a 13.603440
_cell_length_b 13.004050
_cell_length_c 13.048047
_cell_angle_alpha 137.719098
_cell_angle_beta 148.850856
_cell_angle_gamma 31.634572
_cell_volume 625.695720
_symmetry_space_group_name_H-M "P -1"
_symmetry_group_IT_number 2
_symmetry_cell_setting 'triclinic'
loop_
_space_group_symop_operation_xyz
x,y,z
-x,-y,-z
loop_
_atom_site_type_symbol
_atom_site_label
_atom_site_fract_x
_atom_site_fract_y
_atom_site_fract_z
Si Si1 0.311779 0.440320 0.002948
Si Si2 0.109996 0.273881 0.022904
Si Si3 0.635117 0.533865 0.388372
Si Si4 0.500596 0.821923 0.835963
Si Si5 0.721898 0.212241 0.579542
Si Si6 0.971549 0.149477 0.268776
Si Si7 0.439563 0.889686 0.163636
Si Si8 0.204064 0.286219 0.471908
O O1 0.400821 0.566104 0.150081
O O2 0.498809 0.281384 0.138917
O O3 0.052316 0.570706 0.919466
O O4 0.336459 0.308941 0.838592
O O5 0.928804 0.240356 0.784111
O O6 0.239266 0.320091 0.093201
O O7 0.332114 0.076505 0.134468
O O8 0.534847 0.593557 0.460041
O O9 0.849358 0.319246 0.373464
O O10 0.700729 0.668388 0.506459
O O11 0.311670 0.854362 0.607857
O O12 0.500000 0.000000 0.000000
O O13 0.815944 0.046256 0.626497
O O14 0.061798 0.198625 0.287317
O O15 0.772481 0.128967 0.038885
O O16 0.555503 0.866585 0.357999
O O17 0.000000 0.500000 0.500000
#
# Coordination Sequence:
#
# PCOD9109056 Si02
#       8
#     2   2   2   2   2   2   2   2
#     4  10  22  41  63  91 126 163 209 254 312 364
#     4  10  22  42  63  94 123 166 207 251 319 362
#     4   9  21  41  60  92 123 162 209 249 310 363
#     4  12  24  42  65  95 121 164 212 254 311 375
#     4  10  23  43  63  88 130 160 204 263 304 366
#     4   9  20  38  63  92 123 166 203 251 311 359
#     4  10  20  41  62  88 134 159 203 262 297 367
#     4  10  21  38  64  95 122 166 211 246 308 370
#
# _framework density 25.571535999999998
#
# number of rings (size 3 to 8) (size 9 to 14) (size 15 to 20)
#    0.000    2.000    1.250    1.125    0.000    9.500 
#    2.250    9.375    0.000    0.000    0.000    0.000 
#    0.000    0.000    0.000    0.000    0.000    0.000 
#
# Total GULP energy -89461.786935 kJ/mol
# GULP energy per Si atom -5591.361683 kJ/mol
# Density = 2.551333 g / cm^3
# Si number density = 25.571536 Si / 1000 Ang^3
#
#
#
# Elastic Constant Matrix: (Units=GPa)
#
#
# Indices 1 2 3 4 5 6 
#
# 1 71.5771 4.8840 45.5299 0.6622 18.6422 2.6199
# 2 4.8840 67.3563 26.0873 4.0366 -8.7252 -12.5622
# 3 45.5299 26.0873 112.7230 -9.9245 -16.3328 5.6867
# 4 0.6622 4.0366 -9.9245 27.2810 -4.5530 0.7138
# 5 18.6422 -8.7252 -16.3328 -4.5530 37.4558 6.8778
# 6 2.6199 -12.5622 5.6867 0.7138 6.8778 42.7233
#
#
#
# Elastic Compliance Matrix: (Units=1/GPa)
#
#
# Indices 1 2 3 4 5 6 
#
# 1 0.033037 0.003632 -0.019538 -0.013089 -0.026843 0.006183
# 2 0.003632 0.018568 -0.006984 -0.005964 -0.002477 0.006665
# 3 -0.019538 -0.006984 0.023029 0.013618 0.021183 -0.007558
# 4 -0.013089 -0.005964 0.013618 0.045952 0.017825 -0.006401
# 5 -0.026843 -0.002477 0.021183 0.017825 0.052851 -0.010708
# 6 0.006183 0.006665 -0.007558 -0.006401 -0.010708 0.027824
#
#
# Mechanical properties :
#
#
# Convention : Reuss Voigt Hill
#
# Bulk Modulus (GPa) = 34.65871 44.96209 39.81040
# Shear Modulus (GPa) = 19.48104 33.16902 26.32503
#
# Velocity S-wave (km/s) = 2.76311 3.60544 3.21201
# Velocity P-wave (km/s) = 4.87471 5.91214 5.41831
#
# Compressibility (1/GPa) = 0.02885277
#
# Stress axis : x y z
#
# Youngs Moduli (GPa) = 30.26868 53.85706 43.42372
#
# Poissons Ratio (x) = -0.19561 0.84843
# Poissons Ratio (y) = -0.10993 0.30328
# Poissons Ratio (z) = 0.59140 0.37615
#
# Static dielectric constant tensor:
#      x y z
#    x 1.990830 -0.040170 -0.037070 
#    y -0.040170 2.060090 0.025040 
#    z -0.037070 0.025040 2.016790 
# 
# From -- ./inp_files/533859.got.cif
#   From: 2010.05.17/outbox.cif.g08.bks.cpg/sg2_267_cif.got.tgz:533859.got - 2010.06.03 11:33:40.
