data_PCOD9109829
_publ_section_title
;
Structure prediction by ZEFSAII (Michael W. Deem and Ramdas Pophale) SiO2 
 PCOD9109829
Probable space group: P -1
;
_chemical_formula_sum "Si O2"
_cell_formula_units_Z 14
_cell_length_a 4.816051
_cell_length_b 8.652025
_cell_length_c 15.600903
_cell_angle_alpha 74.639373
_cell_angle_beta 54.680098
_cell_angle_gamma 78.036508
_cell_volume 510.254082
_symmetry_space_group_name_H-M "P -1"
_symmetry_group_IT_number 2
_symmetry_cell_setting 'triclinic'
loop_
_space_group_symop_operation_xyz
x,y,z
-x,-y,-z
loop_
_atom_site_type_symbol
_atom_site_label
_atom_site_fract_x
_atom_site_fract_y
_atom_site_fract_z
Si Si1 0.494089 0.629965 0.056599
Si Si2 0.334157 0.155180 0.547006
Si Si3 0.864169 0.202499 0.764047
Si Si4 0.736512 0.363746 0.589769
Si Si5 0.840901 0.384294 0.343418
Si Si6 0.630145 0.349901 0.195435
Si Si7 0.633220 0.084832 0.084165
O O1 0.693644 0.518658 0.110033
O O2 0.500000 0.500000 0.000000
O O3 0.316737 0.797957 0.859847
O O4 0.553627 0.794699 0.971014
O O5 0.613635 0.281699 0.461057
O O6 0.222219 0.135643 0.668736
O O7 0.985388 0.204742 0.550770
O O8 0.500000 0.000000 0.500000
O O9 0.716438 0.325842 0.700363
O O10 0.841952 0.300761 0.841911
O O11 0.615640 0.057065 0.834366
O O12 0.359136 0.443417 0.628748
O O13 0.000000 0.500000 0.500000
O O14 0.821016 0.337645 0.253492
O O15 0.236480 0.357035 0.293836
O O16 0.000000 0.000000 0.000000
#
# Coordination Sequence:
#
# PCOD9109829 Si02
#       7
#     2   2   2   2   2   2   2
#     4  10  23  42  67 100 131 189 247 295 347 418
#     4   9  19  37  68 105 142 185 233 285 363 439
#     4  10  20  41  67  95 146 183 237 294 365 406
#     4   8  18  37  68  99 137 181 235 285 355 429
#     4  11  22  45  72 106 141 185 239 289 355 434
#     4  11  25  46  74 104 143 190 241 297 355 427
#     4  11  26  42  63 103 141 190 242 303 363 421
#
# _framework density 27.437311000000001
#
# number of rings (size 3 to 8) (size 9 to 14) (size 15 to 20)
#    0.857    1.143    1.429    1.286    2.000    4.571 
#    0.000   20.714    0.000    0.000    0.000    0.000 
#    0.000    0.000    0.000    0.000    0.000    0.000 
#
# Total GULP energy -78188.642394 kJ/mol
# GULP energy per Si atom -5584.903028 kJ/mol
# Density = 2.737486 g / cm^3
# Si number density = 27.437311 Si / 1000 Ang^3
#
#
#
# Elastic Constant Matrix: (Units=GPa)
#
#
# Indices 1 2 3 4 5 6 
#
# 1 76.6806 28.9829 40.5367 3.5369 -10.3174 0.1200
# 2 28.9829 202.5530 85.0327 41.6597 -20.6072 -2.5051
# 3 40.5367 85.0327 217.6294 13.7383 -16.4207 1.5917
# 4 3.5369 41.6597 13.7383 63.8527 -2.1891 -0.4795
# 5 -10.3174 -20.6072 -16.4207 -2.1891 54.5661 13.5789
# 6 0.1200 -2.5051 1.5917 -0.4795 13.5789 19.5248
#
#
#
# Elastic Compliance Matrix: (Units=1/GPa)
#
#
# Indices 1 2 3 4 5 6 
#
# 1 0.014888 -0.001096 -0.002199 0.000425 0.002137 -0.001528
# 2 -0.001096 0.006979 -0.002145 -0.003976 0.001669 -0.000181
# 3 -0.002199 -0.002145 0.005903 0.000272 0.000901 -0.001363
# 4 0.000425 -0.003976 0.000272 0.018151 -0.000712 0.000406
# 5 0.002137 0.001669 0.000901 -0.000712 0.023673 -0.016354
# 6 -0.001528 -0.000181 -0.001363 0.000406 -0.016354 0.062698
#
#
# Mechanical properties :
#
#
# Convention : Reuss Voigt Hill
#
# Bulk Modulus (GPa) = 59.20333 89.55195 74.37764
# Shear Modulus (GPa) = 33.60135 50.40943 42.00539
#
# Velocity S-wave (km/s) = 3.50331 4.29098 3.91699
# Velocity P-wave (km/s) = 6.16350 7.56700 6.90103
#
# Compressibility (1/GPa) = 0.01689094
#
# Stress axis : x y z
#
# Youngs Moduli (GPa) = 67.16667 143.28006 169.39460
#
# Poissons Ratio (x) = 0.15704 0.37256
# Poissons Ratio (y) = 0.07362 0.36329
# Poissons Ratio (z) = 0.14773 0.30728
#
# Static dielectric constant tensor:
#      x y z
#    x 3.825220 1.219230 0.412710 
#    y 1.219230 2.947330 0.278890 
#    z 0.412710 0.278890 2.287520 
# 
# From -- ./inp_files/547040.got.cif
#   From: 2010.05.17/outbox.cif.g08.bks.cpg/sg2_274_cif.got.tgz:547040.got - 2010.06.03 11:33:40.
