data_PCOD9109936
_publ_section_title
;
Structure prediction by ZEFSAII (Michael W. Deem and Ramdas Pophale) SiO2 
 PCOD9109936
Probable space group: P -1
;
_chemical_formula_sum "Si O2"
_cell_formula_units_Z 16
_cell_length_a 8.263357
_cell_length_b 9.134858
_cell_length_c 11.650187
_cell_angle_alpha 118.330412
_cell_angle_beta 106.651225
_cell_angle_gamma 68.874358
_cell_volume 714.873985
_symmetry_space_group_name_H-M "P -1"
_symmetry_group_IT_number 2
_symmetry_cell_setting 'triclinic'
loop_
_space_group_symop_operation_xyz
x,y,z
-x,-y,-z
loop_
_atom_site_type_symbol
_atom_site_label
_atom_site_fract_x
_atom_site_fract_y
_atom_site_fract_z
Si Si1 0.820828 0.506508 0.899501
Si Si2 0.654349 0.297753 0.240509
Si Si3 0.219429 0.888201 0.596625
Si Si4 0.825458 0.929187 0.556025
Si Si5 0.704951 0.498372 0.632794
Si Si6 0.279541 0.387943 0.576471
Si Si7 0.517100 0.833465 0.025249
Si Si8 0.590218 0.222619 0.762062
O O1 0.843169 0.500531 0.762603
O O2 0.713721 0.359182 0.849046
O O3 0.695396 0.692381 0.977163
O O4 0.000000 0.500000 0.000000
O O5 0.696302 0.133811 0.270428
O O6 0.477095 0.419605 0.306354
O O7 0.788086 0.413796 0.325288
O O8 0.631242 0.249354 0.089565
O O9 0.262401 0.698924 0.475842
O O10 0.013798 0.964537 0.604805
O O11 0.275114 0.005401 0.558420
O O12 0.854768 0.726571 0.487512
O O13 0.711691 0.042372 0.672771
O O14 0.685903 0.606102 0.551222
O O15 0.439523 0.301022 0.664385
O O16 0.488895 0.824083 0.151846
O O17 0.500000 0.000000 0.000000
#
# Coordination Sequence:
#
# PCOD9109936 Si02
#       8
#     2   2   2   2   2   2   2   2
#     4  11  25  47  73 101 139 191 230 286 349 409
#     4  10  21  41  65  92 127 178 223 274 341 404
#     4  10  21  41  61  97 138 170 221 290 349 399
#     4  11  24  37  64 103 136 173 218 290 351 402
#     4  10  20  41  68  93 133 170 224 274 350 399
#     4  11  22  38  71  97 128 175 221 284 332 413
#     4  11  27  46  71  99 135 191 240 283 336 418
#     4  12  24  46  68 102 141 180 242 275 341 425
#
# _framework density 22.381564999999998
#
# number of rings (size 3 to 8) (size 9 to 14) (size 15 to 20)
#    0.000    1.250    3.750    3.000    5.250    4.000 
#    2.250    1.250    0.000    0.000    0.000    0.000 
#    0.000    0.000    0.000    0.000    0.000    0.000 
#
# Total GULP energy -89174.773000 kJ/mol
# GULP energy per Si atom -5573.423312 kJ/mol
# Density = 2.233062 g / cm^3
# Si number density = 22.381565 Si / 1000 Ang^3
#
#
#
# Elastic Constant Matrix: (Units=GPa)
#
#
# Indices 1 2 3 4 5 6 
#
# 1 39.9265 31.2268 39.9331 -8.6821 7.1881 4.2431
# 2 31.2268 96.9197 39.7214 -22.6332 0.9111 17.7717
# 3 39.9331 39.7214 142.3195 -42.9526 2.8778 1.9517
# 4 -8.6821 -22.6332 -42.9526 35.2291 0.3255 2.5146
# 5 7.1881 0.9111 2.8778 0.3255 35.8200 -6.4194
# 6 4.2431 17.7717 1.9517 2.5146 -6.4194 31.2615
#
#
#
# Elastic Compliance Matrix: (Units=1/GPa)
#
#
# Indices 1 2 3 4 5 6 
#
# 1 0.046834 -0.012801 -0.013344 -0.012968 -0.007664 0.001223
# 2 -0.012801 0.018048 0.002276 0.011899 0.000098 -0.009602
# 3 -0.013344 0.002276 0.015218 0.016832 0.000959 -0.001589
# 4 -0.012968 0.011899 0.016832 0.054135 -0.001464 -0.010710
# 5 -0.007664 0.000098 0.000959 -0.001464 0.030706 0.007348
# 6 0.001223 -0.009602 -0.001589 -0.010710 0.007348 0.039750
#
#
# Mechanical properties :
#
#
# Convention : Reuss Voigt Hill
#
# Bulk Modulus (GPa) = 30.90151 55.65868 43.28010
# Shear Modulus (GPa) = 18.99578 31.68107 25.33843
#
# Velocity S-wave (km/s) = 2.91645 3.76639 3.36834
# Velocity P-wave (km/s) = 5.01772 6.62090 5.87426
#
# Compressibility (1/GPa) = 0.03236087
#
# Stress axis : x y z
#
# Youngs Moduli (GPa) = 21.35210 55.40734 65.71246
#
# Poissons Ratio (x) = 0.70929 0.87685
# Poissons Ratio (y) = 0.27333 -0.14953
# Poissons Ratio (z) = 0.28492 -0.12608
#
# Static dielectric constant tensor:
#      x y z
#    x 1.880090 0.035540 0.079340 
#    y 0.035540 1.884020 -0.011870 
#    z 0.079340 -0.011870 1.873080 
# 
# From -- ./inp_files/382966.got.cif
#   From: 2010.05.17/outbox.cif.g08.bks.cpg/sg2_192_cif.got.tgz:382966.got - 2010.06.03 11:33:40.
