data_PCOD9109502
_publ_section_title
;
Structure prediction by ZEFSAII (Michael W. Deem and Ramdas Pophale) SiO2 
 PCOD9109502
Probable space group: P -1
;
_chemical_formula_sum "Si O2"
_cell_formula_units_Z 16
_cell_length_a 20.668920
_cell_length_b 4.917897
_cell_length_c 20.900217
_cell_angle_alpha 77.421385
_cell_angle_beta 158.877270
_cell_angle_gamma 112.388721
_cell_volume 644.775355
_symmetry_space_group_name_H-M "P -1"
_symmetry_group_IT_number 2
_symmetry_cell_setting 'triclinic'
loop_
_space_group_symop_operation_xyz
x,y,z
-x,-y,-z
loop_
_atom_site_type_symbol
_atom_site_label
_atom_site_fract_x
_atom_site_fract_y
_atom_site_fract_z
Si Si1 0.423776 0.236652 0.581581
Si Si2 0.447131 0.473774 0.805067
Si Si3 0.276565 0.219030 0.071126
Si Si4 0.999872 0.043946 0.353546
Si Si5 0.028919 0.633878 0.297767
Si Si6 0.099156 0.121941 0.183556
Si Si7 0.163530 0.487600 0.104747
Si Si8 0.424865 0.017907 0.999937
O O1 0.552013 0.527316 0.734417
O O2 0.277777 0.270031 0.393391
O O3 0.609275 0.225047 0.717012
O O4 0.263883 0.909742 0.486046
O O5 0.584500 0.750914 0.864664
O O6 0.214937 0.235543 0.579259
O O7 0.553914 0.257539 0.927868
O O8 0.439635 0.652642 0.852678
O O9 0.127335 0.338265 0.895920
O O10 0.104235 0.895570 0.967092
O O11 0.013629 0.290790 0.298126
O O12 0.983958 0.731832 0.321447
O O13 0.797662 0.996974 0.206342
O O14 0.209296 0.272982 0.209500
O O15 0.974377 0.745678 0.067449
O O16 0.000000 0.500000 0.000000
O O17 0.500000 0.000000 0.000000
#
# Coordination Sequence:
#
# PCOD9109502 Si02
#       8
#     2   2   2   2   2   2   2   2
#     4  10  21  41  61  97 128 172 234 281 348 414
#     4  12  25  44  74 104 142 187 234 287 348 417
#     4  10  20  41  65  96 131 176 225 286 350 403
#     4  12  24  44  72 101 140 181 231 282 346 416
#     4  11  23  42  66 101 135 179 227 288 347 404
#     4   9  21  40  61  87 132 169 222 283 335 410
#     4  10  21  40  61  88 128 178 223 280 350 405
#     4  12  27  48  73 105 146 186 229 287 345 418
#
# _framework density 24.814847
#
# number of rings (size 3 to 8) (size 9 to 14) (size 15 to 20)
#    0.000    1.250    3.750    1.500    0.000    2.500 
#   18.000    0.000    0.000    0.000    0.000    0.000 
#    0.000    0.000    0.000    0.000    0.000    0.000 
#
# Total GULP energy -89285.096354 kJ/mol
# GULP energy per Si atom -5580.318522 kJ/mol
# Density = 2.475837 g / cm^3
# Si number density = 24.814847 Si / 1000 Ang^3
#
#
#
# Elastic Constant Matrix: (Units=GPa)
#
#
# Indices 1 2 3 4 5 6 
#
# 1 -482.5064 879.0736 39.6623 -541.6569 -381.7795 1412.5148
# 2 879.0736-1237.5492 26.0746 794.5370 542.9701-2064.5051
# 3 39.6623 26.0746 199.5929 4.4228 -15.8730 27.8371
# 4 -541.6569 794.5370 4.4228 -463.8994 -346.5459 1265.7617
# 5 -381.7795 542.9701 -15.8730 -346.5459 -200.6881 896.0454
# 6 1412.5148-2064.5051 27.8371 1265.7617 896.0454-3268.3439
#
#
#
# Elastic Compliance Matrix: (Units=1/GPa)
#
#
# Indices 1 2 3 4 5 6 
#
# 1 0.009020 0.001891 -0.002432 -0.000069 -0.000574 0.002499
# 2 0.001891 0.019049 -0.001203 0.003765 0.009266 -0.007227
# 3 -0.002432 -0.001203 0.005961 -0.003191 0.000806 -0.001255
# 4 -0.000069 0.003765 -0.003191 0.040575 0.000924 0.013532
# 5 -0.000574 0.009266 0.000806 0.000924 0.027190 0.001718
# 6 0.002499 -0.007227 -0.001255 0.013532 0.001718 0.011040
#
#
# Mechanical properties :
#
#
# Convention : Reuss Voigt Hill
#
# Bulk Modulus (GPa) = 32.74157 41.01760 36.87958
# Shear Modulus (GPa) = 39.52454 -950.93784 -455.70665
#
# Velocity S-wave (km/s) = 3.99529 -19.59707 -13.56619
# Velocity P-wave (km/s) = 5.87419 22.25971 15.18204
#
# Compressibility (1/GPa) = 0.03054222
#
# Stress axis : x y z
#
# Youngs Moduli (GPa) = 110.86652 52.49535 167.77067
#
# Poissons Ratio (x) = -0.09928 0.40803
# Poissons Ratio (y) = -0.20968 0.20182
# Poissons Ratio (z) = 0.26963 0.06315
#
# Static dielectric constant tensor:
#      x y z
#    x 1.990570 0.073990 0.051380 
#    y 0.073990 2.359220 -0.201750 
#    z 0.051380 -0.201750 1.981410 
# 
# From -- ./inp_files/600777.got.cif
#   From: 2010.05.17/outbox.cif.g08.bks.cpg/sg2_301_cif.got.tgz:600777.got - 2010.06.03 11:33:40.
