data_PCOD9109026
_publ_section_title
;
Structure prediction by ZEFSAII (Michael W. Deem and Ramdas Pophale) SiO2 
 PCOD9109026
Probable space group: P -1
;
_chemical_formula_sum "Si O2"
_cell_formula_units_Z 12
_cell_length_a 17.224161
_cell_length_b 7.857220
_cell_length_c 6.239753
_cell_angle_alpha 82.861483
_cell_angle_beta 123.408015
_cell_angle_gamma 136.041333
_cell_volume 432.021288
_symmetry_space_group_name_H-M "P -1"
_symmetry_group_IT_number 2
_symmetry_cell_setting 'triclinic'
loop_
_space_group_symop_operation_xyz
x,y,z
-x,-y,-z
loop_
_atom_site_type_symbol
_atom_site_label
_atom_site_fract_x
_atom_site_fract_y
_atom_site_fract_z
Si Si1 0.409236 0.272949 0.091238
Si Si2 0.881500 0.972200 0.399829
Si Si3 0.081160 0.776790 0.196187
Si Si4 0.347687 0.954529 0.690907
Si Si5 0.420419 0.713580 0.334677
Si Si6 0.173070 0.384271 0.311051
O O1 0.257276 0.159578 0.932272
O O2 0.348649 0.009175 0.928836
O O3 0.500000 0.500000 0.000000
O O4 0.512396 0.351750 0.425092
O O5 0.802153 0.755455 0.508366
O O6 0.952901 0.235067 0.600714
O O7 0.000000 0.000000 0.500000
O O8 0.254101 0.970525 0.427832
O O9 0.000000 0.500000 0.000000
O O10 0.000879 0.815963 0.944129
O O11 0.259817 0.656501 0.535887
O O12 0.517662 0.201483 0.823954
O O13 0.248778 0.485062 0.177035
O O14 0.500000 0.000000 0.500000
#
# Coordination Sequence:
#
# PCOD9109026 Si02
#       6
#     2   2   2   2   2   2
#     4  11  23  44  63  95 136 168 222 277 321 396
#     4  11  24  41  63  98 132 172 215 276 334 383
#     4   9  20  42  64  89 126 170 220 271 319 392
#     4   9  22  41  66  90 129 173 220 270 329 388
#     4  10  22  41  66  95 126 172 220 263 337 386
#     4  10  20  41  61  94 128 168 221 266 326 397
#
# _framework density 27.776412000000001
#
# number of rings (size 3 to 8) (size 9 to 14) (size 15 to 20)
#    0.000    2.000    1.667    0.500    2.333    4.667 
#    9.000    2.500    0.000    0.000    0.000    0.000 
#    0.000    0.000    0.000    0.000    0.000    0.000 
#
# Total GULP energy -67104.464735 kJ/mol
# GULP energy per Si atom -5592.038728 kJ/mol
# Density = 2.771319 g / cm^3
# Si number density = 27.776412 Si / 1000 Ang^3
#
#
#
# Elastic Constant Matrix: (Units=GPa)
#
#
# Indices 1 2 3 4 5 6 
#
# 1 162.2920 27.9236 22.5906 22.9008 10.4011 -4.5103
# 2 27.9236 67.2167 17.5203 6.2731 7.6127 -5.4285
# 3 22.5906 17.5203 118.9764 6.9907 33.4647 -17.4672
# 4 22.9008 6.2731 6.9907 33.4281 -16.9786 6.0103
# 5 10.4011 7.6127 33.4647 -16.9786 54.2699 12.2399
# 6 -4.5103 -5.4285 -17.4672 6.0103 12.2399 46.4210
#
#
#
# Elastic Compliance Matrix: (Units=1/GPa)
#
#
# Indices 1 2 3 4 5 6 
#
# 1 0.008078 -0.001894 0.001574 -0.009293 -0.006052 0.003955
# 2 -0.001894 0.016862 -0.000260 -0.004426 -0.003974 0.003311
# 3 0.001574 -0.000260 0.016078 -0.015920 -0.018093 0.013004
# 4 -0.009293 -0.004426 -0.015920 0.064504 0.038227 -0.025842
# 5 -0.006052 -0.003974 -0.018093 0.038227 0.049068 -0.025748
# 6 0.003955 0.003311 0.013004 -0.025842 -0.025748 0.037342
#
#
# Mechanical properties :
#
#
# Convention : Reuss Voigt Hill
#
# Bulk Modulus (GPa) = 25.08825 53.83934 39.46380
# Shear Modulus (GPa) = 24.22765 45.52049 34.87407
#
# Velocity S-wave (km/s) = 2.95657 4.05262 3.54719
# Velocity P-wave (km/s) = 4.55049 6.42834 5.56913
#
# Compressibility (1/GPa) = 0.03985929
#
# Stress axis : x y z
#
# Youngs Moduli (GPa) = 123.80033 59.30407 62.19633
#
# Poissons Ratio (x) = 0.11231 -0.09790
# Poissons Ratio (y) = 0.23446 0.01614
# Poissons Ratio (z) = -0.19487 0.01539
#
# Static dielectric constant tensor:
#      x y z
#    x 2.262000 -0.026960 -0.136650 
#    y -0.026960 2.182740 -0.016560 
#    z -0.136650 -0.016560 2.224960 
# 
# From -- ./inp_files/64995.got.cif
#   From: 2010.05.17/outbox.cif.g08.bks.cpg/sg2_33_cif.got.tgz:64995.got - 2010.06.03 11:33:40.
