data_PCOD9109085
_publ_section_title
;
Structure prediction by ZEFSAII (Michael W. Deem and Ramdas Pophale) SiO2 
 PCOD9109085
Probable space group: P -1
;
_chemical_formula_sum "Si O2"
_cell_formula_units_Z 16
_cell_length_a 27.437303
_cell_length_b 15.608614
_cell_length_c 9.840776
_cell_angle_alpha 141.370223
_cell_angle_beta 131.619278
_cell_angle_gamma 20.055984
_cell_volume 853.190317
_symmetry_space_group_name_H-M "P -1"
_symmetry_group_IT_number 2
_symmetry_cell_setting 'triclinic'
loop_
_space_group_symop_operation_xyz
x,y,z
-x,-y,-z
loop_
_atom_site_type_symbol
_atom_site_label
_atom_site_fract_x
_atom_site_fract_y
_atom_site_fract_z
Si Si1 0.411119 0.052910 0.054616
Si Si2 0.605892 0.942397 0.298158
Si Si3 0.073053 0.419583 0.898688
Si Si4 0.936583 0.251224 0.771263
Si Si5 0.113546 0.189728 0.407745
Si Si6 0.578522 0.254070 0.230662
Si Si7 0.952756 0.213370 0.076993
Si Si8 0.441977 0.653656 0.230040
O O1 0.416286 0.011968 0.850830
O O2 0.483272 0.783111 0.925419
O O3 0.234676 0.417517 0.189885
O O4 0.500380 0.014811 0.226658
O O5 0.776028 0.590463 0.226730
O O6 0.562171 0.174299 0.557394
O O7 0.078349 0.304448 0.639037
O O8 0.249704 0.098367 0.853969
O O9 0.009111 0.693120 0.082780
O O10 0.000000 0.500000 0.000000
O O11 0.960392 0.174383 0.880072
O O12 0.000000 0.000000 0.500000
O O13 0.000000 0.500000 0.500000
O O14 0.061462 0.133529 0.217259
O O15 0.280892 0.905273 0.305933
O O16 0.500000 0.500000 0.500000
O O17 0.561792 0.362358 0.193541
O O18 0.000000 0.000000 0.000000
O O19 0.500000 0.500000 0.000000
#
# Coordination Sequence:
#
# PCOD9109085 Si02
#       8
#     2   2   2   2   2   2   2   2
#     4   9  20  39  66  88 122 167 209 269 314 368
#     4  10  20  41  62  93 124 163 217 260 317 385
#     4  11  25  41  70 101 126 173 222 272 327 390
#     4  10  22  43  61  93 134 165 215 273 319 382
#     4  12  23  46  67  89 139 174 213 276 330 386
#     4  11  21  42  66  94 126 164 223 265 315 384
#     4  11  25  40  66  93 130 179 216 257 333 395
#     4  12  26  42  67  99 130 172 215 270 332 387
#
# _framework density 18.753143000000001
#
# number of rings (size 3 to 8) (size 9 to 14) (size 15 to 20)
#    0.000    1.250    5.000    0.750    5.250    2.000 
#    2.250    0.625    0.000    0.000    0.000    0.000 
#    0.000    0.000    0.000    0.000    0.000    0.000 
#
# Total GULP energy -89105.217218 kJ/mol
# GULP energy per Si atom -5569.076076 kJ/mol
# Density = 1.871046 g / cm^3
# Si number density = 18.753143 Si / 1000 Ang^3
#
#
#
# Elastic Constant Matrix: (Units=GPa)
#
#
# Indices 1 2 3 4 5 6 
#
# 1 116.3984 29.8068 89.9026 -2.7793 22.2078 15.4141
# 2 29.8068 53.0947 56.9585 -10.3261 9.9950 14.6080
# 3 89.9026 56.9585 170.3313 -2.6361 24.1088 2.8977
# 4 -2.7793 -10.3261 -2.6361 21.0155 2.9751 7.4193
# 5 22.2078 9.9950 24.1088 2.9751 40.2032 -1.7172
# 6 15.4141 14.6080 2.8977 7.4193 -1.7172 44.4026
#
#
#
# Elastic Compliance Matrix: (Units=1/GPa)
#
#
# Indices 1 2 3 4 5 6 
#
# 1 0.017358 0.006395 -0.010157 0.008230 -0.006084 -0.009077
# 2 0.006395 0.047349 -0.017187 0.030946 -0.008234 -0.022165
# 3 -0.010157 -0.017187 0.016447 -0.011466 0.001300 0.010073
# 4 0.008230 0.030946 -0.011466 0.072915 -0.011825 -0.024930
# 5 -0.006084 -0.008234 0.001300 -0.011825 0.030714 0.007900
# 6 -0.009077 -0.022165 0.010073 -0.024930 0.007900 0.036778
#
#
# Mechanical properties :
#
#
# Convention : Reuss Voigt Hill
#
# Bulk Modulus (GPa) = 25.47469 77.01781 51.24625
# Shear Modulus (GPa) = 18.08020 32.00136 25.04078
#
# Velocity S-wave (km/s) = 3.10839 4.13541 3.65812
# Velocity P-wave (km/s) = 5.14748 7.99753 6.72522
#
# Compressibility (1/GPa) = 0.03925464
#
# Stress axis : x y z
#
# Youngs Moduli (GPa) = 57.60986 21.11974 60.80220
#
# Poissons Ratio (x) = -0.13507 0.61760
# Poissons Ratio (y) = -0.36843 1.04504
# Poissons Ratio (z) = 0.58517 0.36299
#
# Static dielectric constant tensor:
#      x y z
#    x 1.671190 -0.039120 -0.022200 
#    y -0.039120 1.649300 0.009450 
#    z -0.022200 0.009450 1.655350 
# 
# From -- ./inp_files/357461.got.cif
#   From: 2010.05.17/outbox.cif.g08.bks.cpg/sg2_179_cif.got.tgz:357461.got - 2010.06.03 11:33:40.
