data_PCOD9109941
_publ_section_title
;
Structure prediction by ZEFSAII (Michael W. Deem and Ramdas Pophale) SiO2 
 PCOD9109941
Probable space group: P -1
;
_chemical_formula_sum "Si O2"
_cell_formula_units_Z 16
_cell_length_a 14.545637
_cell_length_b 8.871135
_cell_length_c 5.541789
_cell_angle_alpha 102.301247
_cell_angle_beta 107.031475
_cell_angle_gamma 98.350212
_cell_volume 651.325178
_symmetry_space_group_name_H-M "P -1"
_symmetry_group_IT_number 2
_symmetry_cell_setting 'triclinic'
loop_
_space_group_symop_operation_xyz
x,y,z
-x,-y,-z
loop_
_atom_site_type_symbol
_atom_site_label
_atom_site_fract_x
_atom_site_fract_y
_atom_site_fract_z
Si Si1 0.130578 0.434288 0.110544
Si Si2 0.344623 0.052502 0.985513
Si Si3 0.092488 0.622814 0.739995
Si Si4 0.472142 0.653374 0.649789
Si Si5 0.390529 0.907769 0.450395
Si Si6 0.721597 0.492968 0.367677
Si Si7 0.812939 0.794977 0.281846
Si Si8 0.980656 0.858055 0.754781
O O1 0.239375 0.488513 0.320842
O O2 0.075102 0.307546 0.218075
O O3 0.095134 0.582175 0.015996
O O4 0.131010 0.322194 0.847397
O O5 0.359633 0.969764 0.709684
O O6 0.247018 0.118726 0.908347
O O7 0.333697 0.942826 0.179057
O O8 0.436159 0.206233 0.149098
O O9 0.196934 0.594519 0.712482
O O10 0.000000 0.500000 0.500000
O O11 0.076604 0.796835 0.726445
O O12 0.500000 0.500000 0.500000
O O13 0.407803 0.733867 0.443699
O O14 0.391282 0.594191 0.775761
O O15 0.500000 0.000000 0.500000
O O16 0.735804 0.672717 0.344914
O O17 0.901686 0.902716 0.528686
O O18 0.000000 0.000000 0.000000
#
# Coordination Sequence:
#
# PCOD9109941 Si02
#       8
#     2   2   2   2   2   2   2   2
#     4  10  20  41  68  93 140 177 237 278 369 427
#     4  11  25  49  75  99 155 199 237 295 376 440
#     4  11  20  44  69  95 135 190 225 294 360 438
#     4  11  24  46  76 109 144 186 246 310 350 438
#     4  10  24  49  71 102 143 202 240 289 380 439
#     4  10  23  41  69 109 134 178 250 290 364 426
#     4  10  23  42  70 102 137 191 238 292 364 441
#     4  11  24  42  68 102 137 179 241 301 363 422
#
# _framework density 24.565301000000002
#
# number of rings (size 3 to 8) (size 9 to 14) (size 15 to 20)
#    0.000    1.500    3.750    2.625    7.000    1.000 
#   20.250    0.000    0.000    0.000    0.000    0.000 
#    0.000    0.000    0.000    0.000    0.000    0.000 
#
# Total GULP energy -89256.132719 kJ/mol
# GULP energy per Si atom -5578.508295 kJ/mol
# Density = 2.450939 g / cm^3
# Si number density = 24.565301 Si / 1000 Ang^3
#
#
#
# Elastic Constant Matrix: (Units=GPa)
#
#
# Indices 1 2 3 4 5 6 
#
# 1 75.0844 44.5810 19.4189 13.5298 7.4663 -13.9175
# 2 44.5810 127.0389 50.6498 -6.0194 14.1670 -25.7500
# 3 19.4189 50.6498 111.9795 -12.2445 9.0869 -15.3831
# 4 13.5298 -6.0194 -12.2445 43.9071 -12.0042 7.0462
# 5 7.4663 14.1670 9.0869 -12.0042 36.4346 -4.7074
# 6 -13.9175 -25.7500 -15.3831 7.0462 -4.7074 46.1897
#
#
#
# Elastic Compliance Matrix: (Units=1/GPa)
#
#
# Indices 1 2 3 4 5 6 
#
# 1 0.019575 -0.005796 -0.000953 -0.008701 -0.003964 0.003273
# 2 -0.005796 0.012406 -0.003831 0.001371 -0.001776 0.003504
# 3 -0.000953 -0.003831 0.011259 0.002735 -0.000106 0.000899
# 4 -0.008701 0.001371 0.002735 0.029810 0.009809 -0.004495
# 5 -0.003964 -0.001776 -0.000106 0.009809 0.032151 -0.000440
# 6 0.003273 0.003504 0.000899 -0.004495 -0.000440 0.025530
#
#
# Mechanical properties :
#
#
# Convention : Reuss Voigt Hill
#
# Bulk Modulus (GPa) = 45.28943 60.37800 52.83372
# Shear Modulus (GPa) = 31.39667 38.60314 34.99991
#
# Velocity S-wave (km/s) = 3.57892 3.96845 3.77871
# Velocity P-wave (km/s) = 5.96276 6.75500 6.37121
#
# Compressibility (1/GPa) = 0.02208021
#
# Stress axis : x y z
#
# Youngs Moduli (GPa) = 51.08530 80.60409 88.81409
#
# Poissons Ratio (x) = 0.46720 0.08465
# Poissons Ratio (y) = 0.29610 0.34025
# Poissons Ratio (z) = 0.04869 0.30880
#
# Static dielectric constant tensor:
#      x y z
#    x 2.136480 0.134020 -0.020790 
#    y 0.134020 2.066250 -0.008260 
#    z -0.020790 -0.008260 2.058210 
# 
# From -- ./inp_files/90832.got.cif
#   From: 2010.05.17/outbox.cif.g08.bks.cpg/sg2_46_cif.got.tgz:90832.got - 2010.06.03 11:33:40.
