data_PCOD9109263
_publ_section_title
;
Structure prediction by ZEFSAII (Michael W. Deem and Ramdas Pophale) SiO2 
 PCOD9109263
Probable space group: P -1
;
_chemical_formula_sum "Si O2"
_cell_formula_units_Z 12
_cell_length_a 7.335507
_cell_length_b 7.629709
_cell_length_c 12.004668
_cell_angle_alpha 72.614035
_cell_angle_beta 120.709209
_cell_angle_gamma 96.189986
_cell_volume 550.445435
_symmetry_space_group_name_H-M "P -1"
_symmetry_group_IT_number 2
_symmetry_cell_setting 'triclinic'
loop_
_space_group_symop_operation_xyz
x,y,z
-x,-y,-z
loop_
_atom_site_type_symbol
_atom_site_label
_atom_site_fract_x
_atom_site_fract_y
_atom_site_fract_z
Si Si1 0.251957 0.018685 0.446015
Si Si2 0.109651 0.242321 0.565994
Si Si3 0.447171 0.702239 0.891186
Si Si4 0.088252 0.241766 0.938223
Si Si5 0.949965 0.130190 0.137580
Si Si6 0.845200 0.506045 0.287660
O O1 0.228151 0.098259 0.548837
O O2 0.127942 0.139692 0.287670
O O3 0.500000 0.000000 0.500000
O O4 0.104093 0.843143 0.437265
O O5 0.234225 0.321673 0.693789
O O6 0.041888 0.409352 0.431197
O O7 0.275227 0.826322 0.882342
O O8 0.329033 0.644009 0.753569
O O9 0.500000 0.500000 0.000000
O O10 0.668176 0.795696 0.938665
O O11 0.083367 0.417328 0.822972
O O12 0.025964 0.070045 0.875846
O O13 0.962158 0.263492 0.009582
#
# Coordination Sequence:
#
# PCOD9109263 Si02
#       6
#     2   2   2   2   2   2
#     4  11  24  42  67  92 119 171 210 250 312 363
#     4  10  22  43  65  86 131 159 211 260 299 368
#     4  10  22  40  64  93 122 166 203 248 323 364
#     4  10  23  40  65  93 125 162 210 253 314 364
#     4  11  22  43  63  92 128 159 210 265 296 370
#     4  10  20  41  64  91 123 167 196 261 313 358
#
# _framework density 21.800528
#
# number of rings (size 3 to 8) (size 9 to 14) (size 15 to 20)
#    0.000    1.667    3.333    0.500    2.333    2.667 
#   12.000    5.000    0.000    0.000    0.000    0.000 
#    0.000    0.000    0.000    0.000    0.000    0.000 
#
# Total GULP energy -66930.089404 kJ/mol
# GULP energy per Si atom -5577.507450 kJ/mol
# Density = 2.175091 g / cm^3
# Si number density = 21.800528 Si / 1000 Ang^3
#
#
#
# Elastic Constant Matrix: (Units=GPa)
#
#
# Indices 1 2 3 4 5 6 
#
# 1 95.6465 19.6873 16.9731 18.7755 -1.6546 6.5118
# 2 19.6873 57.1256 8.1759 16.9110 -14.9624 -2.5845
# 3 16.9731 8.1759 64.3972 3.2535 -25.4146 8.7007
# 4 18.7755 16.9110 3.2535 39.8289 -4.1649 -3.0018
# 5 -1.6546 -14.9624 -25.4146 -4.1649 28.5805 -1.9553
# 6 6.5118 -2.5845 8.7007 -3.0018 -1.9553 15.8171
#
#
#
# Elastic Compliance Matrix: (Units=1/GPa)
#
#
# Indices 1 2 3 4 5 6 
#
# 1 0.013492 -0.004489 -0.004687 -0.005209 -0.006875 -0.005548
# 2 -0.004489 0.024748 0.003900 -0.006762 0.015478 0.004377
# 3 -0.004687 0.003900 0.027716 0.000277 0.025811 -0.009436
# 4 -0.005209 -0.006762 0.000277 0.031083 0.001411 0.006960
# 5 -0.006875 0.015478 0.025811 0.001411 0.065822 -0.000434
# 6 -0.005548 0.004377 -0.009436 0.006960 -0.000434 0.072680
#
#
# Mechanical properties :
#
#
# Convention : Reuss Voigt Hill
#
# Bulk Modulus (GPa) = 18.04897 34.09354 26.07125
# Shear Modulus (GPa) = 18.89926 28.33416 23.61671
#
# Velocity S-wave (km/s) = 2.94754 3.60905 3.29494
# Velocity P-wave (km/s) = 4.45882 5.74802 5.14397
#
# Compressibility (1/GPa) = 0.05540483
#
# Stress axis : x y z
#
# Youngs Moduli (GPa) = 74.11768 40.40747 36.08007
#
# Poissons Ratio (x) = 0.18138 0.16909
# Poissons Ratio (y) = 0.33271 -0.14071
# Poissons Ratio (z) = 0.34736 -0.15759
#
# Static dielectric constant tensor:
#      x y z
#    x 1.768900 0.001760 -0.019450 
#    y 0.001760 1.901980 0.000640 
#    z -0.019450 0.000640 1.880060 
# 
# From -- ./inp_files/19758.got.cif
#   From: 2010.05.17/outbox.cif.g08.bks.cpg/sg2_10_cif.got.tgz:19758.got - 2010.06.03 11:33:40.
