data_PCOD9109496
_publ_section_title
;
Structure prediction by ZEFSAII (Michael W. Deem and Ramdas Pophale) SiO2 
 PCOD9109496
Probable space group: P -1
;
_chemical_formula_sum "Si O2"
_cell_formula_units_Z 16
_cell_length_a 6.574030
_cell_length_b 10.143265
_cell_length_c 11.915494
_cell_angle_alpha 112.819499
_cell_angle_beta 82.418559
_cell_angle_gamma 114.570915
_cell_volume 665.636789
_symmetry_space_group_name_H-M "P -1"
_symmetry_group_IT_number 2
_symmetry_cell_setting 'triclinic'
loop_
_space_group_symop_operation_xyz
x,y,z
-x,-y,-z
loop_
_atom_site_type_symbol
_atom_site_label
_atom_site_fract_x
_atom_site_fract_y
_atom_site_fract_z
Si Si1 0.914639 0.974907 0.303554
Si Si2 0.959026 0.799067 0.439332
Si Si3 0.566508 0.344924 0.113656
Si Si4 0.977545 0.477895 0.759002
Si Si5 0.475770 0.265351 0.447918
Si Si6 0.703072 0.556040 0.658503
Si Si7 0.449942 0.760052 0.153017
Si Si8 0.636341 0.946080 0.808766
O O1 0.677852 0.858476 0.235606
O O2 0.032528 0.887288 0.345633
O O3 0.906811 0.111210 0.431526
O O4 0.107686 0.040871 0.216973
O O5 0.939239 0.626836 0.362495
O O6 0.718163 0.808878 0.472249
O O7 0.467223 0.444633 0.230774
O O8 0.476013 0.173972 0.122189
O O9 0.832875 0.432193 0.136244
O O10 0.498615 0.329890 0.984621
O O11 0.932376 0.601601 0.723367
O O12 0.748810 0.358403 0.794319
O O13 0.668596 0.394752 0.545406
O O14 0.355091 0.348555 0.402561
O O15 0.502128 0.142464 0.322020
O O16 0.371237 0.885576 0.139203
#
# Coordination Sequence:
#
# PCOD9109496 Si02
#       8
#     2   2   2   2   2   2   2   2
#     4  10  23  42  66  98 132 168 215 271 331 380
#     4  10  20  41  65  95 135 163 212 279 319 385
#     4  11  26  46  63  95 138 171 220 269 316 390
#     4  12  25  41  68  98 131 174 218 264 330 386
#     4   9  19  40  64  94 134 162 214 265 326 382
#     4  10  22  40  63  95 131 177 204 264 329 384
#     4  12  26  42  70  96 127 180 221 263 322 389
#     4  10  23  44  68  96 128 170 218 276 319 381
#
# _framework density 24.037134999999999
#
# number of rings (size 3 to 8) (size 9 to 14) (size 15 to 20)
#    0.000    1.500    2.500    1.500    1.750    6.000 
#    0.000    0.000    0.000    0.000    0.000    0.000 
#    0.000    0.000    0.000    0.000    0.000    0.000 
#
# Total GULP energy -89291.863234 kJ/mol
# GULP energy per Si atom -5580.741452 kJ/mol
# Density = 2.398243 g / cm^3
# Si number density = 24.037135 Si / 1000 Ang^3
#
#
#
# Elastic Constant Matrix: (Units=GPa)
#
#
# Indices 1 2 3 4 5 6 
#
# 1 45.0473 29.9435 24.4004 -3.7388 15.4246 13.6176
# 2 29.9435 65.9508 24.3138 4.1842 -3.0313 8.6606
# 3 24.4004 24.3138 126.2395 -4.4034 6.0783 18.2718
# 4 -3.7388 4.1842 -4.4034 15.2409 10.6879 2.0642
# 5 15.4246 -3.0313 6.0783 10.6879 34.4931 5.8724
# 6 13.6176 8.6606 18.2718 2.0642 5.8724 42.8411
#
#
#
# Elastic Compliance Matrix: (Units=1/GPa)
#
#
# Indices 1 2 3 4 5 6 
#
# 1 0.084187 -0.044533 0.000016 0.079513 -0.064018 -0.012820
# 2 -0.044533 0.041230 -0.003675 -0.051535 0.039392 0.004471
# 3 0.000016 -0.003675 0.009483 0.006652 -0.003527 -0.003144
# 4 0.079513 -0.051535 0.006652 0.166518 -0.090590 -0.013299
# 5 -0.064018 0.039392 -0.003527 -0.090590 0.088735 0.006092
# 6 -0.012820 0.004471 -0.003144 -0.013299 0.006092 0.027660
#
#
# Mechanical properties :
#
#
# Convention : Reuss Voigt Hill
#
# Bulk Modulus (GPa) = 25.96250 43.83922 34.90086
# Shear Modulus (GPa) = 9.48706 29.08700 19.28703
#
# Velocity S-wave (km/s) = 1.98882 3.48240 2.83571
# Velocity P-wave (km/s) = 4.01227 5.86918 5.02720
#
# Compressibility (1/GPa) = 0.03851710
#
# Stress axis : x y z
#
# Youngs Moduli (GPa) = 11.87837 24.25432 105.45233
#
# Poissons Ratio (x) = 1.08011 -0.00172
# Poissons Ratio (y) = 0.52898 0.38751
# Poissons Ratio (z) = -0.00019 0.08913
#
# Static dielectric constant tensor:
#      x y z
#    x 1.918440 -0.003160 -0.036630 
#    y -0.003160 2.021130 -0.011320 
#    z -0.036630 -0.011320 1.884830 
# 
# From -- ./inp_files/365041.got.cif
#   From: 2010.05.17/outbox.cif.g08.bks.cpg/sg2_183_cif.got.tgz:365041.got - 2010.06.03 11:33:40.
