data_PCOD9109999
_publ_section_title
;
Structure prediction by ZEFSAII (Michael W. Deem and Ramdas Pophale) SiO2 
 PCOD9109999
Probable space group: P -1
;
_chemical_formula_sum "Si O2"
_cell_formula_units_Z 16
_cell_length_a 10.663030
_cell_length_b 9.490898
_cell_length_c 15.293109
_cell_angle_alpha 69.793356
_cell_angle_beta 148.714744
_cell_angle_gamma 97.809567
_cell_volume 712.813469
_symmetry_space_group_name_H-M "P -1"
_symmetry_group_IT_number 2
_symmetry_cell_setting 'triclinic'
loop_
_space_group_symop_operation_xyz
x,y,z
-x,-y,-z
loop_
_atom_site_type_symbol
_atom_site_label
_atom_site_fract_x
_atom_site_fract_y
_atom_site_fract_z
Si Si1 0.974674 0.679571 0.472426
Si Si2 0.780813 0.658249 0.539563
Si Si3 0.247811 0.276704 0.186034
Si Si4 0.269300 0.670262 0.481714
Si Si5 0.855218 0.430800 0.057789
Si Si6 0.462736 0.785814 0.046209
Si Si7 0.763433 0.898711 0.067332
Si Si8 0.696344 0.027346 0.811362
O O1 0.965385 0.697701 0.567182
O O2 0.691091 0.776447 0.250994
O O3 0.000000 0.500000 0.500000
O O4 0.171132 0.715476 0.514133
O O5 0.716581 0.507796 0.494417
O O6 0.515181 0.800968 0.362746
O O7 0.943626 0.607835 0.735287
O O8 0.455769 0.312994 0.363522
O O9 0.983114 0.330010 0.069529
O O10 0.337657 0.093826 0.254839
O O11 0.218440 0.388981 0.058901
O O12 0.054490 0.784255 0.267091
O O13 0.627930 0.365740 0.964807
O O14 0.588956 0.803772 0.025792
O O15 0.250804 0.951085 0.910816
O O16 0.658919 0.962588 0.897901
O O17 0.000000 0.000000 0.000000
#
# Coordination Sequence:
#
# PCOD9109999 Si02
#       8
#     2   2   2   2   2   2   2   2
#     4   9  18  38  66  95 127 174 215 265 328 387
#     4  11  24  42  68  98 133 179 220 271 338 397
#     4  11  27  44  66  99 134 176 226 277 330 394
#     4  10  23  43  69  97 134 174 224 271 329 402
#     4  11  25  43  68  95 136 176 228 272 335 391
#     4  10  20  41  68  98 133 177 218 277 328 394
#     4  10  22  41  70  98 134 175 224 269 337 388
#     4  12  27  44  67 100 140 174 222 276 334 395
#
# _framework density 22.446263999999999
#
# number of rings (size 3 to 8) (size 9 to 14) (size 15 to 20)
#    0.000    1.500    1.250    3.000    7.000    2.000 
#    0.000    8.125    0.000    0.000    0.000    0.000 
#    0.000    0.000    0.000    0.000    0.000    0.000 
#
# Total GULP energy -89407.290345 kJ/mol
# GULP energy per Si atom -5587.955647 kJ/mol
# Density = 2.239518 g / cm^3
# Si number density = 22.446264 Si / 1000 Ang^3
#
#
#
# Elastic Constant Matrix: (Units=GPa)
#
#
# Indices 1 2 3 4 5 6 
#
# 1 67.4547 12.2933 19.0159 9.0558 -3.7640 5.3303
# 2 12.2933 60.1234 31.6360 -18.9637 -5.7768 -8.8833
# 3 19.0159 31.6360 79.0453 -16.4649 -3.6406 -6.8282
# 4 9.0558 -18.9637 -16.4649 35.1674 -5.7475 10.2859
# 5 -3.7640 -5.7768 -3.6406 -5.7475 18.9563 0.3908
# 6 5.3303 -8.8833 -6.8282 10.2859 0.3908 28.1088
#
#
#
# Elastic Compliance Matrix: (Units=1/GPa)
#
#
# Indices 1 2 3 4 5 6 
#
# 1 0.018314 -0.004573 -0.004703 -0.008759 -0.001258 -0.002838
# 2 -0.004573 0.026273 -0.005930 0.013414 0.009971 0.002683
# 3 -0.004703 -0.005930 0.017699 0.006456 0.002597 0.000919
# 4 -0.008759 0.013414 0.006456 0.046780 0.017976 -0.009900
# 5 -0.001258 0.009971 0.002597 0.017976 0.061561 -0.003413
# 6 -0.002838 0.002683 0.000919 -0.009900 -0.003413 0.040855
#
#
# Mechanical properties :
#
#
# Convention : Reuss Voigt Hill
#
# Bulk Modulus (GPa) = 31.37324 36.94598 34.15961
# Shear Modulus (GPa) = 19.80042 26.02503 22.91272
#
# Velocity S-wave (km/s) = 2.97328 3.40874 3.19843
# Velocity P-wave (km/s) = 5.07884 5.65581 5.37507
#
# Compressibility (1/GPa) = 0.03187430
#
# Stress axis : x y z
#
# Youngs Moduli (GPa) = 54.60297 38.06183 56.49887
#
# Poissons Ratio (x) = 0.17405 0.26573
# Poissons Ratio (y) = 0.24969 0.33504
# Poissons Ratio (z) = 0.25681 0.22571
#
# Static dielectric constant tensor:
#      x y z
#    x 1.908650 -0.002940 -0.007480 
#    y -0.002940 1.859120 -0.064640 
#    z -0.007480 -0.064640 1.846900 
# 
# From -- ./inp_files/515566.got.cif
#   From: 2010.05.17/outbox.cif.g08.bks.cpg/sg2_258_cif.got.tgz:515566.got - 2010.06.03 11:33:40.
