data_PCOD9109435
_publ_section_title
;
Structure prediction by ZEFSAII (Michael W. Deem and Ramdas Pophale) SiO2 
 PCOD9109435
Probable space group: P -1
;
_chemical_formula_sum "Si O2"
_cell_formula_units_Z 16
_cell_length_a 8.677981
_cell_length_b 15.237846
_cell_length_c 7.330980
_cell_angle_alpha 54.129253
_cell_angle_beta 123.737804
_cell_angle_gamma 97.787795
_cell_volume 626.766599
_symmetry_space_group_name_H-M "P -1"
_symmetry_group_IT_number 2
_symmetry_cell_setting 'triclinic'
loop_
_space_group_symop_operation_xyz
x,y,z
-x,-y,-z
loop_
_atom_site_type_symbol
_atom_site_label
_atom_site_fract_x
_atom_site_fract_y
_atom_site_fract_z
Si Si1 0.152420 0.357174 0.420188
Si Si2 0.190064 0.978806 0.278913
Si Si3 0.810584 0.261567 0.355632
Si Si4 0.112194 0.408163 0.923803
Si Si5 0.398293 0.058694 0.605069
Si Si6 0.777385 0.318519 0.697142
Si Si7 0.509911 0.182219 0.847504
Si Si8 0.437391 0.443378 0.849684
O O1 0.351132 0.281135 0.725826
O O2 0.007576 0.281475 0.398292
O O3 0.030257 0.464112 0.325113
O O4 0.192646 0.398072 0.195537
O O5 0.192811 0.864770 0.524480
O O6 0.223715 0.071269 0.331417
O O7 0.391961 0.953117 0.333278
O O8 0.000000 0.000000 0.000000
O O9 0.795642 0.284619 0.536283
O O10 0.631946 0.350690 0.035315
O O11 0.275260 0.394234 0.896264
O O12 0.980440 0.326304 0.898011
O O13 0.387555 0.155660 0.626254
O O14 0.420707 0.938233 0.863379
O O15 0.680851 0.231318 0.834117
O O16 0.644371 0.449031 0.464919
O O17 0.500000 0.500000 0.000000
#
# Coordination Sequence:
#
# PCOD9109435 Si02
#       8
#     2   2   2   2   2   2   2   2
#     4  11  24  40  63  97 140 177 225 279 340 412
#     4  11  24  47  74 106 132 176 237 300 348 415
#     4  11  23  42  69  98 133 176 228 279 345 413
#     4  11  24  39  62 100 137 180 230 277 335 410
#     4  10  25  48  72 100 140 178 237 294 356 411
#     4  11  23  41  66  95 134 184 231 271 342 418
#     4  11  24  47  68 100 140 187 224 290 354 409
#     4  10  20  41  65  91 134 180 217 273 334 407
#
# _framework density 25.527844999999999
#
# number of rings (size 3 to 8) (size 9 to 14) (size 15 to 20)
#    0.000    1.250    3.750    2.625    3.500    2.500 
#    2.250    1.875    0.000    0.000    0.000    0.000 
#    0.000    0.000    0.000    0.000    0.000    0.000 
#
# Total GULP energy -89590.049118 kJ/mol
# GULP energy per Si atom -5599.378070 kJ/mol
# Density = 2.546974 g / cm^3
# Si number density = 25.527845 Si / 1000 Ang^3
#
#
#
# Elastic Constant Matrix: (Units=GPa)
#
#
# Indices 1 2 3 4 5 6 
#
# 1 105.5391 46.3155 14.0331 1.8721 1.9020 30.5353
# 2 46.3155 109.4968 29.1745 27.3895 14.1589 38.6186
# 3 14.0331 29.1745 54.8940 13.9377 14.2316 16.0393
# 4 1.8721 27.3895 13.9377 57.1752 4.6680 -4.0075
# 5 1.9020 14.1589 14.2316 4.6680 30.0265 0.8580
# 6 30.5353 38.6186 16.0393 -4.0075 0.8580 55.4895
#
#
#
# Elastic Compliance Matrix: (Units=1/GPa)
#
#
# Indices 1 2 3 4 5 6 
#
# 1 0.012464 -0.004441 -0.000545 0.001488 0.001432 -0.003525
# 2 -0.004441 0.017761 -0.001890 -0.008133 -0.005652 -0.009871
# 3 -0.000545 -0.001890 0.024813 -0.004717 -0.009937 -0.005744
# 4 0.001488 -0.008133 -0.004717 0.022856 0.002200 0.007821
# 5 0.001432 -0.005652 -0.009937 0.002200 0.040088 0.005557
# 6 -0.003525 -0.009871 -0.005744 0.007821 0.005557 0.028970
#
#
# Mechanical properties :
#
#
# Convention : Reuss Voigt Hill
#
# Bulk Modulus (GPa) = 24.22133 49.88623 37.05378
# Shear Modulus (GPa) = 28.65871 40.56537 34.61204
#
# Velocity S-wave (km/s) = 3.35422 3.99063 3.68619
# Velocity P-wave (km/s) = 4.95075 6.38888 5.71523
#
# Compressibility (1/GPa) = 0.04128592
#
# Stress axis : x y z
#
# Youngs Moduli (GPa) = 80.22869 56.30198 40.30155
#
# Poissons Ratio (x) = 0.25005 0.02198
# Poissons Ratio (y) = 0.35631 0.07617
# Poissons Ratio (z) = 0.04375 0.10641
#
# Static dielectric constant tensor:
#      x y z
#    x 2.005250 -0.059560 0.039520 
#    y -0.059560 2.094540 0.091100 
#    z 0.039520 0.091100 2.167990 
# 
# From -- ./inp_files/216836.got.cif
#   From: 2010.05.17/outbox.cif.g08.bks.cpg/sg2_109_cif.got.tgz:216836.got - 2010.06.03 11:33:40.
