data_PCOD9109530
_publ_section_title
;
Structure prediction by ZEFSAII (Michael W. Deem and Ramdas Pophale) SiO2 
 PCOD9109530
Probable space group: P -1
;
_chemical_formula_sum "Si O2"
_cell_formula_units_Z 13
_cell_length_a 7.405651
_cell_length_b 11.217591
_cell_length_c 5.913607
_cell_angle_alpha 106.702858
_cell_angle_beta 105.490911
_cell_angle_gamma 89.488120
_cell_volume 452.217778
_symmetry_space_group_name_H-M "P -1"
_symmetry_group_IT_number 2
_symmetry_cell_setting 'triclinic'
loop_
_space_group_symop_operation_xyz
x,y,z
-x,-y,-z
loop_
_atom_site_type_symbol
_atom_site_label
_atom_site_fract_x
_atom_site_fract_y
_atom_site_fract_z
Si Si1 0.447552 0.785459 0.145880
Si Si2 0.500000 0.500000 0.000000
Si Si3 0.157074 0.635147 0.689789
Si Si4 0.255285 0.437409 0.323117
Si Si5 0.662171 0.826267 0.622464
Si Si6 0.974138 0.181241 0.571873
Si Si7 0.217759 0.053466 0.871050
O O1 0.465148 0.834518 0.434819
O O2 0.583360 0.883189 0.109902
O O3 0.532561 0.651044 0.114708
O O4 0.259369 0.745393 0.928310
O O5 0.671202 0.502023 0.851204
O O6 0.295892 0.525527 0.615810
O O7 0.969712 0.585772 0.730395
O O8 0.108084 0.690755 0.458863
O O9 0.340775 0.303601 0.311926
O O10 0.828209 0.813610 0.493092
O O11 0.740034 0.947760 0.851608
O O12 0.049503 0.145825 0.822490
O O13 0.848873 0.067853 0.355366
#
# Coordination Sequence:
#
# PCOD9109530 Si02
#       7
#     2   1   2   2   2   2   2
#     4  11  24  37  67 100 140 175 233 278 353 399
#     4  12  24  42  70 102 134 192 232 284 324 442
#     4  10  23  46  65 109 142 182 216 302 350 407
#     4  10  23  44  72  97 143 181 238 275 355 401
#     4  10  20  41  66 100 129 188 230 281 328 432
#     4   9  21  41  69  96 137 179 236 278 347 400
#     4  10  20  41  68  98 132 186 234 281 327 430
#
# _framework density 28.747209000000002
#
# number of rings (size 3 to 8) (size 9 to 14) (size 15 to 20)
#    0.000    1.846    1.538    1.385    2.154    3.692 
#    5.538    0.769    0.000    0.923    0.000    0.000 
#    0.000    0.000    0.000    0.000    0.000    0.000 
#
# Total GULP energy -72583.213170 kJ/mol
# GULP energy per Si atom -5583.324090 kJ/mol
# Density = 2.868178 g / cm^3
# Si number density = 28.747209 Si / 1000 Ang^3
#
#
#
# Elastic Constant Matrix: (Units=GPa)
#
#
# Indices 1 2 3 4 5 6 
#
# 1 118.8523 53.9766 57.9511 4.3019 -3.9630 23.5387
# 2 53.9766 114.3327 19.5937 4.9698 2.0629 22.9022
# 3 57.9511 19.5937 145.0720 20.8329 19.3469 16.7316
# 4 4.3019 4.9698 20.8329 39.3363 15.1254 9.5457
# 5 -3.9630 2.0629 19.3469 15.1254 53.8333 6.0995
# 6 23.5387 22.9022 16.7316 9.5457 6.0995 69.4870
#
#
#
# Elastic Compliance Matrix: (Units=1/GPa)
#
#
# Indices 1 2 3 4 5 6 
#
# 1 0.013801 -0.005321 -0.005124 0.001257 0.002948 -0.002119
# 2 -0.005321 0.011547 0.000998 -0.000594 -0.000789 -0.002093
# 3 -0.005124 0.000998 0.009723 -0.003558 -0.002888 -0.000192
# 4 0.001257 -0.000594 -0.003558 0.030607 -0.006868 -0.002975
# 5 0.002948 -0.000789 -0.002888 -0.006868 0.021907 -0.001023
# 6 -0.002119 -0.002093 -0.000192 -0.002975 -0.001023 0.016343
#
#
# Mechanical properties :
#
#
# Convention : Reuss Voigt Hill
#
# Bulk Modulus (GPa) = 61.81314 71.25556 66.53435
# Shear Modulus (GPa) = 38.99743 48.98035 43.98889
#
# Velocity S-wave (km/s) = 3.68715 4.13223 3.91602
# Velocity P-wave (km/s) = 6.29887 6.89984 6.60619
#
# Compressibility (1/GPa) = 0.01617779
#
# Stress axis : x y z
#
# Youngs Moduli (GPa) = 72.45884 86.60586 102.84481
#
# Poissons Ratio (x) = 0.46081 0.52694
# Poissons Ratio (y) = 0.38553 -0.10262
# Poissons Ratio (z) = 0.37125 -0.08642
#
# Static dielectric constant tensor:
#      x y z
#    x 0.000000 0.000000 0.000000 
#    y 0.000000 0.000000 0.000000 
#    z 0.000000 0.000000 0.000000 
# 
# From -- ./inp_files/25849.got.cif
#   From: 2010.05.17/outbox.cif.g08.bks.cpg/sg2_13_cif.got.tgz:25849.got - 2010.06.03 11:33:40.
