data_PCOD9109117
_publ_section_title
;
Structure prediction by ZEFSAII (Michael W. Deem and Ramdas Pophale) SiO2 
 PCOD9109117
Probable space group: P -1
;
_chemical_formula_sum "Si O2"
_cell_formula_units_Z 16
_cell_length_a 7.889224
_cell_length_b 24.381402
_cell_length_c 16.437287
_cell_angle_alpha 19.742941
_cell_angle_beta 42.000827
_cell_angle_gamma 43.029761
_cell_volume 707.668700
_symmetry_space_group_name_H-M "P -1"
_symmetry_group_IT_number 2
_symmetry_cell_setting 'triclinic'
loop_
_space_group_symop_operation_xyz
x,y,z
-x,-y,-z
loop_
_atom_site_type_symbol
_atom_site_label
_atom_site_fract_x
_atom_site_fract_y
_atom_site_fract_z
Si Si1 0.705940 0.019294 0.051979
Si Si2 0.524305 0.663825 0.213345
Si Si3 0.132850 0.243439 0.164607
Si Si4 0.344331 0.762931 0.557958
Si Si5 0.115321 0.663493 0.214789
Si Si6 0.105611 0.986257 0.183908
Si Si7 0.552993 0.615515 0.999172
Si Si8 0.469070 0.058687 0.524325
O O1 0.591172 0.855574 0.347636
O O2 0.723799 0.046979 0.910296
O O3 0.540364 0.176069 0.932035
O O4 0.000000 0.000000 0.000000
O O5 0.500000 0.500000 0.500000
O O6 0.310168 0.680693 0.195259
O O7 0.794995 0.661237 0.074186
O O8 0.155572 0.774686 0.685848
O O9 0.302677 0.064322 0.346078
O O10 0.239766 0.336441 0.075221
O O11 0.398032 0.572625 0.780968
O O12 0.196321 0.866754 0.392145
O O13 0.284129 0.648989 0.094359
O O14 0.000000 0.500000 0.500000
O O15 0.904689 0.821564 0.062170
O O16 0.804460 0.971143 0.301631
O O17 0.538317 0.746754 0.748662
O O18 0.500000 0.000000 0.500000
#
# Coordination Sequence:
#
# PCOD9109117 Si02
#       8
#     2   2   2   2   2   2   2   2
#     4  12  27  47  61  91 145 184 216 267 343 403
#     4  11  26  45  67  95 133 182 215 268 333 402
#     4  10  20  42  67  97 133 172 220 277 338 382
#     4  12  25  38  71 103 132 169 231 285 321 391
#     4  11  22  40  68  93 131 173 224 268 320 393
#     4  12  22  41  69 100 131 177 222 274 334 386
#     4  10  20  35  62 104 129 158 213 286 325 375
#     4  10  16  37  64  96 131 164 207 277 341 379
#
# _framework density 22.609449999999999
#
# number of rings (size 3 to 8) (size 9 to 14) (size 15 to 20)
#    0.000    1.000    7.500    1.500    5.250    0.500 
#    0.000    0.000    0.000    3.750    0.000    0.000 
#    0.000    0.000    0.000    0.000    0.000    0.000 
#
# Total GULP energy -89531.793379 kJ/mol
# GULP energy per Si atom -5595.737086 kJ/mol
# Density = 2.255799 g / cm^3
# Si number density = 22.609450 Si / 1000 Ang^3
#
#
#
# Elastic Constant Matrix: (Units=GPa)
#
#
# Indices 1 2 3 4 5 6 
#
# 1 60.1980 35.8726 36.0947 1.4754 -6.8047 -7.3537
# 2 35.8726 132.5629 76.4297 13.8369 -15.5295 -8.9845
# 3 36.0947 76.4297 221.9285 -2.0796 -1.7557 -2.4587
# 4 1.4754 13.8369 -2.0796 55.9415 -5.2230 -3.5325
# 5 -6.8047 -15.5295 -1.7557 -5.2230 37.5317 6.7302
# 6 -7.3537 -8.9845 -2.4587 -3.5325 6.7302 13.9379
#
#
#
# Elastic Compliance Matrix: (Units=1/GPa)
#
#
# Indices 1 2 3 4 5 6 
#
# 1 0.021272 -0.004099 -0.001943 0.000963 0.000748 0.008122
# 2 -0.004099 0.011250 -0.003179 -0.002357 0.002989 0.002488
# 3 -0.001943 -0.003179 0.005902 0.000878 -0.001034 -0.001311
# 4 0.000963 -0.002357 0.000878 0.018792 0.001265 0.003296
# 5 0.000748 0.002989 -0.001034 0.001265 0.030329 -0.012186
# 6 0.008122 0.002488 -0.001311 0.003296 -0.012186 0.084124
#
#
# Mechanical properties :
#
#
# Convention : Reuss Voigt Hill
#
# Bulk Modulus (GPa) = 50.04088 79.05374 64.54731
# Shear Modulus (GPa) = 25.41000 39.23505 32.32253
#
# Velocity S-wave (km/s) = 3.35605 4.17026 3.78511
# Velocity P-wave (km/s) = 6.09903 7.63079 6.90750
#
# Compressibility (1/GPa) = 0.01998366
#
# Stress axis : x y z
#
# Youngs Moduli (GPa) = 47.00908 88.88765 169.42680
#
# Poissons Ratio (x) = 0.36431 0.32926
# Poissons Ratio (y) = 0.19267 0.53856
# Poissons Ratio (z) = 0.09136 0.28255
#
# Static dielectric constant tensor:
#      x y z
#    x 1.871660 0.001990 -0.056950 
#    y 0.001990 1.793700 -0.006230 
#    z -0.056950 -0.006230 1.815400 
# 
# From -- ./inp_files/508038.got.cif
#   From: 2010.05.17/outbox.cif.g08.bks.cpg/sg2_255_cif.got.tgz:508038.got - 2010.06.03 11:33:40.
