data_PCOD9109228
_publ_section_title
;
Structure prediction by ZEFSAII (Michael W. Deem and Ramdas Pophale) SiO2 
 PCOD9109228
Probable space group: P -1
;
_chemical_formula_sum "Si O2"
_cell_formula_units_Z 13
_cell_length_a 6.179726
_cell_length_b 12.357613
_cell_length_c 9.332696
_cell_angle_alpha 57.518839
_cell_angle_beta 88.902650
_cell_angle_gamma 82.087855
_cell_volume 594.212466
_symmetry_space_group_name_H-M "P -1"
_symmetry_group_IT_number 2
_symmetry_cell_setting 'triclinic'
loop_
_space_group_symop_operation_xyz
x,y,z
-x,-y,-z
loop_
_atom_site_type_symbol
_atom_site_label
_atom_site_fract_x
_atom_site_fract_y
_atom_site_fract_z
Si Si1 0.481168 0.835446 0.262516
Si Si2 0.891677 0.508749 0.278871
Si Si3 0.500000 0.500000 0.500000
Si Si4 0.798318 0.895445 0.959641
Si Si5 0.386095 0.324970 0.052352
Si Si6 0.213796 0.720337 0.129054
Si Si7 0.317561 0.335548 0.378691
O O1 0.366108 0.719688 0.271074
O O2 0.593591 0.791831 0.440421
O O3 0.295355 0.959263 0.188541
O O4 0.661425 0.866420 0.123938
O O5 0.738366 0.519805 0.410078
O O6 0.045678 0.620244 0.211635
O O7 0.055375 0.374804 0.360310
O O8 0.755680 0.548747 0.107298
O O9 0.427376 0.442681 0.386175
O O10 0.728706 0.796777 0.912151
O O11 0.056336 0.858101 0.013028
O O12 0.389415 0.330528 0.217615
O O13 0.622253 0.304500 0.987834
#
# Coordination Sequence:
#
# PCOD9109228 Si02
#       7
#     2   2   1   2   2   2   2
#     4  10  21  38  64  92 119 157 207 248 294 352
#     4  11  24  42  62  87 122 159 198 248 302 357
#     4  12  26  40  60  90 116 152 208 250 294 358
#     4   9  20  41  64  87 119 162 203 248 297 350
#     4  10  23  40  61  89 124 162 201 239 298 363
#     4  10  20  41  64  87 121 162 199 244 299 356
#     4  12  24  39  60  91 126 158 198 251 298 355
#
# _framework density 21.877693000000001
#
# number of rings (size 3 to 8) (size 9 to 14) (size 15 to 20)
#    0.000    1.538    0.000    6.000    0.000    8.000 
#    0.000    0.769    0.000    0.000    0.000    0.000 
#    0.000    0.000    0.000    0.000    0.000    0.000 
#
# Total GULP energy -72565.971777 kJ/mol
# GULP energy per Si atom -5581.997829 kJ/mol
# Density = 2.182790 g / cm^3
# Si number density = 21.877693 Si / 1000 Ang^3
#
#
#
# Elastic Constant Matrix: (Units=GPa)
#
#
# Indices 1 2 3 4 5 6 
#
# 1 118.5311 51.8994 66.6307 8.4451 7.3079 -34.3491
# 2 51.8994 72.0844 71.8770 16.0407 18.9830 -20.6385
# 3 66.6307 71.8770 195.0269 30.2226 28.2955 -21.2765
# 4 8.4451 16.0407 30.2226 42.3825 -3.0770 7.3482
# 5 7.3079 18.9830 28.2955 -3.0770 33.0084 -11.8775
# 6 -34.3491 -20.6385 -21.2765 7.3482 -11.8775 41.0425
#
#
#
# Elastic Compliance Matrix: (Units=1/GPa)
#
#
# Indices 1 2 3 4 5 6 
#
# 1 0.015629 -0.007942 -0.002383 0.000392 0.006682 0.009715
# 2 -0.007942 0.030687 -0.005427 -0.007668 -0.010391 0.004336
# 3 -0.002383 -0.005427 0.009263 -0.004334 -0.004898 -0.000563
# 4 0.000392 -0.007668 -0.004334 0.031666 0.007671 -0.009224
# 5 0.006682 -0.010391 -0.004898 0.007671 0.042897 0.008868
# 6 0.009715 0.004336 -0.000563 -0.009224 0.008868 0.038602
#
#
# Mechanical properties :
#
#
# Convention : Reuss Voigt Hill
#
# Bulk Modulus (GPa) = 41.53830 85.16186 63.35008
# Shear Modulus (GPa) = 24.00715 36.30238 30.15477
#
# Velocity S-wave (km/s) = 3.31620 4.07791 3.71662
# Velocity P-wave (km/s) = 5.80437 7.82198 6.88745
#
# Compressibility (1/GPa) = 0.02407416
#
# Stress axis : x y z
#
# Youngs Moduli (GPa) = 63.98424 32.58759 107.95984
#
# Poissons Ratio (x) = 0.25880 0.25726
# Poissons Ratio (y) = 0.50815 0.58592
# Poissons Ratio (z) = 0.15247 0.17686
#
# Static dielectric constant tensor:
#      x y z
#    x 1.825430 -0.002400 0.036960 
#    y -0.002400 1.767720 -0.019780 
#    z 0.036960 -0.019780 1.728990 
# 
# From -- ./inp_files/132861.got.cif
#   From: 2010.05.17/outbox.cif.g08.bks.cpg/sg2_67_cif.got.tgz:132861.got - 2010.06.03 11:33:40.
