data_PCOD9109802
_publ_section_title
;
Structure prediction by ZEFSAII (Michael W. Deem and Ramdas Pophale) SiO2 
 PCOD9109802
Probable space group: P -1
;
_chemical_formula_sum "Si O2"
_cell_formula_units_Z 16
_cell_length_a 11.278548
_cell_length_b 8.333688
_cell_length_c 13.577514
_cell_angle_alpha 101.864069
_cell_angle_beta 101.293382
_cell_angle_gamma 33.484852
_cell_volume 688.345032
_symmetry_space_group_name_H-M "P -1"
_symmetry_group_IT_number 2
_symmetry_cell_setting 'triclinic'
loop_
_space_group_symop_operation_xyz
x,y,z
-x,-y,-z
loop_
_atom_site_type_symbol
_atom_site_label
_atom_site_fract_x
_atom_site_fract_y
_atom_site_fract_z
Si Si1 0.259832 0.150247 0.057519
Si Si2 0.232424 0.806739 0.964134
Si Si3 0.420013 0.805903 0.694295
Si Si4 0.173413 0.308116 0.854184
Si Si5 0.414765 0.730022 0.364528
Si Si6 0.367334 0.373599 0.800275
Si Si7 0.627062 0.718923 0.543184
Si Si8 0.927194 0.893503 0.489119
O O1 0.076498 0.435723 0.131493
O O2 0.461330 0.884784 0.124659
O O3 0.266765 0.246657 0.970432
O O4 0.191579 0.046133 0.993470
O O5 0.255247 0.668495 0.853561
O O6 0.500000 0.500000 0.000000
O O7 0.000000 0.000000 0.000000
O O8 0.553252 0.491721 0.692606
O O9 0.563693 0.774570 0.653501
O O10 0.312447 0.002719 0.796967
O O11 0.233893 0.967703 0.607647
O O12 0.191966 0.427529 0.788827
O O13 0.502124 0.743643 0.292671
O O14 0.561121 0.620380 0.467629
O O15 0.180678 0.008225 0.409167
O O16 0.877323 0.449994 0.534092
O O17 0.500000 0.000000 0.500000
O O18 0.000000 0.000000 0.500000
#
# Coordination Sequence:
#
# PCOD9109802 Si02
#       8
#     2   2   2   2   2   2   2   2
#     4  10  23  43  63  93 129 181 220 283 346 411
#     4  10  20  41  67  93 129 178 230 283 346 411
#     4  11  23  40  65  97 127 171 223 271 333 426
#     4  11  23  41  64  91 134 169 226 278 348 409
#     4  11  23  40  65  97 128 170 228 271 337 419
#     4  11  23  40  65  94 132 171 228 284 340 416
#     4  11  23  41  66  96 130 168 211 283 338 398
#     4  11  21  45  69  90 134 177 218 272 348 412
#
# _framework density 23.244159
#
# number of rings (size 3 to 8) (size 9 to 14) (size 15 to 20)
#    0.000    1.250    3.750    2.625    0.000    6.000 
#    0.000    0.000    0.000    0.000    0.000    0.000 
#    0.000    0.000    0.000    0.000    0.000    0.000 
#
# Total GULP energy -89165.173324 kJ/mol
# GULP energy per Si atom -5572.823333 kJ/mol
# Density = 2.319125 g / cm^3
# Si number density = 23.244159 Si / 1000 Ang^3
#
#
#
# Elastic Constant Matrix: (Units=GPa)
#
#
# Indices 1 2 3 4 5 6 
#
# 1 58.5782 14.2723 39.7049 11.9975 -29.5576 -5.6596
# 2 14.2723 99.2518 31.5343 30.1853 -20.8807 -7.2244
# 3 39.7049 31.5343 135.1360 36.0914 -43.8476 -13.8751
# 4 11.9975 30.1853 36.0914 37.5729 -1.1691 -3.6723
# 5 -29.5576 -20.8807 -43.8476 -1.1691 44.6301 7.1076
# 6 -5.6596 -7.2244 -13.8751 -3.6723 7.1076 24.8488
#
#
#
# Elastic Compliance Matrix: (Units=1/GPa)
#
#
# Indices 1 2 3 4 5 6 
#
# 1 0.028978 0.003947 0.001006 -0.012693 0.021656 0.000239
# 2 0.003947 0.016858 0.004772 -0.018786 0.014450 0.001555
# 3 0.001006 0.004772 0.018310 -0.020824 0.019851 0.003085
# 4 -0.012693 -0.018786 -0.020824 0.064631 -0.035938 -0.000150
# 5 0.021656 0.014450 0.019851 -0.035938 0.062546 -0.002983
# 6 0.000239 0.001555 0.003085 -0.000150 -0.002983 0.043304
#
#
# Mechanical properties :
#
#
# Convention : Reuss Voigt Hill
#
# Bulk Modulus (GPa) = 11.96218 51.55434 31.75826
# Shear Modulus (GPa) = 20.57258 35.24067 27.90663
#
# Velocity S-wave (km/s) = 2.97823 3.89795 3.46871
# Velocity P-wave (km/s) = 4.12116 6.51815 5.45299
#
# Compressibility (1/GPa) = 0.08359680
#
# Stress axis : x y z
#
# Youngs Moduli (GPa) = 34.50944 59.31818 54.61399
#
# Poissons Ratio (x) = -0.23414 -0.05496
# Poissons Ratio (y) = -0.13622 -0.26061
# Poissons Ratio (z) = -0.03472 -0.28306
#
# Static dielectric constant tensor:
#      x y z
#    x 2.004530 -0.042540 -0.035260 
#    y -0.042540 1.941980 0.011160 
#    z -0.035260 0.011160 1.868420 
# 
# From -- ./inp_files/56341.got.cif
#   From: 2010.05.17/outbox.cif.g08.bks.cpg/sg2_29_cif.got.tgz:56341.got - 2010.06.03 11:33:40.
