data_PCOD9109479
_publ_section_title
;
Structure prediction by ZEFSAII (Michael W. Deem and Ramdas Pophale) SiO2 
 PCOD9109479
Probable space group: P -1
;
_chemical_formula_sum "Si O2"
_cell_formula_units_Z 16
_cell_length_a 6.845351
_cell_length_b 8.893232
_cell_length_c 20.761895
_cell_angle_alpha 37.135306
_cell_angle_beta 56.957635
_cell_angle_gamma 74.037151
_cell_volume 606.952490
_symmetry_space_group_name_H-M "P -1"
_symmetry_group_IT_number 2
_symmetry_cell_setting 'triclinic'
loop_
_space_group_symop_operation_xyz
x,y,z
-x,-y,-z
loop_
_atom_site_type_symbol
_atom_site_label
_atom_site_fract_x
_atom_site_fract_y
_atom_site_fract_z
Si Si1 0.572203 0.189586 0.590564
Si Si2 0.829160 0.036968 0.172925
Si Si3 0.445538 0.370475 0.858735
Si Si4 0.973898 0.527250 0.897312
Si Si5 0.336328 0.156558 0.506778
Si Si6 0.308561 0.999310 0.115325
Si Si7 0.804548 0.756020 0.727551
Si Si8 0.900808 0.446217 0.608662
O O1 0.405985 0.178115 0.561921
O O2 0.839752 0.395925 0.458344
O O3 0.401373 0.197297 0.679939
O O4 0.615428 0.917267 0.696036
O O5 0.941784 0.241727 0.142837
O O6 0.043098 0.917673 0.153982
O O7 0.809102 0.246873 0.051680
O O8 0.224451 0.477341 0.842982
O O9 0.477629 0.120784 0.902170
O O10 0.724382 0.561709 0.747975
O O11 0.396845 0.292669 0.970597
O O12 0.829023 0.618414 0.836749
O O13 0.319913 0.428306 0.388488
O O14 0.500000 0.000000 0.500000
O O15 0.065197 0.971822 0.603422
O O16 0.211500 0.858791 0.248504
O O17 0.000000 0.500000 0.500000
#
# Coordination Sequence:
#
# PCOD9109479 Si02
#       8
#     2   2   2   2   2   2   2   2
#     4  11  24  44  67  96 137 169 220 279 318 384
#     4  10  20  41  65  94 132 171 213 267 321 389
#     4  10  22  45  66  96 131 174 210 283 323 385
#     4  10  21  39  67  98 128 167 217 269 324 385
#     4  11  26  43  68  98 125 173 228 274 321 385
#     4  10  24  42  67  92 138 172 216 263 337 390
#     4  11  22  39  71  97 129 166 224 270 330 384
#     4  11  27  44  66  97 134 181 216 261 336 398
#
# _framework density 26.361208000000001
#
# number of rings (size 3 to 8) (size 9 to 14) (size 15 to 20)
#    0.000    1.500    2.500    0.750    7.000    4.500 
#    0.000    6.875    0.000    0.000    0.000    0.000 
#    0.000    0.000    0.000    0.000    0.000    0.000 
#
# Total GULP energy -89242.564345 kJ/mol
# GULP energy per Si atom -5577.660272 kJ/mol
# Density = 2.630121 g / cm^3
# Si number density = 26.361208 Si / 1000 Ang^3
#
#
#
# Elastic Constant Matrix: (Units=GPa)
#
#
# Indices 1 2 3 4 5 6 
#
# 1 114.9836 23.2614 46.3449 -17.0212 5.5854 -14.9943
# 2 23.2614 66.7019 13.9827 -7.0046 3.1945 -35.8613
# 3 46.3449 13.9827 98.3490 -0.9302 29.5905 -6.2243
# 4 -17.0212 -7.0046 -0.9302 26.2262 -15.7617 4.7033
# 5 5.5854 3.1945 29.5905 -15.7617 53.2168 -6.7195
# 6 -14.9943 -35.8613 -6.2243 4.7033 -6.7195 45.3901
#
#
#
# Elastic Compliance Matrix: (Units=1/GPa)
#
#
# Indices 1 2 3 4 5 6 
#
# 1 0.014118 -0.000714 -0.008470 0.012599 0.007346 0.002720
# 2 -0.000714 0.027937 -0.003709 0.005992 0.004942 0.021439
# 3 -0.008470 -0.003709 0.018389 -0.013280 -0.013531 -0.003833
# 4 0.012599 0.005992 -0.013280 0.061331 0.024414 0.004334
# 5 0.007346 0.004942 -0.013531 0.024414 0.033347 0.006882
# 6 0.002720 0.021439 -0.003833 0.004334 0.006882 0.039912
#
#
# Mechanical properties :
#
#
# Convention : Reuss Voigt Hill
#
# Bulk Modulus (GPa) = 28.85297 49.69027 39.27162
# Shear Modulus (GPa) = 21.51698 38.06301 29.78999
#
# Velocity S-wave (km/s) = 2.86008 3.80399 3.36530
# Velocity P-wave (km/s) = 4.67715 6.17936 5.47998
#
# Compressibility (1/GPa) = 0.03465848
#
# Stress axis : x y z
#
# Youngs Moduli (GPa) = 70.83030 35.79440 54.37915
#
# Poissons Ratio (x) = 0.02557 0.46060
# Poissons Ratio (y) = 0.05060 0.20167
# Poissons Ratio (z) = 0.59995 0.13275
#
# Static dielectric constant tensor:
#      x y z
#    x 2.277290 -0.330560 -0.029720 
#    y -0.330560 2.815900 0.052490 
#    z -0.029720 0.052490 2.236310 
# 
# From -- ./inp_files/604379.got.cif
#   From: 2010.05.17/outbox.cif.g08.bks.cpg/sg2_303_cif.got.tgz:604379.got - 2010.06.03 11:33:40.
