data_PCOD9109334
_publ_section_title
;
Structure prediction by ZEFSAII (Michael W. Deem and Ramdas Pophale) SiO2 
 PCOD9109334
Probable space group: P -1
;
_chemical_formula_sum "Si O2"
_cell_formula_units_Z 15
_cell_length_a 7.799043
_cell_length_b 8.571884
_cell_length_c 20.459255
_cell_angle_alpha 134.740055
_cell_angle_beta 134.389151
_cell_angle_gamma 46.415969
_cell_volume 639.821319
_symmetry_space_group_name_H-M "P -1"
_symmetry_group_IT_number 2
_symmetry_cell_setting 'triclinic'
loop_
_space_group_symop_operation_xyz
x,y,z
-x,-y,-z
loop_
_atom_site_type_symbol
_atom_site_label
_atom_site_fract_x
_atom_site_fract_y
_atom_site_fract_z
Si Si1 0.253038 0.982504 0.692079
Si Si2 0.190158 0.842163 0.268049
Si Si3 0.289668 0.323472 0.098319
Si Si4 0.703720 0.536751 0.479910
Si Si5 0.869819 0.013270 0.117593
Si Si6 0.177019 0.210921 0.180271
Si Si7 0.120835 0.651075 0.387941
Si Si8 0.500000 0.000000 0.500000
O O1 0.048681 0.116486 0.733420
O O2 0.117786 0.108520 0.625641
O O3 0.291325 0.705673 0.622161
O O4 0.538529 0.978716 0.777539
O O5 0.275651 0.586934 0.182250
O O6 0.412684 0.875926 0.379191
O O7 0.072496 0.017181 0.228057
O O8 0.587238 0.162370 0.113963
O O9 0.205953 0.260196 0.127444
O O10 0.129551 0.242557 0.977881
O O11 0.391804 0.687843 0.458005
O O12 0.855571 0.452239 0.563456
O O13 0.747123 0.736073 0.507019
O O14 0.947222 0.124365 0.107927
O O15 0.119834 0.448432 0.277868
#
# Coordination Sequence:
#
# PCOD9109334 Si02
#       8
#     2   2   2   2   2   2   2   1
#     4  11  21  41  71  96 146 201 229 298 366 421
#     4  12  24  46  67 103 148 188 240 300 363 427
#     4  11  24  49  74  99 148 186 236 312 359 419
#     4  10  22  38  62  98 140 190 248 291 349 424
#     4  11  26  45  74 108 136 190 247 295 364 432
#     4  11  22  43  71 104 140 184 238 299 362 436
#     4  10  20  41  64  96 141 191 240 291 354 425
#     4  12  24  42  66 104 144 190 238 296 358 426
#
# _framework density 23.444044000000002
#
# number of rings (size 3 to 8) (size 9 to 14) (size 15 to 20)
#    0.000    1.067    4.000    2.800    0.000    1.600 
#    4.800    0.667    0.000    0.000    0.000    0.000 
#    0.000    0.000    0.000    0.000    0.000    0.000 
#
# Total GULP energy -83639.039039 kJ/mol
# GULP energy per Si atom -5575.935936 kJ/mol
# Density = 2.339068 g / cm^3
# Si number density = 23.444044 Si / 1000 Ang^3
#
#
#
# Elastic Constant Matrix: (Units=GPa)
#
#
# Indices 1 2 3 4 5 6 
#
# 1 25.6833 -57.7325 1.5197 25.7259 -37.0036 17.1846
# 2 -57.7325 16.0607 4.5665 30.2808 -55.9906 33.3275
# 3 1.5197 4.5665 112.5840 11.0775 -22.8696 -6.7336
# 4 25.7259 30.2808 11.0775 29.4982 23.8638 -33.4369
# 5 -37.0036 -55.9906 -22.8696 23.8638 -7.8366 34.3077
# 6 17.1846 33.3275 -6.7336 -33.4369 34.3077 -9.1231
#
#
#
# Elastic Compliance Matrix: (Units=1/GPa)
#
#
# Indices 1 2 3 4 5 6 
#
# 1 0.022291 0.004904 0.000013 0.007193 -0.001834 0.026632
# 2 0.004904 0.013442 -0.000645 0.007787 -0.002519 0.020804
# 3 0.000013 -0.000645 0.010233 0.000410 0.004780 0.006589
# 4 0.007193 0.007787 0.000410 0.020548 0.011343 0.009038
# 5 -0.001834 -0.002519 0.004780 0.011343 0.021549 0.023277
# 6 0.026632 0.020804 0.006589 0.009038 0.023277 0.066100
#
#
# Mechanical properties :
#
#
# Convention : Reuss Voigt Hill
#
# Bulk Modulus (GPa) = 18.34563 5.67062 12.00813
# Shear Modulus (GPa) = 30.52701 16.23934 23.38317
#
# Velocity S-wave (km/s) = 3.61241 2.63475 3.16160
# Velocity P-wave (km/s) = 5.02410 3.41759 4.29660
#
# Compressibility (1/GPa) = 0.05450888
#
# Stress axis : x y z
#
# Youngs Moduli (GPa) = 44.86105 74.39629 97.72245
#
# Poissons Ratio (x) = -0.36483 -0.00124
# Poissons Ratio (y) = -0.21999 0.06303
# Poissons Ratio (z) = -0.00057 0.04798
#
# Static dielectric constant tensor:
#      x y z
#    x 1.856070 -0.015070 -0.044560 
#    y -0.015070 1.912720 -0.036430 
#    z -0.044560 -0.036430 1.807910 
# 
# From -- ./inp_files/606510.got.cif
#   From: 2010.05.17/outbox.cif.g08.bks.cpg/sg2_304_cif.got.tgz:606510.got - 2010.06.03 11:33:40.
