data_PCOD9109068
_publ_section_title
;
Structure prediction by ZEFSAII (Michael W. Deem and Ramdas Pophale) SiO2 
 PCOD9109068
Probable space group: P -1
;
_chemical_formula_sum "Si O2"
_cell_formula_units_Z 16
_cell_length_a 21.970886
_cell_length_b 9.120027
_cell_length_c 19.233366
_cell_angle_alpha 139.391143
_cell_angle_beta 17.502619
_cell_angle_gamma 142.040578
_cell_volume 712.393800
_symmetry_space_group_name_H-M "P -1"
_symmetry_group_IT_number 2
_symmetry_cell_setting 'triclinic'
loop_
_space_group_symop_operation_xyz
x,y,z
-x,-y,-z
loop_
_atom_site_type_symbol
_atom_site_label
_atom_site_fract_x
_atom_site_fract_y
_atom_site_fract_z
Si Si1 0.440273 0.512865 0.988917
Si Si2 0.535855 0.987852 0.825328
Si Si3 0.182482 0.141621 0.631500
Si Si4 0.074820 0.680341 0.818789
Si Si5 0.227132 0.969142 0.038188
Si Si6 0.223488 0.553484 0.818425
Si Si7 0.151334 0.116785 0.979441
Si Si8 0.585865 0.537827 0.691850
O O1 0.608844 0.552914 0.756304
O O2 0.500000 0.500000 0.000000
O O3 0.378786 0.754087 0.138640
O O4 0.278076 0.244918 0.062067
O O5 0.555607 0.774963 0.775461
O O6 0.674738 0.995149 0.607470
O O7 0.305800 0.947677 0.023468
O O8 0.018449 0.000124 0.817462
O O9 0.322886 0.393495 0.604614
O O10 0.024356 0.157315 0.747009
O O11 0.227309 0.539277 0.574702
O O12 0.983128 0.781360 0.890297
O O13 0.862556 0.550178 0.049446
O O14 0.205954 0.901365 0.804399
O O15 0.327407 0.832616 0.822083
O O16 0.000000 0.500000 0.000000
O O17 0.363061 0.325652 0.845094
#
# Coordination Sequence:
#
# PCOD9109068 Si02
#       8
#     2   2   2   2   2   2   2   2
#     4  10  24  43  64  91 124 170 221 268 304 369
#     4  11  25  40  65  92 126 167 218 258 317 367
#     4  10  21  39  63  94 125 168 203 257 319 381
#     4  10  22  38  62  96 135 162 206 258 315 386
#     4  10  20  41  62  90 125 161 212 261 307 375
#     4   9  18  36  61  90 129 159 200 254 316 378
#     4  10  22  39  63  98 131 166 205 255 318 388
#     4  12  22  42  65  92 125 172 206 266 320 367
#
# _framework density 22.459489000000001
#
# number of rings (size 3 to 8) (size 9 to 14) (size 15 to 20)
#    0.000    1.750    1.250    3.000    3.500    1.000 
#    2.250    0.000    0.000    5.250    0.000    0.000 
#    0.000    0.000    0.000    0.000    0.000    0.000 
#
# Total GULP energy -89177.250416 kJ/mol
# GULP energy per Si atom -5573.578151 kJ/mol
# Density = 2.240837 g / cm^3
# Si number density = 22.459489 Si / 1000 Ang^3
#
#
#
# Elastic Constant Matrix: (Units=GPa)
#
#
# Indices 1 2 3 4 5 6 
#
# 1 110.0956 40.1557 28.5067 -3.8880 16.6101 -16.8650
# 2 40.1557 141.5585 49.1865 31.7657 26.0292 13.2729
# 3 28.5067 49.1865 81.7212 13.0298 25.2598 -0.2200
# 4 -3.8880 31.7657 13.0298 28.9583 2.2010 8.0762
# 5 16.6101 26.0292 25.2598 2.2010 28.4174 0.0472
# 6 -16.8650 13.2729 -0.2200 8.0762 0.0472 37.1779
#
#
#
# Elastic Compliance Matrix: (Units=1/GPa)
#
#
# Indices 1 2 3 4 5 6 
#
# 1 0.012656 -0.004395 -0.002085 0.005933 -0.001988 0.006012
# 2 -0.004395 0.013702 -0.002633 -0.012783 -0.006644 -0.004116
# 3 -0.002085 -0.002633 0.019556 -0.005550 -0.013325 0.001332
# 4 0.005933 -0.012783 -0.005550 0.052313 0.009129 -0.004153
# 5 -0.001988 -0.006644 -0.013325 0.009129 0.053576 -0.000660
# 6 0.006012 -0.004116 0.001332 -0.004153 -0.000660 0.032005
#
#
# Mechanical properties :
#
#
# Convention : Reuss Voigt Hill
#
# Bulk Modulus (GPa) = 36.11682 63.23035 49.67359
# Shear Modulus (GPa) = 23.66713 33.27916 28.47314
#
# Velocity S-wave (km/s) = 3.24970 3.85352 3.56442
# Velocity P-wave (km/s) = 5.49514 6.92919 6.25341
#
# Compressibility (1/GPa) = 0.02768793
#
# Stress axis : x y z
#
# Youngs Moduli (GPa) = 79.01177 72.98194 51.13559
#
# Poissons Ratio (x) = 0.32078 0.10660
# Poissons Ratio (y) = 0.34729 0.13464
# Poissons Ratio (z) = 0.16472 0.19217
#
# Static dielectric constant tensor:
#      x y z
#    x 1.890950 -0.019390 -0.031930 
#    y -0.019390 1.949970 0.071150 
#    z -0.031930 0.071150 1.889490 
# 
# From -- ./inp_files/577623.got.cif
#   From: 2010.05.17/outbox.cif.g08.bks.cpg/sg2_289_cif.got.tgz:577623.got - 2010.06.03 11:33:40.
