data_PCOD9109328
_publ_section_title
;
Structure prediction by ZEFSAII (Michael W. Deem and Ramdas Pophale) SiO2 
 PCOD9109328
Probable space group: P -1
;
_chemical_formula_sum "Si O2"
_cell_formula_units_Z 15
_cell_length_a 12.621068
_cell_length_b 5.323335
_cell_length_c 16.746433
_cell_angle_alpha 72.016337
_cell_angle_beta 37.206092
_cell_angle_gamma 64.543991
_cell_volume 613.132381
_symmetry_space_group_name_H-M "P -1"
_symmetry_group_IT_number 2
_symmetry_cell_setting 'triclinic'
loop_
_space_group_symop_operation_xyz
x,y,z
-x,-y,-z
loop_
_atom_site_type_symbol
_atom_site_label
_atom_site_fract_x
_atom_site_fract_y
_atom_site_fract_z
Si Si1 0.000000 0.000000 0.000000
Si Si2 0.893747 0.165953 0.863853
Si Si3 0.751100 0.603593 0.230214
Si Si4 0.454201 0.459320 0.782888
Si Si5 0.672396 0.794221 0.963548
Si Si6 0.596941 0.878995 0.602629
Si Si7 0.188155 0.432656 0.628328
Si Si8 0.147750 0.900669 0.489815
O O1 0.907835 0.066909 0.957181
O O2 0.111678 0.229214 0.892887
O O3 0.089941 0.198023 0.719425
O O4 0.764490 0.490017 0.899095
O O5 0.812226 0.965245 0.881697
O O6 0.714496 0.439577 0.190719
O O7 0.805040 0.457513 0.296964
O O8 0.548775 0.819968 0.349638
O O9 0.393240 0.298067 0.904268
O O10 0.507033 0.736458 0.738391
O O11 0.651600 0.258379 0.653228
O O12 0.500000 0.000000 0.000000
O O13 0.798339 0.870859 0.512469
O O14 0.622157 0.717430 0.519159
O O15 0.094146 0.690272 0.601591
O O16 0.000000 0.000000 0.500000
#
# Coordination Sequence:
#
# PCOD9109328 Si02
#       8
#     1   2   2   2   2   2   2   2
#     4  10  20  44  68 102 142 184 224 298 346 428
#     4  11  26  45  70 106 139 183 238 290 358 416
#     4  10  20  41  64  96 135 169 225 278 349 413
#     4  10  23  41  66  95 130 174 226 276 344 413
#     4  12  27  46  71 102 142 188 237 292 352 426
#     4  10  22  40  66  93 131 177 222 280 344 415
#     4  10  24  40  64 100 127 177 223 285 340 411
#     4  10  24  41  64  91 131 174 224 281 334 404
#
# _framework density 24.464537
#
# number of rings (size 3 to 8) (size 9 to 14) (size 15 to 20)
#    0.000    1.600    1.333    1.600    5.600    9.600 
#    7.200    0.000    0.000    0.000    0.000    0.000 
#    0.000    0.000    0.000    0.000    0.000    0.000 
#
# Total GULP energy -83629.462938 kJ/mol
# GULP energy per Si atom -5575.297529 kJ/mol
# Density = 2.440885 g / cm^3
# Si number density = 24.464537 Si / 1000 Ang^3
#
#
#
# Elastic Constant Matrix: (Units=GPa)
#
#
# Indices 1 2 3 4 5 6 
#
# 1 128.8836 52.6946 25.0713 -21.3771 -13.2179 -19.9594
# 2 52.6946 107.4082 21.6253 -24.2918 -1.7618 -11.0613
# 3 25.0713 21.6253 92.4539 -25.3093 -2.3146 0.9411
# 4 -21.3771 -24.2918 -25.3093 43.7055 -6.5574 -3.5583
# 5 -13.2179 -1.7618 -2.3146 -6.5574 27.8891 -4.4230
# 6 -19.9594 -11.0613 0.9411 -3.5583 -4.4230 42.3657
#
#
#
# Elastic Compliance Matrix: (Units=1/GPa)
#
#
# Indices 1 2 3 4 5 6 
#
# 1 0.011976 -0.003899 -0.000911 0.004746 0.007392 0.005815
# 2 -0.003899 0.012681 -0.000536 0.005051 0.000406 0.001953
# 3 -0.000911 -0.000536 0.013238 0.007274 0.002342 -0.000008
# 4 0.004746 0.005051 0.007274 0.034724 0.012545 0.007619
# 5 0.007392 0.000406 0.002342 0.012545 0.043986 0.009182
# 6 0.005815 0.001953 -0.000008 0.007619 0.009182 0.028452
#
#
# Mechanical properties :
#
#
# Convention : Reuss Voigt Hill
#
# Bulk Modulus (GPa) = 36.75825 58.61425 47.68625
# Shear Modulus (GPa) = 30.33710 38.08236 34.20973
#
# Velocity S-wave (km/s) = 3.52525 3.94970 3.74349
# Velocity P-wave (km/s) = 5.62384 6.69411 6.18218
#
# Compressibility (1/GPa) = 0.02720478
#
# Stress axis : x y z
#
# Youngs Moduli (GPa) = 83.50183 78.85872 75.53783
#
# Poissons Ratio (x) = 0.30744 0.06878
# Poissons Ratio (y) = 0.32554 0.04049
# Poissons Ratio (z) = 0.07604 0.04227
#
# Static dielectric constant tensor:
#      x y z
#    x 2.032510 0.168700 0.106570 
#    y 0.168700 2.205980 0.319910 
#    z 0.106570 0.319910 2.237980 
# 
# From -- ./inp_files/564058.got.cif
#   From: 2010.05.17/outbox.cif.g08.bks.cpg/sg2_283_cif.got.tgz:564058.got - 2010.06.03 11:33:40.
