data_PCOD9109482
_publ_section_title
;
Structure prediction by ZEFSAII (Michael W. Deem and Ramdas Pophale) SiO2 
 PCOD9109482
Probable space group: P -1
;
_chemical_formula_sum "Si O2"
_cell_formula_units_Z 16
_cell_length_a 7.460037
_cell_length_b 7.836669
_cell_length_c 16.159687
_cell_angle_alpha 63.309016
_cell_angle_beta 75.889954
_cell_angle_gamma 118.630313
_cell_volume 600.683753
_symmetry_space_group_name_H-M "P -1"
_symmetry_group_IT_number 2
_symmetry_cell_setting 'triclinic'
loop_
_space_group_symop_operation_xyz
x,y,z
-x,-y,-z
loop_
_atom_site_type_symbol
_atom_site_label
_atom_site_fract_x
_atom_site_fract_y
_atom_site_fract_z
Si Si1 0.664106 0.593364 0.879978
Si Si2 0.946408 0.741827 0.574030
Si Si3 0.592251 0.716366 0.341501
Si Si4 0.957472 0.191876 0.709451
Si Si5 0.598485 0.053010 0.625448
Si Si6 0.733918 0.455962 0.138963
Si Si7 0.260163 0.907177 0.905588
Si Si8 0.209642 0.631420 0.182668
O O1 0.451145 0.493283 0.858431
O O2 0.795203 0.480194 0.880499
O O3 0.847246 0.901114 0.789280
O O4 0.500000 0.500000 0.000000
O O5 0.692564 0.529155 0.597639
O O6 0.880517 0.610828 0.698702
O O7 0.000000 0.000000 0.500000
O O8 0.199005 0.817233 0.497483
O O9 0.249780 0.351146 0.629142
O O10 0.562484 0.868849 0.375149
O O11 0.723147 0.909923 0.203925
O O12 0.928264 0.286326 0.777801
O O13 0.786557 0.169928 0.661213
O O14 0.388755 0.739723 0.726221
O O15 0.708343 0.267731 0.113087
O O16 0.011068 0.728735 0.028688
O O17 0.502798 0.108263 0.890904
#
# Coordination Sequence:
#
# PCOD9109482 Si02
#       8
#     2   2   2   2   2   2   2   2
#     4  11  23  40  64  96 136 175 221 283 336 399
#     4  11  22  42  68  98 134 173 227 282 329 395
#     4  10  21  38  67  95 129 182 220 265 340 396
#     4  11  22  44  65  97 137 176 222 273 335 399
#     4  10  20  41  65  94 136 176 222 277 326 390
#     4   9  17  35  64  93 129 176 213 269 334 392
#     4   9  17  37  65  93 131 171 224 268 329 406
#     4  11  23  43  67  93 136 180 221 278 340 398
#
# _framework density 26.636312
#
# number of rings (size 3 to 8) (size 9 to 14) (size 15 to 20)
#    0.000    1.750    5.000    2.625    0.000    1.500 
#    2.250    1.875    5.500    0.000    0.000    0.000 
#    0.000    0.000    0.000    0.000    0.000    0.000 
#
# Total GULP energy -89500.261813 kJ/mol
# GULP energy per Si atom -5593.766363 kJ/mol
# Density = 2.657569 g / cm^3
# Si number density = 26.636312 Si / 1000 Ang^3
#
#
#
# Elastic Constant Matrix: (Units=GPa)
#
#
# Indices 1 2 3 4 5 6 
#
# 1 104.7189 39.2300 36.7638 -1.6243 -20.2738 -27.1269
# 2 39.2300 101.0729 24.4550 -3.2197 -7.2868 -23.2791
# 3 36.7638 24.4550 158.1281 -11.3217 -27.3149 1.0360
# 4 -1.6243 -3.2197 -11.3217 44.3081 -2.8407 -6.1327
# 5 -20.2738 -7.2868 -27.3149 -2.8407 38.2366 8.0271
# 6 -27.1269 -23.2791 1.0360 -6.1327 8.0271 33.2142
#
#
#
# Elastic Compliance Matrix: (Units=1/GPa)
#
#
# Indices 1 2 3 4 5 6 
#
# 1 0.014510 -0.002588 -0.002310 0.001298 0.003660 0.009464
# 2 -0.002588 0.012993 -0.001629 0.001395 -0.001569 0.007680
# 3 -0.002310 -0.001629 0.008178 0.001637 0.005324 -0.004268
# 4 0.001298 0.001395 0.001637 0.024111 0.002700 0.005786
# 5 0.003660 -0.001569 0.005324 0.002700 0.033007 -0.005755
# 6 0.009464 0.007680 -0.004268 0.005786 -0.005755 0.045813
#
#
# Mechanical properties :
#
#
# Convention : Reuss Voigt Hill
#
# Bulk Modulus (GPa) = 44.19582 62.75749 53.47665
# Shear Modulus (GPa) = 31.40554 40.71651 36.06103
#
# Velocity S-wave (km/s) = 3.43745 3.91398 3.68343
# Velocity P-wave (km/s) = 5.69062 6.63609 6.18146
#
# Compressibility (1/GPa) = 0.02262657
#
# Stress axis : x y z
#
# Youngs Moduli (GPa) = 68.91662 76.96585 122.28038
#
# Poissons Ratio (x) = 0.19919 0.28249
# Poissons Ratio (y) = 0.17835 0.19920
# Poissons Ratio (z) = 0.15921 0.12538
#
# Static dielectric constant tensor:
#      x y z
#    x 2.717730 -0.328780 0.324090 
#    y -0.328780 2.735110 -0.222040 
#    z 0.324090 -0.222040 2.213030 
# 
# From -- ./inp_files/609564.got.cif
#   From: 2010.05.17/outbox.cif.g08.bks.cpg/sg2_305_cif.got.tgz:609564.got - 2010.06.03 11:33:40.
