data_PCOD9109048
_publ_section_title
;
Structure prediction by ZEFSAII (Michael W. Deem and Ramdas Pophale) SiO2 
 PCOD9109048
Probable space group: P -1
;
_chemical_formula_sum "Si O2"
_cell_formula_units_Z 16
_cell_length_a 10.918227
_cell_length_b 8.710812
_cell_length_c 14.727980
_cell_angle_alpha 133.708501
_cell_angle_beta 72.447806
_cell_angle_gamma 138.233079
_cell_volume 604.313393
_symmetry_space_group_name_H-M "P -1"
_symmetry_group_IT_number 2
_symmetry_cell_setting 'triclinic'
loop_
_space_group_symop_operation_xyz
x,y,z
-x,-y,-z
loop_
_atom_site_type_symbol
_atom_site_label
_atom_site_fract_x
_atom_site_fract_y
_atom_site_fract_z
Si Si1 0.408843 0.847556 0.649303
Si Si2 0.947067 0.258858 0.078561
Si Si3 0.019536 0.825119 0.303541
Si Si4 0.664367 0.267633 0.942047
Si Si5 0.536029 0.706050 0.865548
Si Si6 0.226413 0.578749 0.322034
Si Si7 0.073349 0.831424 0.501898
Si Si8 0.633614 0.577910 0.635480
O O1 0.164402 0.553615 0.587365
O O2 0.443352 0.648339 0.527472
O O3 0.502790 0.029037 0.798927
O O4 0.554056 0.149766 0.667243
O O5 0.897729 0.448627 0.171517
O O6 0.113973 0.440394 0.035899
O O7 0.054278 0.338923 0.183213
O O8 0.735472 0.873247 0.942904
O O9 0.100137 0.929724 0.430684
O O10 0.922540 0.931992 0.353453
O O11 0.207975 0.045235 0.282730
O O12 0.618346 0.015541 0.917515
O O13 0.619112 0.418037 0.073461
O O14 0.478916 0.477111 0.701611
O O15 0.234290 0.417998 0.333307
O O16 0.196912 0.770140 0.454953
#
# Coordination Sequence:
#
# PCOD9109048 Si02
#       8
#     2   2   2   2   2   2   2   2
#     4  10  22  42  65  89 129 166 209 258 310 371
#     4  10  20  41  62  86 128 165 207 257 309 373
#     4   9  18  35  60  92 122 154 204 262 302 357
#     4  10  21  39  63  90 118 170 204 251 323 362
#     4  11  23  40  62  93 128 158 212 264 308 370
#     4  10  22  41  65  90 127 176 204 249 326 370
#     4   9  19  39  61  91 125 162 208 254 308 376
#     4  11  23  40  63  98 132 159 210 266 307 375
#
# _framework density 26.476329
#
# number of rings (size 3 to 8) (size 9 to 14) (size 15 to 20)
#    0.000    2.000    1.250    2.250    0.000    3.000 
#   11.250    3.750    0.000    0.000    0.000    0.000 
#    0.000    0.000    0.000    0.000    0.000    0.000 
#
# Total GULP energy -89499.927918 kJ/mol
# GULP energy per Si atom -5593.745495 kJ/mol
# Density = 2.641607 g / cm^3
# Si number density = 26.476329 Si / 1000 Ang^3
#
#
#
# Elastic Constant Matrix: (Units=GPa)
#
#
# Indices 1 2 3 4 5 6 
#
# 1 89.5975 51.0854 25.2146 -15.5345 -0.3411 12.1845
# 2 51.0854 99.9196 26.8408 -30.0247 6.2247 15.5205
# 3 25.2146 26.8408 148.6010 -38.8906 -5.8596 16.3298
# 4 -15.5345 -30.0247 -38.8906 38.1785 9.6854 -16.6591
# 5 -0.3411 6.2247 -5.8596 9.6854 37.1621 -11.4656
# 6 12.1845 15.5205 16.3298 -16.6591 -11.4656 35.6117
#
#
#
# Elastic Compliance Matrix: (Units=1/GPa)
#
#
# Indices 1 2 3 4 5 6 
#
# 1 0.016283 -0.008592 -0.001766 -0.003199 0.001520 -0.002024
# 2 -0.008592 0.018929 0.001646 0.014119 -0.007220 -0.001784
# 3 -0.001766 0.001646 0.009442 0.010594 -0.001561 0.000011
# 4 -0.003199 0.014119 0.010594 0.054956 -0.011297 0.012154
# 5 0.001520 -0.007220 -0.001561 -0.011297 0.033566 0.008865
# 6 -0.002024 -0.001784 0.000011 0.012154 0.008865 0.038086
#
#
# Mechanical properties :
#
#
# Convention : Reuss Voigt Hill
#
# Bulk Modulus (GPa) = 36.72667 60.48884 48.60776
# Shear Modulus (GPa) = 25.28288 37.85562 31.56925
#
# Velocity S-wave (km/s) = 3.09354 3.78536 3.45680
# Velocity P-wave (km/s) = 5.16349 6.48084 5.85930
#
# Compressibility (1/GPa) = 0.02722817
#
# Stress axis : x y z
#
# Youngs Moduli (GPa) = 61.41215 52.83019 105.91306
#
# Poissons Ratio (x) = 0.45394 0.18703
# Poissons Ratio (y) = 0.52768 -0.17428
# Poissons Ratio (z) = 0.10845 -0.08693
#
# Static dielectric constant tensor:
#      x y z
#    x 2.098760 0.037910 -0.008310 
#    y 0.037910 2.024130 0.044240 
#    z -0.008310 0.044240 2.136770 
# 
# From -- ./inp_files/516251.got.cif
#   From: 2010.05.17/outbox.cif.g08.bks.cpg/sg2_259_cif.got.tgz:516251.got - 2010.06.03 11:33:40.
