data_PCOD9109976
_publ_section_title
;
Structure prediction by ZEFSAII (Michael W. Deem and Ramdas Pophale) SiO2 
 PCOD9109976
Probable space group: P -1
;
_chemical_formula_sum "Si O2"
_cell_formula_units_Z 15
_cell_length_a 16.466371
_cell_length_b 6.806479
_cell_length_c 11.384802
_cell_angle_alpha 96.179759
_cell_angle_beta 132.526076
_cell_angle_gamma 50.860846
_cell_volume 605.214479
_symmetry_space_group_name_H-M "P -1"
_symmetry_group_IT_number 2
_symmetry_cell_setting 'triclinic'
loop_
_space_group_symop_operation_xyz
x,y,z
-x,-y,-z
loop_
_atom_site_type_symbol
_atom_site_label
_atom_site_fract_x
_atom_site_fract_y
_atom_site_fract_z
Si Si1 0.897981 0.304866 0.661500
Si Si2 0.065755 0.790407 0.936613
Si Si3 0.332732 0.020922 0.934003
Si Si4 0.636569 0.960231 0.573041
Si Si5 0.315610 0.327289 0.739410
Si Si6 0.456124 0.333893 0.199976
Si Si7 0.173549 0.212394 0.028343
Si Si8 0.500000 0.500000 0.000000
O O1 0.760322 0.628624 0.614353
O O2 0.836021 0.404058 0.473983
O O3 0.066652 0.186235 0.862678
O O4 0.931559 0.037882 0.721279
O O5 0.064041 0.562333 0.954320
O O6 0.259252 0.570116 0.065324
O O7 0.000000 0.000000 0.000000
O O8 0.541819 0.698608 0.095132
O O9 0.294628 0.868409 0.825293
O O10 0.264683 0.293960 0.808731
O O11 0.303813 0.085423 0.044323
O O12 0.500000 0.000000 0.500000
O O13 0.557960 0.211003 0.414455
O O14 0.728239 0.953766 0.766328
O O15 0.443040 0.993736 0.780896
O O16 0.474183 0.471842 0.125846
#
# Coordination Sequence:
#
# PCOD9109976 Si02
#       8
#     2   2   2   2   2   2   2   1
#     4  11  24  41  62  97 136 172 228 276 340 418
#     4  12  23  40  66 100 140 180 219 280 346 407
#     4  10  20  41  70  91 127 177 225 277 337 394
#     4  11  20  41  70  93 132 182 226 276 339 405
#     4   9  20  42  68  88 125 180 226 274 331 397
#     4  10  20  41  68  96 134 174 227 279 335 402
#     4  12  23  41  68  97 138 182 216 282 356 399
#     4  10  22  40  68 104 128 166 232 292 324 398
#
# _framework density 24.784604000000002
#
# number of rings (size 3 to 8) (size 9 to 14) (size 15 to 20)
#    0.000    1.333    4.000    2.000    0.000    0.533 
#    7.200    4.667    0.000    0.000    0.000    0.000 
#    0.000    0.000    0.000    0.000    0.000    0.000 
#
# Total GULP energy -83571.492802 kJ/mol
# GULP energy per Si atom -5571.432853 kJ/mol
# Density = 2.472819 g / cm^3
# Si number density = 24.784604 Si / 1000 Ang^3
#
#
#
# Elastic Constant Matrix: (Units=GPa)
#
#
# Indices 1 2 3 4 5 6 
#
# 1 94.0903 18.9114 58.4640 5.0543 -30.0265 -9.1401
# 2 18.9114 105.8673 29.7373 0.4016 -14.4213 -1.8028
# 3 58.4640 29.7373 190.0620 15.3477 -49.0140 -0.8445
# 4 5.0543 0.4016 15.3477 34.6200 -6.5063 -5.9101
# 5 -30.0265 -14.4213 -49.0140 -6.5063 41.5927 2.4606
# 6 -9.1401 -1.8028 -0.8445 -5.9101 2.4606 41.2723
#
#
#
# Elastic Compliance Matrix: (Units=1/GPa)
#
#
# Indices 1 2 3 4 5 6 
#
# 1 0.015047 -0.000892 -0.002635 0.000874 0.007412 0.002923
# 2 -0.000892 0.010116 -0.000869 0.000803 0.001952 0.000225
# 3 -0.002635 -0.000869 0.008242 -0.002099 0.007251 -0.001186
# 4 0.000874 0.000803 -0.002099 0.031006 0.003023 0.004445
# 5 0.007412 0.001952 0.007251 0.003023 0.039089 -0.000022
# 6 0.002923 0.000225 -0.001186 0.004445 -0.000022 0.025500
#
#
# Mechanical properties :
#
#
# Convention : Reuss Voigt Hill
#
# Bulk Modulus (GPa) = 40.62795 67.13832 53.88314
# Shear Modulus (GPa) = 34.24758 42.35747 38.30252
#
# Velocity S-wave (km/s) = 3.72130 4.13852 3.93544
# Velocity P-wave (km/s) = 5.90695 7.06993 6.51445
#
# Compressibility (1/GPa) = 0.02461360
#
# Stress axis : x y z
#
# Youngs Moduli (GPa) = 66.45844 98.85492 121.32862
#
# Poissons Ratio (x) = 0.08814 0.31972
# Poissons Ratio (y) = 0.05925 0.10543
# Poissons Ratio (z) = 0.17513 0.08590
#
# Static dielectric constant tensor:
#      x y z
#    x 2.211120 0.051550 0.049900 
#    y 0.051550 2.080260 0.007910 
#    z 0.049900 0.007910 1.949410 
# 
# From -- ./inp_files/461247.got.cif
#   From: 2010.05.17/outbox.cif.g08.bks.cpg/sg2_231_cif.got.tgz:461247.got - 2010.06.03 11:33:40.
