data_PCOD9109641
_publ_section_title
;
Structure prediction by ZEFSAII (Michael W. Deem and Ramdas Pophale) SiO2 
 PCOD9109641
Probable space group: P -1
;
_chemical_formula_sum "Si O2"
_cell_formula_units_Z 16
_cell_length_a 11.072376
_cell_length_b 7.902256
_cell_length_c 19.755928
_cell_angle_alpha 128.820699
_cell_angle_beta 149.168274
_cell_angle_gamma 45.671656
_cell_volume 632.042476
_symmetry_space_group_name_H-M "P -1"
_symmetry_group_IT_number 2
_symmetry_cell_setting 'triclinic'
loop_
_space_group_symop_operation_xyz
x,y,z
-x,-y,-z
loop_
_atom_site_type_symbol
_atom_site_label
_atom_site_fract_x
_atom_site_fract_y
_atom_site_fract_z
Si Si1 0.323143 0.879025 0.916835
Si Si2 0.725358 0.889796 0.835746
Si Si3 0.917350 0.182880 0.903776
Si Si4 0.007313 0.527934 0.390263
Si Si5 0.083069 0.948295 0.680127
Si Si6 0.348464 0.425313 0.642532
Si Si7 0.340380 0.304156 0.851028
Si Si8 0.649974 0.266681 0.469562
O O1 0.125293 0.068773 0.918380
O O2 0.151534 0.855621 0.766445
O O3 0.500000 0.000000 0.000000
O O4 0.511761 0.665875 0.002761
O O5 0.547140 0.783720 0.686312
O O6 0.864545 0.978836 0.867520
O O7 0.548631 0.119849 0.853172
O O8 0.946344 0.716430 0.948845
O O9 0.646532 0.337609 0.779309
O O10 0.248855 0.348920 0.506311
O O11 0.129053 0.703543 0.462059
O O12 0.791351 0.620687 0.369056
O O13 0.867784 0.494494 0.245861
O O14 0.242033 0.709516 0.656634
O O15 0.189328 0.150103 0.769476
O O16 0.794598 0.062594 0.542502
O O17 0.500000 0.500000 0.500000
#
# Coordination Sequence:
#
# PCOD9109641 Si02
#       8
#     2   2   2   2   2   2   2   2
#     4   9  20  40  63  89 131 172 209 264 326 388
#     4  10  20  41  66  94 126 172 220 268 319 381
#     4  10  22  39  69  98 130 165 222 275 322 382
#     4  10  22  39  63  90 132 165 217 266 317 392
#     4  10  22  39  63  93 127 171 214 269 330 376
#     4  11  22  39  64 102 125 165 220 279 323 376
#     4   9  17  40  63  87 122 174 212 261 319 381
#     4  11  25  43  64  94 133 179 218 261 328 400
#
# _framework density 25.314753
#
# number of rings (size 3 to 8) (size 9 to 14) (size 15 to 20)
#    0.000    2.000    1.250    1.500    3.500    3.000 
#    9.000    5.625    0.000    0.000    0.000    0.000 
#    0.000    0.000    0.000    0.000    0.000    0.000 
#
# Total GULP energy -89366.769510 kJ/mol
# GULP energy per Si atom -5585.423094 kJ/mol
# Density = 2.525714 g / cm^3
# Si number density = 25.314753 Si / 1000 Ang^3
#
#
#
# Elastic Constant Matrix: (Units=GPa)
#
#
# Indices 1 2 3 4 5 6 
#
# 1 95.4313 22.0901 52.5443 -14.1247 -26.2165 16.7902
# 2 22.0901 51.0696 45.4391 -29.4621 -18.7022 5.2334
# 3 52.5443 45.4391 291.4140 -26.9438 -43.3656 6.4992
# 4 -14.1247 -29.4621 -26.9438 51.6916 10.1661 -6.3637
# 5 -26.2165 -18.7022 -43.3656 10.1661 53.2554 -9.1713
# 6 16.7902 5.2334 6.4992 -6.3637 -9.1713 35.5866
#
#
#
# Elastic Compliance Matrix: (Units=1/GPa)
#
#
# Indices 1 2 3 4 5 6 
#
# 1 0.013800 -0.002780 -0.001362 0.000123 0.003851 -0.004839
# 2 -0.002780 0.034644 -0.002528 0.016678 0.005752 0.001143
# 3 -0.001362 -0.002528 0.004383 0.000152 0.002117 0.000787
# 4 0.000123 0.016678 0.000152 0.029130 0.000984 0.002924
# 5 0.003851 0.005752 0.002117 0.000984 0.024837 0.003527
# 6 -0.004839 0.001143 0.000787 0.002924 0.003527 0.031504
#
#
# Mechanical properties :
#
#
# Convention : Reuss Voigt Hill
#
# Bulk Modulus (GPa) = 25.32546 75.34022 50.33284
# Shear Modulus (GPa) = 30.33989 49.29614 39.81802
#
# Velocity S-wave (km/s) = 3.46570 4.41764 3.97030
# Velocity P-wave (km/s) = 5.10301 7.47307 6.39873
#
# Compressibility (1/GPa) = 0.03948596
#
# Stress axis : x y z
#
# Youngs Moduli (GPa) = 72.46472 28.86536 228.15798
#
# Poissons Ratio (x) = 0.08023 0.31085
# Poissons Ratio (y) = 0.20142 0.57682
# Poissons Ratio (z) = 0.09873 0.07298
#
# Static dielectric constant tensor:
#      x y z
#    x 1.971210 0.057370 -0.036000 
#    y 0.057370 2.053980 0.034090 
#    z -0.036000 0.034090 2.155400 
# 
# From -- ./inp_files/594168.got.cif
#   From: 2010.05.17/outbox.cif.g08.bks.cpg/sg2_298_cif.got.tgz:594168.got - 2010.06.03 11:33:40.
