data_PCOD9109856
_publ_section_title
;
Structure prediction by ZEFSAII (Michael W. Deem and Ramdas Pophale) SiO2 
 PCOD9109856
Probable space group: P -1
;
_chemical_formula_sum "Si O2"
_cell_formula_units_Z 12
_cell_length_a 15.423431
_cell_length_b 7.870525
_cell_length_c 10.408626
_cell_angle_alpha 45.847153
_cell_angle_beta 140.133498
_cell_angle_gamma 108.756690
_cell_volume 514.953942
_symmetry_space_group_name_H-M "P -1"
_symmetry_group_IT_number 2
_symmetry_cell_setting 'triclinic'
loop_
_space_group_symop_operation_xyz
x,y,z
-x,-y,-z
loop_
_atom_site_type_symbol
_atom_site_label
_atom_site_fract_x
_atom_site_fract_y
_atom_site_fract_z
Si Si1 0.363172 0.431012 0.357463
Si Si2 0.335336 0.255347 0.155663
Si Si3 0.155925 0.442398 0.334022
Si Si4 0.322561 0.517199 0.732305
Si Si5 0.121459 0.093537 0.137611
Si Si6 0.405602 0.944059 0.808750
O O1 0.500000 0.500000 0.500000
O O2 0.314952 0.465367 0.136520
O O3 0.232898 0.551671 0.255652
O O4 0.421373 0.117450 0.618424
O O5 0.500000 0.000000 0.500000
O O6 0.312856 0.385040 0.923004
O O7 0.222665 0.465928 0.536061
O O8 0.230378 0.124140 0.558908
O O9 0.976087 0.636244 0.034869
O O10 0.249922 0.836601 0.491778
O O11 0.494072 0.365788 0.947936
O O12 0.207769 0.160070 0.088237
O O13 0.000000 0.000000 0.000000
O O14 0.500000 0.000000 0.000000
#
# Coordination Sequence:
#
# PCOD9109856 Si02
#       6
#     2   2   2   2   2   2
#     4  10  22  40  64  91 132 171 215 273 326 386
#     4  12  25  40  66 106 133 168 229 280 321 398
#     4   8  19  40  66  87 129 177 214 260 336 391
#     4  10  20  41  67  98 130 172 223 274 328 395
#     4  10  24  42  67  96 138 174 214 277 341 389
#     4   8  16  35  63  88 115 170 217 255 315 393
#
# _framework density 23.303053999999999
#
# number of rings (size 3 to 8) (size 9 to 14) (size 15 to 20)
#    1.000    1.333    1.667    0.000    4.667    4.000 
#    3.000    2.500    0.000    0.000    0.000    0.000 
#    0.000    0.000    0.000    0.000    0.000    0.000 
#
# Total GULP energy -66946.940016 kJ/mol
# GULP energy per Si atom -5578.911668 kJ/mol
# Density = 2.325001 g / cm^3
# Si number density = 23.303054 Si / 1000 Ang^3
#
#
#
# Elastic Constant Matrix: (Units=GPa)
#
#
# Indices 1 2 3 4 5 6 
#
# 1 169.3421 48.1536 60.4170 -2.2815 -3.6459 -18.4515
# 2 48.1536 111.2032 45.3849 -13.7390 6.9788 -11.6358
# 3 60.4170 45.3849 145.9006 -33.8205 5.4368 -10.1160
# 4 -2.2815 -13.7390 -33.8205 62.6426 -7.1708 8.4885
# 5 -3.6459 6.9788 5.4368 -7.1708 43.2734 13.8126
# 6 -18.4515 -11.6358 -10.1160 8.4885 13.8126 42.3820
#
#
#
# Elastic Compliance Matrix: (Units=1/GPa)
#
#
# Indices 1 2 3 4 5 6 
#
# 1 0.007799 -0.002228 -0.002851 -0.002043 0.000261 0.002427
# 2 -0.002228 0.011320 -0.002208 0.000636 -0.002348 0.002249
# 3 -0.002851 -0.002208 0.009799 0.004731 -0.000207 -0.000389
# 4 -0.002043 0.000636 0.004731 0.019684 0.003927 -0.004808
# 5 0.000261 -0.002348 -0.000207 0.003927 0.027482 -0.010323
# 6 0.002427 0.002249 -0.000389 -0.004808 -0.010323 0.029504
#
#
# Mechanical properties :
#
#
# Convention : Reuss Voigt Hill
#
# Bulk Modulus (GPa) = 69.72058 81.59521 75.65790
# Shear Modulus (GPa) = 40.01864 47.82563 43.92213
#
# Velocity S-wave (km/s) = 4.14854 4.53518 4.34616
# Velocity P-wave (km/s) = 7.27539 7.90662 7.59756
#
# Compressibility (1/GPa) = 0.01434297
#
# Stress axis : x y z
#
# Youngs Moduli (GPa) = 128.22778 88.34208 102.05175
#
# Poissons Ratio (x) = 0.19684 0.29098
# Poissons Ratio (y) = 0.28571 0.22529
# Poissons Ratio (z) = 0.36562 0.19503
#
# Static dielectric constant tensor:
#      x y z
#    x 1.871040 -0.108220 -0.056790 
#    y -0.108220 2.045950 0.054280 
#    z -0.056790 0.054280 2.026180 
# 
# From -- ./inp_files/460449.got.cif
#   From: 2010.05.17/outbox.cif.g08.bks.cpg/sg2_231_cif.got.tgz:460449.got - 2010.06.03 11:33:40.
