data_PCOD9109992
_publ_section_title
;
Structure prediction by ZEFSAII (Michael W. Deem and Ramdas Pophale) SiO2 
 PCOD9109992
Probable space group: P -1
;
_chemical_formula_sum "Si O2"
_cell_formula_units_Z 16
_cell_length_a 16.217371
_cell_length_b 7.970520
_cell_length_c 19.166733
_cell_angle_alpha 34.407871
_cell_angle_beta 149.290804
_cell_angle_gamma 136.164507
_cell_volume 714.331579
_symmetry_space_group_name_H-M "P -1"
_symmetry_group_IT_number 2
_symmetry_cell_setting 'triclinic'
loop_
_space_group_symop_operation_xyz
x,y,z
-x,-y,-z
loop_
_atom_site_type_symbol
_atom_site_label
_atom_site_fract_x
_atom_site_fract_y
_atom_site_fract_z
Si Si1 0.363359 0.616752 0.311121
Si Si2 0.175124 0.644633 0.729986
Si Si3 0.433960 0.663464 0.555727
Si Si4 0.130266 0.263375 0.702250
Si Si5 0.789253 0.779426 0.976094
Si Si6 0.840817 0.020725 0.793121
Si Si7 0.795425 0.742890 0.396297
Si Si8 0.070363 0.247905 0.187761
O O1 0.500000 0.500000 0.500000
O O2 0.431486 0.534541 0.312504
O O3 0.198020 0.422757 0.268958
O O4 0.325929 0.959092 0.174966
O O5 0.228551 0.454370 0.767286
O O6 0.977081 0.636774 0.583246
O O7 0.228258 0.988353 0.658892
O O8 0.232372 0.494889 0.894292
O O9 0.348211 0.500553 0.613927
O O10 0.500000 0.000000 0.500000
O O11 0.279974 0.713959 0.375325
O O12 0.205592 0.167304 0.716684
O O13 0.000000 0.500000 0.500000
O O14 0.049612 0.975302 0.781175
O O15 0.783310 0.760559 0.894183
O O16 0.973907 0.893583 0.086267
O O17 0.837307 0.945686 0.735065
O O18 0.000000 0.500000 0.000000
#
# Coordination Sequence:
#
# PCOD9109992 Si02
#       8
#     2   2   2   2   2   2   2   2
#     4  12  26  40  64 105 146 183 228 289 364 426
#     4  10  20  41  68  97 138 175 237 299 339 415
#     4  12  24  44  67  96 144 177 228 287 350 428
#     4  10  21  39  64  99 138 174 231 296 349 406
#     4  11  22  40  65 100 138 176 234 296 346 407
#     4  11  21  38  66  95 131 173 230 283 340 404
#     4  10  23  40  67 103 131 187 234 286 361 412
#     4  12  23  41  69 104 136 180 239 296 345 417
#
# _framework density 22.39856
#
# number of rings (size 3 to 8) (size 9 to 14) (size 15 to 20)
#    0.000    1.000    6.250    0.750    1.750    3.000 
#    0.000    0.625    0.000    6.750    0.000    0.000 
#    0.000    0.000    0.000    0.000    0.000    0.000 
#
# Total GULP energy -89262.614974 kJ/mol
# GULP energy per Si atom -5578.913436 kJ/mol
# Density = 2.234758 g / cm^3
# Si number density = 22.398560 Si / 1000 Ang^3
#
#
#
# Elastic Constant Matrix: (Units=GPa)
#
#
# Indices 1 2 3 4 5 6 
#
# 1 105.6759 43.2780 24.5009 -11.5594 -18.1590 2.3613
# 2 43.2780 92.1807 20.6165 -13.3729 -5.6970 1.9257
# 3 24.5009 20.6165 83.4189 -15.5091 -5.3459 10.4561
# 4 -11.5594 -13.3729 -15.5091 27.4317 0.6696 -3.2527
# 5 -18.1590 -5.6970 -5.3459 0.6696 42.6437 -1.6551
# 6 2.3613 1.9257 10.4561 -3.2527 -1.6551 23.7857
#
#
#
# Elastic Compliance Matrix: (Units=1/GPa)
#
#
# Indices 1 2 3 4 5 6 
#
# 1 0.012997 -0.005122 -0.001992 0.001809 0.004594 0.000567
# 2 -0.005122 0.014092 -0.001319 0.004033 -0.000509 0.000464
# 3 -0.001992 -0.001319 0.014752 0.006217 0.000522 -0.005294
# 4 0.001809 0.004033 0.006217 0.042986 0.001520 0.002745
# 5 0.004594 -0.000509 0.000522 0.001520 0.025432 0.001333
# 6 0.000567 0.000464 -0.005294 0.002745 0.001333 0.044743
#
#
# Mechanical properties :
#
#
# Convention : Reuss Voigt Hill
#
# Bulk Modulus (GPa) = 40.04118 50.89625 45.46872
# Shear Modulus (GPa) = 27.74809 31.63089 29.68949
#
# Velocity S-wave (km/s) = 3.52353 3.76198 3.64470
# Velocity P-wave (km/s) = 5.87104 6.45309 6.16893
#
# Compressibility (1/GPa) = 0.02497429
#
# Stress axis : x y z
#
# Youngs Moduli (GPa) = 76.94103 70.96234 67.78913
#
# Poissons Ratio (x) = 0.36347 0.13502
# Poissons Ratio (y) = 0.39409 0.08944
# Poissons Ratio (z) = 0.15325 0.09362
#
# Static dielectric constant tensor:
#      x y z
#    x 2.024870 -0.077940 0.006870 
#    y -0.077940 1.865390 -0.003360 
#    z 0.006870 -0.003360 1.889710 
# 
# From -- ./inp_files/599675.got.cif
#   From: 2010.05.17/outbox.cif.g08.bks.cpg/sg2_300_cif.got.tgz:599675.got - 2010.06.03 11:33:40.
