data_PCOD9109329
_publ_section_title
;
Structure prediction by ZEFSAII (Michael W. Deem and Ramdas Pophale) SiO2 
 PCOD9109329
Probable space group: P -1
;
_chemical_formula_sum "Si O2"
_cell_formula_units_Z 16
_cell_length_a 7.308129
_cell_length_b 13.892818
_cell_length_c 7.977561
_cell_angle_alpha 70.450585
_cell_angle_beta 124.623762
_cell_angle_gamma 94.069834
_cell_volume 620.639778
_symmetry_space_group_name_H-M "P -1"
_symmetry_group_IT_number 2
_symmetry_cell_setting 'triclinic'
loop_
_space_group_symop_operation_xyz
x,y,z
-x,-y,-z
loop_
_atom_site_type_symbol
_atom_site_label
_atom_site_fract_x
_atom_site_fract_y
_atom_site_fract_z
Si Si1 0.526108 0.301310 0.885617
Si Si2 0.740740 0.446752 0.729042
Si Si3 0.916720 0.641037 0.605670
Si Si4 0.175985 0.084409 0.098045
Si Si5 0.917074 0.854444 0.616694
Si Si6 0.128935 0.734420 0.356283
Si Si7 0.381133 0.824188 0.682612
Si Si8 0.557047 0.084648 0.848025
O O1 0.677206 0.392131 0.897362
O O2 0.301240 0.339434 0.642752
O O3 0.605183 0.190049 0.901057
O O4 0.512661 0.271090 0.088697
O O5 0.500000 0.500000 0.500000
O O6 0.905974 0.530899 0.747573
O O7 0.826822 0.347867 0.718047
O O8 0.915451 0.730685 0.690291
O O9 0.093239 0.667759 0.543294
O O10 0.077237 0.098316 0.224910
O O11 0.435914 0.101590 0.255834
O O12 0.225706 0.970885 0.108598
O O13 0.067053 0.174276 0.859028
O O14 0.679035 0.892472 0.385166
O O15 0.134732 0.868681 0.607627
O O16 0.338632 0.788227 0.493670
O O17 0.500000 0.000000 0.000000
#
# Coordination Sequence:
#
# PCOD9109329 Si02
#       8
#     2   2   2   2   2   2   2   2
#     4  10  20  41  64  96 135 171 223 280 327 396
#     4  10  22  39  70  97 132 176 220 281 341 395
#     4   9  19  42  67  92 136 174 214 281 335 388
#     4  12  24  45  70  97 142 181 218 285 339 391
#     4  10  24  42  67 104 135 174 233 274 332 409
#     4  11  23  43  67 100 134 175 227 274 332 412
#     4  11  23  42  69  96 138 179 222 275 340 392
#     4  11  21  43  70  97 136 182 219 282 335 394
#
# _framework density 25.77985
#
# number of rings (size 3 to 8) (size 9 to 14) (size 15 to 20)
#    0.000    1.500    2.500    3.000    5.250    0.500 
#    2.250   10.625    0.000    0.000    0.000    0.000 
#    0.000    0.000    0.000    0.000    0.000    0.000 
#
# Total GULP energy -89528.029891 kJ/mol
# GULP energy per Si atom -5595.501868 kJ/mol
# Density = 2.572117 g / cm^3
# Si number density = 25.779850 Si / 1000 Ang^3
#
#
#
# Elastic Constant Matrix: (Units=GPa)
#
#
# Indices 1 2 3 4 5 6 
#
# 1 55.8953 6.7720 -1.7328 -5.7366 -10.0337 15.2339
# 2 6.7720 101.0491 23.2794 3.4742 -8.5416 24.2198
# 3 -1.7328 23.2794 105.5218 -1.6207 11.9712 15.3828
# 4 -5.7366 3.4742 -1.6207 39.0676 6.7613 -5.4065
# 5 -10.0337 -8.5416 11.9712 6.7613 41.1439 -9.7551
# 6 15.2339 24.2198 15.3828 -5.4065 -9.7551 36.0132
#
#
#
# Elastic Compliance Matrix: (Units=1/GPa)
#
#
# Indices 1 2 3 4 5 6 
#
# 1 0.020870 0.000608 0.001237 0.001397 0.002522 -0.008872
# 2 0.000608 0.012354 -0.001848 -0.002463 0.001842 -0.007648
# 3 0.001237 -0.001848 0.011216 0.000908 -0.004731 -0.005217
# 4 0.001397 -0.002463 0.000908 0.027267 -0.004044 0.003676
# 5 0.002522 0.001842 -0.004731 -0.004044 0.028994 0.006962
# 6 -0.008872 -0.007648 -0.005217 0.003676 0.006962 0.041330
#
#
# Mechanical properties :
#
#
# Convention : Reuss Voigt Hill
#
# Bulk Modulus (GPa) = 22.50454 35.45594 28.98024
# Shear Modulus (GPa) = 31.87812 38.85477 35.36645
#
# Velocity S-wave (km/s) = 3.52028 3.88645 3.70789
# Velocity P-wave (km/s) = 5.02709 5.82430 5.44032
#
# Compressibility (1/GPa) = 0.04443547
#
# Stress axis : x y z
#
# Youngs Moduli (GPa) = 47.91664 80.94248 89.15957
#
# Poissons Ratio (x) = -0.04922 -0.11031
# Poissons Ratio (y) = -0.02914 0.16473
# Poissons Ratio (z) = -0.05928 0.14955
#
# Static dielectric constant tensor:
#      x y z
#    x 2.179500 0.141090 0.091450 
#    y 0.141090 2.279780 0.152350 
#    z 0.091450 0.152350 2.104690 
# 
# From -- ./inp_files/207205.got.cif
#   From: 2010.05.17/outbox.cif.g08.bks.cpg/sg2_104_cif.got.tgz:207205.got - 2010.06.03 11:33:40.
