data_PCOD9109798
_publ_section_title
;
Structure prediction by ZEFSAII (Michael W. Deem and Ramdas Pophale) SiO2 
 PCOD9109798
Probable space group: P -1
;
_chemical_formula_sum "Si O2"
_cell_formula_units_Z 16
_cell_length_a 11.821012
_cell_length_b 4.982531
_cell_length_c 11.575774
_cell_angle_alpha 76.787572
_cell_angle_beta 115.551989
_cell_angle_gamma 82.718356
_cell_volume 578.787851
_symmetry_space_group_name_H-M "P -1"
_symmetry_group_IT_number 2
_symmetry_cell_setting 'triclinic'
loop_
_space_group_symop_operation_xyz
x,y,z
-x,-y,-z
loop_
_atom_site_type_symbol
_atom_site_label
_atom_site_fract_x
_atom_site_fract_y
_atom_site_fract_z
Si Si1 0.144321 0.670648 0.639389
Si Si2 0.249029 0.305309 0.030702
Si Si3 0.728900 0.112958 0.131323
Si Si4 0.400008 0.164754 0.737374
Si Si5 0.831699 0.033010 0.796140
Si Si6 0.681398 0.817952 0.550061
Si Si7 0.938657 0.330517 0.646801
Si Si8 0.396079 0.478759 0.261596
O O1 0.174803 0.906573 0.714332
O O2 0.275951 0.423624 0.697577
O O3 0.088929 0.786212 0.478906
O O4 0.044510 0.509142 0.666170
O O5 0.372941 0.260373 0.175722
O O6 0.144448 0.236816 0.081560
O O7 0.253698 0.599824 0.945901
O O8 0.253497 0.101204 0.945289
O O9 0.599055 0.076145 0.142062
O O10 0.370776 0.054937 0.608297
O O11 0.508787 0.336443 0.753810
O O12 0.953379 0.103551 0.779419
O O13 0.745086 0.296541 0.804793
O O14 0.739167 0.995630 0.651546
O O15 0.805072 0.561223 0.597339
O O16 0.579792 0.686021 0.589512
#
# Coordination Sequence:
#
# PCOD9109798 Si02
#       8
#     2   2   2   2   2   2   2   2
#     4  10  22  42  66 102 133 168 214 273 330 396
#     4  11  24  45  67  92 135 176 229 268 317 389
#     4  12  24  44  66  96 136 174 224 270 322 390
#     4  11  23  39  65  99 136 171 214 271 332 390
#     4  10  20  41  67  93 128 176 221 268 326 386
#     4   9  20  38  66 101 130 167 216 274 328 396
#     4   9  20  41  71  98 129 170 214 270 338 392
#     4  10  22  40  66  96 131 175 218 268 326 390
#
# _framework density 27.643979999999999
#
# number of rings (size 3 to 8) (size 9 to 14) (size 15 to 20)
#    0.000    1.750    2.500    1.125    0.000    4.500 
#    0.000    5.000    0.000    0.000    0.000    0.000 
#    0.000    0.000    0.000    0.000    0.000    0.000 
#
# Total GULP energy -89632.714530 kJ/mol
# GULP energy per Si atom -5602.044658 kJ/mol
# Density = 2.758106 g / cm^3
# Si number density = 27.643980 Si / 1000 Ang^3
#
#
#
# Elastic Constant Matrix: (Units=GPa)
#
#
# Indices 1 2 3 4 5 6 
#
# 1 144.8588 53.1213 63.7663 -5.2044 -46.0036 37.6946
# 2 53.1213 182.5310 76.2741 18.9812 -35.7935 33.9557
# 3 63.7663 76.2741 163.9008 14.9196 -42.1114 26.1825
# 4 -5.2044 18.9812 14.9196 74.8307 14.1240 -10.3624
# 5 -46.0036 -35.7935 -42.1114 14.1240 47.6220 -21.0292
# 6 37.6946 33.9557 26.1825 -10.3624 -21.0292 50.3010
#
#
#
# Elastic Compliance Matrix: (Units=1/GPa)
#
#
# Indices 1 2 3 4 5 6 
#
# 1 0.011192 -0.000206 -0.001498 -0.000930 0.007635 -0.004468
# 2 -0.000206 0.007920 -0.001963 -0.002726 0.003356 -0.003328
# 3 -0.001498 -0.001963 0.009477 -0.002706 0.006029 -0.000521
# 4 -0.000930 -0.002726 -0.002706 0.016680 -0.008619 0.003779
# 5 0.007635 0.003356 0.006029 -0.008619 0.040579 0.004064
# 6 -0.004468 -0.003328 -0.000521 0.003779 0.004064 0.028224
#
#
# Mechanical properties :
#
#
# Convention : Reuss Voigt Hill
#
# Bulk Modulus (GPa) = 47.05176 97.51267 72.28221
# Shear Modulus (GPa) = 38.91315 54.42601 46.66958
#
# Velocity S-wave (km/s) = 3.75594 4.44195 4.11327
# Velocity P-wave (km/s) = 5.98891 7.85232 6.98305
#
# Compressibility (1/GPa) = 0.02125319
#
# Stress axis : x y z
#
# Youngs Moduli (GPa) = 89.34684 126.26830 105.52414
#
# Poissons Ratio (x) = 0.02601 0.15812
# Poissons Ratio (y) = 0.01841 0.20717
# Poissons Ratio (z) = 0.13388 0.24789
#
# Static dielectric constant tensor:
#      x y z
#    x 2.232100 -0.067740 0.047670 
#    y -0.067740 2.181870 -0.083860 
#    z 0.047670 -0.083860 2.148430 
# 
# From -- ./inp_files/409213.got.cif
#   From: 2010.05.17/outbox.cif.g08.bks.cpg/sg2_205_cif.got.tgz:409213.got - 2010.06.03 11:33:40.
