data_PCOD9109422
_publ_section_title
;
Structure prediction by ZEFSAII (Michael W. Deem and Ramdas Pophale) SiO2 
 PCOD9109422
Probable space group: P -1
;
_chemical_formula_sum "Si O2"
_cell_formula_units_Z 15
_cell_length_a 10.580922
_cell_length_b 14.296091
_cell_length_c 14.754218
_cell_angle_alpha 46.346997
_cell_angle_beta 148.851705
_cell_angle_gamma 150.532962
_cell_volume 554.540985
_symmetry_space_group_name_H-M "P -1"
_symmetry_group_IT_number 2
_symmetry_cell_setting 'triclinic'
loop_
_space_group_symop_operation_xyz
x,y,z
-x,-y,-z
loop_
_atom_site_type_symbol
_atom_site_label
_atom_site_fract_x
_atom_site_fract_y
_atom_site_fract_z
Si Si1 0.000000 0.000000 0.000000
Si Si2 0.412623 0.615389 0.016194
Si Si3 0.885802 0.278466 0.345265
Si Si4 0.287140 0.136087 0.798282
Si Si5 0.660636 0.776406 0.414187
Si Si6 0.140857 0.226151 0.114201
Si Si7 0.272362 0.600888 0.487388
Si Si8 0.469393 0.938910 0.420385
O O1 0.780121 0.801629 0.063256
O O2 0.850664 0.863694 0.906463
O O3 0.154681 0.631084 0.816012
O O4 0.510616 0.679471 0.137945
O O5 0.208855 0.401711 0.011094
O O6 0.486671 0.053589 0.273033
O O7 0.180702 0.295172 0.478622
O O8 0.969447 0.375455 0.428850
O O9 0.492905 0.213610 0.776626
O O10 0.871309 0.026389 0.598088
O O11 0.213598 0.971569 0.915018
O O12 0.462607 0.678857 0.453117
O O13 0.000000 0.000000 0.500000
O O14 0.473360 0.340339 0.313703
O O15 0.174783 0.710126 0.375923
O O16 0.500000 0.000000 0.500000
#
# Coordination Sequence:
#
# PCOD9109422 Si02
#       8
#     1   2   2   2   2   2   2   2
#     4  10  24  42  64  84 132 184 212 252 318 396
#     4  11  24  42  61  95 136 171 211 263 332 389
#     4  11  25  40  64 102 130 164 221 275 319 391
#     4   9  21  41  68  93 128 174 210 267 322 391
#     4  11  19  46  73  92 125 172 222 270 326 379
#     4  10  20  41  65  91 123 175 216 256 324 388
#     4  11  23  43  71  95 126 174 219 272 326 378
#     4  10  22  41  66  95 128 169 221 269 318 381
#
# _framework density 27.049396999999999
#
# number of rings (size 3 to 8) (size 9 to 14) (size 15 to 20)
#    0.000    1.600    4.000    2.400    5.600    2.667 
#    2.400    3.333    0.000    0.000    0.000    0.000 
#    0.000    0.000    0.000    0.000    0.000    0.000 
#
# Total GULP energy -83733.692622 kJ/mol
# GULP energy per Si atom -5582.246175 kJ/mol
# Density = 2.698783 g / cm^3
# Si number density = 27.049397 Si / 1000 Ang^3
#
#
#
# Elastic Constant Matrix: (Units=GPa)
#
#
# Indices 1 2 3 4 5 6 
#
# 1 144.3983 66.8072 44.2290 -4.9188 -41.6810 -4.6569
# 2 66.8072 164.4172 21.5796 -18.1621 -1.0365 -20.5403
# 3 44.2290 21.5796 75.3918 -5.4384 -30.8739 -16.4110
# 4 -4.9188 -18.1621 -5.4384 62.3565 -7.5786 -8.9915
# 5 -41.6810 -1.0365 -30.8739 -7.5786 45.1697 -1.5602
# 6 -4.6569 -20.5403 -16.4110 -8.9915 -1.5602 50.8559
#
#
#
# Elastic Compliance Matrix: (Units=1/GPa)
#
#
# Indices 1 2 3 4 5 6 
#
# 1 0.012818 -0.004954 -0.002067 0.000488 0.010346 -0.001091
# 2 -0.004954 0.008755 -0.000516 0.002049 -0.004271 0.003148
# 3 -0.002067 -0.000516 0.022774 0.004647 0.014710 0.008224
# 4 0.000488 0.002049 0.004647 0.018784 0.007029 0.005909
# 5 0.010346 -0.004271 0.014710 0.007029 0.043047 0.006533
# 6 -0.001091 0.003148 0.008224 0.005909 0.006533 0.024734
#
#
# Mechanical properties :
#
#
# Convention : Reuss Voigt Hill
#
# Bulk Modulus (GPa) = 34.16049 72.15990 53.16019
# Shear Modulus (GPa) = 32.10371 48.44918 40.27644
#
# Velocity S-wave (km/s) = 3.44881 4.23677 3.86294
# Velocity P-wave (km/s) = 5.33998 7.11819 6.29222
#
# Compressibility (1/GPa) = 0.02927358
#
# Stress axis : x y z
#
# Youngs Moduli (GPa) = 78.01228 114.21433 43.90959
#
# Poissons Ratio (x) = 0.56585 0.09078
# Poissons Ratio (y) = 0.38650 0.02264
# Poissons Ratio (z) = 0.16128 0.05888
#
# Static dielectric constant tensor:
#      x y z
#    x 2.262090 0.268970 0.299860 
#    y 0.268970 2.452980 0.093650 
#    z 0.299860 0.093650 2.486900 
# 
# From -- ./inp_files/521563.got.cif
#   From: 2010.05.17/outbox.cif.g08.bks.cpg/sg2_261_cif.got.tgz:521563.got - 2010.06.03 11:33:40.
