data_PCOD9109825
_publ_section_title
;
Structure prediction by ZEFSAII (Michael W. Deem and Ramdas Pophale) SiO2 
 PCOD9109825
Probable space group: P -1
;
_chemical_formula_sum "Si O2"
_cell_formula_units_Z 16
_cell_length_a 9.136557
_cell_length_b 18.924249
_cell_length_c 9.355487
_cell_angle_alpha 26.410121
_cell_angle_beta 90.606573
_cell_angle_gamma 89.271261
_cell_volume 718.554868
_symmetry_space_group_name_H-M "P -1"
_symmetry_group_IT_number 2
_symmetry_cell_setting 'triclinic'
loop_
_space_group_symop_operation_xyz
x,y,z
-x,-y,-z
loop_
_atom_site_type_symbol
_atom_site_label
_atom_site_fract_x
_atom_site_fract_y
_atom_site_fract_z
Si Si1 0.210435 0.760271 0.871682
Si Si2 0.918306 0.662467 0.152989
Si Si3 0.774200 0.614526 0.515235
Si Si4 0.346276 0.947530 0.265779
Si Si5 0.900088 0.852527 0.268822
Si Si6 0.595385 0.059203 0.263473
Si Si7 0.458959 0.327545 0.358685
Si Si8 0.785293 0.766375 0.697940
O O1 0.257758 0.871692 0.536869
O O2 0.327064 0.786831 0.953559
O O3 0.216769 0.576219 0.154781
O O4 0.045656 0.782197 0.896857
O O5 0.799979 0.699391 0.209386
O O6 0.000000 0.500000 0.500000
O O7 0.830264 0.642048 0.043842
O O8 0.904853 0.688922 0.475144
O O9 0.622160 0.653192 0.525445
O O10 0.410467 0.803223 0.428389
O O11 0.483924 0.039693 0.165509
O O12 0.248142 0.062231 0.954770
O O13 0.911923 0.799024 0.529747
O O14 0.000000 0.000000 0.000000
O O15 0.500000 0.000000 0.500000
O O16 0.728528 0.929860 0.473889
O O17 0.340239 0.283395 0.318900
O O18 0.500000 0.500000 0.000000
#
# Coordination Sequence:
#
# PCOD9109825 Si02
#       8
#     2   2   2   2   2   2   2   2
#     4  10  20  41  67  95 134 175 215 278 333 387
#     4  10  23  43  63  95 134 173 225 271 332 393
#     4  10  23  41  66  96 135 170 221 273 327 389
#     4  10  21  42  70  97 132 175 224 271 331 396
#     4  11  25  44  66 101 132 176 223 269 329 400
#     4   9  21  37  66  96 130 168 219 270 334 386
#     4  10  20  43  69  94 135 172 220 276 332 389
#     4  10  23  42  63  94 132 176 218 274 329 387
#
# _framework density 22.266915000000001
#
# number of rings (size 3 to 8) (size 9 to 14) (size 15 to 20)
#    0.000    2.000    1.250    0.750    5.250    5.000 
#    4.500   11.875    0.000    0.000    0.000    0.000 
#    0.000    0.000    0.000    0.000    0.000    0.000 
#
# Total GULP energy -89138.889361 kJ/mol
# GULP energy per Si atom -5571.180585 kJ/mol
# Density = 2.221623 g / cm^3
# Si number density = 22.266915 Si / 1000 Ang^3
#
#
#
# Elastic Constant Matrix: (Units=GPa)
#
#
# Indices 1 2 3 4 5 6 
#
# 1 53.2592 22.7963 28.7046 2.8780 -9.3217 -2.3807
# 2 22.7963 111.0325 55.7336 2.3125 -6.2028 -12.4313
# 3 28.7046 55.7336 102.3514 7.6326 -10.0540 -3.8704
# 4 2.8780 2.3125 7.6326 53.2987 3.8175 -14.6658
# 5 -9.3217 -6.2028 -10.0540 3.8175 43.3331 9.2119
# 6 -2.3807 -12.4313 -3.8704 -14.6658 9.2119 25.7561
#
#
#
# Elastic Compliance Matrix: (Units=1/GPa)
#
#
# Indices 1 2 3 4 5 6 
#
# 1 0.023025 -0.002272 -0.004802 -0.001250 0.004014 -0.001838
# 2 -0.002272 0.013615 -0.006890 0.002756 -0.001999 0.007610
# 3 -0.004802 -0.006890 0.015192 -0.002934 0.002636 -0.004100
# 4 -0.001250 0.002756 -0.002934 0.024199 -0.006256 0.016790
# 5 0.004014 -0.001999 0.002636 -0.006256 0.027724 -0.013676
# 6 -0.001838 0.007610 -0.004100 0.016790 -0.013676 0.056165
#
#
# Mechanical properties :
#
#
# Convention : Reuss Voigt Hill
#
# Bulk Modulus (GPa) = 41.83802 53.45690 47.64746
# Shear Modulus (GPa) = 25.53429 35.10483 30.31956
#
# Velocity S-wave (km/s) = 3.39002 3.97488 3.69405
# Velocity P-wave (km/s) = 5.84407 6.71757 6.29598
#
# Compressibility (1/GPa) = 0.02390170
#
# Stress axis : x y z
#
# Youngs Moduli (GPa) = 43.43142 73.45086 65.82561
#
# Poissons Ratio (x) = 0.16691 0.31609
# Poissons Ratio (y) = 0.09869 0.45356
# Poissons Ratio (z) = 0.20855 0.50611
#
# Static dielectric constant tensor:
#      x y z
#    x 2.088840 0.028430 -0.157020 
#    y 0.028430 1.907390 -0.060670 
#    z -0.157020 -0.060670 1.903200 
# 
# From -- ./inp_files/216345.got.cif
#   From: 2010.05.17/outbox.cif.g08.bks.cpg/sg2_109_cif.got.tgz:216345.got - 2010.06.03 11:33:40.
