data_PCOD9109853
_publ_section_title
;
Structure prediction by ZEFSAII (Michael W. Deem and Ramdas Pophale) SiO2 
 PCOD9109853
Probable space group: P -1
;
_chemical_formula_sum "Si O2"
_cell_formula_units_Z 12
_cell_length_a 21.829229
_cell_length_b 7.779406
_cell_length_c 13.980537
_cell_angle_alpha 141.229325
_cell_angle_beta 22.541135
_cell_angle_gamma 137.317835
_cell_volume 568.805648
_symmetry_space_group_name_H-M "P -1"
_symmetry_group_IT_number 2
_symmetry_cell_setting 'triclinic'
loop_
_space_group_symop_operation_xyz
x,y,z
-x,-y,-z
loop_
_atom_site_type_symbol
_atom_site_label
_atom_site_fract_x
_atom_site_fract_y
_atom_site_fract_z
Si Si1 0.112942 0.890825 0.370873
Si Si2 0.898781 0.992223 0.044646
Si Si3 0.379409 0.492668 0.759738
Si Si4 0.238164 0.474810 0.475039
Si Si5 0.127226 0.598818 0.469848
Si Si6 0.538025 0.328598 0.080375
O O1 0.998759 0.654624 0.480714
O O2 0.170253 0.166232 0.462455
O O3 0.263034 0.747343 0.044616
O O4 0.000000 0.000000 0.500000
O O5 0.743180 0.777634 0.183042
O O6 0.160216 0.704789 0.751229
O O7 0.024320 0.866478 0.737752
O O8 0.000000 0.000000 0.000000
O O9 0.500000 0.500000 0.500000
O O10 0.478334 0.527111 0.730656
O O11 0.196928 0.545557 0.454582
O O12 0.424820 0.464137 0.225447
O O13 0.278297 0.624290 0.194839
O O14 0.500000 0.000000 0.000000
#
# Coordination Sequence:
#
# PCOD9109853 Si02
#       6
#     2   2   2   2   2   2
#     4   9  19  40  66  96 121 172 216 255 322 376
#     4   9  21  40  68  94 125 168 214 261 327 366
#     4  11  25  43  63  92 136 170 211 265 322 379
#     4  10  20  41  67  98 127 168 214 258 325 386
#     4   9  21  41  69  90 130 166 218 265 314 378
#     4  12  25  41  65 100 129 173 215 260 323 384
#
# _framework density 21.096837000000001
#
# number of rings (size 3 to 8) (size 9 to 14) (size 15 to 20)
#    0.000    2.000    1.667    1.500    4.667    6.000 
#    0.000    2.500    0.000    0.000    0.000    0.000 
#    0.000    0.000    0.000    0.000    0.000    0.000 
#
# Total GULP energy -66987.572738 kJ/mol
# GULP energy per Si atom -5582.297728 kJ/mol
# Density = 2.104882 g / cm^3
# Si number density = 21.096837 Si / 1000 Ang^3
#
#
#
# Elastic Constant Matrix: (Units=GPa)
#
#
# Indices 1 2 3 4 5 6 
#
# 1 94.4731 31.6076 47.1436 -3.4208 1.3110 15.5779
# 2 31.6076 131.9439 84.4384 20.8249 5.6742 22.0589
# 3 47.1436 84.4384 164.5534 2.4343 2.8167 2.4720
# 4 -3.4208 20.8249 2.4343 38.9278 -4.3495 -2.7797
# 5 1.3110 5.6742 2.8167 -4.3495 44.4202 -0.0711
# 6 15.5779 22.0589 2.4720 -2.7797 -0.0711 34.9674
#
#
#
# Elastic Compliance Matrix: (Units=1/GPa)
#
#
# Indices 1 2 3 4 5 6 
#
# 1 0.013438 -0.000029 -0.003765 0.001023 -0.000063 -0.005621
# 2 -0.000029 0.015740 -0.007744 -0.008928 -0.002409 -0.010084
# 3 -0.003765 -0.007744 0.010971 0.003646 0.000771 0.006078
# 4 0.001023 -0.008928 0.003646 0.031298 0.003956 0.007414
# 5 -0.000063 -0.002409 0.000771 0.003956 0.023163 0.001855
# 6 -0.005621 -0.010084 0.006078 0.007414 0.001855 0.037627
#
#
# Mechanical properties :
#
#
# Convention : Reuss Voigt Hill
#
# Bulk Modulus (GPa) = 58.56784 79.70552 69.13668
# Shear Modulus (GPa) = 31.05520 38.84847 34.95184
#
# Velocity S-wave (km/s) = 3.84087 4.29585 4.07471
# Velocity P-wave (km/s) = 6.89140 7.90371 7.41485
#
# Compressibility (1/GPa) = 0.01707422
#
# Stress axis : x y z
#
# Youngs Moduli (GPa) = 74.41492 63.53182 91.15107
#
# Poissons Ratio (x) = 0.00184 0.34316
# Poissons Ratio (y) = 0.00215 0.70585
# Poissons Ratio (z) = 0.28015 0.49198
#
# Static dielectric constant tensor:
#      x y z
#    x 1.614530 -0.060690 0.145450 
#    y -0.060690 1.748330 0.037730 
#    z 0.145450 0.037730 1.665540 
# 
# From -- ./inp_files/542429.got.cif
#   From: 2010.05.17/outbox.cif.g08.bks.cpg/sg2_272_cif.got.tgz:542429.got - 2010.06.03 11:33:40.
