data_PCOD9109752
_publ_section_title
;
Structure prediction by ZEFSAII (Michael W. Deem and Ramdas Pophale) SiO2 
 PCOD9109752
Probable space group: P -1
;
_chemical_formula_sum "Si O2"
_cell_formula_units_Z 10
_cell_length_a 8.398536
_cell_length_b 9.398273
_cell_length_c 7.939543
_cell_angle_alpha 121.005804
_cell_angle_beta 92.927896
_cell_angle_gamma 49.161673
_cell_volume 364.785606
_symmetry_space_group_name_H-M "P -1"
_symmetry_group_IT_number 2
_symmetry_cell_setting 'triclinic'
loop_
_space_group_symop_operation_xyz
x,y,z
-x,-y,-z
loop_
_atom_site_type_symbol
_atom_site_label
_atom_site_fract_x
_atom_site_fract_y
_atom_site_fract_z
Si Si1 0.745141 0.016148 0.460131
Si Si2 0.917628 0.081902 0.848053
Si Si3 0.201016 0.286973 0.257911
Si Si4 0.523318 0.720809 0.961695
Si Si5 0.771121 0.600498 0.225386
O O1 0.871721 0.990191 0.285964
O O2 0.463244 0.259841 0.595361
O O3 0.777434 0.794085 0.334165
O O4 0.853490 0.007653 0.635407
O O5 0.643119 0.306375 0.030528
O O6 0.000000 0.000000 0.000000
O O7 0.000000 0.500000 0.500000
O O8 0.025796 0.348426 0.144129
O O9 0.374327 0.007550 0.149853
O O10 0.345600 0.337740 0.238991
O O11 0.721947 0.565567 0.018222
#
# Coordination Sequence:
#
# PCOD9109752 Si02
#       5
#     2   2   2   2   2
#     4   9  20  39  64  96 124 174 215 259 334 378
#     4  10  21  37  63  88 137 173 203 268 326 381
#     4  11  22  37  67  96 124 163 219 268 318 381
#     4  10  24  41  62  98 125 168 216 262 326 383
#     4  10  20  41  67  89 128 163 214 277 310 378
#
# _framework density 27.413360000000001
#
# number of rings (size 3 to 8) (size 9 to 14) (size 15 to 20)
#    0.000    2.000    0.000    4.200    8.400    0.000 
#    0.000    2.000    8.800    0.000    0.000    0.000 
#    0.000    0.000    0.000    0.000    0.000    0.000 
#
# Total GULP energy -55738.759267 kJ/mol
# GULP energy per Si atom -5573.875927 kJ/mol
# Density = 2.735097 g / cm^3
# Si number density = 27.413360 Si / 1000 Ang^3
#
#
#
# Elastic Constant Matrix: (Units=GPa)
#
#
# Indices 1 2 3 4 5 6 
#
# 1 149.5494 35.7304 86.8242 -4.0450 -68.9651 -2.0890
# 2 35.7304 95.8446 13.5091 -26.9754 -5.2114 -26.5743
# 3 86.8242 13.5091 175.2132 -26.4179 -64.5049 6.8878
# 4 -4.0450 -26.9754 -26.4179 53.4183 0.5802 1.8955
# 5 -68.9651 -5.2114 -64.5049 0.5802 63.0302 -11.1111
# 6 -2.0890 -26.5743 6.8878 1.8955 -11.1111 44.2354
#
#
#
# Elastic Compliance Matrix: (Units=1/GPa)
#
#
# Indices 1 2 3 4 5 6 
#
# 1 0.016439 -0.005191 -0.002668 -0.002933 0.015211 0.002020
# 2 -0.005191 0.017095 0.001972 0.008898 -0.000715 0.009156
# 3 -0.002668 0.001972 0.010887 0.006041 0.008551 0.001253
# 4 -0.002933 0.008898 0.006041 0.025783 0.004216 0.004220
# 5 0.015211 -0.000715 0.008551 0.004216 0.042843 0.009538
# 6 0.002020 0.009156 0.001253 0.004220 0.009538 0.030222
#
#
# Mechanical properties :
#
#
# Convention : Reuss Voigt Hill
#
# Bulk Modulus (GPa) = 30.62884 76.97052 53.79968
# Shear Modulus (GPa) = 30.13434 51.10635 40.62035
#
# Velocity S-wave (km/s) = 3.31910 4.32242 3.85356
# Velocity P-wave (km/s) = 5.08781 7.28353 6.28234
#
# Compressibility (1/GPa) = 0.03264896
#
# Stress axis : x y z
#
# Youngs Moduli (GPa) = 60.83084 58.49748 91.85468
#
# Poissons Ratio (x) = 0.30364 0.24503
# Poissons Ratio (y) = 0.31575 -0.18118
# Poissons Ratio (z) = 0.16227 -0.11539
#
# Static dielectric constant tensor:
#      x y z
#    x 2.313360 0.000600 0.083530 
#    y 0.000600 2.284260 -0.148720 
#    z 0.083530 -0.148720 2.247260 
# 
# From -- ./inp_files/189266.got.cif
#   From: 2010.05.17/outbox.cif.g08.bks.cpg/sg2_95_cif.got.tgz:189266.got - 2010.06.03 11:33:40.
