data_PCOD9109012
_publ_section_title
;
Structure prediction by ZEFSAII (Michael W. Deem and Ramdas Pophale) SiO2 
 PCOD9109012
Probable space group: P -1
;
_chemical_formula_sum "Si O2"
_cell_formula_units_Z 16
_cell_length_a 21.977509
_cell_length_b 18.613130
_cell_length_c 13.552004
_cell_angle_alpha 140.512283
_cell_angle_beta 26.924755
_cell_angle_gamma 161.436220
_cell_volume 687.667824
_symmetry_space_group_name_H-M "P -1"
_symmetry_group_IT_number 2
_symmetry_cell_setting 'triclinic'
loop_
_space_group_symop_operation_xyz
x,y,z
-x,-y,-z
loop_
_atom_site_type_symbol
_atom_site_label
_atom_site_fract_x
_atom_site_fract_y
_atom_site_fract_z
Si Si1 0.636129 0.979609 0.805764
Si Si2 0.885049 0.173928 0.448082
Si Si3 0.476690 0.304328 0.030203
Si Si4 0.337305 0.197453 0.737990
Si Si5 0.098120 0.948138 0.019820
Si Si6 0.415167 0.461984 0.408361
Si Si7 0.440905 0.033396 0.881610
Si Si8 0.072478 0.375478 0.950995
O O1 0.354160 0.674853 0.880016
O O2 0.890261 0.155696 0.538548
O O3 0.728493 0.057309 0.868518
O O4 0.500000 0.000000 0.000000
O O5 0.730562 0.176566 0.647268
O O6 0.654787 0.904611 0.452304
O O7 0.207793 0.409047 0.171939
O O8 0.372075 0.299266 0.269256
O O9 0.220971 0.107741 0.105943
O O10 0.536767 0.221195 0.887631
O O11 0.575078 0.467252 0.636017
O O12 0.336395 0.154403 0.805288
O O13 0.000000 0.000000 0.000000
O O14 0.756757 0.727521 0.245915
O O15 0.064445 0.789876 0.929044
O O16 0.197427 0.364050 0.693475
O O17 0.207889 0.790766 0.887462
#
# Coordination Sequence:
#
# PCOD9109012 Si02
#       8
#     2   2   2   2   2   2   2   2
#     4  10  23  41  63  90 124 167 211 251 310 372
#     4  11  21  43  65  89 132 165 207 264 311 373
#     4  11  23  42  64  98 124 166 214 255 320 373
#     4  10  20  41  61  92 126 165 208 256 315 366
#     4  10  23  39  63  94 127 163 210 254 317 375
#     4  11  22  41  65  91 132 164 205 269 312 368
#     4  10  25  43  64  94 128 167 213 257 311 381
#     4  11  23  43  65  94 127 167 209 261 318 370
#
# _framework density 23.267047999999999
#
# number of rings (size 3 to 8) (size 9 to 14) (size 15 to 20)
#    0.000    1.500    3.750    1.500    0.000    6.500 
#    4.500    1.250    0.000    0.000    0.000    0.000 
#    0.000    0.000    0.000    0.000    0.000    0.000 
#
# Total GULP energy -89398.144037 kJ/mol
# GULP energy per Si atom -5587.384002 kJ/mol
# Density = 2.321409 g / cm^3
# Si number density = 23.267048 Si / 1000 Ang^3
#
#
#
# Elastic Constant Matrix: (Units=GPa)
#
#
# Indices 1 2 3 4 5 6 
#
# 1 106.4844 25.3387 9.2481 -5.9501 14.7652 -4.7697
# 2 25.3387 54.1786 10.0451 3.9115 -26.2503 -6.1839
# 3 9.2481 10.0451 51.5798 5.9059 -0.9769 -1.9996
# 4 -5.9501 3.9115 5.9059 35.0024 -0.6885 -0.3649
# 5 14.7652 -26.2503 -0.9769 -0.6885 5.8599 -2.2382
# 6 -4.7697 -6.1839 -1.9996 -0.3649 -2.2382 30.9338
#
#
#
# Elastic Compliance Matrix: (Units=1/GPa)
#
#
# Indices 1 2 3 4 5 6 
#
# 1 0.005565 0.006978 -0.001978 0.000897 0.018335 0.003462
# 2 0.006978 -0.005038 -0.001298 0.001123 -0.041381 -0.002996
# 3 -0.001978 -0.001298 0.020488 -0.003589 0.002504 0.000899
# 4 0.000897 0.001123 -0.003589 0.029329 0.005966 0.000908
# 5 0.018335 -0.041381 0.002504 0.005966 -0.063551 -0.009811
# 6 0.003462 -0.002996 0.000899 0.000908 -0.009811 0.031621
#
#
# Mechanical properties :
#
#
# Convention : Reuss Voigt Hill
#
# Bulk Modulus (GPa) = 35.18826 33.50072 34.34449
# Shear Modulus (GPa) = 244.09731 25.53328 134.81530
#
# Velocity S-wave (km/s) = 10.25373 3.31630 7.62026
# Velocity P-wave (km/s) = 12.46362 5.39383 9.60300
#
# Compressibility (1/GPa) = 0.02841857
#
# Stress axis : x y z
#
# Youngs Moduli (GPa) = 179.69021 -198.48086 48.80854
#
# Poissons Ratio (x) = 1.38503 0.09654
# Poissons Ratio (y) = -1.25391 0.06338
# Poissons Ratio (z) = 0.35542 -0.25772
#
# Static dielectric constant tensor:
#      x y z
#    x 1.920840 -0.014190 0.023170 
#    y -0.014190 1.886420 -0.019580 
#    z 0.023170 -0.019580 1.901670 
# 
# From -- ./inp_files/472418.got.cif
#   From: 2010.05.17/outbox.cif.g08.bks.cpg/sg2_237_cif.got.tgz:472418.got - 2010.06.03 11:33:40.
