data_PCOD9109242
_publ_section_title
;
Structure prediction by ZEFSAII (Michael W. Deem and Ramdas Pophale) SiO2 
 PCOD9109242
Probable space group: P -1
;
_chemical_formula_sum "Si O2"
_cell_formula_units_Z 16
_cell_length_a 26.452019
_cell_length_b 17.006352
_cell_length_c 14.465845
_cell_angle_alpha 32.741215
_cell_angle_beta 20.555858
_cell_angle_gamma 20.520567
_cell_volume 766.342832
_symmetry_space_group_name_H-M "P -1"
_symmetry_group_IT_number 2
_symmetry_cell_setting 'triclinic'
loop_
_space_group_symop_operation_xyz
x,y,z
-x,-y,-z
loop_
_atom_site_type_symbol
_atom_site_label
_atom_site_fract_x
_atom_site_fract_y
_atom_site_fract_z
Si Si1 0.725732 0.411437 0.674337
Si Si2 0.474750 0.124031 0.509086
Si Si3 0.801898 0.974336 0.657637
Si Si4 0.348646 0.759700 0.696961
Si Si5 0.334409 0.222210 0.856099
Si Si6 0.992592 0.271105 0.017238
Si Si7 0.226069 0.747771 0.443099
Si Si8 0.830057 0.183712 0.243891
O O1 0.646510 0.632549 0.557930
O O2 0.828371 0.242412 0.578581
O O3 0.922127 0.267131 0.558776
O O4 0.500000 0.500000 0.000000
O O5 0.342186 0.181593 0.772759
O O6 0.500000 0.000000 0.500000
O O7 0.743937 0.932434 0.264664
O O8 0.723691 0.132172 0.723909
O O9 0.766585 0.102883 0.501765
O O10 0.677990 0.917637 0.928832
O O11 0.447432 0.844795 0.430649
O O12 0.541455 0.528780 0.657530
O O13 0.321304 0.702933 0.701099
O O14 0.097568 0.951800 0.983524
O O15 0.111982 0.497295 0.992651
O O16 0.969040 0.170104 0.238587
O O17 0.834015 0.331226 0.147671
#
# Coordination Sequence:
#
# PCOD9109242 Si02
#       8
#     2   2   2   2   2   2   2   2
#     4  12  23  39  61  90 129 168 210 263 305 374
#     4  12  25  39  62  90 131 174 207 251 318 380
#     4  11  25  37  59  95 130 163 204 265 322 363
#     4  10  20  43  71  90 122 166 218 260 308 383
#     4  11  24  42  62  96 130 164 211 261 315 382
#     4  10  20  41  64  89 122 165 219 251 302 382
#     4  10  21  39  62  89 122 164 215 255 307 376
#     4  10  21  42  69  93 120 167 216 262 312 373
#
# _framework density 20.878382999999999
#
# number of rings (size 3 to 8) (size 9 to 14) (size 15 to 20)
#    0.000    1.250    3.750    3.375    3.500    6.000 
#    2.250    0.000    0.000    3.000    0.000    0.000 
#    0.000    0.000    0.000    0.000    0.000    0.000 
#
# Total GULP energy -89398.105641 kJ/mol
# GULP energy per Si atom -5587.381603 kJ/mol
# Density = 2.083086 g / cm^3
# Si number density = 20.878383 Si / 1000 Ang^3
#
#
#
# Elastic Constant Matrix: (Units=GPa)
#
#
# Indices 1 2 3 4 5 6 
#
# 1 102.3025 4.1221 -1.8727 -5.8617 0.2530 13.7648
# 2 4.1221 66.8968 17.4504 -4.0889 0.7846 18.6959
# 3 -1.8727 17.4504 61.9190 -5.6688 -5.2630 6.4685
# 4 -5.8617 -4.0889 -5.6688 37.2858 6.9435 -6.4590
# 5 0.2530 0.7846 -5.2630 6.9435 26.6538 2.3331
# 6 13.7648 18.6959 6.4685 -6.4590 2.3331 34.6545
#
#
#
# Elastic Compliance Matrix: (Units=1/GPa)
#
#
# Indices 1 2 3 4 5 6 
#
# 1 0.010412 0.000433 0.000751 0.001021 0.000150 -0.004329
# 2 0.000433 0.018684 -0.004323 -0.000067 -0.000566 -0.009420
# 3 0.000751 -0.004323 0.017949 0.001526 0.003377 -0.001260
# 4 0.001021 -0.000067 0.001526 0.029609 -0.007892 0.005396
# 5 0.000150 -0.000566 0.003377 -0.007892 0.040658 -0.004593
# 6 -0.004329 -0.009420 -0.001260 0.005396 -0.004593 0.037208
#
#
# Mechanical properties :
#
#
# Convention : Reuss Voigt Hill
#
# Bulk Modulus (GPa) = 24.52857 30.05755 27.29306
# Shear Modulus (GPa) = 28.67176 33.81338 31.24257
#
# Velocity S-wave (km/s) = 3.70979 4.02872 3.87254
# Velocity P-wave (km/s) = 5.48852 6.00571 5.75293
#
# Compressibility (1/GPa) = 0.04076879
#
# Stress axis : x y z
#
# Youngs Moduli (GPa) = 96.04438 53.52045 55.71188
#
# Poissons Ratio (x) = -0.02317 -0.04186
# Poissons Ratio (y) = -0.04159 0.24083
# Poissons Ratio (z) = -0.07216 0.23136
#
# Static dielectric constant tensor:
#      x y z
#    x 1.779250 0.029600 -0.011000 
#    y 0.029600 1.771280 0.023480 
#    z -0.011000 0.023480 1.755730 
# 
# From -- ./inp_files/504511.got.cif
#   From: 2010.05.17/outbox.cif.g08.bks.cpg/sg2_253_cif.got.tgz:504511.got - 2010.06.03 11:33:40.
