data_PCOD9109668
_publ_section_title
;
Structure prediction by ZEFSAII (Michael W. Deem and Ramdas Pophale) SiO2 
 PCOD9109668
Probable space group: P -1
;
_chemical_formula_sum "Si O2"
_cell_formula_units_Z 14
_cell_length_a 13.179580
_cell_length_b 7.371450
_cell_length_c 14.490431
_cell_angle_alpha 79.768710
_cell_angle_beta 148.291437
_cell_angle_gamma 117.719029
_cell_volume 578.606403
_symmetry_space_group_name_H-M "P -1"
_symmetry_group_IT_number 2
_symmetry_cell_setting 'triclinic'
loop_
_space_group_symop_operation_xyz
x,y,z
-x,-y,-z
loop_
_atom_site_type_symbol
_atom_site_label
_atom_site_fract_x
_atom_site_fract_y
_atom_site_fract_z
Si Si1 0.138061 0.911796 0.165164
Si Si2 0.749077 0.825870 0.267441
Si Si3 0.194174 0.993590 0.894797
Si Si4 0.464977 0.922375 0.259846
Si Si5 0.649576 0.733745 0.538136
Si Si6 0.765024 0.557638 0.038463
Si Si7 0.012581 0.381866 0.610806
O O1 0.324738 0.939855 0.233891
O O2 0.276528 0.067228 0.348394
O O3 0.937461 0.655429 0.073843
O O4 0.000000 0.000000 0.000000
O O5 0.720438 0.951411 0.149899
O O6 0.511852 0.669064 0.159540
O O7 0.794131 0.659916 0.265856
O O8 0.000000 0.000000 0.500000
O O9 0.320716 0.910463 0.060315
O O10 0.241078 0.225069 0.956795
O O11 0.903366 0.804499 0.689535
O O12 0.742793 0.148242 0.439743
O O13 0.494472 0.732623 0.336841
O O14 0.500000 0.500000 0.500000
O O15 0.890798 0.512774 0.222288
O O16 0.000000 0.500000 0.500000
#
# Coordination Sequence:
#
# PCOD9109668 Si02
#       7
#     2   2   2   2   2   2   2
#     4  11  22  42  69  99 132 177 230 271 319 407
#     4  11  23  43  68  95 136 172 219 290 338 390
#     4  10  21  44  64  97 131 180 220 274 332 402
#     4  12  21  43  73  96 137 176 232 273 327 410
#     4  11  24  42  65  98 142 175 218 278 338 391
#     4  10  20  41  66  95 134 172 221 273 328 399
#     4  11  22  40  70  98 125 179 228 270 336 399
#
# _framework density 24.196068
#
# number of rings (size 3 to 8) (size 9 to 14) (size 15 to 20)
#    0.000    1.143    7.143    3.857    0.000    1.714 
#    0.000    2.857    0.000    0.000    0.000    0.000 
#    0.000    0.000    0.000    0.000    0.000    0.000 
#
# Total GULP energy -78344.481853 kJ/mol
# GULP energy per Si atom -5596.034418 kJ/mol
# Density = 2.414100 g / cm^3
# Si number density = 24.196068 Si / 1000 Ang^3
#
#
#
# Elastic Constant Matrix: (Units=GPa)
#
#
# Indices 1 2 3 4 5 6 
#
# 1 105.1683 49.8129 29.3519 -7.9118 12.5842 37.1885
# 2 49.8129 157.0874 79.3668 -21.0850 10.0875 52.8542
# 3 29.3519 79.3668 117.6497 -28.7468 -1.9709 11.6690
# 4 -7.9118 -21.0850 -28.7468 57.7347 10.9428 0.7725
# 5 12.5842 10.0875 -1.9709 10.9428 45.4228 -4.7545
# 6 37.1885 52.8542 11.6690 0.7725 -4.7545 42.5097
#
#
#
# Elastic Compliance Matrix: (Units=1/GPa)
#
#
# Indices 1 2 3 4 5 6 
#
# 1 0.017541 0.005631 -0.005168 0.004004 -0.009609 -0.022075
# 2 0.005631 0.023215 -0.012754 0.005586 -0.011935 -0.031725
# 3 -0.005168 -0.012754 0.017337 0.001859 0.006273 0.016287
# 4 0.004004 0.005586 0.001859 0.022714 -0.009037 -0.012382
# 5 -0.009609 -0.011935 0.006273 -0.009037 0.032427 0.025315
# 6 -0.022075 -0.031725 0.016287 -0.012382 0.025315 0.080866
#
#
# Mechanical properties :
#
#
# Convention : Reuss Voigt Hill
#
# Bulk Modulus (GPa) = 29.84168 77.44096 53.64132
# Shear Modulus (GPa) = 21.75313 43.89169 32.82241
#
# Velocity S-wave (km/s) = 3.00165 4.26373 3.68709
# Velocity P-wave (km/s) = 4.93692 7.50428 6.35167
#
# Compressibility (1/GPa) = 0.03351018
#
# Stress axis : x y z
#
# Youngs Moduli (GPa) = 57.00978 43.07612 57.68058
#
# Poissons Ratio (x) = -0.24254 0.29808
# Poissons Ratio (y) = -0.32100 0.73565
# Poissons Ratio (z) = 0.29462 0.54939
#
# Static dielectric constant tensor:
#      x y z
#    x 2.014550 -0.074440 -0.125720 
#    y -0.074440 2.009440 0.046950 
#    z -0.125720 0.046950 1.960600 
# 
# From -- ./inp_files/201591.got.cif
#   From: 2010.05.17/outbox.cif.g08.bks.cpg/sg2_101_cif.got.tgz:201591.got - 2010.06.03 11:33:40.
