data_PCOD9109799
_publ_section_title
;
Structure prediction by ZEFSAII (Michael W. Deem and Ramdas Pophale) SiO2 
 PCOD9109799
Probable space group: P -1
;
_chemical_formula_sum "Si O2"
_cell_formula_units_Z 12
_cell_length_a 9.108484
_cell_length_b 12.256542
_cell_length_c 12.266823
_cell_angle_alpha 141.874911
_cell_angle_beta 36.604564
_cell_angle_gamma 127.150522
_cell_volume 502.726404
_symmetry_space_group_name_H-M "P -1"
_symmetry_group_IT_number 2
_symmetry_cell_setting 'triclinic'
loop_
_space_group_symop_operation_xyz
x,y,z
-x,-y,-z
loop_
_atom_site_type_symbol
_atom_site_label
_atom_site_fract_x
_atom_site_fract_y
_atom_site_fract_z
Si Si1 0.936893 0.690949 0.029119
Si Si2 0.640323 0.898942 0.201426
Si Si3 0.450398 0.827822 0.824964
Si Si4 0.204454 0.100970 0.521762
Si Si5 0.161925 0.440445 0.529974
Si Si6 0.945887 0.237442 0.313636
O O1 0.700177 0.762685 0.156559
O O2 0.890672 0.733519 0.216241
O O3 0.163690 0.812399 0.963174
O O4 0.033574 0.506124 0.771265
O O5 0.358298 0.956290 0.391168
O O6 0.776088 0.075940 0.285657
O O7 0.787791 0.818293 0.944531
O O8 0.598574 0.838636 0.634090
O O9 0.571617 0.656054 0.680552
O O10 0.500000 0.000000 0.000000
O O11 0.000000 0.000000 0.500000
O O12 0.169628 0.606145 0.573293
O O13 0.999335 0.308073 0.456908
#
# Coordination Sequence:
#
# PCOD9109799 Si02
#       6
#     2   2   2   2   2   2
#     4  11  24  42  66  99 128 172 212 266 321 376
#     4  10  20  41  67  93 129 167 222 260 309 389
#     4  12  23  42  67  93 128 170 214 266 319 380
#     4  12  25  40  65  99 127 170 219 264 316 379
#     4  10  21  38  63 100 132 162 215 266 325 380
#     4   9  19  38  70  97 123 174 213 261 323 379
#
# _framework density 23.869841999999998
#
# number of rings (size 3 to 8) (size 9 to 14) (size 15 to 20)
#    0.000    1.333    1.667    6.000    0.000    0.667 
#    0.000    0.833    0.000    0.000    0.000    0.000 
#    0.000    0.000    0.000    0.000    0.000    0.000 
#
# Total GULP energy -67205.783300 kJ/mol
# GULP energy per Si atom -5600.481942 kJ/mol
# Density = 2.381551 g / cm^3
# Si number density = 23.869842 Si / 1000 Ang^3
#
#
#
# Elastic Constant Matrix: (Units=GPa)
#
#
# Indices 1 2 3 4 5 6 
#
# 1 128.4117 4.3861 63.2389 5.7513 12.4326 7.8878
# 2 4.3861 27.8783 16.7973 -6.0869 7.7764 -4.6532
# 3 63.2389 16.7973 139.0055 3.2185 32.6829 0.7077
# 4 5.7513 -6.0869 3.2185 43.5563 -12.1124 1.9901
# 5 12.4326 7.7764 32.6829 -12.1124 71.8225 8.0259
# 6 7.8878 -4.6532 0.7077 1.9901 8.0259 23.2364
#
#
#
# Elastic Compliance Matrix: (Units=1/GPa)
#
#
# Indices 1 2 3 4 5 6 
#
# 1 0.010355 0.000419 -0.004888 -0.000603 0.000672 -0.003463
# 2 0.000419 0.042012 -0.004827 0.005054 -0.002564 0.008871
# 3 -0.004888 -0.004827 0.011035 -0.002113 -0.004232 0.001999
# 4 -0.000603 0.005054 -0.002113 0.025442 0.005107 -0.002662
# 5 0.000672 -0.002564 -0.004232 0.005107 0.017671 -0.007154
# 6 -0.003463 0.008871 0.001999 -0.002662 -0.007154 0.048626
#
#
# Mechanical properties :
#
#
# Convention : Reuss Voigt Hill
#
# Bulk Modulus (GPa) = 22.31627 51.57113 36.94370
# Shear Modulus (GPa) = 26.50152 41.78126 34.14139
#
# Velocity S-wave (km/s) = 3.33566 4.18829 3.78605
# Velocity P-wave (km/s) = 4.91985 6.71127 5.88413
#
# Compressibility (1/GPa) = 0.04481037
#
# Stress axis : x y z
#
# Youngs Moduli (GPa) = 96.57269 23.80287 90.62293
#
# Poissons Ratio (x) = -0.00997 0.44295
# Poissons Ratio (y) = -0.04046 0.43741
# Poissons Ratio (z) = 0.47203 0.11489
#
# Static dielectric constant tensor:
#      x y z
#    x 1.925910 -0.056950 0.009800 
#    y -0.056950 1.896650 0.016610 
#    z 0.009800 0.016610 1.936050 
# 
# From -- ./inp_files/150316.got.cif
#   From: 2010.05.17/outbox.cif.g08.bks.cpg/sg2_76_cif.got.tgz:150316.got - 2010.06.03 11:33:40.
