data_PCOD9109810
_publ_section_title
;
Structure prediction by ZEFSAII (Michael W. Deem and Ramdas Pophale) SiO2 
 PCOD9109810
Probable space group: P -1
;
_chemical_formula_sum "Si O2"
_cell_formula_units_Z 14
_cell_length_a 21.443052
_cell_length_b 12.207763
_cell_length_c 13.127361
_cell_angle_alpha 129.704563
_cell_angle_beta 19.934163
_cell_angle_gamma 139.599880
_cell_volume 711.641248
_symmetry_space_group_name_H-M "P -1"
_symmetry_group_IT_number 2
_symmetry_cell_setting 'triclinic'
loop_
_space_group_symop_operation_xyz
x,y,z
-x,-y,-z
loop_
_atom_site_type_symbol
_atom_site_label
_atom_site_fract_x
_atom_site_fract_y
_atom_site_fract_z
Si Si1 0.775533 0.490464 0.357631
Si Si2 0.332508 0.368428 0.587714
Si Si3 0.142232 0.931664 0.778765
Si Si4 0.630061 0.917256 0.268833
Si Si5 0.050217 0.988866 0.561886
Si Si6 0.262407 0.315450 0.296876
Si Si7 0.340967 0.037015 0.326543
O O1 0.683026 0.546071 0.440347
O O2 0.550831 0.289038 0.607028
O O3 0.835872 0.613819 0.434934
O O4 0.000000 0.500000 0.000000
O O5 0.500000 0.500000 0.500000
O O6 0.398114 0.233645 0.379066
O O7 0.068206 0.261470 0.970350
O O8 0.302488 0.054321 0.698974
O O9 0.277811 0.943569 0.478664
O O10 0.000000 0.000000 0.000000
O O11 0.500000 0.000000 0.500000
O O12 0.859237 0.011774 0.905407
O O13 0.916000 0.812417 0.593344
O O14 0.254598 0.166757 0.291007
O O15 0.129980 0.955369 0.523792
O O16 0.500000 0.500000 0.000000
O O17 0.500000 0.000000 0.000000
#
# Coordination Sequence:
#
# PCOD9109810 Si02
#       7
#     2   2   2   2   2   2   2
#     4  12  24  42  66 103 137 171 229 288 339 413
#     4  11  23  42  69  98 132 174 230 287 336 403
#     4  10  20  41  67  94 129 180 224 272 343 405
#     4  12  23  41  71 101 133 179 229 282 345 411
#     4  11  23  43  67  95 139 176 226 285 340 406
#     4  11  23  41  66  96 133 181 219 277 350 402
#     4  11  24  44  68  96 134 181 228 278 345 408
#
# _framework density 19.672834000000002
#
# number of rings (size 3 to 8) (size 9 to 14) (size 15 to 20)
#    0.000    0.857    5.714    3.429    0.000    4.571 
#    2.571    0.714    0.000    0.000    0.000    0.000 
#    0.000    0.000    0.000    0.000    0.000    0.000 
#
# Total GULP energy -77991.706070 kJ/mol
# GULP energy per Si atom -5570.836148 kJ/mol
# Density = 1.962806 g / cm^3
# Si number density = 19.672834 Si / 1000 Ang^3
#
#
#
# Elastic Constant Matrix: (Units=GPa)
#
#
# Indices 1 2 3 4 5 6 
#
# 1 99.3855 45.9508 19.0215 19.6884 4.0276 29.6814
# 2 45.9508 106.2376 52.6861 7.2592 13.8235 15.5304
# 3 19.0215 52.6861 104.2280 15.2193 12.1649 5.1766
# 4 19.6884 7.2592 15.2193 40.9858 -1.8607 9.8228
# 5 4.0276 13.8235 12.1649 -1.8607 33.9145 3.6163
# 6 29.6814 15.5304 5.1766 9.8228 3.6163 43.2327
#
#
#
# Elastic Compliance Matrix: (Units=1/GPa)
#
#
# Indices 1 2 3 4 5 6 
#
# 1 0.015979 -0.006123 0.001236 -0.005147 0.000705 -0.007809
# 2 -0.006123 0.015830 -0.006895 0.002813 -0.002986 -0.001047
# 3 0.001236 -0.006895 0.013827 -0.004947 -0.002709 0.001323
# 4 -0.005147 0.002813 -0.004947 0.029270 0.003251 -0.003807
# 5 0.000705 -0.002986 -0.002709 0.003251 0.032036 -0.002505
# 6 -0.007809 -0.001047 0.001323 -0.003807 -0.002505 0.029784
#
#
# Mechanical properties :
#
#
# Convention : Reuss Voigt Hill
#
# Bulk Modulus (GPa) = 45.30508 60.57421 52.93964
# Shear Modulus (GPa) = 29.82468 36.43945 33.13207
#
# Velocity S-wave (km/s) = 3.89785 4.30847 4.10830
# Velocity P-wave (km/s) = 6.58308 7.45709 7.03367
#
# Compressibility (1/GPa) = 0.02207258
#
# Stress axis : x y z
#
# Youngs Moduli (GPa) = 62.58093 63.17199 72.32382
#
# Poissons Ratio (x) = 0.38680 -0.08939
# Poissons Ratio (y) = 0.38318 0.49865
# Poissons Ratio (z) = -0.07735 0.43555
#
# Static dielectric constant tensor:
#      x y z
#    x 1.727980 -0.051000 0.067830 
#    y -0.051000 1.788290 -0.032360 
#    z 0.067830 -0.032360 1.780410 
# 
# From -- ./inp_files/224006.got.cif
#   From: 2010.05.17/outbox.cif.g08.bks.cpg/sg2_113_cif.got.tgz:224006.got - 2010.06.03 11:33:40.
