data_PCOD9109751
_publ_section_title
;
Structure prediction by ZEFSAII (Michael W. Deem and Ramdas Pophale) SiO2 
 PCOD9109751
Probable space group: P -1
;
_chemical_formula_sum "Si O2"
_cell_formula_units_Z 14
_cell_length_a 15.368038
_cell_length_b 20.533292
_cell_length_c 8.937056
_cell_angle_alpha 31.476415
_cell_angle_beta 34.588542
_cell_angle_gamma 32.643193
_cell_volume 736.910864
_symmetry_space_group_name_H-M "P -1"
_symmetry_group_IT_number 2
_symmetry_cell_setting 'triclinic'
loop_
_space_group_symop_operation_xyz
x,y,z
-x,-y,-z
loop_
_atom_site_type_symbol
_atom_site_label
_atom_site_fract_x
_atom_site_fract_y
_atom_site_fract_z
Si Si1 0.541985 0.865973 0.597181
Si Si2 0.656712 0.282493 0.700220
Si Si3 0.624218 0.058108 0.641839
Si Si4 0.117185 0.330088 0.691446
Si Si5 0.991266 0.891585 0.605152
Si Si6 0.460746 0.514898 0.275244
Si Si7 0.611629 0.636897 0.575776
O O1 0.420353 0.921007 0.512633
O O2 0.738268 0.765395 0.452770
O O3 0.500000 0.000000 0.500000
O O4 0.483949 0.768754 0.964204
O O5 0.586213 0.393699 0.447291
O O6 0.667897 0.358839 0.685241
O O7 0.840129 0.158515 0.637243
O O8 0.560294 0.214441 0.493137
O O9 0.818828 0.963309 0.606991
O O10 0.500000 0.000000 0.000000
O O11 0.236264 0.326816 0.669466
O O12 0.000000 0.500000 0.500000
O O13 0.012499 0.244231 0.045522
O O14 0.000000 0.000000 0.500000
O O15 0.361340 0.459228 0.416294
O O16 0.573282 0.563442 0.916283
#
# Coordination Sequence:
#
# PCOD9109751 Si02
#       7
#     2   2   2   2   2   2   2
#     4  11  24  44  68  94 132 179 220 271 341 391
#     4  11  23  40  63  97 131 161 215 280 326 388
#     4  11  22  43  66  90 126 174 224 259 316 411
#     4  11  23  43  65  98 130 174 227 272 318 410
#     4  12  25  41  68  98 133 175 222 274 337 394
#     4  10  21  39  65  93 128 166 211 268 337 385
#     4  10  20  41  67  89 123 179 216 258 329 401
#
# _framework density 18.998227
#
# number of rings (size 3 to 8) (size 9 to 14) (size 15 to 20)
#    0.000    1.143    5.714    2.571    4.000    1.714 
#    2.571    0.714    0.000    0.000    0.000    0.000 
#    0.000    0.000    0.000    0.000    0.000    0.000 
#
# Total GULP energy -78105.502149 kJ/mol
# GULP energy per Si atom -5578.964439 kJ/mol
# Density = 1.895499 g / cm^3
# Si number density = 18.998227 Si / 1000 Ang^3
#
#
#
# Elastic Constant Matrix: (Units=GPa)
#
#
# Indices 1 2 3 4 5 6 
#
# 1 75.6264 44.8705 15.5521 0.8927 -2.3099 33.5043
# 2 44.8705 104.5525 12.0633 -1.9746 6.4233 18.0019
# 3 15.5521 12.0633 81.3407 -11.2090 1.7199 13.1202
# 4 0.8927 -1.9746 -11.2090 36.1960 -0.4212 -2.7824
# 5 -2.3099 6.4233 1.7199 -0.4212 25.1998 -7.8165
# 6 33.5043 18.0019 13.1202 -2.7824 -7.8165 41.3381
#
#
#
# Elastic Compliance Matrix: (Units=1/GPa)
#
#
# Indices 1 2 3 4 5 6 
#
# 1 0.026018 -0.007981 -0.001329 -0.002851 -0.000987 -0.017569
# 2 -0.007981 0.013275 -0.000255 0.000799 -0.004068 0.000053
# 3 -0.001329 -0.000255 0.013702 0.003989 -0.001936 -0.003258
# 4 -0.002851 0.000799 0.003989 0.029197 0.000612 0.002778
# 5 -0.000987 -0.004068 -0.001936 0.000612 0.044375 0.011618
# 6 -0.017569 0.000053 -0.003258 0.002778 0.011618 0.041825
#
#
# Mechanical properties :
#
#
# Convention : Reuss Voigt Hill
#
# Bulk Modulus (GPa) = 29.52929 45.16570 37.34750
# Shear Modulus (GPa) = 25.14933 33.14904 29.14918
#
# Velocity S-wave (km/s) = 3.64232 4.18167 3.92128
# Velocity P-wave (km/s) = 5.76763 6.86589 6.34058
#
# Compressibility (1/GPa) = 0.03386468
#
# Stress axis : x y z
#
# Youngs Moduli (GPa) = 38.43424 75.32895 72.98145
#
# Poissons Ratio (x) = 0.60121 0.09700
# Poissons Ratio (y) = 0.30675 0.01863
# Poissons Ratio (z) = 0.05108 0.01923
#
# Static dielectric constant tensor:
#      x y z
#    x 1.665720 -0.006720 -0.006590 
#    y -0.006720 1.710430 -0.026210 
#    z -0.006590 -0.026210 1.678790 
# 
# From -- ./inp_files/181928.got.cif
#   From: 2010.05.17/outbox.cif.g08.bks.cpg/sg2_91_cif.got.tgz:181928.got - 2010.06.03 11:33:40.
