data_PCOD9109310
_publ_section_title
;
Structure prediction by ZEFSAII (Michael W. Deem and Ramdas Pophale) SiO2 
 PCOD9109310
Probable space group: P -1
;
_chemical_formula_sum "Si O2"
_cell_formula_units_Z 16
_cell_length_a 24.423971
_cell_length_b 12.408557
_cell_length_c 5.089925
_cell_angle_alpha 67.730066
_cell_angle_beta 118.862977
_cell_angle_gamma 151.713251
_cell_volume 636.236347
_symmetry_space_group_name_H-M "P -1"
_symmetry_group_IT_number 2
_symmetry_cell_setting 'triclinic'
loop_
_space_group_symop_operation_xyz
x,y,z
-x,-y,-z
loop_
_atom_site_type_symbol
_atom_site_label
_atom_site_fract_x
_atom_site_fract_y
_atom_site_fract_z
Si Si1 0.716355 0.724050 0.775029
Si Si2 0.398706 0.247156 0.375126
Si Si3 0.567460 0.407963 0.221006
Si Si4 0.282265 0.831163 0.460240
Si Si5 0.934552 0.453671 0.134437
Si Si6 0.139355 0.453999 0.888000
Si Si7 0.664409 0.320694 0.485075
Si Si8 0.112838 0.198404 0.761398
O O1 0.617678 0.514946 0.950919
O O2 0.835668 0.839455 0.981570
O O3 0.721086 0.866011 0.742547
O O4 0.667585 0.616739 0.470333
O O5 0.500000 0.500000 0.500000
O O6 0.449761 0.291593 0.162987
O O7 0.362852 0.061502 0.567704
O O8 0.566965 0.266550 0.362121
O O9 0.177888 0.609811 0.612343
O O10 0.362071 0.843962 0.566992
O O11 0.210629 0.774224 0.094526
O O12 0.946020 0.610843 0.054076
O O13 0.000000 0.500000 0.500000
O O14 0.000000 0.500000 0.000000
O O15 0.076192 0.236378 0.850153
O O16 0.267601 0.614031 0.156567
O O17 0.773610 0.558418 0.355155
O O18 0.000000 0.000000 0.500000
#
# Coordination Sequence:
#
# PCOD9109310 Si02
#       8
#     2   2   2   2   2   2   2   2
#     4  10  21  42  62  93 134 170 218 277 331 402
#     4  10  23  44  68  99 135 178 228 285 344 407
#     4  10  20  42  68  90 128 176 216 275 342 394
#     4  10  22  42  67 100 134 179 225 282 340 405
#     4  11  22  42  66  95 132 179 226 276 336 404
#     4  10  20  41  64  93 141 169 221 283 335 400
#     4   9  20  39  64  92 136 171 223 281 329 407
#     4  10  21  38  66  99 131 181 226 278 343 400
#
# _framework density 25.147887999999998
#
# number of rings (size 3 to 8) (size 9 to 14) (size 15 to 20)
#    0.000    2.000    2.500    0.375    0.000    2.000 
#   18.000    3.125    0.000    0.000    0.000    0.000 
#    0.000    0.000    0.000    0.000    0.000    0.000 
#
# Total GULP energy -89171.039300 kJ/mol
# GULP energy per Si atom -5573.189956 kJ/mol
# Density = 2.509065 g / cm^3
# Si number density = 25.147888 Si / 1000 Ang^3
#
#
#
# Elastic Constant Matrix: (Units=GPa)
#
#
# Indices 1 2 3 4 5 6 
#
# 1 189.5836 83.6978 27.6564 4.6570 7.3359 -57.3259
# 2 83.6978 94.7606 12.2520 -5.4565 9.0791 -31.7289
# 3 27.6564 12.2520 94.8659 -5.4391 13.2631 -12.8670
# 4 4.6570 -5.4565 -5.4391 18.4381 -7.8624 -5.0725
# 5 7.3359 9.0791 13.2631 -7.8624 25.8314 -8.6464
# 6 -57.3259 -31.7289 -12.8670 -5.0725 -8.6464 50.2702
#
#
#
# Elastic Compliance Matrix: (Units=1/GPa)
#
#
# Indices 1 2 3 4 5 6 
#
# 1 0.011044 -0.007314 -0.001671 -0.002434 0.002118 0.007669
# 2 -0.007314 0.019024 0.000924 0.008632 -0.000911 0.004617
# 3 -0.001671 0.000924 0.011878 0.002456 -0.004821 0.001137
# 4 -0.002434 0.008632 0.002456 0.072024 0.023191 0.014558
# 5 0.002118 -0.000911 -0.004821 0.023191 0.051942 0.011881
# 6 0.007669 0.004617 0.001137 0.014558 0.011881 0.035356
#
#
# Mechanical properties :
#
#
# Convention : Reuss Voigt Hill
#
# Bulk Modulus (GPa) = 38.72295 69.60249 54.16272
# Shear Modulus (GPa) = 22.12413 35.94820 29.03616
#
# Velocity S-wave (km/s) = 2.96929 3.78494 3.40165
# Velocity P-wave (km/s) = 5.21413 6.84386 6.08381
#
# Compressibility (1/GPa) = 0.02582448
#
# Stress axis : x y z
#
# Youngs Moduli (GPa) = 90.54452 52.56491 84.18963
#
# Poissons Ratio (x) = 0.38447 0.14065
# Poissons Ratio (y) = 0.66226 -0.07778
# Poissons Ratio (z) = 0.15127 -0.04856
#
# Static dielectric constant tensor:
#      x y z
#    x 2.060840 0.058070 0.030190 
#    y 0.058070 2.033210 -0.021300 
#    z 0.030190 -0.021300 2.054640 
# 
# From -- ./inp_files/126702.got.cif
#   From: 2010.05.17/outbox.cif.g08.bks.cpg/sg2_64_cif.got.tgz:126702.got - 2010.06.03 11:33:40.
