data_PCOD9109415
_publ_section_title
;
Structure prediction by ZEFSAII (Michael W. Deem and Ramdas Pophale) SiO2 
 PCOD9109415
Probable space group: P -1
;
_chemical_formula_sum "Si O2"
_cell_formula_units_Z 16
_cell_length_a 13.557692
_cell_length_b 11.184094
_cell_length_c 11.641992
_cell_angle_alpha 45.278360
_cell_angle_beta 109.288541
_cell_angle_gamma 73.796574
_cell_volume 765.717366
_symmetry_space_group_name_H-M "P -1"
_symmetry_group_IT_number 2
_symmetry_cell_setting 'triclinic'
loop_
_space_group_symop_operation_xyz
x,y,z
-x,-y,-z
loop_
_atom_site_type_symbol
_atom_site_label
_atom_site_fract_x
_atom_site_fract_y
_atom_site_fract_z
Si Si1 0.070929 0.252626 0.758128
Si Si2 0.763193 0.974797 0.794279
Si Si3 0.402841 0.264704 0.976685
Si Si4 0.324190 0.239953 0.217361
Si Si5 0.115513 0.806811 0.371511
Si Si6 0.229235 0.624863 0.099434
Si Si7 0.601182 0.248949 0.914105
Si Si8 0.456641 0.273996 0.624930
O O1 0.000000 0.500000 0.500000
O O2 0.950665 0.241183 0.717433
O O3 0.114253 0.235729 0.917264
O O4 0.234362 0.008196 0.915012
O O5 0.755123 0.843937 0.781496
O O6 0.805581 0.111522 0.683950
O O7 0.591962 0.179557 0.654746
O O8 0.239884 0.539514 0.671840
O O9 0.543154 0.221317 0.022774
O O10 0.357020 0.289016 0.074564
O O11 0.476643 0.995856 0.142761
O O12 0.232576 0.467770 0.118764
O O13 0.500000 0.000000 0.500000
O O14 0.945438 0.075217 0.178826
O O15 0.359679 0.609374 0.130284
O O16 0.291024 0.490141 0.341817
O O17 0.469130 0.363236 0.687072
#
# Coordination Sequence:
#
# PCOD9109415 Si02
#       8
#     2   2   2   2   2   2   2   2
#     4  10  21  41  65  96 137 167 199 262 325 376
#     4  10  21  39  65  92 126 170 209 256 313 374
#     4  11  23  40  66  92 127 167 210 258 317 380
#     4  11  23  45  67  85 125 170 221 259 306 375
#     4  11  24  39  62 100 131 159 208 265 323 371
#     4  11  23  41  63  92 125 168 210 261 313 368
#     4  10  22  37  63  97 123 160 216 260 312 370
#     4  10  20  41  65  90 127 168 208 260 309 377
#
# _framework density 20.895437999999999
#
# number of rings (size 3 to 8) (size 9 to 14) (size 15 to 20)
#    0.000    1.500    2.500    4.125    0.000    5.500 
#    0.000    0.000    0.000    0.000    0.000    0.000 
#    0.000    0.000    0.000    0.000    0.000    0.000 
#
# Total GULP energy -89252.175591 kJ/mol
# GULP energy per Si atom -5578.260974 kJ/mol
# Density = 2.084788 g / cm^3
# Si number density = 20.895438 Si / 1000 Ang^3
#
#
#
# Elastic Constant Matrix: (Units=GPa)
#
#
# Indices 1 2 3 4 5 6 
#
# 1 123.7563 38.0929 45.5077 0.0835 -6.0174 24.8335
# 2 38.0929 85.3380 31.3659 4.1612 4.2680 29.6745
# 3 45.5077 31.3659 121.4298 1.1007 -4.8023 18.9187
# 4 0.0835 4.1612 1.1007 23.5528 7.7863 -0.3844
# 5 -6.0174 4.2680 -4.8023 7.7863 17.8161 -3.2428
# 6 24.8335 29.6745 18.9187 -0.3844 -3.2428 33.3011
#
#
#
# Elastic Compliance Matrix: (Units=1/GPa)
#
#
# Indices 1 2 3 4 5 6 
#
# 1 0.010790 -0.002610 -0.002630 -0.000536 0.003079 -0.003933
# 2 -0.002610 0.019260 -0.002000 -0.000761 -0.008416 -0.014909
# 3 -0.002630 -0.002000 0.010119 -0.000933 0.002402 -0.001782
# 4 -0.000536 -0.000761 -0.000933 0.049933 -0.022066 0.000036
# 5 0.003079 -0.008416 0.002402 -0.022066 0.071394 0.010536
# 6 -0.003933 -0.014909 -0.001782 0.000036 0.010536 0.048285
#
#
# Mechanical properties :
#
#
# Convention : Reuss Voigt Hill
#
# Bulk Modulus (GPa) = 38.92793 62.27300 50.60047
# Shear Modulus (GPa) = 21.47530 29.30451 25.38991
#
# Velocity S-wave (km/s) = 3.20933 3.74897 3.48960
# Velocity P-wave (km/s) = 5.69240 6.97185 6.36436
#
# Compressibility (1/GPa) = 0.02568850
#
# Stress axis : x y z
#
# Youngs Moduli (GPa) = 92.67626 51.91985 98.82795
#
# Poissons Ratio (x) = 0.13551 0.25994
# Poissons Ratio (y) = 0.24189 0.19766
# Poissons Ratio (z) = 0.24376 0.10384
#
# Static dielectric constant tensor:
#      x y z
#    x 1.791360 0.018620 0.014980 
#    y 0.018620 1.758250 -0.006560 
#    z 0.014980 -0.006560 1.813140 
# 
# From -- ./inp_files/427443.got.cif
#   From: 2010.05.17/outbox.cif.g08.bks.cpg/sg2_214_cif.got.tgz:427443.got - 2010.06.03 11:33:40.
