data_PCOD9109169
_publ_section_title
;
Structure prediction by ZEFSAII (Michael W. Deem and Ramdas Pophale) SiO2 
 PCOD9109169
Probable space group: P -1
;
_chemical_formula_sum "Si O2"
_cell_formula_units_Z 15
_cell_length_a 15.782212
_cell_length_b 7.050340
_cell_length_c 15.666423
_cell_angle_alpha 120.814799
_cell_angle_beta 147.292537
_cell_angle_gamma 81.405171
_cell_volume 643.010912
_symmetry_space_group_name_H-M "P -1"
_symmetry_group_IT_number 2
_symmetry_cell_setting 'triclinic'
loop_
_space_group_symop_operation_xyz
x,y,z
-x,-y,-z
loop_
_atom_site_type_symbol
_atom_site_label
_atom_site_fract_x
_atom_site_fract_y
_atom_site_fract_z
Si Si1 0.170359 0.674618 0.276102
Si Si2 0.544304 0.183202 0.791001
Si Si3 0.087445 0.121521 0.903839
Si Si4 0.240178 0.702999 0.822522
Si Si5 0.000000 0.000000 0.000000
Si Si6 0.556195 0.689278 0.854585
Si Si7 0.780216 0.158295 0.832053
Si Si8 0.162732 0.443966 0.526008
O O1 0.261976 0.776441 0.282223
O O2 0.990105 0.695735 0.129569
O O3 0.335453 0.884082 0.529904
O O4 0.030915 0.339403 0.092261
O O5 0.529568 0.432637 0.819897
O O6 0.683519 0.195872 0.838121
O O7 0.634624 0.228272 0.970890
O O8 0.313427 0.265429 0.106112
O O9 0.039193 0.998699 0.927554
O O10 0.954724 0.878366 0.667010
O O11 0.255956 0.545534 0.722505
O O12 0.011039 0.523383 0.615108
O O13 0.314713 0.006341 0.921740
O O14 0.755716 0.876599 0.744592
O O15 0.338639 0.604597 0.644736
#
# Coordination Sequence:
#
# PCOD9109169 Si02
#       8
#     2   2   2   2   1   2   2   2
#     4  10  21  39  61  90 130 169 207 263 325 378
#     4  12  23  41  67  98 129 172 221 266 322 396
#     4  10  20  41  63  93 127 170 213 265 328 385
#     4  10  25  42  65  98 131 171 224 267 329 395
#     4  10  22  40  66  90 130 168 208 270 318 382
#     4  11  22  41  69  94 131 170 217 274 327 379
#     4  10  21  40  62  91 129 168 215 262 321 388
#     4  10  21  45  67  90 136 173 211 282 328 375
#
# _framework density 23.327753000000001
#
# number of rings (size 3 to 8) (size 9 to 14) (size 15 to 20)
#    0.000    1.600    2.667    2.400    0.000    2.667 
#    0.000    7.333    0.000    0.000    0.000    0.000 
#    0.000    0.000    0.000    0.000    0.000    0.000 
#
# Total GULP energy -83514.534718 kJ/mol
# GULP energy per Si atom -5567.635648 kJ/mol
# Density = 2.327466 g / cm^3
# Si number density = 23.327753 Si / 1000 Ang^3
#
#
#
# Elastic Constant Matrix: (Units=GPa)
#
#
# Indices 1 2 3 4 5 6 
#
# 1 120.6327 47.5685 59.3050 -3.1568 -3.4818 -6.6321
# 2 47.5685 86.7445 31.8687 -1.5549 -10.1248 1.9683
# 3 59.3050 31.8687 131.4996 -3.9952 -11.0538 17.8284
# 4 -3.1568 -1.5549 -3.9952 22.9823 3.3791 -8.6047
# 5 -3.4818 -10.1248 -11.0538 3.3791 45.7098 -0.5493
# 6 -6.6321 1.9683 17.8284 -8.6047 -0.5493 24.6709
#
#
#
# Elastic Compliance Matrix: (Units=1/GPa)
#
#
# Indices 1 2 3 4 5 6 
#
# 1 0.014537 -0.005942 -0.006602 0.004780 -0.002029 0.010775
# 2 -0.005942 0.015327 -0.000437 -0.001375 0.002903 -0.002920
# 3 -0.006602 -0.000437 0.012405 -0.003609 0.002524 -0.011907
# 4 0.004780 -0.001375 -0.003609 0.052403 -0.004421 0.022181
# 5 -0.002029 0.002903 0.002524 -0.004421 0.023259 -0.003625
# 6 0.010775 -0.002920 -0.011907 0.022181 -0.003625 0.059923
#
#
# Mechanical properties :
#
#
# Convention : Reuss Voigt Hill
#
# Bulk Modulus (GPa) = 61.32143 68.48458 64.90300
# Shear Modulus (GPa) = 23.89450 32.01490 27.95470
#
# Velocity S-wave (km/s) = 3.20393 3.70860 3.46547
# Velocity P-wave (km/s) = 6.32700 6.91083 6.62535
#
# Compressibility (1/GPa) = 0.01630751
#
# Stress axis : x y z
#
# Youngs Moduli (GPa) = 68.78769 65.24235 80.61335
#
# Poissons Ratio (x) = 0.38767 0.53225
# Poissons Ratio (y) = 0.40874 0.03520
# Poissons Ratio (z) = 0.45417 0.02849
#
# Static dielectric constant tensor:
#      x y z
#    x 1.893910 -0.027280 0.068630 
#    y -0.027280 2.210530 0.065070 
#    z 0.068630 0.065070 1.979900 
# 
# From -- ./inp_files/503704.got.cif
#   From: 2010.05.17/outbox.cif.g08.bks.cpg/sg2_252_cif.got.tgz:503704.got - 2010.06.03 11:33:40.
