data_PCOD9109232
_publ_section_title
;
Structure prediction by ZEFSAII (Michael W. Deem and Ramdas Pophale) SiO2 
 PCOD9109232
Probable space group: P -1
;
_chemical_formula_sum "Si O2"
_cell_formula_units_Z 16
_cell_length_a 8.476116
_cell_length_b 14.718102
_cell_length_c 12.524048
_cell_angle_alpha 66.527195
_cell_angle_beta 32.748305
_cell_angle_gamma 68.206644
_cell_volume 773.170128
_symmetry_space_group_name_H-M "P -1"
_symmetry_group_IT_number 2
_symmetry_cell_setting 'triclinic'
loop_
_space_group_symop_operation_xyz
x,y,z
-x,-y,-z
loop_
_atom_site_type_symbol
_atom_site_label
_atom_site_fract_x
_atom_site_fract_y
_atom_site_fract_z
Si Si1 0.274995 0.428391 0.912601
Si Si2 0.912719 0.266033 0.773753
Si Si3 0.148863 0.103215 0.859895
Si Si4 0.994030 0.745958 0.938027
Si Si5 0.477035 0.148518 0.970479
Si Si6 0.384572 0.383766 0.347127
Si Si7 0.672864 0.015000 0.719676
Si Si8 0.394849 0.390242 0.101356
O O1 0.538157 0.502085 0.730334
O O2 0.238310 0.390531 0.074403
O O3 0.244094 0.338162 0.889699
O O4 0.000000 0.500000 0.000000
O O5 0.086480 0.164761 0.759616
O O6 0.138894 0.345976 0.580538
O O7 0.695131 0.235216 0.819404
O O8 0.681564 0.314813 0.966454
O O9 0.483549 0.071930 0.709639
O O10 0.032087 0.180353 0.981807
O O11 0.000000 0.000000 0.000000
O O12 0.313670 0.687643 0.775745
O O13 0.855333 0.814941 0.888787
O O14 0.618055 0.079883 0.828026
O O15 0.455182 0.088436 0.121887
O O16 0.263327 0.371648 0.300908
O O17 0.000000 0.000000 0.500000
O O18 0.500000 0.500000 0.000000
#
# Coordination Sequence:
#
# PCOD9109232 Si02
#       8
#     2   2   2   2   2   2   2   2
#     4   9  19  39  66  92 124 169 204 261 323 379
#     4  12  23  41  64  98 129 166 219 266 314 382
#     4  11  23  41  65  92 130 172 214 266 319 377
#     4  10  20  41  64  87 130 169 207 262 327 376
#     4  10  22  40  61  89 127 166 206 271 316 369
#     4  10  23  39  67  96 125 167 219 257 325 385
#     4  10  23  42  63  88 124 168 219 258 322 375
#     4  10  21  41  66  90 129 167 206 264 323 374
#
# _framework density 20.694020999999999
#
# number of rings (size 3 to 8) (size 9 to 14) (size 15 to 20)
#    0.000    1.750    3.750    0.000    1.750    4.000 
#    0.000    3.125    0.000    0.000    0.000    0.000 
#    0.000    0.000    0.000    0.000    0.000    0.000 
#
# Total GULP energy -89079.322583 kJ/mol
# GULP energy per Si atom -5567.457661 kJ/mol
# Density = 2.064692 g / cm^3
# Si number density = 20.694021 Si / 1000 Ang^3
#
#
#
# Elastic Constant Matrix: (Units=GPa)
#
#
# Indices 1 2 3 4 5 6 
#
# 1 88.7177 19.0621 9.9731 2.1237 -4.5438 -12.8935
# 2 19.0621 88.1972 7.0614 1.7801 -4.1065 12.0552
# 3 9.9731 7.0614 38.3312 -6.6285 -7.3087 6.0531
# 4 2.1237 1.7801 -6.6285 26.1540 -4.8461 -7.2538
# 5 -4.5438 -4.1065 -7.3087 -4.8461 17.5097 -2.7783
# 6 -12.8935 12.0552 6.0531 -7.2538 -2.7783 52.4549
#
#
#
# Elastic Compliance Matrix: (Units=1/GPa)
#
#
# Indices 1 2 3 4 5 6 
#
# 1 0.013023 -0.003065 -0.003136 -0.000057 0.002029 0.004367
# 2 -0.003065 0.012671 -0.001148 -0.001836 0.000593 -0.003755
# 3 -0.003136 -0.001148 0.032133 0.010716 0.014987 -0.001939
# 4 -0.000057 -0.001836 0.010716 0.046191 0.017844 0.006504
# 5 0.002029 0.000593 0.014987 0.017844 0.069732 0.004794
# 6 0.004367 -0.003755 -0.001939 0.006504 0.004794 0.022378
#
#
# Mechanical properties :
#
#
# Convention : Reuss Voigt Hill
#
# Bulk Modulus (GPa) = 23.18703 31.93770 27.56236
# Shear Modulus (GPa) = 22.20247 31.16702 26.68475
#
# Velocity S-wave (km/s) = 3.27906 3.88505 3.59484
# Velocity P-wave (km/s) = 5.05622 5.96587 5.52978
#
# Compressibility (1/GPa) = 0.04312757
#
# Stress axis : x y z
#
# Youngs Moduli (GPa) = 76.78921 78.92339 31.12078
#
# Poissons Ratio (x) = 0.24188 0.09760
# Poissons Ratio (y) = 0.23534 0.03573
# Poissons Ratio (z) = 0.24083 0.09062
#
# Static dielectric constant tensor:
#      x y z
#    x 1.834910 0.035120 0.055250 
#    y 0.035120 1.932500 0.047860 
#    z 0.055250 0.047860 1.748780 
# 
# From -- ./inp_files/206563.got.cif
#   From: 2010.05.17/outbox.cif.g08.bks.cpg/sg2_104_cif.got.tgz:206563.got - 2010.06.03 11:33:40.
