data_PCOD9109558
_publ_section_title
;
Structure prediction by ZEFSAII (Michael W. Deem and Ramdas Pophale) SiO2 
 PCOD9109558
Probable space group: P -1
;
_chemical_formula_sum "Si O2"
_cell_formula_units_Z 16
_cell_length_a 22.881710
_cell_length_b 10.779915
_cell_length_c 7.484605
_cell_angle_alpha 136.528509
_cell_angle_beta 125.307413
_cell_angle_gamma 31.013648
_cell_volume 649.375105
_symmetry_space_group_name_H-M "P -1"
_symmetry_group_IT_number 2
_symmetry_cell_setting 'triclinic'
loop_
_space_group_symop_operation_xyz
x,y,z
-x,-y,-z
loop_
_atom_site_type_symbol
_atom_site_label
_atom_site_fract_x
_atom_site_fract_y
_atom_site_fract_z
Si Si1 0.655305 0.404673 0.998725
Si Si2 0.234520 0.262357 0.007126
Si Si3 0.386213 0.862369 0.520407
Si Si4 0.518503 0.982290 0.302042
Si Si5 0.951568 0.399198 0.255211
Si Si6 0.725649 0.444879 0.683871
Si Si7 0.632258 0.290801 0.212682
Si Si8 0.840674 0.287667 0.107934
O O1 0.564092 0.697099 0.030382
O O2 0.602824 0.437022 0.124026
O O3 0.750321 0.370005 0.167566
O O4 0.691029 0.154052 0.698084
O O5 0.121346 0.428442 0.874563
O O6 0.332436 0.032928 0.788690
O O7 0.296420 0.030743 0.029998
O O8 0.217277 0.505395 0.274262
O O9 0.515717 0.529160 0.371435
O O10 0.393000 0.031467 0.594077
O O11 0.500000 0.000000 0.500000
O O12 0.407529 0.247159 0.267433
O O13 0.875856 0.429799 0.298905
O O14 0.000000 0.500000 0.500000
O O15 0.050105 0.057058 0.038484
O O16 0.726932 0.235614 0.412008
O O17 0.780835 0.361011 0.887126
#
# Coordination Sequence:
#
# PCOD9109558 Si02
#       8
#     2   2   2   2   2   2   2   2
#     4  12  23  39  59  90 131 162 199 250 300 366
#     4  11  23  38  63  92 116 162 210 253 300 355
#     4  11  23  37  59  89 125 172 203 244 296 355
#     4  11  22  37  57  88 125 166 199 236 300 355
#     4  10  20  41  66  88 115 150 207 263 304 355
#     4  10  21  39  59  85 121 157 204 249 289 360
#     4  11  23  36  58  89 128 167 198 243 303 356
#     4  10  23  39  64  91 115 156 205 258 308 349
#
# _framework density 24.63907
#
# number of rings (size 3 to 8) (size 9 to 14) (size 15 to 20)
#    0.000    1.250    2.500    5.250    1.750    5.500 
#    0.000    0.625    0.000   10.500    0.000    0.000 
#    0.000    0.000    0.000    0.000    0.000    0.000 
#
# Total GULP energy -89244.937312 kJ/mol
# GULP energy per Si atom -5577.808582 kJ/mol
# Density = 2.458299 g / cm^3
# Si number density = 24.639070 Si / 1000 Ang^3
#
#
#
# Elastic Constant Matrix: (Units=GPa)
#
#
# Indices 1 2 3 4 5 6 
#
# 1 85.7585 23.4160 19.4458 -5.3563 31.2062 4.4766
# 2 23.4160 126.7513 1.1851 6.2257 5.5274 13.4129
# 3 19.4458 1.1851 80.7600 -14.7225 31.9029 -2.2846
# 4 -5.3563 6.2257 -14.7225 30.0460 -1.6729 13.3630
# 5 31.2062 5.5274 31.9029 -1.6729 40.5945 -5.3463
# 6 4.4766 13.4129 -2.2846 13.3630 -5.3463 39.5487
#
#
#
# Elastic Compliance Matrix: (Units=1/GPa)
#
#
# Indices 1 2 3 4 5 6 
#
# 1 0.018505 -0.002444 0.003463 0.007122 -0.017082 -0.005781
# 2 -0.002444 0.008617 0.000052 -0.001203 0.000327 -0.002192
# 3 0.003463 0.000052 0.021576 0.012822 -0.019912 -0.006187
# 4 0.007122 -0.001203 0.012822 0.048253 -0.015783 -0.018095
# 5 -0.017082 0.000327 -0.019912 -0.015783 0.054480 0.013370
# 6 -0.005781 -0.002192 -0.006187 -0.018095 0.013370 0.034247
#
#
# Mechanical properties :
#
#
# Convention : Reuss Voigt Hill
#
# Bulk Modulus (GPa) = 19.66950 42.37374 31.02162
# Shear Modulus (GPa) = 24.93950 38.65270 31.79610
#
# Velocity S-wave (km/s) = 3.18495 3.96505 3.59622
# Velocity P-wave (km/s) = 4.63957 6.18039 5.46456
#
# Compressibility (1/GPa) = 0.05084013
#
# Stress axis : x y z
#
# Youngs Moduli (GPa) = 54.03826 116.04490 46.34746
#
# Poissons Ratio (x) = 0.28363 -0.16050
# Poissons Ratio (y) = 0.13208 -0.00240
# Poissons Ratio (z) = -0.18713 -0.00601
#
# Static dielectric constant tensor:
#      x y z
#    x 2.108310 -0.020800 0.023530 
#    y -0.020800 2.020430 0.017760 
#    z 0.023530 0.017760 2.027920 
# 
# From -- ./inp_files/353739.got.cif
#   From: 2010.05.17/outbox.cif.g08.bks.cpg/sg2_177_cif.got.tgz:353739.got - 2010.06.03 11:33:40.
