data_PCOD9109967
_publ_section_title
;
Structure prediction by ZEFSAII (Michael W. Deem and Ramdas Pophale) SiO2 
 PCOD9109967
Probable space group: P -1
;
_chemical_formula_sum "Si O2"
_cell_formula_units_Z 16
_cell_length_a 6.914639
_cell_length_b 14.209593
_cell_length_c 8.008369
_cell_angle_alpha 105.179715
_cell_angle_beta 56.937701
_cell_angle_gamma 109.780655
_cell_volume 617.553864
_symmetry_space_group_name_H-M "P -1"
_symmetry_group_IT_number 2
_symmetry_cell_setting 'triclinic'
loop_
_space_group_symop_operation_xyz
x,y,z
-x,-y,-z
loop_
_atom_site_type_symbol
_atom_site_label
_atom_site_fract_x
_atom_site_fract_y
_atom_site_fract_z
Si Si1 0.850583 0.348018 0.498259
Si Si2 0.773504 0.231903 0.007178
Si Si3 0.391296 0.846913 0.325043
Si Si4 0.700068 0.017908 0.062462
Si Si5 0.772986 0.608562 0.209887
Si Si6 0.958404 0.923729 0.635669
Si Si7 0.106247 0.487153 0.185097
Si Si8 0.339435 0.294776 0.378288
O O1 0.927280 0.387323 0.296282
O O2 0.105051 0.325186 0.426971
O O3 0.631719 0.254294 0.604191
O O4 0.800581 0.441349 0.669311
O O5 0.757857 0.138794 0.099513
O O6 0.582868 0.298856 0.165510
O O7 0.705532 0.191961 0.831830
O O8 0.047341 0.289455 0.889445
O O9 0.199340 0.891449 0.530151
O O10 0.604058 0.941511 0.223014
O O11 0.500000 0.000000 0.000000
O O12 0.895508 0.973478 0.855903
O O13 0.945836 0.549362 0.193603
O O14 0.613300 0.638795 0.444431
O O15 0.708072 0.543289 0.042787
O O16 0.760379 0.826229 0.622152
O O17 0.000000 0.000000 0.500000
#
# Coordination Sequence:
#
# PCOD9109967 Si02
#       8
#     2   2   2   2   2   2   2   2
#     4   9  18  34  54  72  97 130 165 207 246 288
#     4  11  17  29  48  77 107 128 160 202 247 290
#     4  10  17  27  46  72 103 131 155 205 246 279
#     4  10  17  24  43  74 107 127 159 199 245 284
#     4  10  19  34  54  71  99 132 159 207 251 288
#     4  11  14  23  41  71 104 127 162 197 242 280
#     4   9  18  35  57  70  93 132 169 202 251 294
#     4  10  18  28  48  75 102 127 162 202 242 294
#
# _framework density 25.908673
#
# number of rings (size 3 to 8) (size 9 to 14) (size 15 to 20)
#    0.000    2.000    8.750    0.000    0.000    0.000 
#    0.000    6.250    2.750    0.750    0.000   18.375 
#    0.000    1.000    0.000    0.000    0.000    0.000 
#
# Total GULP energy -89325.710664 kJ/mol
# GULP energy per Si atom -5582.856917 kJ/mol
# Density = 2.584970 g / cm^3
# Si number density = 25.908673 Si / 1000 Ang^3
#
#
#
# Elastic Constant Matrix: (Units=GPa)
#
#
# Indices 1 2 3 4 5 6 
#
# 1 44.4587 9.6769 17.1068 13.4142 -14.0771 10.6029
# 2 9.6769 114.6437 15.4391 -19.2269 -2.9539 -5.8853
# 3 17.1068 15.4391 143.4880 39.7437 -37.4075 7.2079
# 4 13.4142 -19.2269 39.7437 50.5818 2.7065 -1.3656
# 5 -14.0771 -2.9539 -37.4075 2.7065 32.7430 14.8065
# 6 10.6029 -5.8853 7.2079 -1.3656 14.8065 0.1625
#
#
#
# Elastic Compliance Matrix: (Units=1/GPa)
#
#
# Indices 1 2 3 4 5 6 
#
# 1 0.016449 0.000444 -0.005744 0.001355 -0.008908 0.020666
# 2 0.000444 0.008976 -0.000495 0.003254 0.003881 -0.008217
# 3 -0.005744 -0.000495 0.007961 -0.004443 -0.000551 0.016584
# 4 0.001355 0.003254 -0.004443 0.023219 0.004895 -0.024358
# 5 -0.008908 0.003881 -0.000551 0.004895 0.008209 0.039404
# 6 0.020666 -0.008217 0.016584 -0.024358 0.039404 -0.022779
#
#
# Mechanical properties :
#
#
# Convention : Reuss Voigt Hill
#
# Bulk Modulus (GPa) = 45.88415 43.00401 44.44408
# Shear Modulus (GPa) = 82.11249 34.05530 58.08389
#
# Velocity S-wave (km/s) = 5.63577 3.62945 4.73998
# Velocity P-wave (km/s) = 7.75226 5.84792 6.86643
#
# Compressibility (1/GPa) = 0.02179402
#
# Stress axis : x y z
#
# Youngs Moduli (GPa) = 60.79485 111.41033 125.60567
#
# Poissons Ratio (x) = -0.04943 0.72153
# Poissons Ratio (y) = -0.02698 0.06221
# Poissons Ratio (z) = 0.34923 0.05518
#
# Static dielectric constant tensor:
#      x y z
#    x 2.228010 -0.028670 -0.008790 
#    y -0.028670 2.197380 0.025780 
#    z -0.008790 0.025780 2.000530 
# 
# From -- ./inp_files/270605.got.cif
#   From: 2010.05.17/outbox.cif.g08.bks.cpg/sg2_136_cif.got.tgz:270605.got - 2010.06.03 11:33:40.
