data_PCOD9109727
_publ_section_title
;
Structure prediction by ZEFSAII (Michael W. Deem and Ramdas Pophale) SiO2 
 PCOD9109727
Probable space group: P -1
;
_chemical_formula_sum "Si O2"
_cell_formula_units_Z 13
_cell_length_a 9.317278
_cell_length_b 23.114209
_cell_length_c 10.479279
_cell_angle_alpha 27.315458
_cell_angle_beta 43.571358
_cell_angle_gamma 28.627625
_cell_volume 480.201887
_symmetry_space_group_name_H-M "P -1"
_symmetry_group_IT_number 2
_symmetry_cell_setting 'triclinic'
loop_
_space_group_symop_operation_xyz
x,y,z
-x,-y,-z
loop_
_atom_site_type_symbol
_atom_site_label
_atom_site_fract_x
_atom_site_fract_y
_atom_site_fract_z
Si Si1 0.373295 0.577334 0.635742
Si Si2 0.587537 0.714098 0.913773
Si Si3 0.019778 0.558162 0.567230
Si Si4 0.998567 0.085167 0.958095
Si Si5 0.000000 0.000000 0.500000
Si Si6 0.449865 0.662540 0.667554
Si Si7 0.542661 0.931255 0.304348
O O1 0.348635 0.436256 0.924364
O O2 0.724715 0.467101 0.611316
O O3 0.195240 0.705224 0.374927
O O4 0.263127 0.712400 0.560643
O O5 0.787222 0.606018 0.125062
O O6 0.220230 0.867101 0.881963
O O7 0.625501 0.827536 0.591474
O O8 0.792326 0.568498 0.616237
O O9 0.770281 0.761059 0.394164
O O10 0.351052 0.972189 0.969617
O O11 0.000000 0.000000 0.000000
O O12 0.739890 0.176530 0.419965
O O13 0.807518 0.950662 0.722274
O O14 0.500000 0.500000 0.000000
#
# Coordination Sequence:
#
# PCOD9109727 Si02
#       7
#     2   2   2   2   1   2   2
#     4  11  21  42  69 101 132 173 238 280 341 413
#     4  11  22  41  74 100 128 182 231 284 344 403
#     4  10  20  41  67 102 132 176 227 286 339 406
#     4  11  25  41  63 104 141 178 226 285 345 409
#     4  10  26  44  64 102 140 180 232 282 344 420
#     4  11  25  42  68  99 140 183 232 278 349 418
#     4  11  22  43  70  96 141 180 228 285 343 410
#
# _framework density 27.071947999999999
#
# number of rings (size 3 to 8) (size 9 to 14) (size 15 to 20)
#    0.000    1.231    3.077    3.692    4.308    3.077 
#    0.000    2.308    0.000    0.000    0.000    0.000 
#    0.000    0.000    0.000    0.000    0.000    0.000 
#
# Total GULP energy -72493.107099 kJ/mol
# GULP energy per Si atom -5576.392854 kJ/mol
# Density = 2.701033 g / cm^3
# Si number density = 27.071948 Si / 1000 Ang^3
#
#
#
# Elastic Constant Matrix: (Units=GPa)
#
#
# Indices 1 2 3 4 5 6 
#
# 1 96.2558 17.0008 12.2648 -15.7316 -12.4294 -15.3212
# 2 17.0008 141.5373 14.6380 21.9925 -28.8749 -16.7015
# 3 12.2648 14.6380 63.2927 1.4518 11.7906 -6.1647
# 4 -15.7316 21.9925 1.4518 35.0097 -13.4434 -11.8478
# 5 -12.4294 -28.8749 11.7906 -13.4434 39.6655 0.3153
# 6 -15.3212 -16.7015 -6.1647 -11.8478 0.3153 49.8297
#
#
#
# Elastic Compliance Matrix: (Units=1/GPa)
#
#
# Indices 1 2 3 4 5 6 
#
# 1 0.016036 -0.000613 -0.004572 0.014469 0.010782 0.007531
# 2 -0.000613 0.009479 -0.003055 -0.002933 0.006608 0.001872
# 3 -0.004572 -0.003055 0.019521 -0.005769 -0.011404 -0.001314
# 4 0.014469 -0.002933 -0.005769 0.050125 0.020986 0.014537
# 5 0.010782 0.006608 -0.011404 0.020986 0.043832 0.008831
# 6 0.007531 0.001872 -0.001314 0.014537 0.008831 0.026249
#
#
# Mechanical properties :
#
#
# Convention : Reuss Voigt Hill
#
# Bulk Modulus (GPa) = 35.02010 43.21034 39.11522
# Shear Modulus (GPa) = 26.14495 42.04645 34.09570
#
# Velocity S-wave (km/s) = 3.11104 3.94526 3.55272
# Velocity P-wave (km/s) = 5.08613 6.06213 5.59545
#
# Compressibility (1/GPa) = 0.02855503
#
# Stress axis : x y z
#
# Youngs Moduli (GPa) = 62.36095 105.49085 51.22731
#
# Poissons Ratio (x) = 0.06470 0.23423
# Poissons Ratio (y) = 0.03824 0.15649
# Poissons Ratio (z) = 0.28514 0.32226
#
# Static dielectric constant tensor:
#      x y z
#    x 1.239730 -0.046120 -0.895430 
#    y -0.046120 2.093940 0.026380 
#    z -0.895430 0.026380 1.165770 
# 
# From -- ./inp_files/181739.got.cif
#   From: 2010.05.17/outbox.cif.g08.bks.cpg/sg2_91_cif.got.tgz:181739.got - 2010.06.03 11:33:40.
