data_PCOD9109834
_publ_section_title
;
Structure prediction by ZEFSAII (Michael W. Deem and Ramdas Pophale) SiO2 
 PCOD9109834
Probable space group: P -1
;
_chemical_formula_sum "Si O2"
_cell_formula_units_Z 16
_cell_length_a 10.344096
_cell_length_b 7.119566
_cell_length_c 11.872513
_cell_angle_alpha 76.190671
_cell_angle_beta 94.249877
_cell_angle_gamma 48.965051
_cell_volume 607.845485
_symmetry_space_group_name_H-M "P -1"
_symmetry_group_IT_number 2
_symmetry_cell_setting 'triclinic'
loop_
_space_group_symop_operation_xyz
x,y,z
-x,-y,-z
loop_
_atom_site_type_symbol
_atom_site_label
_atom_site_fract_x
_atom_site_fract_y
_atom_site_fract_z
Si Si1 0.899062 0.767655 0.377704
Si Si2 0.596544 0.688646 0.047628
Si Si3 0.800928 0.516422 0.309899
Si Si4 0.834574 0.037191 0.536926
Si Si5 0.942105 0.233452 0.811180
Si Si6 0.242642 0.271626 0.143319
Si Si7 0.491816 0.851440 0.412456
Si Si8 0.239450 0.887478 0.058339
O O1 0.788676 0.761555 0.281189
O O2 0.000000 0.500000 0.500000
O O3 0.772188 0.015911 0.415327
O O4 0.030653 0.772319 0.318579
O O5 0.712192 0.535928 0.188564
O O6 0.436114 0.706432 0.047054
O O7 0.710604 0.599732 0.955865
O O8 0.500000 0.000000 0.000000
O O9 0.014483 0.252687 0.350947
O O10 0.685739 0.576612 0.409036
O O11 0.000000 0.000000 0.500000
O O12 0.647723 0.183249 0.570060
O O13 0.905982 0.482903 0.821282
O O14 0.784229 0.250822 0.829036
O O15 0.111553 0.984100 0.929084
O O16 0.193159 0.136867 0.084937
O O17 0.403767 0.050258 0.270496
O O18 0.500000 0.000000 0.500000
#
# Coordination Sequence:
#
# PCOD9109834 Si02
#       8
#     2   2   2   2   2   2   2   2
#     4  10  21  41  66  91 131 176 228 281 348 405
#     4  10  20  41  67  96 133 176 226 279 357 409
#     4  11  22  45  71  96 137 180 228 296 339 423
#     4  11  27  44  65 102 137 183 231 288 356 419
#     4  11  24  40  67 100 137 179 229 295 350 417
#     4  11  23  42  70  96 134 182 231 280 349 431
#     4  12  25  43  72 104 131 184 246 277 348 434
#     4  10  23  42  63 101 138 176 228 286 355 420
#
# _framework density 26.322481
#
# number of rings (size 3 to 8) (size 9 to 14) (size 15 to 20)
#    0.000    1.250    3.750    3.375    3.500    2.000 
#    4.500    0.000    0.000    0.000    0.000    0.000 
#    0.000    0.000    0.000    0.000    0.000    0.000 
#
# Total GULP energy -89156.152472 kJ/mol
# GULP energy per Si atom -5572.259529 kJ/mol
# Density = 2.626257 g / cm^3
# Si number density = 26.322481 Si / 1000 Ang^3
#
#
#
# Elastic Constant Matrix: (Units=GPa)
#
#
# Indices 1 2 3 4 5 6 
#
# 1 154.5588 18.8703 39.5495 5.8353 -46.0430 -26.6482
# 2 18.8703 66.6982 21.4124 18.1724 -2.0422 -20.4003
# 3 39.5495 21.4124 120.1213 12.3158 -24.9644 -16.3505
# 4 5.8353 18.1724 12.3158 30.8817 -10.8447 -5.0302
# 5 -46.0430 -2.0422 -24.9644 -10.8447 55.3969 5.5038
# 6 -26.6482 -20.4003 -16.3505 -5.0302 5.5038 33.2658
#
#
#
# Elastic Compliance Matrix: (Units=1/GPa)
#
#
# Indices 1 2 3 4 5 6 
#
# 1 0.010169 -0.001307 -0.000949 0.003004 0.007967 0.006014
# 2 -0.001307 0.022351 -0.001798 -0.012022 -0.004489 0.010701
# 3 -0.000949 -0.001798 0.010076 -0.001271 0.003202 0.002368
# 4 0.003004 -0.012022 -0.001271 0.042756 0.009927 -0.000768
# 5 0.007967 -0.004489 0.003202 0.009927 0.027683 0.002123
# 6 0.006014 0.010701 0.002368 -0.000768 0.002123 0.042137
#
#
# Mechanical properties :
#
#
# Convention : Reuss Voigt Hill
#
# Bulk Modulus (GPa) = 28.99523 55.67142 42.33332
# Shear Modulus (GPa) = 28.60805 41.34531 34.97668
#
# Velocity S-wave (km/s) = 3.30029 3.96753 3.64919
# Velocity P-wave (km/s) = 5.05587 6.49493 5.82005
#
# Compressibility (1/GPa) = 0.03448844
#
# Stress axis : x y z
#
# Youngs Moduli (GPa) = 98.33518 44.74106 99.24800
#
# Poissons Ratio (x) = 0.05849 0.09416
# Poissons Ratio (y) = 0.12856 0.17841
# Poissons Ratio (z) = 0.09329 0.08043
#
# Static dielectric constant tensor:
#      x y z
#    x 2.211180 0.148720 -0.072750 
#    y 0.148720 2.650580 -0.237550 
#    z -0.072750 -0.237550 2.270970 
# 
# From -- ./inp_files/381978.got.cif
#   From: 2010.05.17/outbox.cif.g08.bks.cpg/sg2_191_cif.got.tgz:381978.got - 2010.06.03 11:33:40.
