data_PCOD9109041
_publ_section_title
;
Structure prediction by ZEFSAII (Michael W. Deem and Ramdas Pophale) SiO2 
 PCOD9109041
Probable space group: P -1
;
_chemical_formula_sum "Si O2"
_cell_formula_units_Z 16
_cell_length_a 9.381401
_cell_length_b 19.739347
_cell_length_c 8.439175
_cell_angle_alpha 124.522538
_cell_angle_beta 132.662948
_cell_angle_gamma 38.600800
_cell_volume 714.626474
_symmetry_space_group_name_H-M "P -1"
_symmetry_group_IT_number 2
_symmetry_cell_setting 'triclinic'
loop_
_space_group_symop_operation_xyz
x,y,z
-x,-y,-z
loop_
_atom_site_type_symbol
_atom_site_label
_atom_site_fract_x
_atom_site_fract_y
_atom_site_fract_z
Si Si1 0.526614 0.566655 0.834380
Si Si2 0.698337 0.869704 0.501821
Si Si3 0.959736 0.591705 0.832523
Si Si4 0.115497 0.848975 0.594270
Si Si5 0.009639 0.742809 0.861656
Si Si6 0.779839 0.909046 0.163680
Si Si7 0.482361 0.393824 0.496702
Si Si8 0.597964 0.794884 0.043654
O O1 0.533178 0.465615 0.712226
O O2 0.530422 0.586741 0.677455
O O3 0.272538 0.669304 0.864202
O O4 0.781420 0.520491 0.057686
O O5 0.768729 0.820185 0.663907
O O6 0.960052 0.838547 0.591133
O O7 0.500000 0.000000 0.500000
O O8 0.604286 0.816360 0.260970
O O9 0.996041 0.660761 0.839238
O O10 0.779790 0.572855 0.596435
O O11 0.791858 0.671322 0.963045
O O12 0.295529 0.734471 0.484771
O O13 0.315849 0.854552 0.838031
O O14 0.905920 0.936207 0.421711
O O15 0.975920 0.829249 0.068024
O O16 0.721572 0.842796 0.130206
O O17 0.500000 0.000000 0.000000
#
# Coordination Sequence:
#
# PCOD9109041 Si02
#       8
#     2   2   2   2   2   2   2   2
#     4  11  21  37  62  91 128 163 213 249 312 380
#     4  11  22  40  62  89 127 159 210 266 318 364
#     4  10  22  39  61  89 130 164 210 250 313 378
#     4  10  20  41  62  84 117 166 212 244 304 384
#     4  11  22  38  62  98 126 160 207 274 318 359
#     4  10  21  40  63  87 122 163 205 258 322 371
#     4  10  21  38  63  88 121 178 204 247 306 386
#     4   9  21  39  63  84 116 169 207 247 302 384
#
# _framework density 22.389316999999998
#
# number of rings (size 3 to 8) (size 9 to 14) (size 15 to 20)
#    0.000    1.750    1.250    4.500    1.750    1.500 
#    0.000    8.750    0.000    0.000    0.000    0.000 
#    0.000    0.000    0.000    0.000    0.000    0.000 
#
# Total GULP energy -89308.286997 kJ/mol
# GULP energy per Si atom -5581.767937 kJ/mol
# Density = 2.233836 g / cm^3
# Si number density = 22.389317 Si / 1000 Ang^3
#
#
#
# Elastic Constant Matrix: (Units=GPa)
#
#
# Indices 1 2 3 4 5 6 
#
# 1 42.8552 17.2144 32.1953 -7.2990 3.3349 -13.1825
# 2 17.2144 47.8496 18.5547 -24.6715 1.1416 -11.0841
# 3 32.1953 18.5547 111.7144 -26.8998 -3.0925 -5.0567
# 4 -7.2990 -24.6715 -26.8998 35.2636 1.2988 3.3651
# 5 3.3349 1.1416 -3.0925 1.2988 35.4041 -7.6469
# 6 -13.1825 -11.0841 -5.0567 3.3651 -7.6469 26.1834
#
#
#
# Elastic Compliance Matrix: (Units=1/GPa)
#
#
# Indices 1 2 3 4 5 6 
#
# 1 0.038830 -0.011549 -0.011026 -0.009705 -0.000978 0.013493
# 2 -0.011549 0.039644 0.003740 0.027357 0.000959 0.008454
# 3 -0.011026 0.003740 0.014161 0.011313 0.001238 -0.002325
# 4 -0.009705 0.027357 0.011313 0.053971 -0.000576 0.001775
# 5 -0.000978 0.000959 0.001238 -0.000576 0.030402 0.009106
# 6 0.013493 0.008454 -0.002325 0.001775 0.009106 0.050547
#
#
# Mechanical properties :
#
#
# Convention : Reuss Voigt Hill
#
# Bulk Modulus (GPa) = 18.19284 37.59420 27.89352
# Shear Modulus (GPa) = 17.63380 28.33388 22.98384
#
# Velocity S-wave (km/s) = 2.80946 3.56126 3.20746
# Velocity P-wave (km/s) = 4.32058 5.80841 5.11884
#
# Compressibility (1/GPa) = 0.05496668
#
# Stress axis : x y z
#
# Youngs Moduli (GPa) = 25.75307 25.22424 70.61757
#
# Poissons Ratio (x) = 0.29132 0.77860
# Poissons Ratio (y) = 0.29743 -0.26414
# Poissons Ratio (z) = 0.28394 -0.09435
#
# Static dielectric constant tensor:
#      x y z
#    x 1.876470 0.010340 -0.053720 
#    y 0.010340 1.863910 -0.011580 
#    z -0.053720 -0.011580 1.877860 
# 
# From -- ./inp_files/223906.got.cif
#   From: 2010.05.17/outbox.cif.g08.bks.cpg/sg2_112_cif.got.tgz:223906.got - 2010.06.03 11:33:40.
