data_PCOD9109758
_publ_section_title
;
Structure prediction by ZEFSAII (Michael W. Deem and Ramdas Pophale) SiO2 
 PCOD9109758
Probable space group: P -1
;
_chemical_formula_sum "Si O2"
_cell_formula_units_Z 12
_cell_length_a 20.438680
_cell_length_b 7.012748
_cell_length_c 7.538683
_cell_angle_alpha 84.275449
_cell_angle_beta 26.798957
_cell_angle_gamma 81.538520
_cell_volume 480.655211
_symmetry_space_group_name_H-M "P -1"
_symmetry_group_IT_number 2
_symmetry_cell_setting 'triclinic'
loop_
_space_group_symop_operation_xyz
x,y,z
-x,-y,-z
loop_
_atom_site_type_symbol
_atom_site_label
_atom_site_fract_x
_atom_site_fract_y
_atom_site_fract_z
Si Si1 0.204975 0.243492 0.371034
Si Si2 0.548387 0.495397 0.178812
Si Si3 0.791511 0.178482 0.500582
Si Si4 0.158045 0.091295 0.108032
Si Si5 0.038975 0.627826 0.635182
Si Si6 0.752591 0.305819 0.199833
O O1 0.074993 0.420637 0.658120
O O2 0.195598 0.051130 0.521946
O O3 0.210053 0.163849 0.163458
O O4 0.338041 0.347733 0.113252
O O5 0.500000 0.500000 0.500000
O O6 0.400016 0.559597 0.427503
O O7 0.634511 0.289726 0.932733
O O8 0.820074 0.264822 0.232752
O O9 0.101050 0.771997 0.609099
O O10 0.119351 0.275075 0.055048
O O11 0.270174 0.909402 0.792398
O O12 0.857972 0.382414 0.790250
O O13 0.000000 0.000000 0.500000
#
# Coordination Sequence:
#
# PCOD9109758 Si02
#       6
#     2   2   2   2   2   2
#     4  11  21  41  69  89 126 167 207 257 314 367
#     4  11  22  43  65  92 126 165 208 257 312 371
#     4  11  23  40  64  96 127 160 209 261 308 371
#     4  10  20  41  67  90 125 170 208 252 311 369
#     4  10  22  45  63  92 128 166 210 255 308 368
#     4  11  22  42  64  93 128 167 202 261 312 363
#
# _framework density 24.965920000000001
#
# number of rings (size 3 to 8) (size 9 to 14) (size 15 to 20)
#    0.000    1.333    6.667    1.000    0.000    4.000 
#    6.000    0.833    0.000    0.000    0.000    0.000 
#    0.000    0.000    0.000    0.000    0.000    0.000 
#
# Total GULP energy -67160.991360 kJ/mol
# GULP energy per Si atom -5596.749280 kJ/mol
# Density = 2.490910 g / cm^3
# Si number density = 24.965920 Si / 1000 Ang^3
#
#
#
# Elastic Constant Matrix: (Units=GPa)
#
#
# Indices 1 2 3 4 5 6 
#
# 1 118.0989 25.6576 32.3974 -13.8197 6.3975 -22.2772
# 2 25.6576 142.2027 52.2513 8.5916 -9.6153 -25.4017
# 3 32.3974 52.2513 88.4851 14.3497 6.3780 -21.5587
# 4 -13.8197 8.5916 14.3497 37.1909 0.9772 1.5180
# 5 6.3975 -9.6153 6.3780 0.9772 37.0190 16.0326
# 6 -22.2772 -25.4017 -21.5587 1.5180 16.0326 36.9153
#
#
#
# Elastic Compliance Matrix: (Units=1/GPa)
#
#
# Indices 1 2 3 4 5 6 
#
# 1 0.011498 -0.000471 -0.002790 0.005304 -0.004721 0.006817
# 2 -0.000471 0.009569 -0.004971 -0.000628 0.002411 0.002376
# 3 -0.002790 -0.004971 0.019637 -0.007665 -0.008477 0.010360
# 4 0.005304 -0.000628 -0.007665 0.032078 0.000869 -0.003404
# 5 -0.004721 0.002411 -0.008477 0.000869 0.040113 -0.023597
# 6 0.006817 0.002376 0.010360 -0.003404 -0.023597 0.049276
#
#
# Mechanical properties :
#
#
# Convention : Reuss Voigt Hill
#
# Bulk Modulus (GPa) = 41.25785 63.26661 52.26223
# Shear Modulus (GPa) = 26.77874 38.12372 32.45123
#
# Velocity S-wave (km/s) = 3.27863 3.91196 3.60921
# Velocity P-wave (km/s) = 5.55824 6.76763 6.19253
#
# Compressibility (1/GPa) = 0.02423781
#
# Stress axis : x y z
#
# Youngs Moduli (GPa) = 86.97512 104.50128 50.92464
#
# Poissons Ratio (x) = 0.04924 0.14210
# Poissons Ratio (y) = 0.04098 0.25317
# Poissons Ratio (z) = 0.24269 0.51952
#
# Static dielectric constant tensor:
#      x y z
#    x 1.986620 -0.013810 -0.020650 
#    y -0.013810 1.998060 -0.030920 
#    z -0.020650 -0.030920 2.034050 
# 
# From -- ./inp_files/31819.got.cif
#   From: 2010.05.17/outbox.cif.g08.bks.cpg/sg2_16_cif.got.tgz:31819.got - 2010.06.03 11:33:40.
