data_PCOD9109835
_publ_section_title
;
Structure prediction by ZEFSAII (Michael W. Deem and Ramdas Pophale) SiO2 
 PCOD9109835
Probable space group: P -1
;
_chemical_formula_sum "Si O2"
_cell_formula_units_Z 15
_cell_length_a 15.019944
_cell_length_b 7.277117
_cell_length_c 8.053530
_cell_angle_alpha 68.005307
_cell_angle_beta 123.190805
_cell_angle_gamma 83.430776
_cell_volume 622.477448
_symmetry_space_group_name_H-M "P -1"
_symmetry_group_IT_number 2
_symmetry_cell_setting 'triclinic'
loop_
_space_group_symop_operation_xyz
x,y,z
-x,-y,-z
loop_
_atom_site_type_symbol
_atom_site_label
_atom_site_fract_x
_atom_site_fract_y
_atom_site_fract_z
Si Si1 0.759379 0.206783 0.460463
Si Si2 0.017680 0.903588 0.736437
Si Si3 0.119580 0.200365 0.822806
Si Si4 0.142655 0.464744 0.469783
Si Si5 0.485385 0.115901 0.701938
Si Si6 0.442987 0.724304 0.968672
Si Si7 0.684002 0.909751 0.703045
Si Si8 0.000000 0.500000 0.000000
O O1 0.764661 0.433070 0.437437
O O2 0.693357 0.112704 0.550238
O O3 0.892961 0.033431 0.653573
O O4 0.694537 0.218378 0.215336
O O5 0.039270 0.659066 0.869162
O O6 0.000000 0.000000 0.500000
O O7 0.116723 0.965708 0.896071
O O8 0.167879 0.259412 0.683686
O O9 0.983686 0.359337 0.653086
O O10 0.189919 0.224682 0.043751
O O11 0.115861 0.440365 0.261266
O O12 0.510134 0.276601 0.797972
O O13 0.595951 0.003583 0.733737
O O14 0.371874 0.208939 0.436346
O O15 0.469492 0.917975 0.847777
O O16 0.500000 0.500000 0.000000
#
# Coordination Sequence:
#
# PCOD9109835 Si02
#       8
#     2   2   2   2   2   2   2   1
#     4  10  23  43  64  94 141 177 229 290 354 411
#     4  11  23  41  64 101 139 185 231 285 342 427
#     4  10  21  40  65  86 139 181 216 282 348 405
#     4  10  22  39  59  99 128 175 230 273 338 426
#     4   9  22  42  68  98 135 176 234 289 363 411
#     4  10  22  44  70 100 134 181 234 298 351 432
#     4  10  20  41  67  96 134 185 223 289 354 414
#     4  12  22  38  64  96 132 176 236 276 334 414
#
# _framework density 24.097258
#
# number of rings (size 3 to 8) (size 9 to 14) (size 15 to 20)
#    0.000    1.867    1.333    1.600    3.733    2.133 
#    7.200    6.000    0.000    0.000    0.000    0.000 
#    0.000    0.000    0.000    0.000    0.000    0.000 
#
# Total GULP energy -83597.936542 kJ/mol
# GULP energy per Si atom -5573.195769 kJ/mol
# Density = 2.404241 g / cm^3
# Si number density = 24.097258 Si / 1000 Ang^3
#
#
#
# Elastic Constant Matrix: (Units=GPa)
#
#
# Indices 1 2 3 4 5 6 
#
# 1 43.5329 33.6421 29.7089 15.6012 0.2758 21.8526
# 2 33.6421 141.0574 75.5520 43.8090 4.5802 20.4755
# 3 29.7089 75.5520 130.1848 46.8110 -10.7831 19.4876
# 4 15.6012 43.8090 46.8110 50.1117 5.5031 1.8826
# 5 0.2758 4.5802 -10.7831 5.5031 32.0150 3.1046
# 6 21.8526 20.4755 19.4876 1.8826 3.1046 35.2339
#
#
#
# Elastic Compliance Matrix: (Units=1/GPa)
#
#
# Indices 1 2 3 4 5 6 
#
# 1 0.040459 -0.003611 -0.000286 -0.008734 0.003775 -0.022703
# 2 -0.003611 0.012230 -0.004213 -0.005332 -0.002020 -0.002075
# 3 -0.000286 -0.004213 0.016255 -0.012134 0.008795 -0.006492
# 4 -0.008734 -0.005332 -0.012134 0.039391 -0.011390 0.014126
# 5 0.003775 -0.002020 0.008795 -0.011390 0.037256 -0.008706
# 6 -0.022703 -0.002075 -0.006492 0.014126 -0.008706 0.047271
#
#
# Mechanical properties :
#
#
# Convention : Reuss Voigt Hill
#
# Bulk Modulus (GPa) = 18.96648 65.84238 42.40443
# Shear Modulus (GPa) = 22.05982 35.19693 28.62838
#
# Velocity S-wave (km/s) = 3.02892 3.82595 3.45053
# Velocity P-wave (km/s) = 4.48558 6.84837 5.78880
#
# Compressibility (1/GPa) = 0.05272460
#
# Stress axis : x y z
#
# Youngs Moduli (GPa) = 24.71634 81.76772 61.51965
#
# Poissons Ratio (x) = 0.29525 0.01759
# Poissons Ratio (y) = 0.08925 0.25917
# Poissons Ratio (z) = 0.00707 0.34447
#
# Static dielectric constant tensor:
#      x y z
#    x 1.975730 -0.079160 0.010290 
#    y -0.079160 1.978590 0.011360 
#    z 0.010290 0.011360 1.972290 
# 
# From -- ./inp_files/291962.got.cif
#   From: 2010.05.17/outbox.cif.g08.bks.cpg/sg2_146_cif.got.tgz:291962.got - 2010.06.03 11:33:40.
