data_PCOD9109391
_publ_section_title
;
Structure prediction by ZEFSAII (Michael W. Deem and Ramdas Pophale) SiO2 
 PCOD9109391
Probable space group: P -1
;
_chemical_formula_sum "Si O2"
_cell_formula_units_Z 16
_cell_length_a 6.530520
_cell_length_b 14.873069
_cell_length_c 14.692256
_cell_angle_alpha 35.698435
_cell_angle_beta 59.765455
_cell_angle_gamma 52.699601
_cell_volume 662.192010
_symmetry_space_group_name_H-M "P -1"
_symmetry_group_IT_number 2
_symmetry_cell_setting 'triclinic'
loop_
_space_group_symop_operation_xyz
x,y,z
-x,-y,-z
loop_
_atom_site_type_symbol
_atom_site_label
_atom_site_fract_x
_atom_site_fract_y
_atom_site_fract_z
Si Si1 0.264777 0.168955 0.485630
Si Si2 0.713445 0.833255 0.717758
Si Si3 0.428514 0.603447 0.024270
Si Si4 0.638467 0.158942 0.779737
Si Si5 0.847983 0.041777 0.647231
Si Si6 0.824602 0.394292 0.635611
Si Si7 0.915522 0.791974 0.088808
Si Si8 0.475696 0.638140 0.637364
O O1 0.210252 0.250489 0.329965
O O2 0.284250 0.311141 0.430008
O O3 0.086328 0.064322 0.623154
O O4 0.540503 0.019550 0.566081
O O5 0.549035 0.742955 0.877123
O O6 0.885527 0.873346 0.723676
O O7 0.500000 0.500000 0.000000
O O8 0.560302 0.470579 0.183759
O O9 0.125989 0.693757 0.045446
O O10 0.632011 0.093707 0.731687
O O11 0.771078 0.291462 0.650339
O O12 0.351914 0.235249 0.822930
O O13 0.813556 0.990443 0.932098
O O14 0.759187 0.192489 0.471258
O O15 0.551487 0.527803 0.621279
O O16 0.000000 0.500000 0.500000
O O17 0.940930 0.268907 0.797534
#
# Coordination Sequence:
#
# PCOD9109391 Si02
#       8
#     2   2   2   2   2   2   2   2
#     4  10  20  41  65  88 130 172 215 277 320 384
#     4  10  22  40  65  92 126 169 228 265 322 395
#     4  11  22  44  69  95 132 177 215 272 340 389
#     4  11  24  44  68 100 134 173 226 272 324 393
#     4  11  23  40  65  98 129 171 220 269 327 392
#     4  11  23  41  67  99 133 176 214 272 333 392
#     4  10  25  44  70  94 133 176 224 272 327 390
#     4  10  23  39  63  96 131 167 219 263 331 395
#
# _framework density 24.162175999999999
#
# number of rings (size 3 to 8) (size 9 to 14) (size 15 to 20)
#    0.000    1.500    1.250    3.000    0.000   11.000 
#    2.250    1.875    0.000    0.000    0.000    0.000 
#    0.000    0.000    0.000    0.000    0.000    0.000 
#
# Total GULP energy -89281.075790 kJ/mol
# GULP energy per Si atom -5580.067237 kJ/mol
# Density = 2.410718 g / cm^3
# Si number density = 24.162176 Si / 1000 Ang^3
#
#
#
# Elastic Constant Matrix: (Units=GPa)
#
#
# Indices 1 2 3 4 5 6 
#
# 1 63.6936 29.0161 7.8877 -5.7677 -11.3455 18.0590
# 2 29.0161 93.4595 -2.2173 10.5162 -8.3761 20.5833
# 3 7.8877 -2.2173 78.3033 0.3885 -5.6088 10.8730
# 4 -5.7677 10.5162 0.3885 31.6581 -3.6559 -3.2588
# 5 -11.3455 -8.3761 -5.6088 -3.6559 32.5768 -5.1931
# 6 18.0590 20.5833 10.8730 -3.2588 -5.1931 35.3455
#
#
#
# Elastic Compliance Matrix: (Units=1/GPa)
#
#
# Indices 1 2 3 4 5 6 
#
# 1 0.021620 -0.005544 -0.001114 0.005810 0.005589 -0.006118
# 2 -0.005544 0.014775 0.002000 -0.006615 0.000363 -0.006943
# 3 -0.001114 0.002000 0.013713 -0.001336 0.001587 -0.004704
# 4 0.005810 -0.006615 -0.001336 0.035985 0.004983 0.005345
# 5 0.005589 0.000363 0.001587 0.004983 0.033869 0.001880
# 6 -0.006118 -0.006943 -0.004704 0.005345 0.001880 0.037677
#
#
# Mechanical properties :
#
#
# Convention : Reuss Voigt Hill
#
# Bulk Modulus (GPa) = 24.51484 33.86993 29.19239
# Shear Modulus (GPa) = 27.69271 33.30073 30.49672
#
# Velocity S-wave (km/s) = 3.38911 3.71646 3.55655
# Velocity P-wave (km/s) = 5.04804 5.69775 5.38271
#
# Compressibility (1/GPa) = 0.04079162
#
# Stress axis : x y z
#
# Youngs Moduli (GPa) = 46.25322 67.68412 72.92254
#
# Poissons Ratio (x) = 0.37525 0.08122
# Poissons Ratio (y) = 0.25643 -0.14583
# Poissons Ratio (z) = 0.05151 -0.13535
#
# Static dielectric constant tensor:
#      x y z
#    x 1.983930 -0.013470 -0.019330 
#    y -0.013470 1.989920 0.049270 
#    z -0.019330 0.049270 1.924860 
# 
# From -- ./inp_files/484194.got.cif
#   From: 2010.05.17/outbox.cif.g08.bks.cpg/sg2_243_cif.got.tgz:484194.got - 2010.06.03 11:33:40.
