data_PCOD9109270
_publ_section_title
;
Structure prediction by ZEFSAII (Michael W. Deem and Ramdas Pophale) SiO2 
 PCOD9109270
Probable space group: P -1
;
_chemical_formula_sum "Si O2"
_cell_formula_units_Z 16
_cell_length_a 10.598187
_cell_length_b 11.775008
_cell_length_c 15.708026
_cell_angle_alpha 28.638488
_cell_angle_beta 48.460369
_cell_angle_gamma 56.987419
_cell_volume 699.438115
_symmetry_space_group_name_H-M "P -1"
_symmetry_group_IT_number 2
_symmetry_cell_setting 'triclinic'
loop_
_space_group_symop_operation_xyz
x,y,z
-x,-y,-z
loop_
_atom_site_type_symbol
_atom_site_label
_atom_site_fract_x
_atom_site_fract_y
_atom_site_fract_z
Si Si1 0.750239 0.388491 0.568066
Si Si2 0.680859 0.145856 0.579632
Si Si3 0.004528 0.684275 0.147251
Si Si4 0.343631 0.902361 0.936712
Si Si5 0.768028 0.693871 0.758939
Si Si6 0.196227 0.058708 0.066979
Si Si7 0.595699 0.505824 0.253915
Si Si8 0.500163 0.408546 0.183961
O O1 0.695449 0.236119 0.609257
O O2 0.585416 0.454761 0.648948
O O3 0.862112 0.615915 0.328116
O O4 0.847815 0.206163 0.701601
O O5 0.706510 0.369440 0.359644
O O6 0.483523 0.045422 0.722053
O O7 0.789188 0.931230 0.649022
O O8 0.069900 0.429367 0.261389
O O9 0.161440 0.841629 0.016425
O O10 0.947244 0.818149 0.000899
O O11 0.416088 0.650622 0.083650
O O12 0.327021 0.027762 0.951708
O O13 0.648663 0.746709 0.697130
O O14 0.653388 0.488571 0.998433
O O15 0.294060 0.237295 0.973925
O O16 0.569052 0.348435 0.284309
#
# Coordination Sequence:
#
# PCOD9109270 Si02
#       8
#     2   2   2   2   2   2   2   2
#     4  12  24  42  68  97 132 163 213 271 326 374
#     4  11  22  41  70  93 125 178 212 265 314 370
#     4  11  25  43  61  97 136 169 206 263 324 388
#     4  10  20  41  64  91 130 166 209 266 320 373
#     4   9  21  43  62  87 131 172 215 255 314 379
#     4  12  22  40  65  96 129 171 208 259 329 381
#     4  12  22  40  67 101 126 158 229 269 310 382
#     4   9  19  40  67  89 121 172 215 268 306 370
#
# _framework density 22.875503999999999
#
# number of rings (size 3 to 8) (size 9 to 14) (size 15 to 20)
#    0.000    1.250    3.750    4.125    0.000    1.500 
#    6.750    1.250    0.000    0.000    0.000    0.000 
#    0.000    0.000    0.000    0.000    0.000    0.000 
#
# Total GULP energy -89397.823522 kJ/mol
# GULP energy per Si atom -5587.363970 kJ/mol
# Density = 2.282344 g / cm^3
# Si number density = 22.875504 Si / 1000 Ang^3
#
#
#
# Elastic Constant Matrix: (Units=GPa)
#
#
# Indices 1 2 3 4 5 6 
#
# 1 78.4335 -4.1672 30.7354 11.8812 9.5641 4.6099
# 2 -4.1672 61.0099 1.2958 7.0833 -1.0472 10.5804
# 3 30.7354 1.2958 68.2088 -9.6985 12.9101 -6.9537
# 4 11.8812 7.0833 -9.6985 26.2078 2.2175 4.4404
# 5 9.5641 -1.0472 12.9101 2.2175 38.3192 3.5141
# 6 4.6099 10.5804 -6.9537 4.4404 3.5141 31.4850
#
#
#
# Elastic Compliance Matrix: (Units=1/GPa)
#
#
# Indices 1 2 3 4 5 6 
#
# 1 0.019735 0.004005 -0.011430 -0.013452 0.000262 -0.004892
# 2 0.004005 0.018888 -0.004341 -0.007505 0.002061 -0.007064
# 3 -0.011430 -0.004341 0.023994 0.014605 -0.006849 0.007136
# 4 -0.013452 -0.007505 0.014605 0.051941 -0.004859 0.000934
# 5 0.000262 0.002061 -0.006849 -0.004859 0.029117 -0.004808
# 6 -0.004892 -0.007064 0.007136 0.000934 -0.004808 0.036832
#
#
# Mechanical properties :
#
#
# Convention : Reuss Voigt Hill
#
# Bulk Modulus (GPa) = 25.58432 29.26445 27.42439
# Shear Modulus (GPa) = 23.03429 31.18829 27.11129
#
# Velocity S-wave (km/s) = 3.17668 3.69642 3.44636
# Velocity P-wave (km/s) = 4.96623 5.57124 5.27741
#
# Compressibility (1/GPa) = 0.03908644
#
# Stress axis : x y z
#
# Youngs Moduli (GPa) = 50.67198 52.94268 41.67667
#
# Poissons Ratio (x) = -0.21206 0.47635
# Poissons Ratio (y) = -0.20296 0.18092
# Poissons Ratio (z) = 0.57917 0.22983
#
# Static dielectric constant tensor:
#      x y z
#    x 1.892720 0.010850 0.012030 
#    y 0.010850 1.847330 -0.024450 
#    z 0.012030 -0.024450 1.855210 
# 
# From -- ./inp_files/429000.got.cif
#   From: 2010.05.17/outbox.cif.g08.bks.cpg/sg2_215_cif.got.tgz:429000.got - 2010.06.03 11:33:40.
