data_PCOD9109011
_publ_section_title
;
Structure prediction by ZEFSAII (Michael W. Deem and Ramdas Pophale) SiO2 
 PCOD9109011
Probable space group: P -1
;
_chemical_formula_sum "Si O2"
_cell_formula_units_Z 16
_cell_length_a 18.974213
_cell_length_b 7.347660
_cell_length_c 11.994199
_cell_angle_alpha 73.899043
_cell_angle_beta 28.230462
_cell_angle_gamma 67.755623
_cell_volume 726.052670
_symmetry_space_group_name_H-M "P -1"
_symmetry_group_IT_number 2
_symmetry_cell_setting 'triclinic'
loop_
_space_group_symop_operation_xyz
x,y,z
-x,-y,-z
loop_
_atom_site_type_symbol
_atom_site_label
_atom_site_fract_x
_atom_site_fract_y
_atom_site_fract_z
Si Si1 0.838466 0.733925 0.900586
Si Si2 0.062644 0.693841 0.407996
Si Si3 0.529115 0.830612 0.170638
Si Si4 0.750435 0.805932 0.491571
Si Si5 0.838970 0.656881 0.155995
Si Si6 0.920538 0.249035 0.870390
Si Si7 0.648230 0.373182 0.384332
Si Si8 0.644409 0.550921 0.846710
O O1 0.883107 0.491477 0.880940
O O2 0.952024 0.795107 0.645762
O O3 0.668953 0.815788 0.065636
O O4 0.853758 0.776428 0.002818
O O5 0.065175 0.803797 0.270183
O O6 0.237659 0.627047 0.220751
O O7 0.000000 0.500000 0.500000
O O8 0.414171 0.730718 0.411574
O O9 0.415906 0.047124 0.267892
O O10 0.592999 0.718476 0.986079
O O11 0.762477 0.784734 0.346445
O O12 0.748078 0.609472 0.595650
O O13 0.909480 0.850151 0.298209
O O14 0.728438 0.525662 0.299164
O O15 0.000000 0.500000 0.000000
O O16 0.777307 0.228810 0.148033
O O17 0.500000 0.500000 0.500000
O O18 0.500000 0.500000 0.000000
#
# Coordination Sequence:
#
# PCOD9109011 Si02
#       8
#     2   2   2   2   2   2   2   2
#     4  10  18  36  63  88 115 167 215 235 303 374
#     4  10  16  36  69  85 111 161 217 245 283 379
#     4  12  24  39  62  97 129 160 201 270 320 356
#     4  12  24  39  62  97 129 160 201 270 320 356
#     4  11  20  38  63  88 119 164 218 248 293 377
#     4  10  18  36  63  88 115 167 215 235 303 374
#     4  11  20  38  63  88 119 164 218 248 293 377
#     4  12  23  40  66  98 123 160 211 258 306 378
#
# _framework density 22.036968000000002
#
# number of rings (size 3 to 8) (size 9 to 14) (size 15 to 20)
#    0.000    1.000   10.000    1.125    0.000    1.000 
#    0.000    0.000    0.000    1.500    0.000    0.000 
#    0.000    0.000    0.000    0.000    0.000    0.000 
#
# Total GULP energy -89348.351341 kJ/mol
# GULP energy per Si atom -5584.271959 kJ/mol
# Density = 2.198681 g / cm^3
# Si number density = 22.036968 Si / 1000 Ang^3
#
#
#
# Elastic Constant Matrix: (Units=GPa)
#
#
# Indices 1 2 3 4 5 6 
#
# 1 184.9442 17.9055 80.0767 4.6689 4.0213 -13.1767
# 2 17.9055 18.7414 6.3060 5.3812 1.6408 -6.5513
# 3 80.0767 6.3060 141.8047 7.9541 10.5775 -4.7561
# 4 4.6689 5.3812 7.9541 29.6463 -13.7056 3.1135
# 5 4.0213 1.6408 10.5775 -13.7056 69.6267 -1.3786
# 6 -13.1767 -6.5513 -4.7561 3.1135 -1.3786 16.5232
#
#
#
# Elastic Compliance Matrix: (Units=1/GPa)
#
#
# Indices 1 2 3 4 5 6 
#
# 1 0.007936 -0.005448 -0.004229 0.000821 0.000530 0.002841
# 2 -0.005448 0.073431 0.002143 -0.018235 -0.004768 0.028425
# 3 -0.004229 0.002143 0.009696 -0.003284 -0.001911 0.000727
# 4 0.000821 -0.018235 -0.003284 0.043604 0.009168 -0.014972
# 5 0.000530 -0.004768 -0.001911 0.009168 0.016492 -0.002369
# 6 0.002841 0.028425 0.000727 -0.014972 -0.002369 0.076890
#
#
# Mechanical properties :
#
#
# Convention : Reuss Voigt Hill
#
# Bulk Modulus (GPa) = 13.15884 61.56297 37.36091
# Shear Modulus (GPa) = 18.62546 39.23937 28.93242
#
# Velocity S-wave (km/s) = 2.91037 4.22431 3.62733
# Velocity P-wave (km/s) = 4.15667 7.19652 5.87656
#
# Compressibility (1/GPa) = 0.07599452
#
# Stress axis : x y z
#
# Youngs Moduli (GPa) = 126.01022 13.61816 103.13338
#
# Poissons Ratio (x) = 0.07419 0.43619
# Poissons Ratio (y) = 0.68649 -0.22100
# Poissons Ratio (z) = 0.53295 -0.02918
#
# Static dielectric constant tensor:
#      x y z
#    x 1.850880 0.017060 0.041150 
#    y 0.017060 1.959510 0.039920 
#    z 0.041150 0.039920 1.839830 
# 
# From -- ./inp_files/462078.got.cif
#   From: 2010.05.17/outbox.cif.g08.bks.cpg/sg2_232_cif.got.tgz:462078.got - 2010.06.03 11:33:40.
