data_PCOD9109489
_publ_section_title
;
Structure prediction by ZEFSAII (Michael W. Deem and Ramdas Pophale) SiO2 
 PCOD9109489
Probable space group: P -1
;
_chemical_formula_sum "Si O2"
_cell_formula_units_Z 16
_cell_length_a 12.357828
_cell_length_b 15.848200
_cell_length_c 8.303456
_cell_angle_alpha 91.861762
_cell_angle_beta 82.025955
_cell_angle_gamma 26.550379
_cell_volume 673.328357
_symmetry_space_group_name_H-M "P -1"
_symmetry_group_IT_number 2
_symmetry_cell_setting 'triclinic'
loop_
_space_group_symop_operation_xyz
x,y,z
-x,-y,-z
loop_
_atom_site_type_symbol
_atom_site_label
_atom_site_fract_x
_atom_site_fract_y
_atom_site_fract_z
Si Si1 0.556911 0.893593 0.774311
Si Si2 0.049619 0.876371 0.694924
Si Si3 0.658178 0.716785 0.424801
Si Si4 0.838329 0.852338 0.604965
Si Si5 0.263844 0.646862 0.936954
Si Si6 0.565984 0.300206 0.641369
Si Si7 0.843323 0.580829 0.883737
Si Si8 0.995116 0.706379 0.201769
O O1 0.592856 0.800021 0.618035
O O2 0.775851 0.812272 0.715111
O O3 0.590310 0.815379 0.922446
O O4 0.278242 0.129608 0.810493
O O5 0.143567 0.803517 0.856440
O O6 0.273919 0.761985 0.532999
O O7 0.998187 0.815765 0.647626
O O8 0.783234 0.111468 0.711305
O O9 0.596566 0.661752 0.405218
O O10 0.946275 0.545082 0.307540
O O11 0.444259 0.911676 0.368004
O O12 0.965399 0.737981 0.400367
O O13 0.378280 0.494933 0.786013
O O14 0.500000 0.500000 0.000000
O O15 0.052807 0.753147 0.104701
O O16 0.799095 0.512058 0.889834
O O17 0.000000 0.500000 0.000000
#
# Coordination Sequence:
#
# PCOD9109489 Si02
#       8
#     2   2   2   2   2   2   2   2
#     4  11  23  41  68  92 128 179 215 263 322 380
#     4  10  24  44  72  98 127 174 223 269 326 384
#     4  10  20  41  65  95 129 165 219 267 317 383
#     4  10  20  42  70  92 129 172 223 267 313 386
#     4  12  27  44  66  98 136 173 217 269 333 391
#     4  10  23  45  70  98 129 170 223 275 319 385
#     4  12  25  37  58  96 132 169 212 263 325 382
#     4  11  24  43  62  96 133 168 214 268 325 385
#
# _framework density 23.762550000000001
#
# number of rings (size 3 to 8) (size 9 to 14) (size 15 to 20)
#    0.000    1.250    2.500    3.000    3.500    6.000 
#    0.000    0.000    0.000    0.000    0.000    0.000 
#    0.000    0.000    0.000    0.000    0.000    0.000 
#
# Total GULP energy -89512.974885 kJ/mol
# GULP energy per Si atom -5594.560930 kJ/mol
# Density = 2.370847 g / cm^3
# Si number density = 23.762550 Si / 1000 Ang^3
#
#
#
# Elastic Constant Matrix: (Units=GPa)
#
#
# Indices 1 2 3 4 5 6 
#
# 1 79.9769 30.0506 6.8931 -13.4496 -6.9397 -4.6323
# 2 30.0506 89.4396 26.9671 -33.1814 1.3231 4.1297
# 3 6.8931 26.9671 44.5286 -18.4159 -14.6764 3.1577
# 4 -13.4496 -33.1814 -18.4159 42.0397 2.3873 1.1995
# 5 -6.9397 1.3231 -14.6764 2.3873 30.6444 3.4335
# 6 -4.6323 4.1297 3.1577 1.1995 3.4335 29.5992
#
#
#
# Elastic Compliance Matrix: (Units=1/GPa)
#
#
# Indices 1 2 3 4 5 6 
#
# 1 0.015150 -0.005685 0.003093 0.001379 0.004801 0.002221
# 2 -0.005685 0.019868 -0.009004 0.010382 -0.007008 -0.002309
# 3 0.003093 -0.009004 0.038056 0.009608 0.019119 -0.004927
# 4 0.001379 0.010382 0.009608 0.036628 0.002058 -0.003981
# 5 0.004801 -0.007008 0.019119 0.002058 0.043630 -0.005455
# 6 0.002221 -0.002309 -0.004927 -0.003981 -0.005455 0.035774
#
#
# Mechanical properties :
#
#
# Convention : Reuss Voigt Hill
#
# Bulk Modulus (GPa) = 20.04765 37.97410 29.01088
# Shear Modulus (GPa) = 21.84109 30.45894 26.15002
#
# Velocity S-wave (km/s) = 3.03502 3.58411 3.32093
# Velocity P-wave (km/s) = 4.55376 5.75701 5.19037
#
# Compressibility (1/GPa) = 0.04988115
#
# Stress axis : x y z
#
# Youngs Moduli (GPa) = 66.00558 50.33334 26.27674
#
# Poissons Ratio (x) = 0.28614 -0.08127
# Poissons Ratio (y) = 0.37523 0.23660
# Poissons Ratio (z) = -0.20413 0.45322
#
# Static dielectric constant tensor:
#      x y z
#    x 1.907120 -0.026520 0.000500 
#    y -0.026520 1.964890 -0.016670 
#    z 0.000500 -0.016670 1.921680 
# 
# From -- ./inp_files/272861.got.cif
#   From: 2010.05.17/outbox.cif.g08.bks.cpg/sg2_137_cif.got.tgz:272861.got - 2010.06.03 11:33:40.
