data_PCOD9109207
_publ_section_title
;
Structure prediction by ZEFSAII (Michael W. Deem and Ramdas Pophale) SiO2 
 PCOD9109207
Probable space group: P -1
;
_chemical_formula_sum "Si O2"
_cell_formula_units_Z 16
_cell_length_a 15.364671
_cell_length_b 7.529645
_cell_length_c 13.108180
_cell_angle_alpha 77.983302
_cell_angle_beta 38.534186
_cell_angle_gamma 102.146997
_cell_volume 730.353441
_symmetry_space_group_name_H-M "P -1"
_symmetry_group_IT_number 2
_symmetry_cell_setting 'triclinic'
loop_
_space_group_symop_operation_xyz
x,y,z
-x,-y,-z
loop_
_atom_site_type_symbol
_atom_site_label
_atom_site_fract_x
_atom_site_fract_y
_atom_site_fract_z
Si Si1 0.010796 0.801535 0.411866
Si Si2 0.317183 0.692561 0.451540
Si Si3 0.962923 0.510280 0.913034
Si Si4 0.167293 0.222915 0.080326
Si Si5 0.493138 0.496120 0.628749
Si Si6 0.326209 0.459526 0.120565
Si Si7 0.245320 0.716790 0.295420
Si Si8 0.444539 0.875163 0.674185
O O1 0.183456 0.868481 0.305915
O O2 0.927762 0.542785 0.483486
O O3 0.853011 0.751563 0.632917
O O4 0.055761 0.973227 0.261070
O O5 0.363946 0.520540 0.449780
O O6 0.352066 0.778071 0.293105
O O7 0.120885 0.564536 0.691588
O O8 0.946671 0.710412 0.875422
O O9 0.766199 0.279492 0.098598
O O10 0.000000 0.500000 0.000000
O O11 0.282584 0.394893 0.049846
O O12 0.305679 0.266998 0.864547
O O13 0.500000 0.500000 0.500000
O O14 0.496589 0.704556 0.640728
O O15 0.329005 0.671840 0.130183
O O16 0.500000 0.500000 0.000000
O O17 0.554271 0.076553 0.629628
O O18 0.500000 0.000000 0.500000
#
# Coordination Sequence:
#
# PCOD9109207 Si02
#       8
#     2   2   2   2   2   2   2   2
#     4   9  21  44  67  98 143 183 234 284 354 425
#     4  12  23  45  73  98 143 191 232 292 371 415
#     4  11  24  44  70 102 137 181 243 295 352 427
#     4  11  23  43  73 101 138 192 233 295 362 420
#     4  11  24  45  69 103 141 177 244 302 343 430
#     4  10  20  41  64 100 144 175 230 288 344 417
#     4   9  22  42  67  99 144 178 228 292 344 434
#     4  11  23  47  70  99 140 188 236 301 360 419
#
# _framework density 21.907202000000002
#
# number of rings (size 3 to 8) (size 9 to 14) (size 15 to 20)
#    0.750    0.750    2.500    2.625    0.000    2.000 
#   11.250    3.125    0.000    0.000    0.000    0.000 
#    0.000    0.000    0.000    0.000    0.000    0.000 
#
# Total GULP energy -89344.227343 kJ/mol
# GULP energy per Si atom -5584.014209 kJ/mol
# Density = 2.185734 g / cm^3
# Si number density = 21.907202 Si / 1000 Ang^3
#
#
#
# Elastic Constant Matrix: (Units=GPa)
#
#
# Indices 1 2 3 4 5 6 
#
# 1 104.8263 43.5259 23.9593 0.4360 -0.0791 -18.7044
# 2 43.5259 83.1126 33.7404 -5.7732 -5.2517 -11.9417
# 3 23.9593 33.7404 124.5205 -6.2491 -7.4716 -22.3977
# 4 0.4360 -5.7732 -6.2491 31.9301 -13.8183 1.9070
# 5 -0.0791 -5.2517 -7.4716 -13.8183 45.4861 7.2193
# 6 -18.7044 -11.9417 -22.3977 1.9070 7.2193 50.8185
#
#
#
# Elastic Compliance Matrix: (Units=1/GPa)
#
#
# Indices 1 2 3 4 5 6 
#
# 1 0.012921 -0.006424 -0.000373 -0.002527 -0.002100 0.003475
# 2 -0.006424 0.017036 -0.003078 0.003710 0.002614 -0.000228
# 3 -0.000373 -0.003078 0.009664 0.001689 0.001243 0.003159
# 4 -0.002527 0.003710 0.001689 0.037976 0.012641 -0.002535
# 5 -0.002100 0.002614 0.001243 0.012641 0.026948 -0.003913
# 6 0.003475 -0.000228 0.003159 -0.002535 -0.003913 0.022946
#
#
# Mechanical properties :
#
#
# Convention : Reuss Voigt Hill
#
# Bulk Modulus (GPa) = 50.32673 57.21227 53.76950
# Shear Modulus (GPa) = 32.49559 39.72920 36.11239
#
# Velocity S-wave (km/s) = 3.85558 4.26317 4.06449
# Velocity P-wave (km/s) = 6.54547 7.09966 6.82819
#
# Compressibility (1/GPa) = 0.01987016
#
# Stress axis : x y z
#
# Youngs Moduli (GPa) = 77.39124 58.69968 103.47459
#
# Poissons Ratio (x) = 0.37711 0.03863
# Poissons Ratio (y) = 0.49719 0.31850
# Poissons Ratio (z) = 0.02889 0.18068
#
# Static dielectric constant tensor:
#      x y z
#    x 1.872960 0.053980 0.008220 
#    y 0.053980 1.860340 0.034310 
#    z 0.008220 0.034310 1.910840 
# 
# From -- ./inp_files/447086.got.cif
#   From: 2010.05.17/outbox.cif.g08.bks.cpg/sg2_224_cif.got.tgz:447086.got - 2010.06.03 11:33:40.
