data_PCOD9109535
_publ_section_title
;
Structure prediction by ZEFSAII (Michael W. Deem and Ramdas Pophale) SiO2 
 PCOD9109535
Probable space group: P -1
;
_chemical_formula_sum "Si O2"
_cell_formula_units_Z 16
_cell_length_a 15.340415
_cell_length_b 12.082464
_cell_length_c 8.343234
_cell_angle_alpha 85.994619
_cell_angle_beta 105.663153
_cell_angle_gamma 150.835600
_cell_volume 678.742221
_symmetry_space_group_name_H-M "P -1"
_symmetry_group_IT_number 2
_symmetry_cell_setting 'triclinic'
loop_
_space_group_symop_operation_xyz
x,y,z
-x,-y,-z
loop_
_atom_site_type_symbol
_atom_site_label
_atom_site_fract_x
_atom_site_fract_y
_atom_site_fract_z
Si Si1 0.944361 0.443229 0.158457
Si Si2 0.591796 0.262952 0.604175
Si Si3 0.303992 0.043312 0.931459
Si Si4 0.219869 0.718192 0.506489
Si Si5 0.997573 0.070545 0.828935
Si Si6 0.268756 0.572093 0.994503
Si Si7 0.398423 0.248021 0.309126
Si Si8 0.328535 0.303172 0.795641
O O1 0.155983 0.704649 0.310607
O O2 0.851603 0.221596 0.165828
O O3 0.789965 0.373212 0.113466
O O4 0.000000 0.500000 0.000000
O O5 0.708740 0.325350 0.513040
O O6 0.729595 0.431701 0.810128
O O7 0.489141 0.257538 0.474908
O O8 0.417701 0.996775 0.624953
O O9 0.519432 0.228381 0.989150
O O10 0.284605 0.125172 0.791868
O O11 0.309785 0.094084 0.114666
O O12 0.000000 0.500000 0.500000
O O13 0.125800 0.141303 0.760182
O O14 0.116183 0.313279 0.889831
O O15 0.778141 0.869488 0.697748
O O16 0.000000 0.000000 0.000000
O O17 0.570696 0.520492 0.314541
O O18 0.500000 0.500000 0.000000
#
# Coordination Sequence:
#
# PCOD9109535 Si02
#       8
#     2   2   2   2   2   2   2   2
#     4  12  24  41  66 102 127 173 222 272 324 395
#     4  11  26  43  62  95 141 175 212 275 334 393
#     4  11  22  40  69  97 129 166 226 274 320 391
#     4  11  25  44  64  92 138 180 219 265 336 395
#     4  12  21  40  72  97 127 174 225 272 323 387
#     4  12  24  41  66 100 134 170 221 272 326 389
#     4  11  23  41  68  95 130 176 220 269 331 391
#     4  10  20  41  66 101 125 169 223 276 322 383
#
# _framework density 23.573015000000002
#
# number of rings (size 3 to 8) (size 9 to 14) (size 15 to 20)
#    0.000    0.750    6.250    3.375    3.500    1.000 
#    0.000    2.500    0.000    2.250    0.000    0.000 
#    0.000    0.000    0.000    0.000    0.000    0.000 
#
# Total GULP energy -89356.684185 kJ/mol
# GULP energy per Si atom -5584.792762 kJ/mol
# Density = 2.351936 g / cm^3
# Si number density = 23.573015 Si / 1000 Ang^3
#
#
#
# Elastic Constant Matrix: (Units=GPa)
#
#
# Indices 1 2 3 4 5 6 
#
# 1 158.4468 42.9037 -9.8774 27.6392 41.7334 11.1966
# 2 42.9037 94.8542 -35.5430 19.4183 12.0990 -4.5043
# 3 -9.8774 -35.5430 10.3557 21.9690 17.5781 -8.0555
# 4 27.6392 19.4183 21.9690 -4.0159 -8.0237 5.8025
# 5 41.7334 12.0990 17.5781 -8.0237 33.7934 -0.2158
# 6 11.1966 -4.5043 -8.0555 5.8025 -0.2158 59.3548
#
#
#
# Elastic Compliance Matrix: (Units=1/GPa)
#
#
# Indices 1 2 3 4 5 6 
#
# 1 0.009162 -0.006305 -0.007003 0.000330 -0.005357 -0.003209
# 2 -0.006305 0.011199 0.001635 0.010607 0.005452 0.001244
# 3 -0.007003 0.001635 0.015763 0.031828 0.007424 0.000500
# 4 0.000330 0.010607 0.031828 0.016914 -0.016723 0.003348
# 5 -0.005357 0.005452 0.007424 -0.016723 0.026449 0.004163
# 6 -0.003209 0.001244 0.000500 0.003348 0.004163 0.017303
#
#
# Mechanical properties :
#
#
# Convention : Reuss Voigt Hill
#
# Bulk Modulus (GPa) = 78.25546 28.73589 53.49567
# Shear Modulus (GPa) = 40.19436 35.57136 37.88286
#
# Velocity S-wave (km/s) = 4.13377 3.88878 4.01314
# Velocity P-wave (km/s) = 7.48686 5.69035 6.64956
#
# Compressibility (1/GPa) = 0.01277866
#
# Stress axis : x y z
#
# Youngs Moduli (GPa) = 109.14475 89.29310 63.44071
#
# Poissons Ratio (x) = 0.56297 0.44427
# Poissons Ratio (y) = 0.68813 -0.10372
# Poissons Ratio (z) = 0.76432 -0.14599
#
# Static dielectric constant tensor:
#      x y z
#    x 2.013200 -0.091080 -0.044640 
#    y -0.091080 2.097700 -0.105110 
#    z -0.044640 -0.105110 2.008790 
# 
# From -- ./inp_files/307594.got.cif
#   From: 2010.05.17/outbox.cif.g08.bks.cpg/sg2_154_cif.got.tgz:307594.got - 2010.06.03 11:33:40.
