data_PCOD9109949
_publ_section_title
;
Structure prediction by ZEFSAII (Michael W. Deem and Ramdas Pophale) SiO2 
 PCOD9109949
Probable space group: P -1
;
_chemical_formula_sum "Si O2"
_cell_formula_units_Z 12
_cell_length_a 9.480156
_cell_length_b 19.933361
_cell_length_c 5.863001
_cell_angle_alpha 97.675486
_cell_angle_beta 105.493444
_cell_angle_gamma 145.240081
_cell_volume 466.440416
_symmetry_space_group_name_H-M "P -1"
_symmetry_group_IT_number 2
_symmetry_cell_setting 'triclinic'
loop_
_space_group_symop_operation_xyz
x,y,z
-x,-y,-z
loop_
_atom_site_type_symbol
_atom_site_label
_atom_site_fract_x
_atom_site_fract_y
_atom_site_fract_z
Si Si1 0.961709 0.064034 0.526377
Si Si2 0.071816 0.921670 0.957806
Si Si3 0.694415 0.282025 0.352064
Si Si4 0.218915 0.423557 0.975372
Si Si5 0.674915 0.111712 0.830711
Si Si6 0.163975 0.522452 0.275474
O O1 0.053329 0.126839 0.851859
O O2 0.589744 0.938429 0.266970
O O3 0.132941 0.154746 0.401075
O O4 0.000000 0.000000 0.500000
O O5 0.352692 0.098533 0.153394
O O6 0.229472 0.912221 0.983370
O O7 0.666085 0.349226 0.440705
O O8 0.960834 0.352227 0.656105
O O9 0.871017 0.364202 0.221725
O O10 0.012542 0.285568 0.974156
O O11 0.500000 0.500000 0.000000
O O12 0.350183 0.536998 0.247649
O O13 0.500000 0.000000 0.500000
O O14 0.000000 0.500000 0.000000
#
# Coordination Sequence:
#
# PCOD9109949 Si02
#       6
#     2   2   2   2   2   2
#     4  11  23  42  67 106 142 182 235 291 356 422
#     4  11  23  43  73 103 142 185 232 297 360 422
#     4  10  20  41  68  94 132 185 231 288 354 420
#     4  11  22  42  69  98 136 181 239 290 346 425
#     4  10  21  44  68 101 141 184 232 292 364 423
#     4   9  21  39  62  94 130 181 230 281 345 418
#
# _framework density 25.726761
#
# number of rings (size 3 to 8) (size 9 to 14) (size 15 to 20)
#    0.000    1.667    3.333    2.000    2.333    0.667 
#    6.000    5.000    0.000    0.000    0.000    0.000 
#    0.000    0.000    0.000    0.000    0.000    0.000 
#
# Total GULP energy -66994.646226 kJ/mol
# GULP energy per Si atom -5582.887186 kJ/mol
# Density = 2.566821 g / cm^3
# Si number density = 25.726761 Si / 1000 Ang^3
#
#
#
# Elastic Constant Matrix: (Units=GPa)
#
#
# Indices 1 2 3 4 5 6 
#
# 1 209.3854 56.6650 38.7596 1.3939 -38.0714 -5.5750
# 2 56.6650 148.3635 62.6251 6.6262 -8.6236 -24.7908
# 3 38.7596 62.6251 102.4602 -22.9418 -12.1700 -2.8913
# 4 1.3939 6.6262 -22.9418 62.8373 -10.6037 -3.8701
# 5 -38.0714 -8.6236 -12.1700 -10.6037 47.9760 -13.4495
# 6 -5.5750 -24.7908 -2.8913 -3.8701 -13.4495 53.3303
#
#
#
# Elastic Compliance Matrix: (Units=1/GPa)
#
#
# Indices 1 2 3 4 5 6 
#
# 1 0.006281 -0.001732 -0.000512 0.000777 0.005037 0.001150
# 2 -0.001732 0.011129 -0.006905 -0.003523 -0.000733 0.004177
# 3 -0.000512 -0.006905 0.016227 0.007254 0.003821 -0.000894
# 4 0.000777 -0.003523 0.007254 0.020199 0.006858 0.002032
# 5 0.005037 -0.000733 0.003821 0.006858 0.029532 0.008338
# 6 0.001150 0.004177 -0.000894 0.002032 0.008338 0.023015
#
#
# Mechanical properties :
#
#
# Convention : Reuss Voigt Hill
#
# Bulk Modulus (GPa) = 65.19910 86.25649 75.72779
# Shear Modulus (GPa) = 38.52240 52.97268 45.74754
#
# Velocity S-wave (km/s) = 3.87378 4.54260 4.22146
# Velocity P-wave (km/s) = 6.73841 7.81756 7.29796
#
# Compressibility (1/GPa) = 0.01533764
#
# Stress axis : x y z
#
# Youngs Moduli (GPa) = 159.21409 89.85385 61.62579
#
# Poissons Ratio (x) = 0.15565 0.03158
# Poissons Ratio (y) = 0.27581 0.42552
# Poissons Ratio (z) = 0.08159 0.62044
#
# Static dielectric constant tensor:
#      x y z
#    x 2.100530 0.076340 -0.025560 
#    y 0.076340 2.043600 -0.037010 
#    z -0.025560 -0.037010 2.058250 
# 
# From -- ./inp_files/42496.got.cif
#   From: 2010.05.17/outbox.cif.g08.bks.cpg/sg2_22_cif.got.tgz:42496.got - 2010.06.03 11:33:40.
