data_PCOD9109185
_publ_section_title
;
Structure prediction by ZEFSAII (Michael W. Deem and Ramdas Pophale) SiO2 
 PCOD9109185
Probable space group: P -1
;
_chemical_formula_sum "Si O2"
_cell_formula_units_Z 14
_cell_length_a 9.344620
_cell_length_b 13.459783
_cell_length_c 13.288252
_cell_angle_alpha 54.449981
_cell_angle_beta 121.533931
_cell_angle_gamma 154.890778
_cell_volume 577.005930
_symmetry_space_group_name_H-M "P -1"
_symmetry_group_IT_number 2
_symmetry_cell_setting 'triclinic'
loop_
_space_group_symop_operation_xyz
x,y,z
-x,-y,-z
loop_
_atom_site_type_symbol
_atom_site_label
_atom_site_fract_x
_atom_site_fract_y
_atom_site_fract_z
Si Si1 0.881767 0.214974 0.988365
Si Si2 0.960322 0.572794 0.529519
Si Si3 0.240745 0.640686 0.778160
Si Si4 0.295216 0.332365 0.627922
Si Si5 0.793061 0.929548 0.374889
Si Si6 0.098154 0.379261 0.186390
Si Si7 0.790117 0.801954 0.946594
O O1 0.986513 0.363836 0.844270
O O2 0.109110 0.402943 0.056644
O O3 0.917038 0.093877 0.056146
O O4 0.500000 0.000000 0.000000
O O5 0.923635 0.688898 0.411089
O O6 0.600980 0.324524 0.597334
O O7 0.000000 0.500000 0.500000
O O8 0.233004 0.717637 0.630271
O O9 0.590684 0.792360 0.836115
O O10 0.078973 0.623762 0.816005
O O11 0.500000 0.500000 0.500000
O O12 0.097601 0.088399 0.665282
O O13 0.553503 0.447667 0.738563
O O14 0.000000 0.000000 0.500000
O O15 0.872551 0.118065 0.273833
O O16 0.500000 0.500000 0.000000
O O17 0.000000 0.000000 0.000000
#
# Coordination Sequence:
#
# PCOD9109185 Si02
#       7
#     2   2   2   2   2   2   2
#     4  11  25  43  72 106 130 183 239 286 352 426
#     4  11  23  41  68  99 139 178 227 285 354 419
#     4  11  23  45  68  99 146 181 229 300 356 421
#     4  10  20  41  63  95 133 173 220 279 339 400
#     4  11  20  40  67  93 131 179 227 280 343 407
#     4  12  22  40  72  96 134 175 233 278 343 416
#     4  10  24  47  69  98 143 187 231 291 357 417
#
# _framework density 24.263182
#
# number of rings (size 3 to 8) (size 9 to 14) (size 15 to 20)
#    0.000    1.143    5.714    2.143    2.000    2.286 
#    0.000    4.286    0.000    0.000    0.000    0.000 
#    0.000    0.000    0.000    0.000    0.000    0.000 
#
# Total GULP energy -78056.908635 kJ/mol
# GULP energy per Si atom -5575.493474 kJ/mol
# Density = 2.420796 g / cm^3
# Si number density = 24.263182 Si / 1000 Ang^3
#
#
#
# Elastic Constant Matrix: (Units=GPa)
#
#
# Indices 1 2 3 4 5 6 
#
# 1 229.7175 36.4980 75.0087 30.6046 53.1079 -28.3348
# 2 36.4980 87.3442 41.9145 23.4316 21.1111 -6.8738
# 3 75.0087 41.9145 121.0190 21.9815 42.5734 -9.8807
# 4 30.6046 23.4316 21.9815 54.3983 1.7536 6.0489
# 5 53.1079 21.1111 42.5734 1.7536 50.3207 3.4217
# 6 -28.3348 -6.8738 -9.8807 6.0489 3.4217 43.0038
#
#
#
# Elastic Compliance Matrix: (Units=1/GPa)
#
#
# Indices 1 2 3 4 5 6 
#
# 1 0.007834 0.000957 -0.000888 -0.004915 -0.008186 0.006454
# 2 0.000957 0.015655 -0.002625 -0.006478 -0.005395 0.003870
# 3 -0.000888 -0.002625 0.014413 -0.004277 -0.010260 0.003725
# 4 -0.004915 -0.006478 -0.004277 0.026400 0.011275 -0.009867
# 5 -0.008186 -0.005395 -0.010260 0.011275 0.039973 -0.013380
# 6 0.006454 0.003870 0.003725 -0.009867 -0.013380 0.031433
#
#
# Mechanical properties :
#
#
# Convention : Reuss Voigt Hill
#
# Bulk Modulus (GPa) = 30.49587 82.76924 56.63255
# Shear Modulus (GPa) = 32.94890 48.52186 40.73538
#
# Velocity S-wave (km/s) = 3.68908 4.47678 4.10188
# Velocity P-wave (km/s) = 5.54453 7.80444 6.76945
#
# Compressibility (1/GPa) = 0.03279132
#
# Stress axis : x y z
#
# Youngs Moduli (GPa) = 127.64160 63.87829 69.38150
#
# Poissons Ratio (x) = -0.06116 0.06160
# Poissons Ratio (y) = -0.12221 0.18213
# Poissons Ratio (z) = 0.11333 0.16768
#
# Static dielectric constant tensor:
#      x y z
#    x 1.943920 -0.009020 0.019300 
#    y -0.009020 2.097910 0.007690 
#    z 0.019300 0.007690 1.838380 
# 
# From -- ./inp_files/498993.got.cif
#   From: 2010.05.17/outbox.cif.g08.bks.cpg/sg2_250_cif.got.tgz:498993.got - 2010.06.03 11:33:40.
