data_PCOD9109711
_publ_section_title
;
Structure prediction by ZEFSAII (Michael W. Deem and Ramdas Pophale) SiO2 
 PCOD9109711
Probable space group: P -1
;
_chemical_formula_sum "Si O2"
_cell_formula_units_Z 12
_cell_length_a 13.867565
_cell_length_b 11.208913
_cell_length_c 6.885169
_cell_angle_alpha 87.659663
_cell_angle_beta 104.917434
_cell_angle_gamma 30.694065
_cell_volume 447.132321
_symmetry_space_group_name_H-M "P -1"
_symmetry_group_IT_number 2
_symmetry_cell_setting 'triclinic'
loop_
_space_group_symop_operation_xyz
x,y,z
-x,-y,-z
loop_
_atom_site_type_symbol
_atom_site_label
_atom_site_fract_x
_atom_site_fract_y
_atom_site_fract_z
Si Si1 0.160997 0.712646 0.547564
Si Si2 0.757151 0.754191 0.754788
Si Si3 0.636796 0.295804 0.767680
Si Si4 0.010250 0.626459 0.421334
Si Si5 0.544848 0.095010 0.262023
Si Si6 0.862662 0.289527 0.931179
O O1 0.429238 0.449037 0.749224
O O2 0.135124 0.723759 0.300649
O O3 0.084548 0.662220 0.579257
O O4 0.000000 0.000000 0.500000
O O5 0.564489 0.920245 0.797658
O O6 0.816355 0.579453 0.652311
O O7 0.669278 0.952929 0.551482
O O8 0.000000 0.500000 0.000000
O O9 0.500000 0.500000 0.500000
O O10 0.752617 0.281783 0.941977
O O11 0.872657 0.973752 0.852931
O O12 0.000000 0.500000 0.500000
O O13 0.736908 0.934464 0.224192
O O14 0.325618 0.414366 0.120392
#
# Coordination Sequence:
#
# PCOD9109711 Si02
#       6
#     2   2   2   2   2   2
#     4  11  22  40  67 101 136 181 230 289 349 410
#     4  10  22  41  67  98 135 186 231 279 347 402
#     4   9  21  39  66  91 130 177 229 275 346 414
#     4  10  22  44  68 102 142 181 232 285 339 417
#     4  10  21  41  68  96 138 174 227 291 334 411
#     4  10  20  41  66  99 134 180 228 285 351 413
#
# _framework density 26.837692000000001
#
# number of rings (size 3 to 8) (size 9 to 14) (size 15 to 20)
#    0.000    2.000    1.667    1.000    0.000    4.000 
#    0.000   10.000    0.000    0.000    0.000    0.000 
#    0.000    0.000    0.000    0.000    0.000    0.000 
#
# Total GULP energy -66914.587546 kJ/mol
# GULP energy per Si atom -5576.215629 kJ/mol
# Density = 2.677661 g / cm^3
# Si number density = 26.837692 Si / 1000 Ang^3
#
#
#
# Elastic Constant Matrix: (Units=GPa)
#
#
# Indices 1 2 3 4 5 6 
#
# 1 155.7505 45.4230 35.5061 -18.6017 40.1385 3.6793
# 2 45.4230 140.0189 57.5060 -40.9143 9.2198 5.2864
# 3 35.5061 57.5060 160.9772 -50.8073 17.3547 -3.7106
# 4 -18.6017 -40.9143 -50.8073 59.6909 -16.5022 2.0465
# 5 40.1385 9.2198 17.3547 -16.5022 43.6304 -11.4698
# 6 3.6793 5.2864 -3.7106 2.0465 -11.4698 48.5391
#
#
#
# Elastic Compliance Matrix: (Units=1/GPa)
#
#
# Indices 1 2 3 4 5 6 
#
# 1 0.009643 -0.002654 -0.000879 -0.002083 -0.009446 -0.002653
# 2 -0.002654 0.010117 -0.001596 0.005568 0.002894 -0.000574
# 3 -0.000879 -0.001596 0.008956 0.006269 0.000137 0.000693
# 4 -0.002083 0.005568 0.006269 0.027707 0.008984 0.000985
# 5 -0.009446 0.002894 0.000137 0.008984 0.036626 0.008687
# 6 -0.002653 -0.000574 0.000693 0.000985 0.008687 0.022930
#
#
# Mechanical properties :
#
#
# Convention : Reuss Voigt Hill
#
# Bulk Modulus (GPa) = 54.17825 81.51299 67.84562
# Shear Modulus (GPa) = 37.76754 51.59282 44.68018
#
# Velocity S-wave (km/s) = 3.75541 4.38928 4.08466
# Velocity P-wave (km/s) = 6.24783 7.49174 6.89788
#
# Compressibility (1/GPa) = 0.01845759
#
# Stress axis : x y z
#
# Youngs Moduli (GPa) = 103.70032 98.84785 111.65573
#
# Poissons Ratio (x) = 0.26230 0.09815
# Poissons Ratio (y) = 0.27518 0.17825
# Poissons Ratio (z) = 0.09116 0.15780
#
# Static dielectric constant tensor:
#      x y z
#    x 2.356690 -0.060350 -0.110240 
#    y -0.060350 2.199250 0.030800 
#    z -0.110240 0.030800 2.168230 
# 
# From -- ./inp_files/305248.got.cif
#   From: 2010.05.17/outbox.cif.g08.bks.cpg/sg2_153_cif.got.tgz:305248.got - 2010.06.03 11:33:40.
