data_PCOD9109572
_publ_section_title
;
Structure prediction by ZEFSAII (Michael W. Deem and Ramdas Pophale) SiO2 
 PCOD9109572
Probable space group: P -1
;
_chemical_formula_sum "Si O2"
_cell_formula_units_Z 16
_cell_length_a 7.734676
_cell_length_b 11.136570
_cell_length_c 8.840476
_cell_angle_alpha 94.599544
_cell_angle_beta 71.887790
_cell_angle_gamma 82.731788
_cell_volume 712.158095
_symmetry_space_group_name_H-M "P -1"
_symmetry_group_IT_number 2
_symmetry_cell_setting 'triclinic'
loop_
_space_group_symop_operation_xyz
x,y,z
-x,-y,-z
loop_
_atom_site_type_symbol
_atom_site_label
_atom_site_fract_x
_atom_site_fract_y
_atom_site_fract_z
Si Si1 0.227679 0.951050 0.637747
Si Si2 0.295821 0.260800 0.936441
Si Si3 0.729322 0.230770 0.133349
Si Si4 0.426025 0.945289 0.291030
Si Si5 0.193000 0.496587 0.857291
Si Si6 0.019782 0.805433 0.212157
Si Si7 0.925397 0.613568 0.424545
Si Si8 0.698726 0.791490 0.741624
O O1 0.182211 0.851082 0.758343
O O2 0.401926 0.003930 0.669897
O O3 0.303178 0.898797 0.450916
O O4 0.067256 0.066499 0.676887
O O5 0.332441 0.395486 0.899834
O O6 0.142754 0.229887 0.856517
O O7 0.474553 0.159617 0.854555
O O8 0.219193 0.255478 0.124913
O O9 0.760087 0.369506 0.147196
O O10 0.512918 0.228422 0.198724
O O11 0.819499 0.179367 0.946208
O O12 0.309012 0.063808 0.258816
O O13 0.177949 0.445036 0.688095
O O14 0.000000 0.500000 0.000000
O O15 0.060289 0.693361 0.307780
O O16 0.797996 0.715298 0.568744
O O17 0.000000 0.500000 0.500000
#
# Coordination Sequence:
#
# PCOD9109572 Si02
#       8
#     2   2   2   2   2   2   2   2
#     4   9  18  35  62  92 121 158 204 253 300 357
#     4  10  21  37  67  85 122 169 202 240 303 374
#     4  11  23  37  64  93 126 153 206 258 304 352
#     4   9  18  36  61  91 123 158 202 250 305 359
#     4  11  22  42  62  86 120 167 206 239 306 376
#     4  10  20  41  66  89 121 167 206 239 307 373
#     4  11  23  40  67  89 119 165 206 246 300 372
#     4  11  23  39  63  96 123 155 207 258 300 352
#
# _framework density 22.466920999999999
#
# number of rings (size 3 to 8) (size 9 to 14) (size 15 to 20)
#    0.000    1.750    3.750    1.500    5.250    1.000 
#    0.000    0.000    0.000    2.250    0.000    0.000 
#    0.000    0.000    0.000    0.000    0.000    0.000 
#
# Total GULP energy -89450.432475 kJ/mol
# GULP energy per Si atom -5590.652030 kJ/mol
# Density = 2.241579 g / cm^3
# Si number density = 22.466921 Si / 1000 Ang^3
#
#
#
# Elastic Constant Matrix: (Units=GPa)
#
#
# Indices 1 2 3 4 5 6 
#
# 1 38.7842 28.9744 14.1501 -9.4554 -2.1810 6.1682
# 2 28.9744 137.4756 44.8322 -15.2751 -10.4267 -6.2643
# 3 14.1501 44.8322 136.7039 -6.8967 -15.2346 -0.8379
# 4 -9.4554 -15.2751 -6.8967 50.2140 0.0073 0.1301
# 5 -2.1810 -10.4267 -15.2346 0.0073 27.8866 -6.5047
# 6 6.1682 -6.2643 -0.8379 0.1301 -6.5047 22.2600
#
#
#
# Elastic Compliance Matrix: (Units=1/GPa)
#
#
# Indices 1 2 3 4 5 6 
#
# 1 0.034542 -0.007199 -0.001507 0.004141 -0.003798 -0.012788
# 2 -0.007199 0.010157 -0.002095 0.001431 0.003435 0.005770
# 3 -0.001507 -0.002095 0.008641 0.000261 0.004136 0.001360
# 4 0.004141 0.001431 0.000261 0.021167 0.000854 -0.000609
# 5 -0.003798 0.003435 0.004136 0.000854 0.042510 0.014592
# 6 -0.012788 0.005770 0.001360 -0.000609 0.014592 0.054410
#
#
# Mechanical properties :
#
#
# Convention : Reuss Voigt Hill
#
# Bulk Modulus (GPa) = 31.50982 54.31966 42.91474
# Shear Modulus (GPa) = 24.55693 35.07260 29.81476
#
# Velocity S-wave (km/s) = 3.30968 3.95533 3.64682
# Velocity P-wave (km/s) = 5.35357 6.71488 6.07250
#
# Compressibility (1/GPa) = 0.03173614
#
# Stress axis : x y z
#
# Youngs Moduli (GPa) = 28.95062 98.45314 115.73033
#
# Poissons Ratio (x) = 0.70878 0.17441
# Poissons Ratio (y) = 0.20842 0.24251
# Poissons Ratio (z) = 0.04363 0.20630
#
# Static dielectric constant tensor:
#      x y z
#    x 1.885090 -0.010810 0.016540 
#    y -0.010810 1.831740 -0.016480 
#    z 0.016540 -0.016480 1.812410 
# 
# From -- ./inp_files/187408.got.cif
#   From: 2010.05.17/outbox.cif.g08.bks.cpg/sg2_94_cif.got.tgz:187408.got - 2010.06.03 11:33:40.
