data_PCOD9109631
_publ_section_title
;
Structure prediction by ZEFSAII (Michael W. Deem and Ramdas Pophale) SiO2 
 PCOD9109631
Probable space group: P -1
;
_chemical_formula_sum "Si O2"
_cell_formula_units_Z 16
_cell_length_a 12.328453
_cell_length_b 8.913002
_cell_length_c 9.564921
_cell_angle_alpha 84.517162
_cell_angle_beta 97.987489
_cell_angle_gamma 129.683463
_cell_volume 800.974441
_symmetry_space_group_name_H-M "P -1"
_symmetry_group_IT_number 2
_symmetry_cell_setting 'triclinic'
loop_
_space_group_symop_operation_xyz
x,y,z
-x,-y,-z
loop_
_atom_site_type_symbol
_atom_site_label
_atom_site_fract_x
_atom_site_fract_y
_atom_site_fract_z
Si Si1 0.203665 0.968936 0.699119
Si Si2 0.571646 0.243146 0.398215
Si Si3 0.889513 0.752821 0.753889
Si Si4 0.727134 0.109709 0.562641
Si Si5 0.043282 0.850236 0.235896
Si Si6 0.207838 0.310308 0.576997
Si Si7 0.618563 0.116632 0.127838
Si Si8 0.881270 0.523391 0.006859
O O1 0.192828 0.853305 0.571373
O O2 0.321328 0.995530 0.813401
O O3 0.054177 0.849778 0.759498
O O4 0.238273 0.164675 0.633298
O O5 0.659781 0.216088 0.525995
O O6 0.661000 0.471386 0.377168
O O7 0.565657 0.147510 0.259194
O O8 0.411155 0.117872 0.432338
O O9 0.825011 0.701553 0.591760
O O10 0.890179 0.925719 0.794156
O O11 0.827352 0.570401 0.858965
O O12 0.834844 0.162302 0.699282
O O13 0.932684 0.768797 0.352652
O O14 0.955713 0.711597 0.102905
O O15 0.751027 0.329580 0.077571
O O16 0.500000 0.000000 0.000000
O O17 0.000000 0.500000 0.000000
#
# Coordination Sequence:
#
# PCOD9109631 Si02
#       8
#     2   2   2   2   2   2   2   2
#     4  10  20  41  66  93 128 160 211 268 314 371
#     4  10  24  38  62  91 130 166 217 258 314 377
#     4  11  22  40  67 100 132 164 205 271 323 375
#     4  10  21  39  62  93 125 168 206 270 312 367
#     4  11  22  42  66  94 129 166 215 263 323 370
#     4  11  21  41  69  98 125 168 211 267 324 370
#     4  11  25  46  61  88 132 175 210 263 316 381
#     4  12  26  41  66  95 126 174 216 260 316 382
#
# _framework density 19.975667999999999
#
# number of rings (size 3 to 8) (size 9 to 14) (size 15 to 20)
#    0.000    1.250    5.000    1.125    3.500    3.000 
#    2.250    0.625    0.000    0.000    0.000    0.000 
#    0.000    0.000    0.000    0.000    0.000    0.000 
#
# Total GULP energy -89398.632664 kJ/mol
# GULP energy per Si atom -5587.414541 kJ/mol
# Density = 1.993020 g / cm^3
# Si number density = 19.975668 Si / 1000 Ang^3
#
#
#
# Elastic Constant Matrix: (Units=GPa)
#
#
# Indices 1 2 3 4 5 6 
#
# 1 46.6078 -0.8687 38.1407 5.6899 7.0371 0.4569
# 2 -0.8687 31.7268 15.8023 0.4571 2.1351 -9.1108
# 3 38.1407 15.8023 95.2684 -4.4360 25.7782 -13.6283
# 4 5.6899 0.4571 -4.4360 34.1906 2.6070 -1.2044
# 5 7.0371 2.1351 25.7782 2.6070 31.4260 -0.1001
# 6 0.4569 -9.1108 -13.6283 -1.2044 -0.1001 17.5703
#
#
#
# Elastic Compliance Matrix: (Units=1/GPa)
#
#
# Indices 1 2 3 4 5 6 
#
# 1 0.040261 0.007482 -0.022829 -0.011079 0.010072 -0.015577
# 2 0.007482 0.039733 -0.008543 -0.002626 0.002894 0.013618
# 3 -0.022829 -0.008543 0.029551 0.009912 -0.019307 0.019654
# 4 -0.011079 -0.002626 0.009912 0.033350 -0.008210 0.008854
# 5 0.010072 0.002894 -0.019307 -0.008210 0.045842 -0.014038
# 6 -0.015577 0.013618 0.019654 0.008854 -0.014038 0.080152
#
#
# Mechanical properties :
#
#
# Convention : Reuss Voigt Hill
#
# Bulk Modulus (GPa) = 16.19073 31.08354 23.63713
# Shear Modulus (GPa) = 14.82541 24.67260 19.74901
#
# Velocity S-wave (km/s) = 2.72724 3.51826 3.14770
# Velocity P-wave (km/s) = 4.24735 5.66557 5.00693
#
# Compressibility (1/GPa) = 0.06176375
#
# Stress axis : x y z
#
# Youngs Moduli (GPa) = 24.83765 25.16814 33.84030
#
# Poissons Ratio (x) = -0.18830 0.77254
# Poissons Ratio (y) = -0.18583 0.28910
# Poissons Ratio (z) = 0.56702 0.21501
#
# Static dielectric constant tensor:
#      x y z
#    x 1.689990 -0.012470 -0.010360 
#    y -0.012470 1.683550 -0.018960 
#    z -0.010360 -0.018960 1.719310 
# 
# From -- ./inp_files/158714.got.cif
#   From: 2010.05.17/outbox.cif.g08.bks.cpg/sg2_80_cif.got.tgz:158714.got - 2010.06.03 11:33:40.
