data_PCOD9109194
_publ_section_title
;
Structure prediction by ZEFSAII (Michael W. Deem and Ramdas Pophale) SiO2 
 PCOD9109194
Probable space group: P -1
;
_chemical_formula_sum "Si O2"
_cell_formula_units_Z 16
_cell_length_a 8.760692
_cell_length_b 17.291208
_cell_length_c 7.625303
_cell_angle_alpha 121.218690
_cell_angle_beta 70.581736
_cell_angle_gamma 132.341976
_cell_volume 729.895905
_symmetry_space_group_name_H-M "P -1"
_symmetry_group_IT_number 2
_symmetry_cell_setting 'triclinic'
loop_
_space_group_symop_operation_xyz
x,y,z
-x,-y,-z
loop_
_atom_site_type_symbol
_atom_site_label
_atom_site_fract_x
_atom_site_fract_y
_atom_site_fract_z
Si Si1 0.010665 0.510770 0.266936
Si Si2 0.545647 0.413480 0.342037
Si Si3 0.741986 0.080590 0.556813
Si Si4 0.421795 0.702074 0.496250
Si Si5 0.605106 0.948895 0.813797
Si Si6 0.182926 0.695430 0.113208
Si Si7 0.011349 0.000101 0.710492
Si Si8 0.409034 0.247141 0.902356
O O1 0.791720 0.484488 0.321726
O O2 0.183305 0.587195 0.437797
O O3 0.126926 0.600848 0.167233
O O4 0.950555 0.385798 0.096247
O O5 0.500000 0.500000 0.500000
O O6 0.477099 0.323166 0.419774
O O7 0.446176 0.349292 0.120670
O O8 0.843052 0.214096 0.695615
O O9 0.500000 0.000000 0.500000
O O10 0.717526 0.031417 0.701151
O O11 0.885523 0.062571 0.369577
O O12 0.439562 0.814771 0.664211
O O13 0.532796 0.725896 0.294306
O O14 0.793111 0.952856 0.823067
O O15 0.500000 0.000000 0.000000
O O16 0.429493 0.766905 0.082653
O O17 0.180257 0.130775 0.860064
O O18 0.000000 0.000000 0.500000
#
# Coordination Sequence:
#
# PCOD9109194 Si02
#       8
#     2   2   2   2   2   2   2   2
#     4   9  20  40  61  92 130 173 222 270 333 395
#     4  11  26  42  63 100 135 170 230 282 334 403
#     4  11  19  37  69  96 128 172 226 272 337 409
#     4  11  22  45  69  91 135 180 223 281 338 402
#     4  11  26  41  63 102 136 173 227 276 343 409
#     4   9  18  35  68  98 122 171 228 272 328 404
#     4  10  20  41  63  96 133 175 224 273 335 418
#     4  10  20  43  69  90 137 177 217 280 340 402
#
# _framework density 21.920933999999999
#
# number of rings (size 3 to 8) (size 9 to 14) (size 15 to 20)
#    0.000    1.750    3.750    1.875    3.500    2.500 
#    4.500    2.500    0.000    0.000    0.000    0.000 
#    0.000    0.000    0.000    0.000    0.000    0.000 
#
# Total GULP energy -89200.089193 kJ/mol
# GULP energy per Si atom -5575.005575 kJ/mol
# Density = 2.187104 g / cm^3
# Si number density = 21.920934 Si / 1000 Ang^3
#
#
#
# Elastic Constant Matrix: (Units=GPa)
#
#
# Indices 1 2 3 4 5 6 
#
# 1 82.6131 27.3150 67.2330 15.5471 -20.4276 23.4215
# 2 27.3150 58.0751 47.9638 22.8625 0.5135 14.4195
# 3 67.2330 47.9638 167.5779 26.2236 -28.0259 8.3643
# 4 15.5471 22.8625 26.2236 36.5184 -0.4739 5.8861
# 5 -20.4276 0.5135 -28.0259 -0.4739 40.8914 5.3065
# 6 23.4215 14.4195 8.3643 5.8861 5.3065 37.9249
#
#
#
# Elastic Compliance Matrix: (Units=1/GPa)
#
#
# Indices 1 2 3 4 5 6 
#
# 1 0.025228 -0.001800 -0.006917 -0.002201 0.009726 -0.014390
# 2 -0.001800 0.029798 -0.006400 -0.012361 -0.004999 -0.006189
# 3 -0.006917 -0.006400 0.011290 -0.001743 0.003830 0.003950
# 4 -0.002201 -0.012361 -0.001743 0.037136 -0.001830 0.000936
# 5 0.009726 -0.004999 0.003830 -0.001830 0.033189 -0.009311
# 6 -0.014390 -0.006189 0.003950 0.000936 -0.009311 0.037894
#
#
# Mechanical properties :
#
#
# Convention : Reuss Voigt Hill
#
# Bulk Modulus (GPa) = 27.71356 65.92108 46.81732
# Shear Modulus (GPa) = 23.06323 34.11722 28.59022
#
# Velocity S-wave (km/s) = 3.24714 3.94937 3.61535
# Velocity P-wave (km/s) = 5.16996 7.13682 6.23148
#
# Compressibility (1/GPa) = 0.03608342
#
# Stress axis : x y z
#
# Youngs Moduli (GPa) = 39.63884 33.55963 88.57023
#
# Poissons Ratio (x) = 0.06039 0.61265
# Poissons Ratio (y) = 0.07133 0.56681
# Poissons Ratio (z) = 0.27419 0.21477
#
# Static dielectric constant tensor:
#      x y z
#    x 1.903460 -0.001410 0.049960 
#    y -0.001410 1.845940 -0.062930 
#    z 0.049960 -0.062930 1.897580 
# 
# From -- ./inp_files/218570.got.cif
#   From: 2010.05.17/outbox.cif.g08.bks.cpg/sg2_110_cif.got.tgz:218570.got - 2010.06.03 11:33:40.
