data_PCOD9109241
_publ_section_title
;
Structure prediction by ZEFSAII (Michael W. Deem and Ramdas Pophale) SiO2 
 PCOD9109241
Probable space group: P -1
;
_chemical_formula_sum "Si O2"
_cell_formula_units_Z 16
_cell_length_a 14.322549
_cell_length_b 14.646611
_cell_length_c 8.620326
_cell_angle_alpha 30.807933
_cell_angle_beta 130.188159
_cell_angle_gamma 125.549376
_cell_volume 705.817421
_symmetry_space_group_name_H-M "P -1"
_symmetry_group_IT_number 2
_symmetry_cell_setting 'triclinic'
loop_
_space_group_symop_operation_xyz
x,y,z
-x,-y,-z
loop_
_atom_site_type_symbol
_atom_site_label
_atom_site_fract_x
_atom_site_fract_y
_atom_site_fract_z
Si Si1 0.912060 0.969636 0.603410
Si Si2 0.312444 0.952727 0.292702
Si Si3 0.914394 0.641601 0.329608
Si Si4 0.944539 0.688608 0.636415
Si Si5 0.184709 0.590952 0.678428
Si Si6 0.274699 0.161591 0.639117
Si Si7 0.571127 0.589184 0.726047
Si Si8 0.440510 0.252434 0.173975
O O1 0.778595 0.932628 0.437340
O O2 0.928629 0.802443 0.982478
O O3 0.000000 0.000000 0.500000
O O4 0.948256 0.153304 0.462575
O O5 0.333913 0.111742 0.207020
O O6 0.205709 0.800498 0.426541
O O7 0.435756 0.848139 0.569835
O O8 0.290238 0.027294 0.990468
O O9 0.887886 0.703446 0.382972
O O10 0.816817 0.488879 0.382068
O O11 0.042963 0.549262 0.626919
O O12 0.834585 0.720079 0.591649
O O13 0.000000 0.500000 0.000000
O O14 0.298581 0.501876 0.005145
O O15 0.405385 0.266042 0.593519
O O16 0.565478 0.686268 0.744449
O O17 0.462654 0.434610 0.831441
#
# Coordination Sequence:
#
# PCOD9109241 Si02
#       8
#     2   2   2   2   2   2   2   2
#     4  10  22  40  58  86 129 164 205 249 298 362
#     4  10  22  41  63  90 121 155 206 256 311 367
#     4  11  22  38  64  90 128 173 206 243 303 362
#     4  11  25  38  58  91 131 166 212 250 291 364
#     4  10  21  36  65  88 121 165 208 239 299 370
#     4  11  23  38  61  89 125 162 200 255 311 363
#     4  10  20  41  64  89 120 156 206 255 315 366
#     4   9  22  42  66  88 115 157 206 263 310 373
#
# _framework density 22.668752999999999
#
# number of rings (size 3 to 8) (size 9 to 14) (size 15 to 20)
#    0.000    1.750    1.250    2.625    8.750    2.000 
#    0.000    1.250    0.000    0.000    0.000    0.000 
#    0.000    0.000    0.000    0.000    0.000    0.000 
#
# Total GULP energy -89256.353514 kJ/mol
# GULP energy per Si atom -5578.522095 kJ/mol
# Density = 2.261716 g / cm^3
# Si number density = 22.668753 Si / 1000 Ang^3
#
#
#
# Elastic Constant Matrix: (Units=GPa)
#
#
# Indices 1 2 3 4 5 6 
#
# 1 43.6131 14.9733 8.0991 -15.3816 -14.1940 -4.4215
# 2 14.9733 132.1889 35.0300 -30.2314 -7.4061 -12.1092
# 3 8.0991 35.0300 50.9725 -13.4706 -5.8489 -12.8285
# 4 -15.3816 -30.2314 -13.4706 35.2179 0.8824 -2.9319
# 5 -14.1940 -7.4061 -5.8489 0.8824 22.0710 7.0017
# 6 -4.4215 -12.1092 -12.8285 -2.9319 7.0017 19.7974
#
#
#
# Elastic Compliance Matrix: (Units=1/GPa)
#
#
# Indices 1 2 3 4 5 6 
#
# 1 0.035771 0.001004 0.001763 0.016999 0.021670 0.004599
# 2 0.001004 0.011079 -0.003957 0.008844 0.001282 0.005293
# 3 0.001763 -0.003957 0.029428 0.010091 0.001487 0.018011
# 4 0.016999 0.008844 0.010091 0.048732 0.008269 0.020037
# 5 0.021670 0.001282 0.001487 0.008269 0.064496 -0.014998
# 6 0.004599 0.005293 0.018011 0.020037 -0.014998 0.074719
#
#
# Mechanical properties :
#
#
# Convention : Reuss Voigt Hill
#
# Bulk Modulus (GPa) = 13.53224 38.10882 25.82053
# Shear Modulus (GPa) = 17.16812 26.66208 21.91510
#
# Velocity S-wave (km/s) = 2.75498 3.43324 3.11264
# Velocity P-wave (km/s) = 4.01278 5.70647 4.93286
#
# Compressibility (1/GPa) = 0.07389760
#
# Stress axis : x y z
#
# Youngs Moduli (GPa) = 27.95572 90.26003 33.98100
#
# Poissons Ratio (x) = -0.09063 -0.05990
# Poissons Ratio (y) = -0.02807 0.13446
# Poissons Ratio (z) = -0.04928 0.35716
#
# Static dielectric constant tensor:
#      x y z
#    x 1.901680 -0.016520 -0.001770 
#    y -0.016520 1.888980 -0.048420 
#    z -0.001770 -0.048420 1.866230 
# 
# From -- ./inp_files/201889.got.cif
#   From: 2010.05.17/outbox.cif.g08.bks.cpg/sg2_101_cif.got.tgz:201889.got - 2010.06.03 11:33:40.
