data_PCOD9109624
_publ_section_title
;
Structure prediction by ZEFSAII (Michael W. Deem and Ramdas Pophale) SiO2 
 PCOD9109624
Probable space group: P -1
;
_chemical_formula_sum "Si O2"
_cell_formula_units_Z 16
_cell_length_a 16.155925
_cell_length_b 13.596152
_cell_length_c 15.181961
_cell_angle_alpha 123.257915
_cell_angle_beta 37.951051
_cell_angle_gamma 153.118186
_cell_volume 770.065815
_symmetry_space_group_name_H-M "P -1"
_symmetry_group_IT_number 2
_symmetry_cell_setting 'triclinic'
loop_
_space_group_symop_operation_xyz
x,y,z
-x,-y,-z
loop_
_atom_site_type_symbol
_atom_site_label
_atom_site_fract_x
_atom_site_fract_y
_atom_site_fract_z
Si Si1 0.636688 0.643790 0.361261
Si Si2 0.355986 0.746062 0.421210
Si Si3 0.786102 0.595404 0.544616
Si Si4 0.106239 0.895648 0.603332
Si Si5 0.846881 0.241791 0.823685
Si Si6 0.691650 0.189990 0.258470
Si Si7 0.825398 0.104130 0.955855
Si Si8 0.791281 0.463918 0.754400
O O1 0.500000 0.500000 0.500000
O O2 0.394585 0.460505 0.395842
O O3 0.909198 0.770545 0.170850
O O4 0.764950 0.875452 0.376849
O O5 0.406006 0.673684 0.405796
O O6 0.295431 0.645543 0.325584
O O7 0.052522 0.577844 0.618429
O O8 0.616364 0.042888 0.330053
O O9 0.900879 0.735529 0.609416
O O10 0.067710 0.765732 0.337339
O O11 0.922949 0.696266 0.741099
O O12 0.383962 0.022044 0.417996
O O13 0.919437 0.222591 0.839635
O O14 0.048698 0.515732 0.794173
O O15 0.500000 0.000000 0.000000
O O16 0.772022 0.173494 0.098702
O O17 0.509669 0.787663 0.061266
#
# Coordination Sequence:
#
# PCOD9109624 Si02
#       8
#     2   2   2   2   2   2   2   2
#     4  12  25  44  59  90 129 173 207 246 307 378
#     4   8  16  34  64  93 119 154 207 257 310 362
#     4  11  22  41  64  92 123 164 211 251 303 377
#     4  10  21  43  70  89 124 164 206 256 315 361
#     4  12  23  37  60  97 124 156 214 259 302 367
#     4  10  20  41  66  93 123 164 201 264 317 351
#     4  11  22  40  62  88 131 162 204 258 307 363
#     4   8  16  35  63  94 120 157 201 260 313 353
#
# _framework density 20.777446000000001
#
# number of rings (size 3 to 8) (size 9 to 14) (size 15 to 20)
#    0.000    1.750    2.500    4.125    0.000    2.500 
#    4.500    5.625    0.000    0.000    0.000    0.000 
#    0.000    0.000    0.000    0.000    0.000    0.000 
#
# Total GULP energy -89422.489513 kJ/mol
# GULP energy per Si atom -5588.905595 kJ/mol
# Density = 2.073016 g / cm^3
# Si number density = 20.777446 Si / 1000 Ang^3
#
#
#
# Elastic Constant Matrix: (Units=GPa)
#
#
# Indices 1 2 3 4 5 6 
#
# 1 78.2708 12.2919 -4.8275 1.9118 5.5656 -6.8794
# 2 12.2919 70.1998 10.1312 -15.3453 -0.2312 -5.2301
# 3 -4.8275 10.1312 37.6045 -9.9316 0.2732 -10.4965
# 4 1.9118 -15.3453 -9.9316 30.4881 -5.1573 4.1882
# 5 5.5656 -0.2312 0.2732 -5.1573 29.7369 -0.9003
# 6 -6.8794 -5.2301 -10.4965 4.1882 -0.9003 25.5565
#
#
#
# Elastic Compliance Matrix: (Units=1/GPa)
#
#
# Indices 1 2 3 4 5 6 
#
# 1 0.014189 -0.003181 0.003382 -0.002567 -0.003009 0.004872
# 2 -0.003181 0.017019 -0.002784 0.008198 0.002182 0.000217
# 3 0.003382 -0.002784 0.033363 0.007620 0.000749 0.012821
# 4 -0.002567 0.008198 0.007620 0.041170 0.007543 -0.002365
# 5 -0.003009 0.002182 0.000749 0.007543 0.035508 -0.000041
# 6 0.004872 0.000217 0.012821 -0.002365 -0.000041 0.046137
#
#
# Mechanical properties :
#
#
# Convention : Reuss Voigt Hill
#
# Bulk Modulus (GPa) = 16.83313 24.58514 20.70914
# Shear Modulus (GPa) = 23.54575 28.38826 25.96701
#
# Velocity S-wave (km/s) = 3.37001 3.70036 3.53904
# Velocity P-wave (km/s) = 4.82305 5.48773 5.16609
#
# Compressibility (1/GPa) = 0.05940665
#
# Stress axis : x y z
#
# Youngs Moduli (GPa) = 70.47600 58.75746 29.97375
#
# Poissons Ratio (x) = 0.18689 -0.10138
# Poissons Ratio (y) = 0.22417 0.08344
# Poissons Ratio (z) = -0.23837 0.16356
#
# Static dielectric constant tensor:
#      x y z
#    x 1.774080 0.001460 0.010410 
#    y 0.001460 1.778590 -0.021720 
#    z 0.010410 -0.021720 1.721600 
# 
# From -- ./inp_files/532605.got.cif
#   From: 2010.05.17/outbox.cif.g08.bks.cpg/sg2_267_cif.got.tgz:532605.got - 2010.06.03 11:33:40.
