data_PCOD9109438
_publ_section_title
;
Structure prediction by ZEFSAII (Michael W. Deem and Ramdas Pophale) SiO2 
 PCOD9109438
Probable space group: P -1
;
_chemical_formula_sum "Si O2"
_cell_formula_units_Z 12
_cell_length_a 9.017738
_cell_length_b 9.017728
_cell_length_c 14.038717
_cell_angle_alpha 72.751372
_cell_angle_beta 53.961264
_cell_angle_gamma 39.388988
_cell_volume 557.279610
_symmetry_space_group_name_H-M "P -1"
_symmetry_group_IT_number 2
_symmetry_cell_setting 'triclinic'
loop_
_space_group_symop_operation_xyz
x,y,z
-x,-y,-z
loop_
_atom_site_type_symbol
_atom_site_label
_atom_site_fract_x
_atom_site_fract_y
_atom_site_fract_z
Si Si1 0.158864 0.730474 0.477791
Si Si2 0.617958 0.134696 0.176244
Si Si3 0.614434 0.948104 0.571668
Si Si4 0.725108 0.385553 0.022209
Si Si5 0.282203 0.470451 0.676244
Si Si6 0.304766 0.257772 0.071668
O O1 0.171624 0.629306 0.592069
O O2 0.484670 0.564637 0.359823
O O3 0.955262 0.764887 0.479317
O O4 0.000000 0.000000 0.500000
O O5 0.462135 0.151330 0.318030
O O6 0.655004 0.295687 0.140178
O O7 0.438140 0.213242 0.133345
O O8 0.945167 0.855765 0.092067
O O9 0.500000 0.000000 0.500000
O O10 0.446549 0.204835 0.633344
O O11 0.500000 0.500000 0.000000
O O12 0.693748 0.586103 0.020682
O O13 0.015269 0.598197 0.818031
O O14 0.500000 0.000000 0.000000
#
# Coordination Sequence:
#
# PCOD9109438 Si02
#       6
#     2   2   2   2   2   2
#     4   9  20  40  64  91 129 172 209 277 336 372
#     4  10  20  41  65  91 136 165 214 284 324 388
#     4  11  22  39  68  98 126 175 223 264 335 396
#     4   9  20  40  64  91 129 172 209 277 336 372
#     4  10  20  41  65  91 136 165 214 284 324 388
#     4  11  22  39  68  98 126 175 223 264 335 396
#
# _framework density 21.533175
#
# number of rings (size 3 to 8) (size 9 to 14) (size 15 to 20)
#    0.000    2.000    3.333    0.000    0.000    1.333 
#    0.000   18.333    0.000    0.000    0.000    0.000 
#    0.000    0.000    0.000    0.000    0.000    0.000 
#
# Total GULP energy -67068.604347 kJ/mol
# GULP energy per Si atom -5589.050362 kJ/mol
# Density = 2.148416 g / cm^3
# Si number density = 21.533175 Si / 1000 Ang^3
#
#
#
# Elastic Constant Matrix: (Units=GPa)
#
#
# Indices 1 2 3 4 5 6 
#
# 1 130.9966 43.4865 90.3356 -4.1995 -37.3662 -14.0324
# 2 43.4865 120.0375 50.5723 -17.9647 -20.6239 21.0170
# 3 90.3356 50.5723 102.4140 -11.0996 -31.2977 16.7354
# 4 -4.1995 -17.9647 -11.0996 35.7051 1.1256 -12.2153
# 5 -37.3662 -20.6239 -31.2977 1.1256 38.7598 0.1522
# 6 -14.0324 21.0170 16.7354 -12.2153 0.1522 46.9550
#
#
#
# Elastic Compliance Matrix: (Units=1/GPa)
#
#
# Indices 1 2 3 4 5 6 
#
# 1 0.032488 -0.001972 -0.028974 0.000831 0.006767 0.021113
# 2 -0.001972 0.011631 -0.002222 0.003446 0.002410 -0.004115
# 3 -0.028974 -0.002222 0.041492 0.000599 0.004459 -0.022311
# 4 0.000831 0.003446 0.000599 0.032315 0.002153 0.006892
# 5 0.006767 0.002410 0.004459 0.002153 0.037145 -0.000206
# 6 0.021113 -0.004115 -0.022311 0.006892 -0.000206 0.039194
#
#
# Mechanical properties :
#
#
# Convention : Reuss Voigt Hill
#
# Bulk Modulus (GPa) = 51.88031 80.24855 66.06443
# Shear Modulus (GPa) = 18.72469 35.55423 27.13946
#
# Velocity S-wave (km/s) = 2.95205 4.06783 3.55400
# Velocity P-wave (km/s) = 5.98038 7.70787 6.89841
#
# Compressibility (1/GPa) = 0.01927514
#
# Stress axis : x y z
#
# Youngs Moduli (GPa) = 30.78086 85.97387 24.10090
#
# Poissons Ratio (x) = 0.16953 0.69831
# Poissons Ratio (y) = 0.06070 0.05355
# Poissons Ratio (z) = 0.89185 0.19103
#
# Static dielectric constant tensor:
#      x y z
#    x 1.776100 0.002190 -0.024590 
#    y 0.002190 1.772450 -0.007960 
#    z -0.024590 -0.007960 1.725880 
# 
# From -- ./inp_files/18563.got.cif
#   From: 2010.05.17/outbox.cif.g08.bks.cpg/sg2_10_cif.got.tgz:18563.got - 2010.06.03 11:33:40.
