data_PCOD9109162
_publ_section_title
;
Structure prediction by ZEFSAII (Michael W. Deem and Ramdas Pophale) SiO2 
 PCOD9109162
Probable space group: P -1
;
_chemical_formula_sum "Si O2"
_cell_formula_units_Z 16
_cell_length_a 7.357855
_cell_length_b 8.944833
_cell_length_c 15.918311
_cell_angle_alpha 66.213629
_cell_angle_beta 58.145886
_cell_angle_gamma 51.690575
_cell_volume 693.689213
_symmetry_space_group_name_H-M "P -1"
_symmetry_group_IT_number 2
_symmetry_cell_setting 'triclinic'
loop_
_space_group_symop_operation_xyz
x,y,z
-x,-y,-z
loop_
_atom_site_type_symbol
_atom_site_label
_atom_site_fract_x
_atom_site_fract_y
_atom_site_fract_z
Si Si1 0.277902 0.922074 0.548048
Si Si2 0.738494 0.960015 0.656827
Si Si3 0.973604 0.524841 0.722905
Si Si4 0.504134 0.728981 0.025933
Si Si5 0.473710 0.080229 0.869558
Si Si6 0.516407 0.491415 0.396139
Si Si7 0.999679 0.330971 0.590556
Si Si8 0.120026 0.648255 0.055122
O O1 0.358981 0.927552 0.431738
O O2 0.219109 0.116605 0.562575
O O3 0.447254 0.712526 0.593183
O O4 0.009531 0.935795 0.607523
O O5 0.799707 0.742730 0.683958
O O6 0.562458 0.055030 0.758183
O O7 0.004070 0.381433 0.674323
O O8 0.865259 0.481196 0.840508
O O9 0.241254 0.498851 0.686642
O O10 0.433336 0.808783 0.119489
O O11 0.276804 0.742609 0.025154
O O12 0.728165 0.506964 0.019446
O O13 0.577311 0.870098 0.931398
O O14 0.170931 0.200196 0.924408
O O15 0.500000 0.500000 0.500000
O O16 0.259589 0.649335 0.380782
O O17 0.000000 0.500000 0.500000
#
# Coordination Sequence:
#
# PCOD9109162 Si02
#       8
#     2   2   2   2   2   2   2   2
#     4  10  23  40  63  92 134 175 216 258 317 376
#     4  10  20  41  63  92 133 169 208 268 310 377
#     4  11  24  42  61  96 130 167 219 266 317 385
#     4  10  24  46  66  97 129 158 213 274 322 392
#     4  11  23  42  72  94 126 169 211 261 328 390
#     4  11  23  42  64  89 130 179 214 267 321 376
#     4  12  23  42  62  91 132 171 224 269 308 375
#     4  11  24  43  69  95 127 166 208 268 335 382
#
# _framework density 23.065086000000001
#
# number of rings (size 3 to 8) (size 9 to 14) (size 15 to 20)
#    0.000    1.250    3.750    2.250    5.250    0.500 
#    2.250    0.000    0.000    0.000    0.000    0.000 
#    0.000    0.000    0.000    0.000    0.000    0.000 
#
# Total GULP energy -89566.962185 kJ/mol
# GULP energy per Si atom -5597.935137 kJ/mol
# Density = 2.301259 g / cm^3
# Si number density = 23.065086 Si / 1000 Ang^3
#
#
#
# Elastic Constant Matrix: (Units=GPa)
#
#
# Indices 1 2 3 4 5 6 
#
# 1 92.9485 33.4492 8.5254 16.4888 -3.7550 5.7583
# 2 33.4492 146.3505 26.6533 19.8072 13.0294 17.0663
# 3 8.5254 26.6533 65.7843 9.8846 1.4932 16.2497
# 4 16.4888 19.8072 9.8846 33.7412 6.5322 1.7557
# 5 -3.7550 13.0294 1.4932 6.5322 21.1946 4.2434
# 6 5.7583 17.0663 16.2497 1.7557 4.2434 44.8630
#
#
#
# Elastic Compliance Matrix: (Units=1/GPa)
#
#
# Indices 1 2 3 4 5 6 
#
# 1 0.013060 -0.002644 0.000440 -0.006062 0.006009 -0.001161
# 2 -0.002644 0.008770 -0.002382 -0.002164 -0.004704 -0.001604
# 3 0.000440 -0.002382 0.018138 -0.004365 0.002773 -0.005811
# 4 -0.006062 -0.002164 -0.004365 0.037223 -0.011471 0.002810
# 5 0.006009 -0.004704 0.002773 -0.011471 0.055435 -0.004781
# 6 -0.001161 -0.001604 -0.005811 0.002810 -0.004781 0.025497
#
#
# Mechanical properties :
#
#
# Convention : Reuss Voigt Hill
#
# Bulk Modulus (GPa) = 32.47345 49.14878 40.81112
# Shear Modulus (GPa) = 28.15946 35.72345 31.94145
#
# Velocity S-wave (km/s) = 3.49788 3.93976 3.72538
# Velocity P-wave (km/s) = 5.51572 6.48465 6.01971
#
# Compressibility (1/GPa) = 0.03079438
#
# Stress axis : x y z
#
# Youngs Moduli (GPa) = 76.57044 114.02690 55.13364
#
# Poissons Ratio (x) = 0.30151 -0.02426
# Poissons Ratio (y) = 0.20247 0.13135
# Poissons Ratio (z) = -0.03369 0.27165
#
# Static dielectric constant tensor:
#      x y z
#    x 2.115370 0.002500 -0.059340 
#    y 0.002500 1.913840 0.016390 
#    z -0.059340 0.016390 1.827710 
# 
# From -- ./inp_files/556037.got.cif
#   From: 2010.05.17/outbox.cif.g08.bks.cpg/sg2_279_cif.got.tgz:556037.got - 2010.06.03 11:33:40.
