data_PCOD9109273
_publ_section_title
;
Structure prediction by ZEFSAII (Michael W. Deem and Ramdas Pophale) SiO2 
 PCOD9109273
Probable space group: P -1
;
_chemical_formula_sum "Si O2"
_cell_formula_units_Z 16
_cell_length_a 8.032385
_cell_length_b 16.332951
_cell_length_c 12.087711
_cell_angle_alpha 28.894878
_cell_angle_beta 63.143867
_cell_angle_gamma 58.285817
_cell_volume 651.715451
_symmetry_space_group_name_H-M "P -1"
_symmetry_group_IT_number 2
_symmetry_cell_setting 'triclinic'
loop_
_space_group_symop_operation_xyz
x,y,z
-x,-y,-z
loop_
_atom_site_type_symbol
_atom_site_label
_atom_site_fract_x
_atom_site_fract_y
_atom_site_fract_z
Si Si1 0.018524 0.802053 0.883318
Si Si2 0.333421 0.058335 0.809772
Si Si3 0.150065 0.311517 0.145721
Si Si4 0.730255 0.103735 0.752865
Si Si5 0.341731 0.076076 0.552735
Si Si6 0.602523 0.454683 0.280206
Si Si7 0.609867 0.300579 0.238383
Si Si8 0.149393 0.466527 0.393054
O O1 0.904423 0.796767 0.810189
O O2 0.912014 0.965313 0.799694
O O3 0.233444 0.797891 0.782396
O O4 0.049560 0.612165 0.157966
O O5 0.325703 0.972372 0.791977
O O6 0.189284 0.258265 0.605075
O O7 0.541558 0.073355 0.779125
O O8 0.266712 0.957038 0.049524
O O9 0.169971 0.198479 0.385475
O O10 0.335312 0.370883 0.973292
O O11 0.000000 0.500000 0.000000
O O12 0.700948 0.315610 0.511125
O O13 0.445517 0.211328 0.415467
O O14 0.500000 0.000000 0.500000
O O15 0.694951 0.325240 0.301326
O O16 0.367818 0.489844 0.316825
O O17 0.500000 0.500000 0.000000
O O18 0.000000 0.500000 0.500000
#
# Coordination Sequence:
#
# PCOD9109273 Si02
#       8
#     2   2   2   2   2   2   2   2
#     4  12  23  38  67 102 126 167 229 272 321 393
#     4  10  20  41  64  91 131 172 214 263 332 387
#     4  12  24  40  64 100 136 168 210 279 334 377
#     4  10  22  38  66  94 126 171 220 269 313 392
#     4  12  24  41  68  98 131 170 214 275 334 387
#     4  11  23  42  65  97 134 174 214 268 335 387
#     4  12  20  41  66  92 133 177 218 267 328 398
#     4  11  20  39  71  94 125 177 227 258 322 402
#
# _framework density 24.550592000000002
#
# number of rings (size 3 to 8) (size 9 to 14) (size 15 to 20)
#    0.000    0.750    7.500    1.500    0.000    1.500 
#    0.000    0.625    2.750    2.250    0.000    0.000 
#    0.000    0.000    0.000    0.000    0.000    0.000 
#
# Total GULP energy -89329.285683 kJ/mol
# GULP energy per Si atom -5583.080355 kJ/mol
# Density = 2.449471 g / cm^3
# Si number density = 24.550592 Si / 1000 Ang^3
#
#
#
# Elastic Constant Matrix: (Units=GPa)
#
#
# Indices 1 2 3 4 5 6 
#
# 1 60.3342 18.1987 36.3162 19.3196 10.9158 0.5701
# 2 18.1987 149.9074 45.7196 26.2630 20.4824 -14.7526
# 3 36.3162 45.7196 119.3752 30.0640 25.3952 12.9011
# 4 19.3196 26.2630 30.0640 48.1537 2.7116 5.6862
# 5 10.9158 20.4824 25.3952 2.7116 39.5619 8.1722
# 6 0.5701 -14.7526 12.9011 5.6862 8.1722 28.0003
#
#
#
# Elastic Compliance Matrix: (Units=1/GPa)
#
#
# Indices 1 2 3 4 5 6 
#
# 1 0.022152 0.001078 -0.005197 -0.006600 -0.003914 0.004994
# 2 0.001078 0.009790 -0.002733 -0.004825 -0.005113 0.008867
# 3 -0.005197 -0.002733 0.013544 -0.003985 -0.004443 -0.005469
# 4 -0.006600 -0.004825 -0.003985 0.029156 0.006619 -0.008424
# 5 -0.003914 -0.005113 -0.004443 0.006619 0.033836 -0.011787
# 6 0.004994 0.008867 -0.005469 -0.008424 -0.011787 0.047955
#
#
# Mechanical properties :
#
#
# Convention : Reuss Voigt Hill
#
# Bulk Modulus (GPa) = 31.46379 58.89841 45.18110
# Shear Modulus (GPa) = 27.66550 38.43535 33.05043
#
# Velocity S-wave (km/s) = 3.36054 3.96100 3.67306
# Velocity P-wave (km/s) = 5.28217 6.70538 6.03587
#
# Compressibility (1/GPa) = 0.03178257
#
# Stress axis : x y z
#
# Youngs Moduli (GPa) = 45.14367 102.14590 73.83201
#
# Poissons Ratio (x) = -0.11015 0.38369
# Poissons Ratio (y) = -0.04868 0.20179
# Poissons Ratio (z) = 0.23460 0.27917
#
# Static dielectric constant tensor:
#      x y z
#    x 2.135780 -0.049780 0.056430 
#    y -0.049780 1.998070 -0.008070 
#    z 0.056430 -0.008070 2.079180 
# 
# From -- ./inp_files/402654.got.cif
#   From: 2010.05.17/outbox.cif.g08.bks.cpg/sg2_202_cif.got.tgz:402654.got - 2010.06.03 11:33:40.
