data_PCOD9109138
_publ_section_title
;
Structure prediction by ZEFSAII (Michael W. Deem and Ramdas Pophale) SiO2 
 PCOD9109138
Probable space group: P -1
;
_chemical_formula_sum "Si O2"
_cell_formula_units_Z 14
_cell_length_a 15.841571
_cell_length_b 8.484925
_cell_length_c 5.604744
_cell_angle_alpha 121.733996
_cell_angle_beta 115.932257
_cell_angle_gamma 77.868513
_cell_volume 576.022925
_symmetry_space_group_name_H-M "P -1"
_symmetry_group_IT_number 2
_symmetry_cell_setting 'triclinic'
loop_
_space_group_symop_operation_xyz
x,y,z
-x,-y,-z
loop_
_atom_site_type_symbol
_atom_site_label
_atom_site_fract_x
_atom_site_fract_y
_atom_site_fract_z
Si Si1 0.559697 0.683119 0.014234
Si Si2 0.397169 0.707935 0.193383
Si Si3 0.984333 0.265205 0.542671
Si Si4 0.938370 0.691209 0.827448
Si Si5 0.736961 0.792185 0.597674
Si Si6 0.234147 0.825085 0.816262
Si Si7 0.661813 0.013729 0.303778
O O1 0.571086 0.474267 0.776631
O O2 0.636688 0.696598 0.340784
O O3 0.595528 0.840737 0.001071
O O4 0.461345 0.719313 0.045390
O O5 0.287843 0.702445 0.975884
O O6 0.403338 0.893525 0.502044
O O7 0.985335 0.490815 0.725993
O O8 0.875380 0.205274 0.355250
O O9 0.030929 0.211835 0.305974
O O10 0.031393 0.210269 0.808555
O O11 0.825439 0.669667 0.662852
O O12 0.747382 0.908454 0.455212
O O13 0.739225 0.958143 0.923208
O O14 0.290410 0.812983 0.631167
#
# Coordination Sequence:
#
# PCOD9109138 Si02
#       7
#     2   2   2   2   2   2   2
#     4   9  20  41  63  89 127 166 211 262 327 392
#     4  10  20  41  63  89 126 169 208 266 324 390
#     4  10  24  40  66  93 129 170 223 270 330 393
#     4  10  22  43  63  95 127 172 219 276 326 387
#     4   9  22  39  59  87 126 162 207 269 319 384
#     4  11  23  39  61  92 126 165 215 268 328 386
#     4   9  22  39  58  93 124 164 207 265 319 385
#
# _framework density 24.304589
#
# number of rings (size 3 to 8) (size 9 to 14) (size 15 to 20)
#    0.857    1.429    0.000    1.286    6.000    1.714 
#    7.714    1.429    0.000    0.000    0.000    0.000 
#    0.000    0.000    0.000    0.000    0.000    0.000 
#
# Total GULP energy -78003.058425 kJ/mol
# GULP energy per Si atom -5571.647030 kJ/mol
# Density = 2.424927 g / cm^3
# Si number density = 24.304589 Si / 1000 Ang^3
#
#
#
# Elastic Constant Matrix: (Units=GPa)
#
#
# Indices 1 2 3 4 5 6 
#
# 1 90.6043 11.3503 24.4192 -19.4681 22.8628 0.1318
# 2 11.3503 36.8204 16.7407 -1.0192 -1.8489 7.4882
# 3 24.4192 16.7407 61.8980 -22.9130 19.6348 -1.5923
# 4 -19.4681 -1.0192 -22.9130 30.3967 -8.3157 5.3555
# 5 22.8628 -1.8489 19.6348 -8.3157 34.2408 -2.9932
# 6 0.1318 7.4882 -1.5923 5.3555 -2.9932 34.7885
#
#
#
# Elastic Compliance Matrix: (Units=1/GPa)
#
#
# Indices 1 2 3 4 5 6 
#
# 1 0.015561 -0.005540 0.001505 0.008457 -0.009579 -0.000924
# 2 -0.005540 0.037431 -0.015331 -0.009561 0.011642 -0.006264
# 3 0.001505 -0.015331 0.032122 0.020434 -0.015263 0.000306
# 4 0.008457 -0.009561 0.020434 0.052880 -0.005533 -0.005655
# 5 -0.009579 0.011642 -0.015263 -0.005533 0.043765 0.001449
# 6 -0.000924 -0.006264 0.000306 -0.005655 0.001449 0.031106
#
#
# Mechanical properties :
#
#
# Convention : Reuss Voigt Hill
#
# Bulk Modulus (GPa) = 21.56059 32.70477 27.13268
# Shear Modulus (GPa) = 18.72243 29.00603 23.86423
#
# Velocity S-wave (km/s) = 2.77848 3.45837 3.13690
# Velocity P-wave (km/s) = 4.37990 5.42517 4.93032
#
# Compressibility (1/GPa) = 0.04638092
#
# Stress axis : x y z
#
# Youngs Moduli (GPa) = 64.26253 26.71572 31.13134
#
# Poissons Ratio (x) = 0.14801 -0.04685
# Poissons Ratio (y) = 0.35603 0.47729
# Poissons Ratio (z) = -0.09671 0.40959
#
# Static dielectric constant tensor:
#      x y z
#    x 1.898680 0.028990 -0.063240 
#    y 0.028990 1.977690 -0.052920 
#    z -0.063240 -0.052920 2.046380 
# 
# From -- ./inp_files/91005.got.cif
#   From: 2010.05.17/outbox.cif.g08.bks.cpg/sg2_46_cif.got.tgz:91005.got - 2010.06.03 11:33:40.
