data_PCOD9109505
_publ_section_title
;
Structure prediction by ZEFSAII (Michael W. Deem and Ramdas Pophale) SiO2 
 PCOD9109505
Probable space group: P -1
;
_chemical_formula_sum "Si O2"
_cell_formula_units_Z 14
_cell_length_a 13.122524
_cell_length_b 9.057834
_cell_length_c 8.102344
_cell_angle_alpha 126.331336
_cell_angle_beta 51.701820
_cell_angle_gamma 97.052223
_cell_volume 561.545409
_symmetry_space_group_name_H-M "P -1"
_symmetry_group_IT_number 2
_symmetry_cell_setting 'triclinic'
loop_
_space_group_symop_operation_xyz
x,y,z
-x,-y,-z
loop_
_atom_site_type_symbol
_atom_site_label
_atom_site_fract_x
_atom_site_fract_y
_atom_site_fract_z
Si Si1 0.732917 0.023664 0.048604
Si Si2 0.939037 0.336714 0.004364
Si Si3 0.492660 0.130972 0.931213
Si Si4 0.944064 0.683509 0.798499
Si Si5 0.198891 0.940980 0.384933
Si Si6 0.550224 0.449416 0.606364
Si Si7 0.248225 0.513989 0.998812
O O1 0.616352 0.924163 0.106254
O O2 0.873907 0.884557 0.903985
O O3 0.766416 0.044571 0.835352
O O4 0.670947 0.234155 0.339865
O O5 0.056053 0.125975 0.690299
O O6 0.938299 0.328262 0.195449
O O7 0.000000 0.500000 0.000000
O O8 0.793723 0.421303 0.107047
O O9 0.433178 0.362125 0.199793
O O10 0.657122 0.069735 0.675916
O O11 0.500000 0.000000 0.000000
O O12 0.000000 0.500000 0.500000
O O13 0.820807 0.639601 0.988404
O O14 0.184172 0.731605 0.292436
O O15 0.500000 0.500000 0.500000
O O16 0.412294 0.432311 0.814975
#
# Coordination Sequence:
#
# PCOD9109505 Si02
#       7
#     2   2   2   2   2   2   2
#     4  11  22  41  69  96 138 169 211 281 324 383
#     4  10  22  39  66  87 121 175 219 260 319 392
#     4   9  19  34  62  95 130 167 207 263 319 388
#     4  11  26  46  61  95 134 172 218 272 334 382
#     4  10  20  41  65  97 121 168 227 260 320 392
#     4  11  20  38  67 104 128 167 224 262 326 393
#     4  10  22  42  67  93 130 170 217 273 313 400
#
# _framework density 24.931198999999999
#
# number of rings (size 3 to 8) (size 9 to 14) (size 15 to 20)
#    0.000    1.714    4.286    2.143    4.000    1.714 
#    2.571    2.857    0.000    0.000    0.000    0.000 
#    0.000    0.000    0.000    0.000    0.000    0.000 
#
# Total GULP energy -78314.703347 kJ/mol
# GULP energy per Si atom -5593.907382 kJ/mol
# Density = 2.487445 g / cm^3
# Si number density = 24.931199 Si / 1000 Ang^3
#
#
#
# Elastic Constant Matrix: (Units=GPa)
#
#
# Indices 1 2 3 4 5 6 
#
# 1 104.3394 33.9756 27.0201 6.5458 0.8030 8.5595
# 2 33.9756 49.6379 33.3311 14.1256 1.7789 9.7226
# 3 27.0201 33.3311 146.9050 32.5261 -6.5260 -13.0080
# 4 6.5458 14.1256 32.5261 27.8786 -0.7046 0.0311
# 5 0.8030 1.7789 -6.5260 -0.7046 25.0634 10.7426
# 6 8.5595 9.7226 -13.0080 0.0311 10.7426 42.9024
#
#
#
# Elastic Compliance Matrix: (Units=1/GPa)
#
#
# Indices 1 2 3 4 5 6 
#
# 1 0.012509 -0.008414 -0.001022 0.002531 0.000434 -0.001009
# 2 -0.008414 0.033020 -0.004478 -0.009536 -0.000494 -0.007031
# 3 -0.001022 -0.004478 0.010607 -0.009845 0.001044 0.004181
# 4 0.002531 -0.009536 -0.009845 0.051597 0.000077 -0.001386
# 5 0.000434 -0.000494 0.001044 0.000077 0.044862 -0.010891
# 6 -0.001009 -0.007031 0.004181 -0.001386 -0.010891 0.029099
#
#
# Mechanical properties :
#
#
# Convention : Reuss Voigt Hill
#
# Bulk Modulus (GPa) = 35.32375 54.39288 44.85831
# Shear Modulus (GPa) = 22.83526 32.93924 27.88725
#
# Velocity S-wave (km/s) = 3.02972 3.63878 3.34813
# Velocity P-wave (km/s) = 5.14181 6.28640 5.74269
#
# Compressibility (1/GPa) = 0.02830956
#
# Stress axis : x y z
#
# Youngs Moduli (GPa) = 79.94054 30.28452 94.27332
#
# Poissons Ratio (x) = 0.25481 0.09637
# Poissons Ratio (y) = 0.67261 0.42212
# Poissons Ratio (z) = 0.08172 0.13560
#
# Static dielectric constant tensor:
#      x y z
#    x 2.271520 0.020270 0.008670 
#    y 0.020270 2.015770 -0.072140 
#    z 0.008670 -0.072140 1.955920 
# 
# From -- ./inp_files/296636.got.cif
#   From: 2010.05.17/outbox.cif.g08.bks.cpg/sg2_149_cif.got.tgz:296636.got - 2010.06.03 11:33:40.
