data_PCOD9109590
_publ_section_title
;
Structure prediction by ZEFSAII (Michael W. Deem and Ramdas Pophale) SiO2 
 PCOD9109590
Probable space group: P -1
;
_chemical_formula_sum "Si O2"
_cell_formula_units_Z 14
_cell_length_a 9.645173
_cell_length_b 10.462585
_cell_length_c 9.443515
_cell_angle_alpha 73.650466
_cell_angle_beta 43.953364
_cell_angle_gamma 92.651613
_cell_volume 588.694892
_symmetry_space_group_name_H-M "P -1"
_symmetry_group_IT_number 2
_symmetry_cell_setting 'triclinic'
loop_
_space_group_symop_operation_xyz
x,y,z
-x,-y,-z
loop_
_atom_site_type_symbol
_atom_site_label
_atom_site_fract_x
_atom_site_fract_y
_atom_site_fract_z
Si Si1 0.083914 0.366435 0.461134
Si Si2 0.448673 0.573996 0.302451
Si Si3 0.770360 0.403453 0.261974
Si Si4 0.131044 0.960824 0.793257
Si Si5 0.616124 0.168094 0.905790
Si Si6 0.456102 0.818035 0.721057
Si Si7 0.087229 0.280703 0.166388
O O1 0.306203 0.435717 0.359706
O O2 0.136330 0.325816 0.278705
O O3 0.000000 0.500000 0.500000
O O4 0.878246 0.227526 0.703274
O O5 0.339264 0.547719 0.544544
O O6 0.432473 0.719080 0.198394
O O7 0.704178 0.613557 0.104394
O O8 0.620448 0.325780 0.268328
O O9 0.852858 0.289054 0.316249
O O10 0.000000 0.500000 0.000000
O O11 0.273872 0.882577 0.792358
O O12 0.961836 0.870736 0.825950
O O13 0.311875 0.087853 0.539014
O O14 0.000000 0.000000 0.000000
O O15 0.539911 0.190966 0.111018
O O16 0.500000 0.000000 0.000000
#
# Coordination Sequence:
#
# PCOD9109590 Si02
#       7
#     2   2   2   2   2   2   2
#     4  10  20  41  66  90 130 169 210 267 326 377
#     4  11  24  42  69  93 135 170 213 275 321 384
#     4  11  23  42  68  92 127 169 220 267 321 387
#     4  10  22  41  64  89 129 168 213 263 319 384
#     4  11  23  40  67  97 129 173 216 264 327 384
#     4  10  23  39  64  90 125 166 213 261 318 382
#     4  11  22  40  68  95 123 173 217 264 328 382
#
# _framework density 23.781417999999999
#
# number of rings (size 3 to 8) (size 9 to 14) (size 15 to 20)
#    0.000    1.429    2.857    3.000    8.000    0.571 
#    2.571    1.429    0.000    0.000    0.000    0.000 
#    0.000    0.000    0.000    0.000    0.000    0.000 
#
# Total GULP energy -78165.687791 kJ/mol
# GULP energy per Si atom -5583.263414 kJ/mol
# Density = 2.372729 g / cm^3
# Si number density = 23.781418 Si / 1000 Ang^3
#
#
#
# Elastic Constant Matrix: (Units=GPa)
#
#
# Indices 1 2 3 4 5 6 
#
# 1 107.7936 68.4391 63.9748 5.2059 -15.5591 19.5164
# 2 68.4391 171.9531 90.4939 0.6901 6.5878 69.3653
# 3 63.9748 90.4939 195.4834 23.5373 11.6547 40.3519
# 4 5.2059 0.6901 23.5373 54.0867 14.7145 6.0383
# 5 -15.5591 6.5878 11.6547 14.7145 50.8415 1.0894
# 6 19.5164 69.3653 40.3519 6.0383 1.0894 43.9332
#
#
#
# Elastic Compliance Matrix: (Units=1/GPa)
#
#
# Indices 1 2 3 4 5 6 
#
# 1 0.016703 -0.009730 -0.003351 -0.003434 0.007892 0.011297
# 2 -0.009730 0.024074 -0.001553 0.006907 -0.007032 -0.033035
# 3 -0.003351 -0.001553 0.007934 -0.002252 -0.001927 -0.002989
# 4 -0.003434 0.006907 -0.002252 0.022999 -0.007865 -0.010276
# 5 0.007892 -0.007032 -0.001927 -0.007865 0.025503 0.009816
# 6 0.011297 -0.033035 -0.002989 -0.010276 0.009816 0.073817
#
#
# Mechanical properties :
#
#
# Convention : Reuss Voigt Hill
#
# Bulk Modulus (GPa) = 51.43344 102.33842 76.88593
# Shear Modulus (GPa) = 24.18028 46.59378 35.38703
#
# Velocity S-wave (km/s) = 3.19215 4.43115 3.86166
# Velocity P-wave (km/s) = 5.93809 8.32505 7.23074
#
# Compressibility (1/GPa) = 0.01944260
#
# Stress axis : x y z
#
# Youngs Moduli (GPa) = 59.86822 41.53911 126.03443
#
# Poissons Ratio (x) = 0.40419 0.42235
# Poissons Ratio (y) = 0.58253 0.19574
# Poissons Ratio (z) = 0.20062 0.06451
#
# Static dielectric constant tensor:
#      x y z
#    x 2.058900 -0.156810 0.123450 
#    y -0.156810 1.996960 -0.136910 
#    z 0.123450 -0.136910 1.818930 
# 
# From -- ./inp_files/244282.got.cif
#   From: 2010.05.17/outbox.cif.g08.bks.cpg/sg2_123_cif.got.tgz:244282.got - 2010.06.03 11:33:40.
