data_PCOD9109623
_publ_section_title
;
Structure prediction by ZEFSAII (Michael W. Deem and Ramdas Pophale) SiO2 
 PCOD9109623
Probable space group: P -1
;
_chemical_formula_sum "Si O2"
_cell_formula_units_Z 16
_cell_length_a 13.370110
_cell_length_b 11.767465
_cell_length_c 8.177515
_cell_angle_alpha 103.259504
_cell_angle_beta 35.827613
_cell_angle_gamma 115.326466
_cell_volume 663.727510
_symmetry_space_group_name_H-M "P -1"
_symmetry_group_IT_number 2
_symmetry_cell_setting 'triclinic'
loop_
_space_group_symop_operation_xyz
x,y,z
-x,-y,-z
loop_
_atom_site_type_symbol
_atom_site_label
_atom_site_fract_x
_atom_site_fract_y
_atom_site_fract_z
Si Si1 0.962226 0.444017 0.351301
Si Si2 0.763647 0.910025 0.423361
Si Si3 0.580483 0.888666 0.006153
Si Si4 0.604199 0.625093 0.515116
Si Si5 0.542633 0.382087 0.947755
Si Si6 0.827153 0.184283 0.333708
Si Si7 0.996566 0.334780 0.842285
Si Si8 0.066330 0.912832 0.269666
O O1 0.740322 0.406955 0.615213
O O2 0.984454 0.311218 0.257557
O O3 0.000000 0.500000 0.500000
O O4 0.049869 0.551716 0.130674
O O5 0.667631 0.772124 0.412214
O O6 0.944303 0.905115 0.269905
O O7 0.831437 0.045903 0.288603
O O8 0.632285 0.914130 0.753550
O O9 0.607770 0.757715 0.957103
O O10 0.366661 0.849251 0.323947
O O11 0.710691 0.005163 0.986235
O O12 0.500000 0.500000 0.500000
O O13 0.793577 0.622159 0.344343
O O14 0.463657 0.620404 0.847881
O O15 0.500000 0.500000 0.000000
O O16 0.846767 0.245154 0.146483
O O17 0.980217 0.235519 0.683813
O O18 0.000000 0.000000 0.500000
#
# Coordination Sequence:
#
# PCOD9109623 Si02
#       8
#     2   2   2   2   2   2   2   2
#     4  11  26  42  69  93 126 180 221 262 328 398
#     4   9  20  41  67  95 130 165 223 266 320 388
#     4   9  20  39  64  95 125 173 213 267 320 385
#     4  10  22  42  68  99 129 170 215 275 323 384
#     4  10  20  41  66  93 122 165 225 269 315 379
#     4  11  24  42  62  94 140 170 205 277 328 389
#     4  11  24  45  62  97 139 166 219 275 329 385
#     4   9  20  38  68  93 124 168 219 269 320 377
#
# _framework density 24.106276999999999
#
# number of rings (size 3 to 8) (size 9 to 14) (size 15 to 20)
#    0.000    2.000    1.250    1.500    5.250    2.500 
#    2.250    0.000    0.000    0.000    0.000    0.000 
#    0.000    0.000    0.000    0.000    0.000    0.000 
#
# Total GULP energy -89196.983766 kJ/mol
# GULP energy per Si atom -5574.811485 kJ/mol
# Density = 2.405141 g / cm^3
# Si number density = 24.106277 Si / 1000 Ang^3
#
#
#
# Elastic Constant Matrix: (Units=GPa)
#
#
# Indices 1 2 3 4 5 6 
#
# 1 37.4391 59.2464 12.6739 -25.3145 10.9283 5.9278
# 2 59.2464 220.3113 23.1244 -37.6025 8.2302 10.8507
# 3 12.6739 23.1244 90.4281 -5.4728 24.8169 -8.1645
# 4 -25.3145 -37.6025 -5.4728 40.2412 -3.7003 4.8921
# 5 10.9283 8.2302 24.8169 -3.7003 21.2622 -4.7892
# 6 5.9278 10.8507 -8.1645 4.8921 -4.7892 46.0332
#
#
#
# Elastic Compliance Matrix: (Units=1/GPa)
#
#
# Indices 1 2 3 4 5 6 
#
# 1 0.096796 -0.016411 0.003846 0.044115 -0.044082 -0.017188
# 2 -0.016411 0.008493 -0.001898 -0.002077 0.007168 0.000741
# 3 0.003846 -0.001898 0.016740 0.000958 -0.020458 0.000691
# 4 0.044115 -0.002077 0.000958 0.050716 -0.016903 -0.012170
# 5 -0.044082 0.007168 -0.020458 -0.016903 0.090456 0.011566
# 6 -0.017188 0.000741 0.000691 -0.012170 0.011566 0.026381
#
#
# Mechanical properties :
#
#
# Convention : Reuss Voigt Hill
#
# Bulk Modulus (GPa) = 10.74086 59.80754 35.27420
# Shear Modulus (GPa) = 14.30446 38.38290 26.34368
#
# Velocity S-wave (km/s) = 2.43861 3.99461 3.30936
# Velocity P-wave (km/s) = 3.52056 6.79262 5.40990
#
# Compressibility (1/GPa) = 0.09310241
#
# Stress axis : x y z
#
# Youngs Moduli (GPa) = 10.33105 117.74759 59.73869
#
# Poissons Ratio (x) = 1.93238 -0.22976
# Poissons Ratio (y) = 0.16954 0.11336
# Poissons Ratio (z) = -0.03973 0.22344
#
# Static dielectric constant tensor:
#      x y z
#    x 1.940910 0.030430 0.012500 
#    y 0.030430 2.270500 0.068190 
#    z 0.012500 0.068190 2.031470 
# 
# From -- ./inp_files/307664.got.cif
#   From: 2010.05.17/outbox.cif.g08.bks.cpg/sg2_154_cif.got.tgz:307664.got - 2010.06.03 11:33:40.
