data_PCOD9109850
_publ_section_title
;
Structure prediction by ZEFSAII (Michael W. Deem and Ramdas Pophale) SiO2 
 PCOD9109850
Probable space group: P -1
;
_chemical_formula_sum "Si O2"
_cell_formula_units_Z 16
_cell_length_a 12.291296
_cell_length_b 14.416678
_cell_length_c 9.046650
_cell_angle_alpha 30.170164
_cell_angle_beta 105.966994
_cell_angle_gamma 120.169989
_cell_volume 647.948091
_symmetry_space_group_name_H-M "P -1"
_symmetry_group_IT_number 2
_symmetry_cell_setting 'triclinic'
loop_
_space_group_symop_operation_xyz
x,y,z
-x,-y,-z
loop_
_atom_site_type_symbol
_atom_site_label
_atom_site_fract_x
_atom_site_fract_y
_atom_site_fract_z
Si Si1 0.751182 0.749623 0.881853
Si Si2 0.805043 0.487994 0.025420
Si Si3 0.926334 0.736187 0.171814
Si Si4 0.700767 0.234872 0.769762
Si Si5 0.493372 0.256486 0.169434
Si Si6 0.854071 0.134285 0.161465
Si Si7 0.001280 0.638940 0.633174
Si Si8 0.512201 0.956723 0.819440
O O1 0.794291 0.610882 0.993058
O O2 0.589158 0.630546 0.987711
O O3 0.811697 0.971022 0.505803
O O4 0.815152 0.789562 0.013492
O O5 0.919309 0.647076 0.730210
O O6 0.655941 0.382655 0.045566
O O7 0.856772 0.329856 0.311364
O O8 0.839309 0.469670 0.482779
O O9 0.993614 0.769316 0.311349
O O10 0.035978 0.854054 0.922385
O O11 0.623227 0.135279 0.726591
O O12 0.734483 0.073914 0.085344
O O13 0.600390 0.235260 0.852185
O O14 0.459133 0.078620 0.530338
O O15 0.437574 0.138333 0.154179
O O16 0.912614 0.378662 0.910698
#
# Coordination Sequence:
#
# PCOD9109850 Si02
#       8
#     2   2   2   2   2   2   2   2
#     4  12  25  43  63 102 140 173 212 277 338 386
#     4  11  24  42  71  96 136 174 222 270 332 390
#     4  11  23  41  70  95 132 174 219 270 332 395
#     4  10  20  41  67  98 124 170 224 270 320 393
#     4  11  23  42  64  99 134 177 214 269 332 395
#     4  11  22  42  67  96 131 170 219 274 330 384
#     4  10  23  44  71  99 124 179 227 269 316 405
#     4  10  22  39  68  96 128 170 228 270 316 392
#
# _framework density 24.693334
#
# number of rings (size 3 to 8) (size 9 to 14) (size 15 to 20)
#    0.000    1.250    2.500    4.500    3.500    0.000 
#    2.250    1.875    0.000    0.000    0.000    0.000 
#    0.000    0.000    0.000    0.000    0.000    0.000 
#
# Total GULP energy -89423.963942 kJ/mol
# GULP energy per Si atom -5588.997746 kJ/mol
# Density = 2.463713 g / cm^3
# Si number density = 24.693334 Si / 1000 Ang^3
#
#
#
# Elastic Constant Matrix: (Units=GPa)
#
#
# Indices 1 2 3 4 5 6 
#
# 1 169.8628 50.2733 31.3765 19.3685 8.2647 6.0399
# 2 50.2733 111.3320 31.2464 40.8239 2.2457 6.2206
# 3 31.3765 31.2464 72.0396 16.9942 16.9042 14.5274
# 4 19.3685 40.8239 16.9942 31.7118 12.3894 7.5452
# 5 8.2647 2.2457 16.9042 12.3894 28.6858 1.4396
# 6 6.0399 6.2206 14.5274 7.5452 1.4396 21.6080
#
#
#
# Elastic Compliance Matrix: (Units=1/GPa)
#
#
# Indices 1 2 3 4 5 6 
#
# 1 0.007050 -0.003102 -0.001628 0.001140 -0.001306 -0.000294
# 2 -0.003102 0.024133 -0.007013 -0.034551 0.017581 0.009528
# 3 -0.001628 -0.007013 0.022147 0.007094 -0.014398 -0.013934
# 4 0.001140 -0.034551 0.007094 0.093458 -0.040912 -0.025050
# 5 -0.001306 0.017581 -0.014398 -0.040912 0.059246 0.015322
# 6 -0.000294 0.009528 -0.013934 -0.025050 0.015322 0.060713
#
#
# Mechanical properties :
#
#
# Convention : Reuss Voigt Hill
#
# Bulk Modulus (GPa) = 33.50713 64.33630 48.92172
# Shear Modulus (GPa) = 16.65665 32.42368 24.54016
#
# Velocity S-wave (km/s) = 2.60001 3.62754 3.15587
# Velocity P-wave (km/s) = 4.75522 6.60727 5.75622
#
# Compressibility (1/GPa) = 0.02984439
#
# Stress axis : x y z
#
# Youngs Moduli (GPa) = 141.84583 41.43648 45.15293
#
# Poissons Ratio (x) = 0.12853 0.07352
# Poissons Ratio (y) = 0.43997 0.31665
# Poissons Ratio (z) = 0.23097 0.29059
#
# Static dielectric constant tensor:
#      x y z
#    x 2.037850 0.062550 0.006040 
#    y 0.062550 2.001830 -0.033700 
#    z 0.006040 -0.033700 1.989360 
# 
# From -- ./inp_files/271388.got.cif
#   From: 2010.05.17/outbox.cif.g08.bks.cpg/sg2_136_cif.got.tgz:271388.got - 2010.06.03 11:33:40.
