data_PCOD9109200
_publ_section_title
;
Structure prediction by ZEFSAII (Michael W. Deem and Ramdas Pophale) SiO2 
 PCOD9109200
Probable space group: P -1
;
_chemical_formula_sum "Si O2"
_cell_formula_units_Z 16
_cell_length_a 9.062096
_cell_length_b 5.608157
_cell_length_c 16.038317
_cell_angle_alpha 122.419170
_cell_angle_beta 95.483223
_cell_angle_gamma 102.467353
_cell_volume 649.385994
_symmetry_space_group_name_H-M "P -1"
_symmetry_group_IT_number 2
_symmetry_cell_setting 'triclinic'
loop_
_space_group_symop_operation_xyz
x,y,z
-x,-y,-z
loop_
_atom_site_type_symbol
_atom_site_label
_atom_site_fract_x
_atom_site_fract_y
_atom_site_fract_z
Si Si1 0.100084 0.811035 0.515568
Si Si2 0.492570 0.634270 0.730690
Si Si3 0.274046 0.706953 0.344451
Si Si4 0.748795 0.675333 0.997225
Si Si5 0.414074 0.541241 0.890465
Si Si6 0.214978 0.851689 0.202412
Si Si7 0.020316 0.853683 0.805797
Si Si8 0.281828 0.903112 0.701575
O O1 0.215342 0.756569 0.441073
O O2 0.211602 0.985603 0.628732
O O3 0.000000 0.500000 0.500000
O O4 0.000000 0.000000 0.500000
O O5 0.565148 0.369384 0.667951
O O6 0.403241 0.639741 0.814046
O O7 0.378214 0.673343 0.659358
O O8 0.651174 0.911642 0.798737
O O9 0.274789 0.942038 0.316938
O O10 0.128464 0.434753 0.249691
O O11 0.584738 0.712959 0.967426
O O12 0.790521 0.466560 0.893016
O O13 0.710842 0.495179 0.049823
O O14 0.880335 0.987385 0.079888
O O15 0.398689 0.195164 0.806389
O O16 0.050455 0.902883 0.191398
O O17 0.136470 0.783488 0.733184
#
# Coordination Sequence:
#
# PCOD9109200 Si02
#       8
#     2   2   2   2   2   2   2   2
#     4  12  28  50  80 112 143 187 240 298 369 440
#     4  11  23  42  70  96 145 183 235 294 362 418
#     4  11  24  45  69 100 143 181 232 302 358 425
#     4  10  20  41  63  97 138 184 243 287 354 421
#     4  10  22  42  64  98 138 182 236 297 347 428
#     4  11  22  43  62 100 142 184 233 299 352 424
#     4  10  23  39  66  96 136 184 233 289 354 420
#     4  11  23  45  70 103 137 182 238 293 364 423
#
# _framework density 24.638660000000002
#
# number of rings (size 3 to 8) (size 9 to 14) (size 15 to 20)
#    0.000    1.250    3.750    1.125    3.500    3.500 
#    2.250    2.500    0.000    0.000    0.000    0.000 
#    0.000    0.000    0.000    0.000    0.000    0.000 
#
# Total GULP energy -89371.821819 kJ/mol
# GULP energy per Si atom -5585.738864 kJ/mol
# Density = 2.458258 g / cm^3
# Si number density = 24.638660 Si / 1000 Ang^3
#
#
#
# Elastic Constant Matrix: (Units=GPa)
#
#
# Indices 1 2 3 4 5 6 
#
# 1 125.0673 19.5724 35.6924 -14.8200 4.7499 -14.6316
# 2 19.5724 43.1212 18.5549 -18.2635 0.1050 1.5092
# 3 35.6924 18.5549 94.8939 -25.3405 -13.3018 -2.3225
# 4 -14.8200 -18.2635 -25.3405 31.9513 6.6375 2.5233
# 5 4.7499 0.1050 -13.3018 6.6375 43.7624 -11.7674
# 6 -14.6316 1.5092 -2.3225 2.5233 -11.7674 28.9846
#
#
#
# Elastic Compliance Matrix: (Units=1/GPa)
#
#
# Indices 1 2 3 4 5 6 
#
# 1 0.009976 -0.003333 -0.003075 0.000078 -0.000773 0.004643
# 2 -0.003333 0.033076 -0.001267 0.017880 -0.004688 -0.006966
# 3 -0.003075 -0.001267 0.014812 0.008816 0.003609 0.000398
# 4 0.000078 0.017880 0.008816 0.050599 -0.007050 -0.007453
# 5 -0.000773 -0.004688 0.003609 -0.007050 0.028418 0.012294
# 6 0.004643 -0.006966 0.000398 -0.007453 0.012294 0.042880
#
#
# Mechanical properties :
#
#
# Convention : Reuss Voigt Hill
#
# Bulk Modulus (GPa) = 23.52052 45.63575 34.57813
# Shear Modulus (GPa) = 23.89111 33.55715 28.72413
#
# Velocity S-wave (km/s) = 3.11731 3.69449 3.41811
# Velocity P-wave (km/s) = 4.74592 6.06311 5.44449
#
# Compressibility (1/GPa) = 0.04251607
#
# Stress axis : x y z
#
# Youngs Moduli (GPa) = 100.23579 30.23296 67.51212
#
# Poissons Ratio (x) = 0.10077 0.20758
# Poissons Ratio (y) = 0.33408 0.08553
# Poissons Ratio (z) = 0.30820 0.03830
#
# Static dielectric constant tensor:
#      x y z
#    x 1.900870 0.008620 0.016580 
#    y 0.008620 2.166020 -0.040480 
#    z 0.016580 -0.040480 1.942580 
# 
# From -- ./inp_files/37329.got.cif
#   From: 2010.05.17/outbox.cif.g08.bks.cpg/sg2_19_cif.got.tgz:37329.got - 2010.06.03 11:33:40.
