data_PCOD9109189
_publ_section_title
;
Structure prediction by ZEFSAII (Michael W. Deem and Ramdas Pophale) SiO2 
 PCOD9109189
Probable space group: P -1
;
_chemical_formula_sum "Si O2"
_cell_formula_units_Z 14
_cell_length_a 7.853410
_cell_length_b 9.431220
_cell_length_c 14.599755
_cell_angle_alpha 135.355387
_cell_angle_beta 80.248914
_cell_angle_gamma 75.537854
_cell_volume 632.901016
_symmetry_space_group_name_H-M "P -1"
_symmetry_group_IT_number 2
_symmetry_cell_setting 'triclinic'
loop_
_space_group_symop_operation_xyz
x,y,z
-x,-y,-z
loop_
_atom_site_type_symbol
_atom_site_label
_atom_site_fract_x
_atom_site_fract_y
_atom_site_fract_z
Si Si1 0.308865 0.216837 0.668049
Si Si2 0.045098 0.986628 0.597898
Si Si3 0.012419 0.307546 0.191595
Si Si4 0.325750 0.462836 0.292952
Si Si5 0.646721 0.435701 0.870829
Si Si6 0.235153 0.900587 0.828878
Si Si7 0.769811 0.712486 0.100413
O O1 0.174414 0.453486 0.729208
O O2 0.358600 0.269177 0.788918
O O3 0.500000 0.000000 0.500000
O O4 0.162306 0.121858 0.659908
O O5 0.188190 0.707499 0.474817
O O6 0.000000 0.000000 0.500000
O O7 0.826619 0.159401 0.742631
O O8 0.900393 0.215823 0.225925
O O9 0.178093 0.361500 0.241922
O O10 0.124217 0.101084 0.010369
O O11 0.390399 0.524868 0.217246
O O12 0.535788 0.286670 0.244396
O O13 0.500000 0.500000 0.000000
O O14 0.714021 0.624098 0.974162
O O15 0.244646 0.043038 0.807494
O O16 0.000000 0.500000 0.000000
#
# Coordination Sequence:
#
# PCOD9109189 Si02
#       7
#     2   2   2   2   2   2   2
#     4  12  24  42  73  99 131 182 230 287 346 409
#     4  10  20  41  63  95 138 171 221 281 334 403
#     4  11  22  41  68 100 137 182 224 282 342 407
#     4  11  22  44  69 101 143 181 229 280 346 414
#     4  11  24  38  68 105 132 178 227 284 342 395
#     4  11  24  41  70 101 137 188 225 281 348 409
#     4  12  23  46  67  98 138 170 236 291 329 405
#
# _framework density 22.120362
#
# number of rings (size 3 to 8) (size 9 to 14) (size 15 to 20)
#    0.000    0.857    7.143    1.286    6.000    0.000 
#    0.000    2.857    0.000    2.571    0.000    0.000 
#    0.000    0.000    0.000    0.000    0.000    0.000 
#
# Total GULP energy -78149.673015 kJ/mol
# GULP energy per Si atom -5582.119501 kJ/mol
# Density = 2.207002 g / cm^3
# Si number density = 22.120362 Si / 1000 Ang^3
#
#
#
# Elastic Constant Matrix: (Units=GPa)
#
#
# Indices 1 2 3 4 5 6 
#
# 1 70.9301 39.5965 30.3819 13.4785 -16.4930 12.8280
# 2 39.5965 108.8884 36.0080 18.9180 -19.5126 7.7127
# 3 30.3819 36.0080 152.6059 14.0980 -36.5821 -1.9733
# 4 13.4785 18.9180 14.0980 37.3043 -2.5969 0.8830
# 5 -16.4930 -19.5126 -36.5821 -2.5969 47.7925 8.1766
# 6 12.8280 7.7127 -1.9733 0.8830 8.1766 28.6131
#
#
#
# Elastic Compliance Matrix: (Units=1/GPa)
#
#
# Indices 1 2 3 4 5 6 
#
# 1 0.021316 -0.004833 -0.001487 -0.004058 0.005712 -0.009864
# 2 -0.004833 0.012620 -0.000985 -0.004036 0.002853 -0.001994
# 3 -0.001487 -0.000985 0.008581 -0.001819 0.005555 -0.000008
# 4 -0.004058 -0.004036 -0.001819 0.030716 -0.003244 0.002761
# 5 0.005712 0.002853 0.005555 -0.003244 0.030094 -0.011447
# 6 -0.009864 -0.001994 -0.000008 0.002761 -0.011447 0.043094
#
#
# Mechanical properties :
#
#
# Convention : Reuss Voigt Hill
#
# Bulk Modulus (GPa) = 35.83054 60.48859 48.15957
# Shear Modulus (GPa) = 29.35426 37.83784 33.59605
#
# Velocity S-wave (km/s) = 3.64679 4.14036 3.90139
# Velocity P-wave (km/s) = 5.82797 7.08952 6.48947
#
# Compressibility (1/GPa) = 0.02790915
#
# Stress axis : x y z
#
# Youngs Moduli (GPa) = 46.91257 79.23691 116.53782
#
# Poissons Ratio (x) = 0.38291 0.17328
# Poissons Ratio (y) = 0.22671 0.11476
# Poissons Ratio (z) = 0.06976 0.07803
#
# Static dielectric constant tensor:
#      x y z
#    x -13.622030 5.596950 -5.126500 
#    y 5.596950 -0.166840 1.799780 
#    z -5.126500 1.799780 0.195780 
# 
# From -- ./inp_files/495703.got.cif
#   From: 2010.05.17/outbox.cif.g08.bks.cpg/sg2_248_cif.got.tgz:495703.got - 2010.06.03 11:33:40.
