data_PCOD9109389
_publ_section_title
;
Structure prediction by ZEFSAII (Michael W. Deem and Ramdas Pophale) SiO2 
 PCOD9109389
Probable space group: P -1
;
_chemical_formula_sum "Si O2"
_cell_formula_units_Z 16
_cell_length_a 8.076909
_cell_length_b 12.629183
_cell_length_c 9.731998
_cell_angle_alpha 74.092685
_cell_angle_beta 134.705737
_cell_angle_gamma 122.577385
_cell_volume 585.386600
_symmetry_space_group_name_H-M "P -1"
_symmetry_group_IT_number 2
_symmetry_cell_setting 'triclinic'
loop_
_space_group_symop_operation_xyz
x,y,z
-x,-y,-z
loop_
_atom_site_type_symbol
_atom_site_label
_atom_site_fract_x
_atom_site_fract_y
_atom_site_fract_z
Si Si1 0.391945 0.284537 0.273425
Si Si2 0.298063 0.990090 0.597808
Si Si3 0.233372 0.077623 0.814297
Si Si4 0.925716 0.527542 0.197857
Si Si5 0.871418 0.085926 0.941797
Si Si6 0.351196 0.428609 0.750955
Si Si7 0.489584 0.368024 0.585258
Si Si8 0.317631 0.756011 0.775375
O O1 0.590216 0.434695 0.319214
O O2 0.351784 0.266530 0.418532
O O3 0.538222 0.225699 0.294209
O O4 0.108998 0.230304 0.048537
O O5 0.221705 0.857305 0.676324
O O6 0.076780 0.956488 0.363977
O O7 0.299171 0.077270 0.693182
O O8 0.611551 0.058406 0.714742
O O9 0.227479 0.964893 0.942586
O O10 0.451164 0.197997 0.987776
O O11 0.894620 0.609189 0.274426
O O12 0.896108 0.392581 0.277717
O O13 0.198774 0.598888 0.244134
O O14 0.639474 0.474356 0.974632
O O15 0.000000 0.000000 0.000000
O O16 0.341853 0.339272 0.654858
O O17 0.500000 0.500000 0.500000
#
# Coordination Sequence:
#
# PCOD9109389 Si02
#       8
#     2   2   2   2   2   2   2   2
#     4  10  21  40  59  92 123 167 204 255 321 370
#     4  10  22  41  62  91 125 163 209 266 307 378
#     4  10  22  41  60  94 123 160 215 255 315 382
#     4  10  21  42  65  92 126 172 206 258 329 367
#     4  11  20  40  63  86 128 160 203 263 312 362
#     4   9  21  41  63  91 130 162 213 265 306 381
#     4  10  22  39  60  90 130 159 214 262 301 382
#     4  10  20  41  65  88 127 166 208 259 320 377
#
# _framework density 27.332366
#
# number of rings (size 3 to 8) (size 9 to 14) (size 15 to 20)
#    0.000    2.000    2.500    1.875    0.000    9.000 
#   18.000    0.000    0.000    0.000    0.000    0.000 
#    0.000    0.000    0.000    0.000    0.000    0.000 
#
# Total GULP energy -89490.864858 kJ/mol
# GULP energy per Si atom -5593.179054 kJ/mol
# Density = 2.727016 g / cm^3
# Si number density = 27.332366 Si / 1000 Ang^3
#
#
#
# Elastic Constant Matrix: (Units=GPa)
#
#
# Indices 1 2 3 4 5 6 
#
# 1 147.4033 22.2982 47.8192 18.5051 -10.2486 -35.3485
# 2 22.2982 65.8273 35.4533 22.5386 -10.5596 -13.8282
# 3 47.8192 35.4533 190.5673 20.7987 22.8412 -13.3635
# 4 18.5051 22.5386 20.7987 44.2126 7.9414 1.3074
# 5 -10.2486 -10.5596 22.8412 7.9414 46.6293 2.4653
# 6 -35.3485 -13.8282 -13.3635 1.3074 2.4653 34.0384
#
#
#
# Elastic Compliance Matrix: (Units=1/GPa)
#
#
# Indices 1 2 3 4 5 6 
#
# 1 0.010967 0.002791 -0.002356 -0.006075 0.004623 0.011497
# 2 0.002791 0.025543 -0.004330 -0.014350 0.010362 0.011376
# 3 -0.002356 -0.004330 0.007086 0.000799 -0.005048 -0.001089
# 4 -0.006075 -0.014350 0.000799 0.034292 -0.010161 -0.012406
# 5 0.004623 0.010362 -0.005048 -0.010161 0.028729 0.005339
# 6 0.011497 0.011376 -0.001089 -0.012406 0.005339 0.045602
#
#
# Mechanical properties :
#
#
# Convention : Reuss Voigt Hill
#
# Bulk Modulus (GPa) = 27.92924 68.32661 48.12793
# Shear Modulus (GPa) = 29.07892 44.85787 36.96840
#
# Velocity S-wave (km/s) = 3.26529 4.05557 3.68169
# Velocity P-wave (km/s) = 4.94537 6.85440 5.97660
#
# Compressibility (1/GPa) = 0.03580477
#
# Stress axis : x y z
#
# Youngs Moduli (GPa) = 91.17871 39.14928 141.12775
#
# Poissons Ratio (x) = -0.10925 0.33252
# Poissons Ratio (y) = -0.25445 0.61114
# Poissons Ratio (z) = 0.21483 0.16953
#
# Static dielectric constant tensor:
#      x y z
#    x 2.183250 0.021980 -0.012440 
#    y 0.021980 2.147200 -0.047450 
#    z -0.012440 -0.047450 2.163930 
# 
# From -- ./inp_files/399155.got.cif
#   From: 2010.05.17/outbox.cif.g08.bks.cpg/sg2_200_cif.got.tgz:399155.got - 2010.06.03 11:33:40.
