data_PCOD9109618
_publ_section_title
;
Structure prediction by ZEFSAII (Michael W. Deem and Ramdas Pophale) SiO2 
 PCOD9109618
Probable space group: P -1
;
_chemical_formula_sum "Si O2"
_cell_formula_units_Z 16
_cell_length_a 8.242628
_cell_length_b 12.026567
_cell_length_c 13.414370
_cell_angle_alpha 69.274158
_cell_angle_beta 35.682994
_cell_angle_gamma 74.816060
_cell_volume 724.664843
_symmetry_space_group_name_H-M "P -1"
_symmetry_group_IT_number 2
_symmetry_cell_setting 'triclinic'
loop_
_space_group_symop_operation_xyz
x,y,z
-x,-y,-z
loop_
_atom_site_type_symbol
_atom_site_label
_atom_site_fract_x
_atom_site_fract_y
_atom_site_fract_z
Si Si1 0.342156 0.391985 0.666729
Si Si2 0.451183 0.690210 0.043285
Si Si3 0.768131 0.358368 0.034425
Si Si4 0.555769 0.492864 0.718072
Si Si5 0.308263 0.053412 0.491373
Si Si6 0.138552 0.910628 0.886361
Si Si7 0.833027 0.711667 0.404054
Si Si8 0.777220 0.927162 0.861538
O O1 0.500000 0.500000 0.500000
O O2 0.479912 0.390316 0.707249
O O3 0.334734 0.292064 0.616301
O O4 0.027929 0.429335 0.832042
O O5 0.439394 0.576437 0.157866
O O6 0.147850 0.740139 0.202982
O O7 0.463224 0.655316 0.932125
O O8 0.677510 0.793932 0.922767
O O9 0.678457 0.413657 0.165692
O O10 0.884304 0.228125 0.032195
O O11 0.790300 0.583552 0.522682
O O12 0.529876 0.057024 0.290875
O O13 0.259181 0.187487 0.508194
O O14 0.500000 0.000000 0.500000
O O15 0.005495 0.987996 0.652351
O O16 0.967609 0.923583 0.865918
O O17 0.000000 0.000000 0.000000
O O18 0.500000 0.000000 0.000000
#
# Coordination Sequence:
#
# PCOD9109618 Si02
#       8
#     2   2   2   2   2   2   2   2
#     4   9  21  36  61  89 121 166 211 267 317 390
#     4  11  23  39  63  95 133 179 213 270 337 389
#     4  11  22  40  63  90 133 173 222 272 323 397
#     4  11  21  40  62  95 129 171 226 270 326 387
#     4  10  22  41  68  95 129 174 219 269 334 396
#     4  11  24  42  67  97 124 176 227 272 332 392
#     4  10  20  41  66  92 132 170 216 269 336 394
#     4  11  22  42  67  95 134 170 218 276 332 394
#
# _framework density 22.079173000000001
#
# number of rings (size 3 to 8) (size 9 to 14) (size 15 to 20)
#    0.000    1.500    2.500    2.625    5.250    0.000 
#    2.250    3.750    0.000    0.000    0.000    0.000 
#    0.000    0.000    0.000    0.000    0.000    0.000 
#
# Total GULP energy -89169.297371 kJ/mol
# GULP energy per Si atom -5573.081086 kJ/mol
# Density = 2.202892 g / cm^3
# Si number density = 22.079173 Si / 1000 Ang^3
#
#
#
# Elastic Constant Matrix: (Units=GPa)
#
#
# Indices 1 2 3 4 5 6 
#
# 1 61.8737 23.4834 18.8480 -8.4680 0.5625 5.4126
# 2 23.4834 89.6367 38.8127 -1.2352 -5.1619 10.1596
# 3 18.8480 38.8127 142.3277 -6.4621 -16.1989 30.2152
# 4 -8.4680 -1.2352 -6.4621 30.6522 10.8131 -1.1789
# 5 0.5625 -5.1619 -16.1989 10.8131 30.5034 -3.2589
# 6 5.4126 10.1596 30.2152 -1.1789 -3.2589 29.3610
#
#
#
# Elastic Compliance Matrix: (Units=1/GPa)
#
#
# Indices 1 2 3 4 5 6 
#
# 1 0.019255 -0.004529 -0.001326 0.006287 -0.004142 -0.000826
# 2 -0.004529 0.013748 -0.002885 -0.001847 0.001440 -0.000867
# 3 -0.001326 -0.002885 0.010354 -0.000094 0.004111 -0.008960
# 4 0.006287 -0.001847 -0.000094 0.039357 -0.014478 -0.000449
# 5 -0.004142 0.001440 0.004111 -0.014478 0.040412 -0.000061
# 6 -0.000826 -0.000867 -0.008960 -0.000449 -0.000061 0.043707
#
#
# Mechanical properties :
#
#
# Convention : Reuss Voigt Hill
#
# Bulk Modulus (GPa) = 38.64316 50.68070 44.66193
# Shear Modulus (GPa) = 25.91508 32.28291 29.09900
#
# Velocity S-wave (km/s) = 3.42970 3.82795 3.63428
# Velocity P-wave (km/s) = 5.76401 6.52238 6.15489
#
# Compressibility (1/GPa) = 0.02587780
#
# Stress axis : x y z
#
# Youngs Moduli (GPa) = 51.93471 72.73975 96.57986
#
# Poissons Ratio (x) = 0.32943 0.12802
# Poissons Ratio (y) = 0.23520 0.27864
# Poissons Ratio (z) = 0.06884 0.20986
#
# Static dielectric constant tensor:
#      x y z
#    x 0.142510 -0.708310 2.634320 
#    y -0.708310 1.566650 1.038710 
#    z 2.634320 1.038710 -2.071550 
# 
# From -- ./inp_files/500226.got.cif
#   From: 2010.05.17/outbox.cif.g08.bks.cpg/sg2_251_cif.got.tgz:500226.got - 2010.06.03 11:33:40.
