data_PCOD9109251
_publ_section_title
;
Structure prediction by ZEFSAII (Michael W. Deem and Ramdas Pophale) SiO2 
 PCOD9109251
Probable space group: P -1
;
_chemical_formula_sum "Si O2"
_cell_formula_units_Z 16
_cell_length_a 16.293632
_cell_length_b 11.379458
_cell_length_c 13.214283
_cell_angle_alpha 82.821173
_cell_angle_beta 27.830121
_cell_angle_gamma 63.041026
_cell_volume 763.107639
_symmetry_space_group_name_H-M "P -1"
_symmetry_group_IT_number 2
_symmetry_cell_setting 'triclinic'
loop_
_space_group_symop_operation_xyz
x,y,z
-x,-y,-z
loop_
_atom_site_type_symbol
_atom_site_label
_atom_site_fract_x
_atom_site_fract_y
_atom_site_fract_z
Si Si1 0.230412 0.331633 0.694467
Si Si2 0.349674 0.355588 0.045131
Si Si3 0.781859 0.197945 0.752547
Si Si4 0.350054 0.781883 0.603280
Si Si5 0.979591 0.669298 0.551849
Si Si6 0.649919 0.576739 0.635840
Si Si7 0.910840 0.859434 0.186143
Si Si8 0.376078 0.508775 0.820243
O O1 0.499871 0.240826 0.460923
O O2 0.232954 0.384739 0.572700
O O3 0.213776 0.197551 0.718276
O O4 0.000000 0.500000 0.000000
O O5 0.080851 0.547401 0.356957
O O6 0.309185 0.235917 0.119001
O O7 0.566309 0.303244 0.887331
O O8 0.376836 0.392394 0.901346
O O9 0.940210 0.240401 0.576699
O O10 0.615420 0.257614 0.029974
O O11 0.000000 0.000000 0.500000
O O12 0.534524 0.592154 0.371543
O O13 0.277967 0.936503 0.601196
O O14 0.096224 0.833225 0.905488
O O15 0.145055 0.558940 0.485295
O O16 0.574373 0.502068 0.656521
O O17 0.104742 0.713273 0.077225
#
# Coordination Sequence:
#
# PCOD9109251 Si02
#       8
#     2   2   2   2   2   2   2   2
#     4  12  23  43  69  94 130 174 219 271 326 385
#     4  10  21  39  66  89 120 164 214 262 317 389
#     4  11  23  43  63  95 134 166 209 273 327 384
#     4  11  25  42  63  97 130 171 224 267 327 386
#     4  10  20  41  64  90 121 162 217 265 313 382
#     4  11  22  41  69  92 125 174 218 263 328 390
#     4  11  24  43  64  90 134 171 214 280 319 380
#     4  12  20  41  66  92 129 173 214 263 329 386
#
# _framework density 20.966898
#
# number of rings (size 3 to 8) (size 9 to 14) (size 15 to 20)
#    0.000    1.000    5.000    3.000    0.000    1.500 
#    2.250    0.000    0.000    0.000    0.000    0.000 
#    0.000    0.000    0.000    0.000    0.000    0.000 
#
# Total GULP energy -89169.475529 kJ/mol
# GULP energy per Si atom -5573.092221 kJ/mol
# Density = 2.091918 g / cm^3
# Si number density = 20.966898 Si / 1000 Ang^3
#
#
#
# Elastic Constant Matrix: (Units=GPa)
#
#
# Indices 1 2 3 4 5 6 
#
# 1 72.8630 13.7720 -0.2634 -10.7177 -0.4836 15.4246
# 2 13.7720 73.0177 50.1957 -18.9751 21.2445 14.0182
# 3 -0.2634 50.1957 22.7179 -26.7006 10.3012 21.2889
# 4 -10.7177 -18.9751 -26.7006 35.4137 2.3093 -5.8586
# 5 -0.4836 21.2445 10.3012 2.3093 23.5866 -11.1469
# 6 15.4246 14.0182 21.2889 -5.8586 -11.1469 29.8180
#
#
#
# Elastic Compliance Matrix: (Units=1/GPa)
#
#
# Indices 1 2 3 4 5 6 
#
# 1 0.012936 0.004583 -0.010392 -0.001758 0.000013 -0.001767
# 2 0.004583 0.044575 0.004112 0.025063 -0.066059 -0.046033
# 3 -0.010392 0.004112 -0.030892 -0.020779 0.026393 0.031282
# 4 -0.001758 0.025063 -0.020779 0.027051 -0.014332 0.003919
# 5 0.000013 -0.066059 0.026393 -0.014332 0.116856 0.053074
# 6 -0.001767 -0.046033 0.031282 0.003919 0.053074 0.054369
#
#
# Mechanical properties :
#
#
# Convention : Reuss Voigt Hill
#
# Bulk Modulus (GPa) = 43.05914 32.88968 37.97441
# Shear Modulus (GPa) = 21.18362 24.75662 22.97012
#
# Velocity S-wave (km/s) = 3.18203 3.43993 3.31349
# Velocity P-wave (km/s) = 5.83795 5.61231 5.72624
#
# Compressibility (1/GPa) = 0.02322387
#
# Stress axis : x y z
#
# Youngs Moduli (GPa) = 77.30291 22.43417 -32.37108
#
# Poissons Ratio (x) = -0.10281 -0.33641
# Poissons Ratio (y) = -0.35426 0.13311
# Poissons Ratio (z) = 0.80336 -0.09225
#
# Static dielectric constant tensor:
#      x y z
#    x 1.861770 0.144590 -0.108730 
#    y 0.144590 2.010680 -0.168400 
#    z -0.108730 -0.168400 1.823270 
# 
# From -- ./inp_files/305999.got.cif
#   From: 2010.05.17/outbox.cif.g08.bks.cpg/sg2_153_cif.got.tgz:305999.got - 2010.06.03 11:33:40.
