data_PCOD9109629
_publ_section_title
;
Structure prediction by ZEFSAII (Michael W. Deem and Ramdas Pophale) SiO2 
 PCOD9109629
Probable space group: P -1
;
_chemical_formula_sum "Si O2"
_cell_formula_units_Z 14
_cell_length_a 5.843394
_cell_length_b 8.936156
_cell_length_c 11.321693
_cell_angle_alpha 86.264873
_cell_angle_beta 97.629010
_cell_angle_gamma 86.786724
_cell_volume 583.460193
_symmetry_space_group_name_H-M "P -1"
_symmetry_group_IT_number 2
_symmetry_cell_setting 'triclinic'
loop_
_space_group_symop_operation_xyz
x,y,z
-x,-y,-z
loop_
_atom_site_type_symbol
_atom_site_label
_atom_site_fract_x
_atom_site_fract_y
_atom_site_fract_z
Si Si1 0.877153 0.476761 0.866320
Si Si2 0.159717 0.246364 0.754019
Si Si3 0.581300 0.214230 0.949235
Si Si4 0.833975 0.007160 0.816980
Si Si5 0.291832 0.104443 0.539177
Si Si6 0.080183 0.826705 0.668647
Si Si7 0.534017 0.750179 0.788007
O O1 0.687584 0.357564 0.888856
O O2 0.743188 0.625382 0.799738
O O3 0.060613 0.407403 0.787056
O O4 0.000000 0.500000 0.000000
O O5 0.339798 0.186827 0.869972
O O6 0.298718 0.223431 0.642106
O O7 0.931011 0.148588 0.747633
O O8 0.761198 0.073819 0.935449
O O9 0.532036 0.249555 0.078681
O O10 0.610916 0.920617 0.764543
O O11 0.024458 0.877512 0.797581
O O12 0.147094 0.197177 0.422177
O O13 0.500000 0.000000 0.500000
O O14 0.157081 0.975199 0.600557
O O15 0.310752 0.719219 0.696627
#
# Coordination Sequence:
#
# PCOD9109629 Si02
#       7
#     2   2   2   2   2   2   2
#     4  11  25  44  61  90 131 183 211 253 317 391
#     4  10  22  41  65  93 127 174 212 261 320 380
#     4  11  23  40  63  93 130 168 220 257 322 380
#     4  10  22  38  60  97 127 163 211 269 320 370
#     4  10  20  41  66  93 127 163 213 264 329 375
#     4  10  22  37  62  94 127 163 207 268 326 368
#     4  12  24  37  64  95 130 171 215 261 316 376
#
# _framework density 23.994779999999999
#
# number of rings (size 3 to 8) (size 9 to 14) (size 15 to 20)
#    0.000    1.429    1.429    4.286    2.000    2.286 
#    0.000    0.714    0.000    4.286    0.000    3.000 
#    0.000    0.000    0.000    0.000    0.000    0.000 
#
# Total GULP energy -77999.609200 kJ/mol
# GULP energy per Si atom -5571.400657 kJ/mol
# Density = 2.394017 g / cm^3
# Si number density = 23.994780 Si / 1000 Ang^3
#
#
#
# Elastic Constant Matrix: (Units=GPa)
#
#
# Indices 1 2 3 4 5 6 
#
# 1 97.3801 54.8809 49.5043 4.7499 1.1186 -33.4296
# 2 54.8809 103.4116 46.5482 8.6484 6.1429 -28.6310
# 3 49.5043 46.5482 128.5647 10.6520 2.5527 -34.5081
# 4 4.7499 8.6484 10.6520 27.2986 -16.4549 -12.4374
# 5 1.1186 6.1429 2.5527 -16.4549 41.9318 -5.0230
# 6 -33.4296 -28.6310 -34.5081 -12.4374 -5.0230 63.5453
#
#
#
# Elastic Compliance Matrix: (Units=1/GPa)
#
#
# Indices 1 2 3 4 5 6 
#
# 1 0.017388 -0.006864 -0.003196 0.004937 0.003338 0.005549
# 2 -0.006864 0.015109 -0.002151 -0.004508 -0.003565 0.000864
# 3 -0.003196 -0.002151 0.010702 -0.002203 -0.000796 0.002667
# 4 0.004937 -0.004508 -0.002203 0.059368 0.025518 0.013007
# 5 0.003338 -0.003565 -0.000796 0.025518 0.035242 0.007498
# 6 0.005549 0.000864 0.002667 0.013007 0.007498 0.023632
#
#
# Mechanical properties :
#
#
# Convention : Reuss Voigt Hill
#
# Bulk Modulus (GPa) = 53.25726 70.13589 61.69658
# Shear Modulus (GPa) = 26.02499 38.45000 32.23750
#
# Velocity S-wave (km/s) = 3.29692 4.00738 3.66938
# Velocity P-wave (km/s) = 6.06106 7.12076 6.61217
#
# Compressibility (1/GPa) = 0.01877678
#
# Stress axis : x y z
#
# Youngs Moduli (GPa) = 57.51087 66.18471 93.44215
#
# Poissons Ratio (x) = 0.45430 0.29863
# Poissons Ratio (y) = 0.39476 0.20101
# Poissons Ratio (z) = 0.18380 0.14237
#
# Static dielectric constant tensor:
#      x y z
#    x 2.056290 -0.004190 0.034850 
#    y -0.004190 1.943500 0.012090 
#    z 0.034850 0.012090 1.967550 
# 
# From -- ./inp_files/229870.got.cif
#   From: 2010.05.17/outbox.cif.g08.bks.cpg/sg2_115_cif.got.tgz:229870.got - 2010.06.03 11:33:40.
