data_PCOD9109429
_publ_section_title
;
Structure prediction by ZEFSAII (Michael W. Deem and Ramdas Pophale) SiO2 
 PCOD9109429
Probable space group: P -1
;
_chemical_formula_sum "Si O2"
_cell_formula_units_Z 16
_cell_length_a 13.917911
_cell_length_b 7.871607
_cell_length_c 9.173429
_cell_angle_alpha 131.938697
_cell_angle_beta 76.572079
_cell_angle_gamma 84.171364
_cell_volume 679.822853
_symmetry_space_group_name_H-M "P -1"
_symmetry_group_IT_number 2
_symmetry_cell_setting 'triclinic'
loop_
_space_group_symop_operation_xyz
x,y,z
-x,-y,-z
loop_
_atom_site_type_symbol
_atom_site_label
_atom_site_fract_x
_atom_site_fract_y
_atom_site_fract_z
Si Si1 0.352292 0.099311 0.695823
Si Si2 0.139749 0.754211 0.460480
Si Si3 0.013727 0.486577 0.662855
Si Si4 0.306368 0.878930 0.006894
Si Si5 0.644494 0.688770 0.899567
Si Si6 0.773672 0.869962 0.516498
Si Si7 0.499708 0.551495 0.357549
Si Si8 0.153230 0.017194 0.884551
O O1 0.310350 0.168405 0.587300
O O2 0.249589 0.068038 0.795839
O O3 0.447160 0.839021 0.512861
O O4 0.380184 0.277471 0.900503
O O5 0.041895 0.710586 0.394893
O O6 0.235533 0.493894 0.271921
O O7 0.176702 0.950039 0.477345
O O8 0.120789 0.843495 0.686117
O O9 0.000000 0.500000 0.500000
O O10 0.132988 0.376944 0.612539
O O11 0.944865 0.738358 0.907823
O O12 0.365786 0.046949 0.007779
O O13 0.277109 0.991781 0.240043
O O14 0.383004 0.601751 0.822902
O O15 0.205252 0.909212 0.958666
O O16 0.573580 0.569586 0.770018
O O17 0.500000 0.500000 0.500000
#
# Coordination Sequence:
#
# PCOD9109429 Si02
#       8
#     2   2   2   2   2   2   2   2
#     4  10  22  40  64  92 133 164 214 260 321 378
#     4  11  22  41  68  90 131 169 209 260 331 375
#     4  12  23  43  69  94 127 169 219 264 311 382
#     4  11  22  40  67  93 132 164 216 268 312 375
#     4  11  20  42  67  93 124 171 213 261 312 384
#     4  11  24  44  61  96 134 167 208 270 322 377
#     4  12  21  39  72  97 123 172 218 262 315 377
#     4  10  20  41  65  91 128 163 213 263 311 380
#
# _framework density 23.535542
#
# number of rings (size 3 to 8) (size 9 to 14) (size 15 to 20)
#    0.000    1.000    8.750    0.750    0.000    3.000 
#    2.250    3.125    0.000    0.000    0.000    0.000 
#    0.000    0.000    0.000    0.000    0.000    0.000 
#
# Total GULP energy -89581.463451 kJ/mol
# GULP energy per Si atom -5598.841466 kJ/mol
# Density = 2.348197 g / cm^3
# Si number density = 23.535542 Si / 1000 Ang^3
#
#
#
# Elastic Constant Matrix: (Units=GPa)
#
#
# Indices 1 2 3 4 5 6 
#
# 1 62.1673 39.1693 57.1815 2.2794 12.8274 -28.6960
# 2 39.1693 112.5282 73.4522 -9.0758 -4.5516 -26.6606
# 3 57.1815 73.4522 222.5646 -2.4173 3.5228 -43.3933
# 4 2.2794 -9.0758 -2.4173 44.9296 -14.1132 5.5435
# 5 12.8274 -4.5516 3.5228 -14.1132 41.0555 0.9936
# 6 -28.6960 -26.6606 -43.3933 5.5435 0.9936 47.9283
#
#
#
# Elastic Compliance Matrix: (Units=1/GPa)
#
#
# Indices 1 2 3 4 5 6 
#
# 1 0.034198 -0.007719 -0.003239 -0.010016 -0.015062 0.014720
# 2 -0.007719 0.013948 -0.002650 0.004904 0.005870 0.000049
# 3 -0.003239 -0.002650 0.006727 -0.000360 -0.000048 0.002720
# 4 -0.010016 0.004904 -0.000360 0.028976 0.013840 -0.007233
# 5 -0.015062 0.005870 -0.000048 0.013840 0.034672 -0.008116
# 6 0.014720 0.000049 0.002720 -0.007233 -0.008116 0.033172
#
#
# Mechanical properties :
#
#
# Convention : Reuss Voigt Hill
#
# Bulk Modulus (GPa) = 36.15832 81.87402 59.01617
# Shear Modulus (GPa) = 26.57753 41.94646 34.26200
#
# Velocity S-wave (km/s) = 3.36408 4.22626 3.81958
# Velocity P-wave (km/s) = 5.52141 7.66016 6.67697
#
# Compressibility (1/GPa) = 0.02765615
#
# Stress axis : x y z
#
# Youngs Moduli (GPa) = 29.24138 71.69498 148.65436
#
# Poissons Ratio (x) = 0.55342 0.48153
# Poissons Ratio (y) = 0.22572 0.39396
# Poissons Ratio (z) = 0.09472 0.19000
#
# Static dielectric constant tensor:
#      x y z
#    x 1.962350 0.053090 -0.005870 
#    y 0.053090 1.924660 -0.023890 
#    z -0.005870 -0.023890 1.852510 
# 
# From -- ./inp_files/329592.got.cif
#   From: 2010.05.17/outbox.cif.g08.bks.cpg/sg2_165_cif.got.tgz:329592.got - 2010.06.03 11:33:40.
