data_PCOD9109904
_publ_section_title
;
Structure prediction by ZEFSAII (Michael W. Deem and Ramdas Pophale) SiO2 
 PCOD9109904
Probable space group: P -1
;
_chemical_formula_sum "Si O2"
_cell_formula_units_Z 12
_cell_length_a 11.800359
_cell_length_b 13.667931
_cell_length_c 7.202521
_cell_angle_alpha 50.444620
_cell_angle_beta 133.840272
_cell_angle_gamma 147.368869
_cell_volume 447.514269
_symmetry_space_group_name_H-M "P -1"
_symmetry_group_IT_number 2
_symmetry_cell_setting 'triclinic'
loop_
_space_group_symop_operation_xyz
x,y,z
-x,-y,-z
loop_
_atom_site_type_symbol
_atom_site_label
_atom_site_fract_x
_atom_site_fract_y
_atom_site_fract_z
Si Si1 0.477795 0.274283 0.263724
Si Si2 0.921349 0.103305 0.605988
Si Si3 0.547147 0.547861 0.277891
Si Si4 0.910520 0.368471 0.732399
Si Si5 0.735729 0.255163 0.140000
Si Si6 0.236500 0.934289 0.913298
O O1 0.482762 0.381988 0.300778
O O2 0.646864 0.261778 0.534479
O O3 0.222294 0.072123 0.214871
O O4 0.558709 0.396428 0.024422
O O5 0.825042 0.187593 0.438918
O O6 0.187817 0.274105 0.681469
O O7 0.848460 0.030650 0.394885
O O8 0.500000 0.500000 0.500000
O O9 0.925470 0.222529 0.928276
O O10 0.000000 0.500000 0.500000
O O11 0.089907 0.530311 0.892362
O O12 0.469593 0.122415 0.030176
O O13 0.733863 0.185272 0.019000
#
# Coordination Sequence:
#
# PCOD9109904 Si02
#       6
#     2   2   2   2   2   2
#     4  11  23  46  65  94 132 165 218 268 315 386
#     4  10  20  41  68  89 126 168 210 267 327 370
#     4  11  26  44  68  92 124 175 221 266 318 375
#     4  12  23  36  62  99 131 166 204 261 328 384
#     4   9  18  36  60  88 121 164 202 248 313 381
#     4   9  19  37  62  92 122 165 207 250 326 378
#
# _framework density 26.814786999999999
#
# number of rings (size 3 to 8) (size 9 to 14) (size 15 to 20)
#    1.000    0.667    3.333    1.000    2.333    2.667 
#    0.000    0.000    0.000    0.000    0.000    0.000 
#    0.000    0.000    0.000    0.000    0.000    0.000 
#
# Total GULP energy -66938.715888 kJ/mol
# GULP energy per Si atom -5578.226324 kJ/mol
# Density = 2.675376 g / cm^3
# Si number density = 26.814787 Si / 1000 Ang^3
#
#
#
# Elastic Constant Matrix: (Units=GPa)
#
#
# Indices 1 2 3 4 5 6 
#
# 1 13.3797 -12.4452 -102.0478 -3.6071 18.2510 -86.3934
# 2 -12.4452 166.0802 -84.8537 -8.0130 29.5250 -60.9476
# 3 -102.0478 -84.8537 -155.8344 -32.4782 56.6463 -185.5136
# 4 -3.6071 -8.0130 -32.4782 41.5360 8.9681 -12.2363
# 5 18.2510 29.5250 56.6463 8.9681 -3.9772 67.2019
# 6 -86.3934 -60.9476 -185.5136 -12.2363 67.2019 -119.3812
#
#
#
# Elastic Compliance Matrix: (Units=1/GPa)
#
#
# Indices 1 2 3 4 5 6 
#
# 1 0.023710 -0.003382 0.003539 -0.003197 0.025993 -0.005972
# 2 -0.003382 0.005575 -0.000729 0.000577 -0.003311 -0.001190
# 3 0.003539 -0.000729 0.016563 0.003472 0.026240 -0.013513
# 4 -0.003197 0.000577 0.003472 0.024850 0.000585 -0.005593
# 5 0.025993 -0.003311 0.026240 0.000585 0.089403 -0.007629
# 6 -0.005972 -0.001190 -0.013513 -0.005593 -0.007629 0.013830
#
#
# Mechanical properties :
#
#
# Convention : Reuss Voigt Hill
#
# Bulk Modulus (GPa) = 22.36813 -41.67422 -9.65304
# Shear Modulus (GPa) = 26.31926 -1.49967 12.40980
#
# Velocity S-wave (km/s) = 3.13632 -0.74865 2.15361
# Velocity P-wave (km/s) = 4.63413 4.04012 1.60509
#
# Compressibility (1/GPa) = 0.04470647
#
# Stress axis : x y z
#
# Youngs Moduli (GPa) = 42.17659 179.36151 60.37467
#
# Poissons Ratio (x) = 0.60656 -0.21369
# Poissons Ratio (y) = 0.14263 0.04398
# Poissons Ratio (z) = -0.14928 0.13067
#
# Static dielectric constant tensor:
#      x y z
#    x 0.079510 -1.996630 3.135520 
#    y -1.996630 0.145680 3.034970 
#    z 3.135520 3.034970 -2.552930 
# 
# From -- ./inp_files/337526.got.cif
#   From: 2010.05.17/outbox.cif.g08.bks.cpg/sg2_169_cif.got.tgz:337526.got - 2010.06.03 11:33:40.
