data_PCOD9109191
_publ_section_title
;
Structure prediction by ZEFSAII (Michael W. Deem and Ramdas Pophale) SiO2 
 PCOD9109191
Probable space group: P -1
;
_chemical_formula_sum "Si O2"
_cell_formula_units_Z 15
_cell_length_a 9.564423
_cell_length_b 10.757712
_cell_length_c 10.208901
_cell_angle_alpha 37.896722
_cell_angle_beta 61.945717
_cell_angle_gamma 58.270704
_cell_volume 545.688257
_symmetry_space_group_name_H-M "P -1"
_symmetry_group_IT_number 2
_symmetry_cell_setting 'triclinic'
loop_
_space_group_symop_operation_xyz
x,y,z
-x,-y,-z
loop_
_atom_site_type_symbol
_atom_site_label
_atom_site_fract_x
_atom_site_fract_y
_atom_site_fract_z
Si Si1 0.796647 0.631154 0.576393
Si Si2 0.500000 0.000000 0.500000
Si Si3 0.975813 0.311331 0.340530
Si Si4 0.096035 0.102596 0.213188
Si Si5 0.550657 0.759862 0.881785
Si Si6 0.719732 0.606774 0.353356
Si Si7 0.392315 0.808744 0.194562
Si Si8 0.251313 0.689542 0.942342
O O1 0.616733 0.783082 0.557228
O O2 0.821400 0.656222 0.390639
O O3 0.789614 0.403967 0.823820
O O4 0.922898 0.696058 0.563717
O O5 0.620126 0.933989 0.640569
O O6 0.834811 0.532442 0.237042
O O7 0.082253 0.272630 0.193793
O O8 0.893644 0.121684 0.536066
O O9 0.247844 0.021486 0.112934
O O10 0.918932 0.182257 0.152492
O O11 0.654368 0.519412 0.008640
O O12 0.476336 0.795599 0.026699
O O13 0.388176 0.814769 0.803572
O O14 0.542547 0.764702 0.268117
O O15 0.678755 0.391844 0.596004
#
# Coordination Sequence:
#
# PCOD9109191 Si02
#       8
#     2   1   2   2   2   2   2   2
#     4  11  22  40  64  95 126 173 211 273 316 380
#     4  10  24  38  64  94 128 160 214 268 324 376
#     4  10  22  40  63  92 132 170 217 257 328 376
#     4  10  22  40  63  97 124 175 212 267 315 388
#     4  10  20  41  63  96 123 174 210 270 319 389
#     4  10  21  40  64  97 128 174 213 265 313 391
#     4  10  21  39  67  94 131 166 222 261 321 378
#     4  10  21  38  66  91 127 164 219 259 327 386
#
# _framework density 27.488223999999999
#
# number of rings (size 3 to 8) (size 9 to 14) (size 15 to 20)
#    0.000    1.867    1.333    2.000    1.867    2.133 
#    4.800    0.667    0.000    0.000    0.000    0.000 
#    0.000    0.000    0.000    0.000    0.000    0.000 
#
# Total GULP energy -83835.286688 kJ/mol
# GULP energy per Si atom -5589.019113 kJ/mol
# Density = 2.742566 g / cm^3
# Si number density = 27.488224 Si / 1000 Ang^3
#
#
#
# Elastic Constant Matrix: (Units=GPa)
#
#
# Indices 1 2 3 4 5 6 
#
# 1 125.5314 37.5540 16.1803 -5.9166 24.4549 0.8714
# 2 37.5540 185.6986 72.9401 12.1259 39.2625 -33.8059
# 3 16.1803 72.9401 109.4705 17.6825 17.0812 -7.3179
# 4 -5.9166 12.1259 17.6825 68.3999 -1.1494 7.7405
# 5 24.4549 39.2625 17.0812 -1.1494 44.1412 -10.6536
# 6 0.8714 -33.8059 -7.3179 7.7405 -10.6536 41.7825
#
#
#
# Elastic Compliance Matrix: (Units=1/GPa)
#
#
# Indices 1 2 3 4 5 6 
#
# 1 0.009385 -0.001527 -0.000081 0.001349 -0.004458 -0.002832
# 2 -0.001527 0.009821 -0.004981 -0.001364 -0.004499 0.006211
# 3 -0.000081 -0.004981 0.012877 -0.002289 -0.000952 -0.001591
# 4 0.001349 -0.001364 -0.002289 0.016072 0.000726 -0.004325
# 5 -0.004458 -0.004499 -0.000952 0.000726 0.030459 0.003918
# 6 -0.002832 0.006211 -0.001591 -0.004325 0.003918 0.030540
#
#
# Mechanical properties :
#
#
# Convention : Reuss Voigt Hill
#
# Bulk Modulus (GPa) = 52.89418 74.89437 63.89428
# Shear Modulus (GPa) = 38.86988 50.46647 44.66818
#
# Velocity S-wave (km/s) = 3.76447 4.28942 4.03549
# Velocity P-wave (km/s) = 6.17894 7.19982 6.70882
#
# Compressibility (1/GPa) = 0.01890567
#
# Stress axis : x y z
#
# Youngs Moduli (GPa) = 106.55041 101.81964 77.65586
#
# Poissons Ratio (x) = 0.15550 0.00631
# Poissons Ratio (y) = 0.16272 0.38678
# Poissons Ratio (z) = 0.00866 0.50713
#
# Static dielectric constant tensor:
#      x y z
#    x 2.532730 -0.046800 -0.655680 
#    y -0.046800 2.151860 0.152310 
#    z -0.655680 0.152310 3.576990 
# 
# From -- ./inp_files/261550.got.cif
#   From: 2010.05.17/outbox.cif.g08.bks.cpg/sg2_131_cif.got.tgz:261550.got - 2010.06.03 11:33:40.
