data_PCOD9109417
_publ_section_title
;
Structure prediction by ZEFSAII (Michael W. Deem and Ramdas Pophale) SiO2 
 PCOD9109417
Probable space group: P -1
;
_chemical_formula_sum "Si O2"
_cell_formula_units_Z 16
_cell_length_a 9.513548
_cell_length_b 5.634998
_cell_length_c 30.007708
_cell_angle_alpha 115.527966
_cell_angle_beta 38.305175
_cell_angle_gamma 134.312515
_cell_volume 688.118186
_symmetry_space_group_name_H-M "P -1"
_symmetry_group_IT_number 2
_symmetry_cell_setting 'triclinic'
loop_
_space_group_symop_operation_xyz
x,y,z
-x,-y,-z
loop_
_atom_site_type_symbol
_atom_site_label
_atom_site_fract_x
_atom_site_fract_y
_atom_site_fract_z
Si Si1 0.785293 0.949418 0.287001
Si Si2 0.390755 0.706558 0.199634
Si Si3 0.752694 0.539895 0.058943
Si Si4 0.244380 0.366178 0.423948
Si Si5 0.376906 0.898374 0.313581
Si Si6 0.825604 0.335138 0.458668
Si Si7 0.820562 0.225955 0.837355
Si Si8 0.323390 0.602949 0.029550
O O1 0.517280 0.760817 0.373115
O O2 0.648176 0.951265 0.274845
O O3 0.891128 0.728597 0.239546
O O4 0.085482 0.322664 0.255186
O O5 0.682293 0.737670 0.123903
O O6 0.417353 0.923082 0.252271
O O7 0.315095 0.757984 0.173107
O O8 0.437554 0.160251 0.112789
O O9 0.795231 0.629109 0.003633
O O10 0.000000 0.500000 0.000000
O O11 0.193541 0.394129 0.490376
O O12 0.966213 0.249596 0.454199
O O13 0.339563 0.150712 0.367156
O O14 0.067859 0.524593 0.374438
O O15 0.500000 0.000000 0.500000
O O16 0.877970 0.451635 0.883975
O O17 0.500000 0.500000 0.000000
O O18 0.500000 0.000000 0.000000
#
# Coordination Sequence:
#
# PCOD9109417 Si02
#       8
#     2   2   2   2   2   2   2   2
#     4  10  23  42  63  90 131 174 219 273 334 400
#     4  11  23  42  63  94 132 173 224 276 344 406
#     4  10  23  41  60  94 128 172 225 289 341 413
#     4  10  22  41  63  98 130 167 221 270 325 402
#     4  11  24  40  66 100 131 171 222 274 332 404
#     4  10  22  41  67  95 132 173 213 267 331 396
#     4  10  22  41  62  89 126 175 220 279 342 410
#     4  10  20  41  65  90 127 173 229 284 352 413
#
# _framework density 23.251819000000001
#
# number of rings (size 3 to 8) (size 9 to 14) (size 15 to 20)
#    0.000    1.750    1.250    1.875    1.750    7.000 
#    2.250    0.000    0.000    0.000    0.000    0.000 
#    0.000    0.000    0.000    0.000    0.000    0.000 
#
# Total GULP energy -89247.939375 kJ/mol
# GULP energy per Si atom -5577.996211 kJ/mol
# Density = 2.319890 g / cm^3
# Si number density = 23.251819 Si / 1000 Ang^3
#
#
#
# Elastic Constant Matrix: (Units=GPa)
#
#
# Indices 1 2 3 4 5 6 
#
# 1 99.9030 14.9622 54.6691 22.0322 -1.3994 1.0289
# 2 14.9622 72.2762 34.4156 7.0736 -0.9761 11.1734
# 3 54.6691 34.4156 136.6003 15.6914 -0.5141 18.0096
# 4 22.0322 7.0736 15.6914 52.1569 8.6069 -2.3196
# 5 -1.3994 -0.9761 -0.5141 8.6069 54.9140 5.2476
# 6 1.0289 11.1734 18.0096 -2.3196 5.2476 27.2261
#
#
#
# Elastic Compliance Matrix: (Units=1/GPa)
#
#
# Indices 1 2 3 4 5 6 
#
# 1 0.013893 -0.000319 -0.005341 -0.004218 0.000707 0.002643
# 2 -0.000319 0.016327 -0.003162 -0.001504 0.000957 -0.004909
# 3 -0.005341 -0.003162 0.011186 -0.001062 0.000663 -0.006118
# 4 -0.004218 -0.001504 -0.001062 0.022330 -0.004042 0.004161
# 5 0.000707 0.000957 0.000663 -0.004042 0.019356 -0.004934
# 6 0.002643 -0.004909 -0.006118 0.004161 -0.004934 0.043997
#
#
# Mechanical properties :
#
#
# Convention : Reuss Voigt Hill
#
# Bulk Modulus (GPa) = 42.08544 57.43036 49.75790
# Shear Modulus (GPa) = 32.75379 40.50823 36.63101
#
# Velocity S-wave (km/s) = 3.75728 4.17844 3.97344
# Velocity P-wave (km/s) = 6.07964 6.93052 6.51897
#
# Compressibility (1/GPa) = 0.02376118
#
# Stress axis : x y z
#
# Youngs Moduli (GPa) = 71.97800 61.24955 89.39761
#
# Poissons Ratio (x) = 0.01955 0.47749
# Poissons Ratio (y) = 0.02297 0.28268
# Poissons Ratio (z) = 0.38445 0.19367
#
# Static dielectric constant tensor:
#      x y z
#    x 1.867540 -0.045450 0.004010 
#    y -0.045450 1.975080 0.004480 
#    z 0.004010 0.004480 1.895430 
# 
# From -- ./inp_files/622233.got.cif
#   From: 2010.05.17/outbox.cif.g08.bks.cpg/sg2_312_cif.got.tgz:622233.got - 2010.06.03 11:33:40.
