data_PCOD9109456
_publ_section_title
;
Structure prediction by ZEFSAII (Michael W. Deem and Ramdas Pophale) SiO2 
 PCOD9109456
Probable space group: P -1
;
_chemical_formula_sum "Si O2"
_cell_formula_units_Z 16
_cell_length_a 9.599664
_cell_length_b 17.334887
_cell_length_c 12.395261
_cell_angle_alpha 42.284983
_cell_angle_beta 113.314239
_cell_angle_gamma 77.977782
_cell_volume 745.680271
_symmetry_space_group_name_H-M "P -1"
_symmetry_group_IT_number 2
_symmetry_cell_setting 'triclinic'
loop_
_space_group_symop_operation_xyz
x,y,z
-x,-y,-z
loop_
_atom_site_type_symbol
_atom_site_label
_atom_site_fract_x
_atom_site_fract_y
_atom_site_fract_z
Si Si1 0.113905 0.306564 0.266533
Si Si2 0.920565 0.836092 0.804052
Si Si3 0.489172 0.556322 0.320536
Si Si4 0.460024 0.247880 0.950066
Si Si5 0.272554 0.828611 0.693818
Si Si6 0.951908 0.157240 0.776217
Si Si7 0.280725 0.114250 0.081587
Si Si8 0.985226 0.194691 0.495231
O O1 0.983342 0.324969 0.312253
O O2 0.070253 0.250297 0.207960
O O3 0.423683 0.113880 0.582416
O O4 0.000000 0.500000 0.000000
O O5 0.846392 0.818865 0.908867
O O6 0.192979 0.733427 0.009829
O O7 0.716682 0.062093 0.485308
O O8 0.500000 0.500000 0.500000
O O9 0.656989 0.371764 0.487998
O O10 0.601881 0.615789 0.294972
O O11 0.498924 0.298790 0.018323
O O12 0.284706 0.245019 0.913540
O O13 0.740363 0.023160 0.239195
O O14 0.241802 0.738271 0.702111
O O15 0.000000 0.000000 0.500000
O O16 0.993267 0.159853 0.660243
O O17 0.127857 0.132705 0.928810
O O18 0.000000 0.000000 0.000000
#
# Coordination Sequence:
#
# PCOD9109456 Si02
#       8
#     2   2   2   2   2   2   2   2
#     4  11  25  42  65 103 138 172 212 274 347 393
#     4  12  21  44  71  97 128 173 226 276 325 393
#     4  12  24  44  68  97 126 175 232 271 316 404
#     4  10  21  41  71  97 125 171 227 281 326 383
#     4  10  16  38  71  93 122 166 225 268 326 384
#     4  12  27  45  65  98 139 180 221 267 341 402
#     4  11  25  45  69  97 136 178 221 273 333 393
#     4  10  20  43  66  96 136 173 216 275 334 394
#
# _framework density 21.456917000000001
#
# number of rings (size 3 to 8) (size 9 to 14) (size 15 to 20)
#    0.000    1.000    7.500    1.875    1.750    3.500 
#    2.250    1.250    0.000    0.000    0.000    0.000 
#    0.000    0.000    0.000    0.000    0.000    0.000 
#
# Total GULP energy -89379.023165 kJ/mol
# GULP energy per Si atom -5586.188948 kJ/mol
# Density = 2.140808 g / cm^3
# Si number density = 21.456917 Si / 1000 Ang^3
#
#
#
# Elastic Constant Matrix: (Units=GPa)
#
#
# Indices 1 2 3 4 5 6 
#
# 1 156.2998 54.9911 47.2712 15.5531 -47.9352 -1.9277
# 2 54.9911 83.7560 20.5625 34.4931 -11.7791 -13.5189
# 3 47.2712 20.5625 73.7486 7.1115 -37.9242 -1.4590
# 4 15.5531 34.4931 7.1115 38.4010 1.7577 -1.0182
# 5 -47.9352 -11.7791 -37.9242 1.7577 47.7454 5.7253
# 6 -1.9277 -13.5189 -1.4590 -1.0182 5.7253 30.3422
#
#
#
# Elastic Compliance Matrix: (Units=1/GPa)
#
#
# Indices 1 2 3 4 5 6 
#
# 1 0.012361 -0.007919 -0.000551 0.001603 0.010523 -0.004702
# 2 -0.007919 0.027587 -0.002207 -0.020692 -0.003534 0.011654
# 3 -0.000551 -0.002207 0.024496 -0.003289 0.018902 -0.003517
# 4 0.001603 -0.020692 -0.003289 0.044736 -0.006981 -0.006457
# 5 0.010523 -0.003534 0.018902 -0.006981 0.047000 -0.009100
# 6 -0.004702 0.011654 -0.003517 -0.006457 -0.009100 0.039182
#
#
# Mechanical properties :
#
#
# Convention : Reuss Voigt Hill
#
# Bulk Modulus (GPa) = 23.20775 62.16156 42.68466
# Shear Modulus (GPa) = 21.63761 36.02970 28.83365
#
# Velocity S-wave (km/s) = 3.17901 4.10221 3.66975
# Velocity P-wave (km/s) = 4.93095 7.17431 6.15569
#
# Compressibility (1/GPa) = 0.04308905
#
# Stress axis : x y z
#
# Youngs Moduli (GPa) = 80.90132 36.24944 40.82301
#
# Poissons Ratio (x) = 0.28707 0.02250
# Poissons Ratio (y) = 0.64068 0.09009
# Poissons Ratio (z) = 0.04458 0.07999
#
# Static dielectric constant tensor:
#      x y z
#    x 1.817340 -0.030470 -0.028670 
#    y -0.030470 1.785670 0.018980 
#    z -0.028670 0.018980 1.871560 
# 
# From -- ./inp_files/401852.got.cif
#   From: 2010.05.17/outbox.cif.g08.bks.cpg/sg2_201_cif.got.tgz:401852.got - 2010.06.03 11:33:40.
