data_PCOD9109128
_publ_section_title
;
Structure prediction by ZEFSAII (Michael W. Deem and Ramdas Pophale) SiO2 
 PCOD9109128
Probable space group: P -1
;
_chemical_formula_sum "Si O2"
_cell_formula_units_Z 14
_cell_length_a 11.672452
_cell_length_b 12.048458
_cell_length_c 10.640019
_cell_angle_alpha 145.394726
_cell_angle_beta 139.265058
_cell_angle_gamma 60.973951
_cell_volume 514.388323
_symmetry_space_group_name_H-M "P -1"
_symmetry_group_IT_number 2
_symmetry_cell_setting 'triclinic'
loop_
_space_group_symop_operation_xyz
x,y,z
-x,-y,-z
loop_
_atom_site_type_symbol
_atom_site_label
_atom_site_fract_x
_atom_site_fract_y
_atom_site_fract_z
Si Si1 0.970611 0.783998 0.843837
Si Si2 0.395394 0.584557 0.388759
Si Si3 0.947123 0.660113 0.967603
Si Si4 0.268200 0.678669 0.884010
Si Si5 0.072353 0.778869 0.576546
Si Si6 0.292726 0.957075 0.686130
Si Si7 0.638013 0.681126 0.101601
O O1 0.887120 0.769314 0.900819
O O2 0.840857 0.571957 0.465361
O O3 0.174104 0.756027 0.992728
O O4 0.000000 0.000000 0.000000
O O5 0.500000 0.500000 0.500000
O O6 0.182266 0.427949 0.100626
O O7 0.424212 0.820956 0.673309
O O8 0.425808 0.546992 0.232765
O O9 0.948290 0.448486 0.708044
O O10 0.141115 0.822349 0.330878
O O11 0.205003 0.792686 0.820753
O O12 0.486526 0.707734 0.096737
O O13 0.176082 0.937855 0.698894
O O14 0.855830 0.759774 0.398585
O O15 0.380515 0.181555 0.905397
#
# Coordination Sequence:
#
# PCOD9109128 Si02
#       7
#     2   2   2   2   2   2   2
#     4  10  23  45  69  85 123 173 212 266 313 357
#     4  11  22  38  63  95 130 164 201 261 318 374
#     4  10  20  41  63  88 127 166 211 255 313 379
#     4  10  25  44  63  96 124 162 222 259 306 380
#     4  10  20  41  66  90 135 168 194 266 320 365
#     4  11  22  38  61  99 130 162 210 245 317 397
#     4  12  23  38  66  98 129 164 204 259 319 372
#
# _framework density 27.216791000000001
#
# number of rings (size 3 to 8) (size 9 to 14) (size 15 to 20)
#    0.000    1.429    2.857    3.857    2.000    4.571 
#    0.000    7.143    0.000    0.000    0.000    0.000 
#    0.000    0.000    0.000    0.000    0.000    0.000 
#
# Total GULP energy -78394.764228 kJ/mol
# GULP energy per Si atom -5599.626016 kJ/mol
# Density = 2.715484 g / cm^3
# Si number density = 27.216791 Si / 1000 Ang^3
#
#
#
# Elastic Constant Matrix: (Units=GPa)
#
#
# Indices 1 2 3 4 5 6 
#
# 1 114.4977 14.9940 9.1899 5.3126 -0.0325 -15.2544
# 2 14.9940 119.0257 -0.2828 8.1697 4.2313 7.1973
# 3 9.1899 -0.2828 50.6526 -3.8405 7.6596 -12.2733
# 4 5.3126 8.1697 -3.8405 43.9537 -7.0868 5.6437
# 5 -0.0325 4.2313 7.6596 -7.0868 39.1973 -6.1200
# 6 -15.2544 7.1973 -12.2733 5.6437 -6.1200 57.9471
#
#
#
# Elastic Compliance Matrix: (Units=1/GPa)
#
#
# Indices 1 2 3 4 5 6 
#
# 1 0.009400 -0.001276 -0.001276 -0.001246 0.000567 0.002544
# 2 -0.001276 0.008806 0.000040 -0.001531 -0.001459 -0.001426
# 3 -0.001276 0.000040 0.021477 0.000988 -0.003438 0.003749
# 4 -0.001246 -0.001531 0.000988 0.024164 0.004051 -0.001854
# 5 0.000567 -0.001459 -0.003438 0.004051 0.027402 0.002102
# 6 0.002544 -0.001426 0.003749 -0.001854 0.002102 0.019300
#
#
# Mechanical properties :
#
#
# Convention : Reuss Voigt Hill
#
# Bulk Modulus (GPa) = 28.85331 36.88644 32.86987
# Shear Modulus (GPa) = 39.33071 45.57130 42.45100
#
# Velocity S-wave (km/s) = 3.80556 4.09636 3.95363
# Velocity P-wave (km/s) = 5.47120 5.99632 5.73976
#
# Compressibility (1/GPa) = 0.03465807
#
# Stress axis : x y z
#
# Youngs Moduli (GPa) = 106.38088 113.56503 46.56082
#
# Poissons Ratio (x) = 0.14487 0.05943
# Poissons Ratio (y) = 0.13571 -0.00184
# Poissons Ratio (z) = 0.13578 -0.00450
#
# Static dielectric constant tensor:
#      x y z
#    x 2.244520 -0.050960 0.036440 
#    y -0.050960 2.313320 -0.078470 
#    z 0.036440 -0.078470 2.108810 
# 
# From -- ./inp_files/256151.got.cif
#   From: 2010.05.17/outbox.cif.g08.bks.cpg/sg2_129_cif.got.tgz:256151.got - 2010.06.03 11:33:40.
