data_PCOD9109934
_publ_section_title
;
Structure prediction by ZEFSAII (Michael W. Deem and Ramdas Pophale) SiO2 
 PCOD9109934
Probable space group: P -1
;
_chemical_formula_sum "Si O2"
_cell_formula_units_Z 14
_cell_length_a 8.599436
_cell_length_b 13.172797
_cell_length_c 12.912964
_cell_angle_alpha 148.296445
_cell_angle_beta 107.976463
_cell_angle_gamma 91.034690
_cell_volume 605.090229
_symmetry_space_group_name_H-M "P -1"
_symmetry_group_IT_number 2
_symmetry_cell_setting 'triclinic'
loop_
_space_group_symop_operation_xyz
x,y,z
-x,-y,-z
loop_
_atom_site_type_symbol
_atom_site_label
_atom_site_fract_x
_atom_site_fract_y
_atom_site_fract_z
Si Si1 0.939116 0.201313 0.525585
Si Si2 0.670864 0.677200 0.933668
Si Si3 0.400428 0.013233 0.594832
Si Si4 0.289394 0.014551 0.250695
Si Si5 0.645391 0.691986 0.295365
Si Si6 0.897510 0.557432 0.708845
Si Si7 0.640195 0.539629 0.468710
O O1 0.893551 0.332814 0.545335
O O2 0.174553 0.338001 0.705975
O O3 0.826293 0.180388 0.591101
O O4 0.825716 0.931385 0.231877
O O5 0.545597 0.478067 0.820972
O O6 0.775470 0.599139 0.807260
O O7 0.494334 0.660879 0.816455
O O8 0.524625 0.002968 0.705351
O O9 0.412240 0.247976 0.772869
O O10 0.500000 0.000000 0.500000
O O11 0.245063 0.070773 0.404698
O O12 0.307859 0.221507 0.366323
O O13 0.118044 0.778030 0.960047
O O14 0.817187 0.547703 0.568954
O O15 0.500000 0.500000 0.500000
#
# Coordination Sequence:
#
# PCOD9109934 Si02
#       7
#     2   2   2   2   2   2   2
#     4  12  24  41  68  96 132 170 215 266 322 385
#     4  10  23  44  66  92 136 169 216 270 314 381
#     4  10  22  42  67  95 128 171 218 262 323 387
#     4  10  20  41  68  93 132 172 214 267 319 384
#     4  10  22  44  63  94 133 168 216 271 318 377
#     4  11  22  41  66  98 129 174 216 261 326 383
#     4   9  19  39  68  91 130 173 212 266 320 375
#
# _framework density 23.137042999999998
#
# number of rings (size 3 to 8) (size 9 to 14) (size 15 to 20)
#    0.000    1.714    1.429    4.286    2.000    1.143 
#    2.571    5.000    0.000    0.000    0.000    0.000 
#    0.000    0.000    0.000    0.000    0.000    0.000 
#
# Total GULP energy -78086.634858 kJ/mol
# GULP energy per Si atom -5577.616776 kJ/mol
# Density = 2.308438 g / cm^3
# Si number density = 23.137043 Si / 1000 Ang^3
#
#
#
# Elastic Constant Matrix: (Units=GPa)
#
#
# Indices 1 2 3 4 5 6 
#
# 1 89.0739 45.7907 13.5490 1.2287 22.8448 -23.6925
# 2 45.7907 136.1788 6.6550 19.3216 15.8727 -30.7350
# 3 13.5490 6.6550 63.1583 10.1209 18.0536 -8.1848
# 4 1.2287 19.3216 10.1209 27.9509 3.4182 -2.5530
# 5 22.8448 15.8727 18.0536 3.4182 29.8196 -1.8441
# 6 -23.6925 -30.7350 -8.1848 -2.5530 -1.8441 30.1702
#
#
#
# Elastic Compliance Matrix: (Units=1/GPa)
#
#
# Indices 1 2 3 4 5 6 
#
# 1 0.019017 -0.002651 0.001058 0.003352 -0.013441 0.011982
# 2 -0.002651 0.012031 0.003245 -0.007865 -0.004812 0.010096
# 3 0.001058 0.003245 0.021660 -0.007613 -0.014253 0.008497
# 4 0.003352 -0.007865 -0.007613 0.043358 0.001028 -0.003714
# 5 -0.013441 -0.004812 -0.014253 0.001028 0.053919 -0.015941
# 6 0.011982 0.010096 0.008497 -0.003714 -0.015941 0.053856
#
#
# Mechanical properties :
#
#
# Convention : Reuss Voigt Hill
#
# Bulk Modulus (GPa) = 17.85343 46.71117 32.28230
# Shear Modulus (GPa) = 22.80948 32.41590 27.61269
#
# Velocity S-wave (km/s) = 3.14322 3.74711 3.45837
# Velocity P-wave (km/s) = 4.57233 6.24130 5.47083
#
# Compressibility (1/GPa) = 0.05601165
#
# Stress axis : x y z
#
# Youngs Moduli (GPa) = 52.58578 83.11635 46.16885
#
# Poissons Ratio (x) = 0.22031 -0.04883
# Poissons Ratio (y) = 0.13938 -0.14982
# Poissons Ratio (z) = -0.05562 -0.26972
#
# Static dielectric constant tensor:
#      x y z
#    x 2.026840 -0.328270 0.150320 
#    y -0.328270 2.909200 -0.638850 
#    z 0.150320 -0.638850 2.352880 
# 
# From -- ./inp_files/296723.got.cif
#   From: 2010.05.17/outbox.cif.g08.bks.cpg/sg2_149_cif.got.tgz:296723.got - 2010.06.03 11:33:40.
