data_PCOD9109374
_publ_section_title
;
Structure prediction by ZEFSAII (Michael W. Deem and Ramdas Pophale) SiO2 
 PCOD9109374
Probable space group: P -1
;
_chemical_formula_sum "Si O2"
_cell_formula_units_Z 16
_cell_length_a 14.091735
_cell_length_b 6.734291
_cell_length_c 13.926751
_cell_angle_alpha 113.622415
_cell_angle_beta 119.429015
_cell_angle_gamma 42.108461
_cell_volume 770.359907
_symmetry_space_group_name_H-M "P -1"
_symmetry_group_IT_number 2
_symmetry_cell_setting 'triclinic'
loop_
_space_group_symop_operation_xyz
x,y,z
-x,-y,-z
loop_
_atom_site_type_symbol
_atom_site_label
_atom_site_fract_x
_atom_site_fract_y
_atom_site_fract_z
Si Si1 0.366462 0.207566 0.333142
Si Si2 0.118358 0.521195 0.591567
Si Si3 0.744785 0.780350 0.193264
Si Si4 0.521781 0.130066 0.875633
Si Si5 0.656378 0.988233 0.520205
Si Si6 0.951646 0.125932 0.106644
Si Si7 0.134843 0.885528 0.335767
Si Si8 0.281515 0.835540 0.886991
O O1 0.367955 0.028261 0.383420
O O2 0.213564 0.549548 0.323308
O O3 0.399297 0.059161 0.217800
O O4 0.501860 0.185840 0.424413
O O5 0.197212 0.335297 0.692513
O O6 0.243345 0.345406 0.538064
O O7 0.000000 0.500000 0.500000
O O8 0.018115 0.866028 0.632863
O O9 0.573081 0.936669 0.138334
O O10 0.845401 0.480569 0.122378
O O11 0.763002 0.993415 0.201517
O O12 0.396491 0.482786 0.858799
O O13 0.635008 0.091529 0.996643
O O14 0.748429 0.083810 0.572739
O O15 0.853388 0.073482 0.099315
O O16 0.087753 0.981253 0.219551
O O17 0.000000 0.000000 0.000000
#
# Coordination Sequence:
#
# PCOD9109374 Si02
#       8
#     2   2   2   2   2   2   2   2
#     4  11  23  39  65  94 124 159 206 258 312 370
#     4   9  19  40  61  88 122 160 206 249 294 372
#     4  10  20  41  65  87 121 164 208 255 308 366
#     4  10  22  41  62  95 124 153 215 258 302 376
#     4  10  22  42  61  91 127 159 207 258 308 363
#     4  10  24  40  59  93 125 158 210 255 301 380
#     4  10  23  40  63  88 125 165 202 251 315 362
#     4  10  23  41  65  90 122 167 206 252 315 362
#
# _framework density 20.769513
#
# number of rings (size 3 to 8) (size 9 to 14) (size 15 to 20)
#    0.000    2.000    1.250    0.750    3.500    5.000 
#    9.000    0.000    0.000    0.000    0.000    0.000 
#    0.000    0.000    0.000    0.000    0.000    0.000 
#
# Total GULP energy -89363.876594 kJ/mol
# GULP energy per Si atom -5585.242287 kJ/mol
# Density = 2.072224 g / cm^3
# Si number density = 20.769513 Si / 1000 Ang^3
#
#
#
# Elastic Constant Matrix: (Units=GPa)
#
#
# Indices 1 2 3 4 5 6 
#
# 1 57.1701 20.7746 11.8733 3.0094 2.8710 -0.5268
# 2 20.7746 56.2389 19.8348 2.3575 -9.4961 -9.9673
# 3 11.8733 19.8348 76.6178 12.4106 -6.5076 -10.0701
# 4 3.0094 2.3575 12.4106 19.3405 -11.9364 0.6899
# 5 2.8710 -9.4961 -6.5076 -11.9364 33.7887 6.0637
# 6 -0.5268 -9.9673 -10.0701 0.6899 6.0637 23.7631
#
#
#
# Elastic Compliance Matrix: (Units=1/GPa)
#
#
# Indices 1 2 3 4 5 6 
#
# 1 0.021411 -0.008691 -0.000973 -0.005261 -0.005965 -0.001908
# 2 -0.008691 0.024745 -0.004541 0.005836 0.007784 0.006107
# 3 -0.000973 -0.004541 0.016980 -0.012619 -0.003555 0.006543
# 4 -0.005261 0.005836 -0.012619 0.078759 0.029796 -0.012906
# 5 -0.005965 0.007784 -0.003555 0.029796 0.044010 -0.010469
# 6 -0.001908 0.006107 0.006543 -0.012906 -0.010469 0.050420
#
#
# Mechanical properties :
#
#
# Convention : Reuss Voigt Hill
#
# Bulk Modulus (GPa) = 28.79669 32.77691 30.78680
# Shear Modulus (GPa) = 18.09556 24.54807 21.32181
#
# Velocity S-wave (km/s) = 2.95491 3.44165 3.20752
# Velocity P-wave (km/s) = 5.05341 5.62217 5.34536
#
# Compressibility (1/GPa) = 0.03472621
#
# Stress axis : x y z
#
# Youngs Moduli (GPa) = 46.70535 40.41205 58.89231
#
# Poissons Ratio (x) = 0.35121 0.05733
# Poissons Ratio (y) = 0.40590 0.26742
# Poissons Ratio (z) = 0.04546 0.18350
#
# Static dielectric constant tensor:
#      x y z
#    x 1.730560 -0.013800 0.033970 
#    y -0.013800 1.749490 0.012040 
#    z 0.033970 0.012040 1.753640 
# 
# From -- ./inp_files/454686.got.cif
#   From: 2010.05.17/outbox.cif.g08.bks.cpg/sg2_228_cif.got.tgz:454686.got - 2010.06.03 11:33:40.
