data_PCOD9109294
_publ_section_title
;
Structure prediction by ZEFSAII (Michael W. Deem and Ramdas Pophale) SiO2 
 PCOD9109294
Probable space group: P -1
;
_chemical_formula_sum "Si O2"
_cell_formula_units_Z 14
_cell_length_a 13.824969
_cell_length_b 10.207702
_cell_length_c 11.075551
_cell_angle_alpha 62.686059
_cell_angle_beta 30.663305
_cell_angle_gamma 56.831328
_cell_volume 666.983408
_symmetry_space_group_name_H-M "P -1"
_symmetry_group_IT_number 2
_symmetry_cell_setting 'triclinic'
loop_
_space_group_symop_operation_xyz
x,y,z
-x,-y,-z
loop_
_atom_site_type_symbol
_atom_site_label
_atom_site_fract_x
_atom_site_fract_y
_atom_site_fract_z
Si Si1 0.207066 0.772850 0.056128
Si Si2 0.935877 0.949372 0.463127
Si Si3 0.898820 0.620359 0.338809
Si Si4 0.564365 0.697770 0.859612
Si Si5 0.203061 0.298416 0.170037
Si Si6 0.524841 0.825126 0.508950
Si Si7 0.490296 0.931206 0.234968
O O1 0.082535 0.928939 0.199659
O O2 0.041314 0.710427 0.201960
O O3 0.364958 0.674408 0.030246
O O4 0.352299 0.786633 0.785998
O O5 0.917644 0.778517 0.578462
O O6 0.713092 0.057961 0.621449
O O7 0.000000 0.000000 0.500000
O O8 0.751782 0.611575 0.609434
O O9 0.744243 0.712846 0.362984
O O10 0.048037 0.450906 0.213268
O O11 0.632888 0.661024 0.939333
O O12 0.523600 0.887371 0.808202
O O13 0.321164 0.163320 0.008557
O O14 0.498424 0.838083 0.388941
O O15 0.500000 0.000000 0.500000
#
# Coordination Sequence:
#
# PCOD9109294 Si02
#       7
#     2   2   2   2   2   2   2
#     4  11  21  39  66  95 118 163 214 250 304 368
#     4  11  22  39  66 100 120 160 215 251 314 373
#     4  11  23  41  62  96 124 168 203 251 315 368
#     4  10  20  41  64  93 126 156 210 256 311 360
#     4  11  23  40  63  91 138 157 195 266 318 361
#     4  11  23  43  64  88 125 163 216 257 296 363
#     4  11  21  42  63  89 127 166 201 264 301 358
#
# _framework density 20.990027999999999
#
# number of rings (size 3 to 8) (size 9 to 14) (size 15 to 20)
#    0.000    1.143    5.714    3.857    0.000    3.429 
#    7.714    0.714    0.000    0.000    0.000    0.000 
#    0.000    0.000    0.000    0.000    0.000    0.000 
#
# Total GULP energy -78190.081074 kJ/mol
# GULP energy per Si atom -5585.005791 kJ/mol
# Density = 2.094225 g / cm^3
# Si number density = 20.990028 Si / 1000 Ang^3
#
#
#
# Elastic Constant Matrix: (Units=GPa)
#
#
# Indices 1 2 3 4 5 6 
#
# 1 127.1988 42.7472 47.8774 0.6543 -12.6345 -23.4534
# 2 42.7472 77.6857 31.8184 21.7223 -10.8059 -30.5310
# 3 47.8774 31.8184 107.9481 16.4890 -17.3240 -15.8250
# 4 0.6543 21.7223 16.4890 28.0515 -2.6463 -4.9953
# 5 -12.6345 -10.8059 -17.3240 -2.6463 32.0918 -2.1116
# 6 -23.4534 -30.5310 -15.8250 -4.9953 -2.1116 30.5367
#
#
#
# Elastic Compliance Matrix: (Units=1/GPa)
#
#
# Indices 1 2 3 4 5 6 
#
# 1 0.011868 -0.005611 -0.004090 0.007067 0.001331 0.002634
# 2 -0.005611 0.032979 0.001375 -0.020549 0.009700 0.026685
# 3 -0.004090 0.001375 0.013377 -0.007520 0.005739 0.004333
# 4 0.007067 -0.020549 -0.007520 0.053512 -0.004479 -0.010570
# 5 0.001331 0.009700 0.005739 -0.004479 0.038709 0.015639
# 6 0.002634 0.026685 0.004333 -0.010570 0.015639 0.063049
#
#
# Mechanical properties :
#
#
# Convention : Reuss Voigt Hill
#
# Bulk Modulus (GPa) = 24.05374 61.96875 43.01124
# Shear Modulus (GPa) = 20.49154 30.82864 25.66009
#
# Velocity S-wave (km/s) = 3.12789 3.83656 3.50021
# Velocity P-wave (km/s) = 4.95272 7.01517 6.07215
#
# Compressibility (1/GPa) = 0.04157358
#
# Stress axis : x y z
#
# Youngs Moduli (GPa) = 84.25764 30.32198 74.75455
#
# Poissons Ratio (x) = 0.17015 0.30571
# Poissons Ratio (y) = 0.47281 -0.10282
# Poissons Ratio (z) = 0.34458 -0.04170
#
# Static dielectric constant tensor:
#      x y z
#    x 1.778800 0.014770 -0.017260 
#    y 0.014770 1.793640 -0.020560 
#    z -0.017260 -0.020560 1.770140 
# 
# From -- ./inp_files/451204.got.cif
#   From: 2010.05.17/outbox.cif.g08.bks.cpg/sg2_226_cif.got.tgz:451204.got - 2010.06.03 11:33:40.
