data_PCOD9109264
_publ_section_title
;
Structure prediction by ZEFSAII (Michael W. Deem and Ramdas Pophale) SiO2 
 PCOD9109264
Probable space group: P -1
;
_chemical_formula_sum "Si O2"
_cell_formula_units_Z 16
_cell_length_a 7.327684
_cell_length_b 7.574796
_cell_length_c 16.251075
_cell_angle_alpha 116.170887
_cell_angle_beta 95.020282
_cell_angle_gamma 60.635962
_cell_volume 695.917943
_symmetry_space_group_name_H-M "P -1"
_symmetry_group_IT_number 2
_symmetry_cell_setting 'triclinic'
loop_
_space_group_symop_operation_xyz
x,y,z
-x,-y,-z
loop_
_atom_site_type_symbol
_atom_site_label
_atom_site_fract_x
_atom_site_fract_y
_atom_site_fract_z
Si Si1 0.569075 0.663633 0.348347
Si Si2 0.217882 0.770732 0.478051
Si Si3 0.322165 0.413201 0.276853
Si Si4 0.064180 0.641046 0.592062
Si Si5 0.758352 0.637078 0.903445
Si Si6 0.359693 0.984481 0.263526
Si Si7 0.255193 0.918416 0.944415
Si Si8 0.156743 0.802220 0.089569
O O1 0.413459 0.782587 0.446474
O O2 0.487252 0.496102 0.278287
O O3 0.530021 0.830387 0.306344
O O4 0.802924 0.518226 0.360768
O O5 0.214198 0.572340 0.384012
O O6 0.217628 0.706527 0.559840
O O7 0.000000 0.000000 0.500000
O O8 0.163729 0.459422 0.204586
O O9 0.416458 0.155527 0.255839
O O10 0.000000 0.500000 0.500000
O O11 0.857371 0.864170 0.662494
O O12 0.503547 0.781919 0.908567
O O13 0.825905 0.429561 0.925430
O O14 0.808091 0.827441 0.974913
O O15 0.305529 0.851002 0.165240
O O16 0.228309 0.791035 0.995664
O O17 0.083934 0.980277 0.878136
#
# Coordination Sequence:
#
# PCOD9109264 Si02
#       8
#     2   2   2   2   2   2   2   2
#     4  10  24  42  63  89 123 171 203 263 312 364
#     4  10  20  41  64  91 125 166 208 256 313 364
#     4  10  22  41  63  90 128 166 206 259 304 377
#     4  12  23  42  63  92 126 164 214 258 310 374
#     4  11  21  43  63  91 129 164 207 253 316 368
#     4  12  23  41  64  91 129 165 209 261 312 370
#     4  10  24  39  66  94 123 167 205 256 314 375
#     4  11  22  40  65  94 126 162 207 259 311 370
#
# _framework density 22.991218
#
# number of rings (size 3 to 8) (size 9 to 14) (size 15 to 20)
#    0.750    0.500    5.000    1.125    1.750    0.500 
#    2.250    1.250    0.000    0.000    0.000    0.000 
#    0.000    0.000    0.000    0.000    0.000    0.000 
#
# Total GULP energy -89373.327032 kJ/mol
# GULP energy per Si atom -5585.832939 kJ/mol
# Density = 2.293889 g / cm^3
# Si number density = 22.991218 Si / 1000 Ang^3
#
#
#
# Elastic Constant Matrix: (Units=GPa)
#
#
# Indices 1 2 3 4 5 6 
#
# 1 11.6138 9.3116 -6.1628 3.2456 -2.3886 13.8376
# 2 9.3116 158.9814 21.4946 -38.9549 6.2560 17.4987
# 3 -6.1628 21.4946 42.3868 -7.0699 3.5671 0.9757
# 4 3.2456 -38.9549 -7.0699 22.4494 1.9888 -5.3104
# 5 -2.3886 6.2560 3.5671 1.9888 20.0947 -6.5817
# 6 13.8376 17.4987 0.9757 -5.3104 -6.5817 42.8044
#
#
#
# Elastic Compliance Matrix: (Units=1/GPa)
#
#
# Indices 1 2 3 4 5 6 
#
# 1 0.303277 -0.048658 0.045627 -0.138081 0.026554 -0.092238
# 2 -0.048658 0.019971 -0.009494 0.042346 -0.010781 0.011378
# 3 0.045627 -0.009494 0.032718 -0.015966 -0.000318 -0.013644
# 4 -0.138081 0.042346 -0.015966 0.145210 -0.027552 0.041469
# 5 0.026554 -0.010781 -0.000318 -0.027552 0.059575 0.001573
# 6 -0.092238 0.011378 -0.013644 0.041469 0.001573 0.054226
#
#
# Mechanical properties :
#
#
# Convention : Reuss Voigt Hill
#
# Bulk Modulus (GPa) = 3.02191 29.14098 16.08144
# Shear Modulus (GPa) = 6.66370 29.62562 18.14466
#
# Velocity S-wave (km/s) = 1.70431 3.59355 2.81232
# Velocity P-wave (km/s) = 2.27818 5.46996 4.18990
#
# Compressibility (1/GPa) = 0.33091695
#
# Stress axis : x y z
#
# Youngs Moduli (GPa) = 3.29732 50.07136 30.56394
#
# Poissons Ratio (x) = 2.43638 -1.39454
# Poissons Ratio (y) = 0.16044 0.29017
# Poissons Ratio (z) = -0.15045 0.47537
#
# Static dielectric constant tensor:
#      x y z
#    x 1.903940 0.031380 -0.057270 
#    y 0.031380 1.737920 0.153170 
#    z -0.057270 0.153170 1.616210 
# 
# From -- ./inp_files/554601.got.cif
#   From: 2010.05.17/outbox.cif.g08.bks.cpg/sg2_278_cif.got.tgz:554601.got - 2010.06.03 11:33:40.
