data_PCOD9109120
_publ_section_title
;
Structure prediction by ZEFSAII (Michael W. Deem and Ramdas Pophale) SiO2 
 PCOD9109120
Probable space group: P -1
;
_chemical_formula_sum "Si O2"
_cell_formula_units_Z 16
_cell_length_a 15.906041
_cell_length_b 16.569525
_cell_length_c 9.039370
_cell_angle_alpha 110.195689
_cell_angle_beta 134.702516
_cell_angle_gamma 35.798013
_cell_volume 832.411517
_symmetry_space_group_name_H-M "P -1"
_symmetry_group_IT_number 2
_symmetry_cell_setting 'triclinic'
loop_
_space_group_symop_operation_xyz
x,y,z
-x,-y,-z
loop_
_atom_site_type_symbol
_atom_site_label
_atom_site_fract_x
_atom_site_fract_y
_atom_site_fract_z
Si Si1 0.517760 0.717378 0.864579
Si Si2 0.437164 0.633983 0.950743
Si Si3 0.129955 0.030468 0.131037
Si Si4 0.246215 0.156682 0.345127
Si Si5 0.241684 0.317744 0.627203
Si Si6 0.895424 0.479057 0.929261
Si Si7 0.025097 0.015578 0.296239
Si Si8 0.605239 0.657490 0.422265
O O1 0.535679 0.614489 0.908771
O O2 0.710542 0.608753 0.910710
O O3 0.270073 0.874619 0.583909
O O4 0.570553 0.759386 0.078117
O O5 0.170753 0.823954 0.741298
O O6 0.500000 0.500000 0.000000
O O7 0.536571 0.631021 0.201199
O O8 0.156704 0.115549 0.219439
O O9 0.004645 0.079226 0.155532
O O10 0.380865 0.835226 0.329149
O O11 0.024111 0.051566 0.865952
O O12 0.240455 0.217069 0.527075
O O13 0.500000 0.000000 0.500000
O O14 0.087398 0.301809 0.122512
O O15 0.282388 0.336266 0.529994
O O16 0.000000 0.500000 0.500000
O O17 0.762980 0.519952 0.654198
O O18 0.000000 0.500000 0.000000
#
# Coordination Sequence:
#
# PCOD9109120 Si02
#       8
#     2   2   2   2   2   2   2   2
#     4  11  23  41  69  92 129 175 217 264 337 398
#     4  10  24  41  62  93 131 170 215 271 328 388
#     4  10  21  40  66  95 124 170 216 275 318 383
#     4  12  24  40  67  97 132 167 225 271 323 388
#     4  11  21  40  64  91 130 172 208 266 336 385
#     4  12  22  40  67  96 125 169 218 268 323 398
#     4  10  22  42  67  89 133 173 216 264 332 385
#     4  10  20  41  63  87 126 170 213 260 332 382
#
# _framework density 19.221263
#
# number of rings (size 3 to 8) (size 9 to 14) (size 15 to 20)
#    0.000    1.250    5.000    0.375    1.750    1.000 
#    2.250    1.875    0.000    0.000    0.000    0.000 
#    0.000    0.000    0.000    0.000    0.000    0.000 
#
# Total GULP energy -89241.323616 kJ/mol
# GULP energy per Si atom -5577.582726 kJ/mol
# Density = 1.917751 g / cm^3
# Si number density = 19.221263 Si / 1000 Ang^3
#
#
#
# Elastic Constant Matrix: (Units=GPa)
#
#
# Indices 1 2 3 4 5 6 
#
# 1 109.0905 37.9813 18.0354 2.7612 8.2839 2.8608
# 2 37.9813 88.5897 42.3967 9.4382 13.4986 19.2230
# 3 18.0354 42.3967 145.6604 -3.1407 1.0507 6.7812
# 4 2.7612 9.4382 -3.1407 17.7984 -1.0420 6.7562
# 5 8.2839 13.4986 1.0507 -1.0420 26.5701 2.1043
# 6 2.8608 19.2230 6.7812 6.7562 2.1043 42.1629
#
#
#
# Elastic Compliance Matrix: (Units=1/GPa)
#
#
# Indices 1 2 3 4 5 6 
#
# 1 0.010893 -0.004871 0.000013 0.000271 -0.001029 0.001488
# 2 -0.004871 0.019022 -0.004787 -0.008420 -0.007824 -0.005832
# 3 0.000013 -0.004787 0.008326 0.004111 0.002254 0.000071
# 4 0.000271 -0.008420 0.004111 0.064620 0.007163 -0.007553
# 5 -0.001029 -0.007824 0.002254 0.007163 0.042122 0.000024
# 6 0.001488 -0.005832 0.000071 -0.007553 0.000024 0.027473
#
#
# Mechanical properties :
#
#
# Convention : Reuss Voigt Hill
#
# Bulk Modulus (GPa) = 52.76859 60.01858 56.39358
# Shear Modulus (GPa) = 25.24438 33.63475 29.43957
#
# Velocity S-wave (km/s) = 3.62796 4.18769 3.91783
# Velocity P-wave (km/s) = 6.71284 7.39427 7.06178
#
# Compressibility (1/GPa) = 0.01895067
#
# Stress axis : x y z
#
# Youngs Moduli (GPa) = 91.80384 52.56975 120.10436
#
# Poissons Ratio (x) = 0.25608 -0.00157
# Poissons Ratio (y) = 0.44720 0.57496
# Poissons Ratio (z) = -0.00120 0.25166
#
# Static dielectric constant tensor:
#      x y z
#    x 1.715980 0.000600 0.045260 
#    y 0.000600 1.684820 0.019700 
#    z 0.045260 0.019700 1.693230 
# 
# From -- ./inp_files/179416.got.cif
#   From: 2010.05.17/outbox.cif.g08.bks.cpg/sg2_90_cif.got.tgz:179416.got - 2010.06.03 11:33:40.
