data_PCOD9109717
_publ_section_title
;
Structure prediction by ZEFSAII (Michael W. Deem and Ramdas Pophale) SiO2 
 PCOD9109717
Probable space group: P -1
;
_chemical_formula_sum "Si O2"
_cell_formula_units_Z 14
_cell_length_a 11.845983
_cell_length_b 7.205075
_cell_length_c 8.191560
_cell_angle_alpha 97.549293
_cell_angle_beta 102.842679
_cell_angle_gamma 123.745583
_cell_volume 538.081346
_symmetry_space_group_name_H-M "P -1"
_symmetry_group_IT_number 2
_symmetry_cell_setting 'triclinic'
loop_
_space_group_symop_operation_xyz
x,y,z
-x,-y,-z
loop_
_atom_site_type_symbol
_atom_site_label
_atom_site_fract_x
_atom_site_fract_y
_atom_site_fract_z
Si Si1 0.695665 0.238266 0.228166
Si Si2 0.875286 0.115638 0.405614
Si Si3 0.015091 0.954072 0.229088
Si Si4 0.377181 0.407640 0.682956
Si Si5 0.849017 0.458622 0.980375
Si Si6 0.417495 0.924830 0.293874
Si Si7 0.674693 0.733529 0.725938
O O1 0.671670 0.435867 0.259511
O O2 0.758673 0.264759 0.072004
O O3 0.822605 0.275866 0.387845
O O4 0.540289 0.002777 0.206004
O O5 0.727556 0.850190 0.308332
O O6 0.975707 0.122061 0.299849
O O7 0.938981 0.119624 0.601602
O O8 0.891675 0.704739 0.084247
O O9 0.154023 0.101009 0.174048
O O10 0.547798 0.533580 0.779130
O O11 0.350237 0.377082 0.475061
O O12 0.728991 0.340821 0.786091
O O13 0.000000 0.500000 0.000000
O O14 0.500000 0.000000 0.500000
O O15 0.366128 0.087940 0.279095
#
# Coordination Sequence:
#
# PCOD9109717 Si02
#       7
#     2   2   2   2   2   2   2
#     4  11  24  43  73 103 137 189 235 286 349 417
#     4  10  21  41  69 102 137 181 235 282 344 426
#     4  10  20  41  66  99 147 179 224 296 348 409
#     4   9  18  37  66  98 135 176 230 283 338 409
#     4  12  25  45  68 105 148 183 230 297 354 404
#     4  11  23  44  74 103 139 184 241 287 344 428
#     4   9  18  36  64  99 134 180 221 287 343 402
#
# _framework density 26.018371999999999
#
# number of rings (size 3 to 8) (size 9 to 14) (size 15 to 20)
#    0.000    1.714    2.857    2.143    0.000    0.571 
#    0.000    2.857   12.571    0.000    0.000    0.000 
#    0.000    0.000    0.000    0.000    0.000    0.000 
#
# Total GULP energy -78400.956347 kJ/mol
# GULP energy per Si atom -5600.068311 kJ/mol
# Density = 2.595915 g / cm^3
# Si number density = 26.018372 Si / 1000 Ang^3
#
#
#
# Elastic Constant Matrix: (Units=GPa)
#
#
# Indices 1 2 3 4 5 6 
#
# 1 171.0565 47.2906 49.7577 -9.0790 3.7486 25.2722
# 2 47.2906 72.7492 41.9845 16.1483 10.0573 29.4756
# 3 49.7577 41.9845 91.6852 25.5244 9.5853 10.7476
# 4 -9.0790 16.1483 25.5244 40.7472 4.7314 8.2125
# 5 3.7486 10.0573 9.5853 4.7314 30.6869 6.7618
# 6 25.2722 29.4756 10.7476 8.2125 6.7618 43.9708
#
#
#
# Elastic Compliance Matrix: (Units=1/GPa)
#
#
# Indices 1 2 3 4 5 6 
#
# 1 0.009092 -0.003412 -0.005093 0.007073 0.001213 -0.003201
# 2 -0.003412 0.026824 -0.007603 -0.003696 -0.002548 -0.013079
# 3 -0.005093 -0.007603 0.019948 -0.011462 -0.002603 0.005689
# 4 0.007073 -0.003696 -0.011462 0.035904 -0.000412 -0.005428
# 5 0.001213 -0.002548 -0.002603 -0.000412 0.034955 -0.003652
# 6 -0.003201 -0.013079 0.005689 -0.005428 -0.003652 0.033535
#
#
# Mechanical properties :
#
#
# Convention : Reuss Voigt Hill
#
# Bulk Modulus (GPa) = 42.28420 68.17295 55.22857
# Shear Modulus (GPa) = 24.95554 36.17819 30.56687
#
# Velocity S-wave (km/s) = 3.10038 3.73297 3.43128
# Velocity P-wave (km/s) = 5.39476 6.69618 6.08039
#
# Compressibility (1/GPa) = 0.02364950
#
# Stress axis : x y z
#
# Youngs Moduli (GPa) = 109.98138 37.28066 50.12981
#
# Poissons Ratio (x) = 0.12721 0.25529
# Poissons Ratio (y) = 0.37527 0.38112
# Poissons Ratio (z) = 0.56008 0.28343
#
# Static dielectric constant tensor:
#      x y z
#    x 2.031100 0.028400 0.050580 
#    y 0.028400 2.082740 0.000230 
#    z 0.050580 0.000230 2.115680 
# 
# From -- ./inp_files/239892.got.cif
#   From: 2010.05.17/outbox.cif.g08.bks.cpg/sg2_120_cif.got.tgz:239892.got - 2010.06.03 11:33:40.
