data_PCOD9109531
_publ_section_title
;
Structure prediction by ZEFSAII (Michael W. Deem and Ramdas Pophale) SiO2 
 PCOD9109531
Probable space group: P -1
;
_chemical_formula_sum "Si O2"
_cell_formula_units_Z 14
_cell_length_a 14.829119
_cell_length_b 9.356598
_cell_length_c 16.669770
_cell_angle_alpha 147.672862
_cell_angle_beta 26.257158
_cell_angle_gamma 142.963512
_cell_volume 539.130783
_symmetry_space_group_name_H-M "P -1"
_symmetry_group_IT_number 2
_symmetry_cell_setting 'triclinic'
loop_
_space_group_symop_operation_xyz
x,y,z
-x,-y,-z
loop_
_atom_site_type_symbol
_atom_site_label
_atom_site_fract_x
_atom_site_fract_y
_atom_site_fract_z
Si Si1 0.199627 0.597225 0.611144
Si Si2 0.208801 0.615437 0.439864
Si Si3 0.808250 0.320315 0.983474
Si Si4 0.589199 0.967971 0.240560
Si Si5 0.420940 0.227438 0.361916
Si Si6 0.167223 0.793440 0.265604
Si Si7 0.019709 0.919986 0.128098
O O1 0.259192 0.487157 0.424373
O O2 0.304555 0.894472 0.697869
O O3 0.261350 0.413524 0.548218
O O4 0.951823 0.508585 0.764078
O O5 0.000000 0.500000 0.500000
O O6 0.421506 0.699876 0.262357
O O7 0.152061 0.895036 0.653063
O O8 0.623243 0.331855 0.197842
O O9 0.941658 0.619691 0.014892
O O10 0.743631 0.213464 0.897326
O O11 0.936065 0.118695 0.831373
O O12 0.465423 0.186351 0.399542
O O13 0.772984 0.953214 0.024094
O O14 0.336634 0.921573 0.254054
O O15 0.000000 0.000000 0.500000
#
# Coordination Sequence:
#
# PCOD9109531 Si02
#       7
#     2   2   2   2   2   2   2
#     4  11  23  42  65  98 130 176 216 263 330 394
#     4  12  28  45  67  95 138 175 216 270 330 393
#     4  10  20  41  66 100 130 164 223 273 318 387
#     4  11  23  45  68  93 132 171 225 269 322 390
#     4  10  22  37  68 101 128 169 216 276 326 375
#     4  10  21  36  64  98 133 165 212 271 326 379
#     4  10  24  42  69  98 128 175 221 267 325 388
#
# _framework density 25.967725000000002
#
# number of rings (size 3 to 8) (size 9 to 14) (size 15 to 20)
#    0.000    1.429    1.429    3.000    8.000    1.143 
#    2.571    0.000    0.000    0.000    0.000    0.000 
#    0.000    0.000    0.000    0.000    0.000    0.000 
#
# Total GULP energy -78257.368704 kJ/mol
# GULP energy per Si atom -5589.812050 kJ/mol
# Density = 2.590862 g / cm^3
# Si number density = 25.967725 Si / 1000 Ang^3
#
#
#
# Elastic Constant Matrix: (Units=GPa)
#
#
# Indices 1 2 3 4 5 6 
#
# 1 130.2960 50.0105 9.7386 3.0733 37.8884 24.8341
# 2 50.0105 108.1230 21.7909 -33.4296 8.1128 26.0153
# 3 9.7386 21.7909 57.1878 -16.8073 5.9290 0.9003
# 4 3.0733 -33.4296 -16.8073 37.6462 -4.1258 -9.2207
# 5 37.8884 8.1128 5.9290 -4.1258 41.0352 4.1920
# 6 24.8341 26.0153 0.9003 -9.2207 4.1920 45.1328
#
#
#
# Elastic Compliance Matrix: (Units=1/GPa)
#
#
# Indices 1 2 3 4 5 6 
#
# 1 0.016725 -0.009098 -0.001658 -0.013029 -0.014175 -0.005270
# 2 -0.009098 0.019334 -0.001409 0.017243 0.006845 -0.003223
# 3 -0.001658 -0.001409 0.020952 0.008950 -0.000645 0.003195
# 4 -0.013029 0.017243 0.008950 0.049716 0.011701 0.006122
# 5 -0.014175 0.006845 -0.000645 0.011701 0.037087 0.002813
# 6 -0.005270 -0.003223 0.003195 0.006122 0.002813 0.027840
#
#
# Mechanical properties :
#
#
# Convention : Reuss Voigt Hill
#
# Bulk Modulus (GPa) = 30.59874 50.96522 40.78198
# Shear Modulus (GPa) = 24.16882 39.03396 31.60139
#
# Velocity S-wave (km/s) = 3.05409 3.88128 3.49226
# Velocity P-wave (km/s) = 4.92398 6.30514 5.65687
#
# Compressibility (1/GPa) = 0.03268109
#
# Stress axis : x y z
#
# Youngs Moduli (GPa) = 59.79162 51.72229 47.72711
#
# Poissons Ratio (x) = 0.47058 0.07913
# Poissons Ratio (y) = 0.54400 0.06724
# Poissons Ratio (z) = 0.09913 0.07287
#
# Static dielectric constant tensor:
#      x y z
#    x 2.172600 -0.073340 -0.040520 
#    y -0.073340 2.157110 0.011130 
#    z -0.040520 0.011130 1.992110 
# 
# From -- ./inp_files/279769.got.cif
#   From: 2010.05.17/outbox.cif.g08.bks.cpg/sg2_140_cif.got.tgz:279769.got - 2010.06.03 11:33:40.
