data_PCOD9109585
_publ_section_title
;
Structure prediction by ZEFSAII (Michael W. Deem and Ramdas Pophale) SiO2 
 PCOD9109585
Probable space group: P -1
;
_chemical_formula_sum "Si O2"
_cell_formula_units_Z 14
_cell_length_a 8.774658
_cell_length_b 8.118218
_cell_length_c 17.404109
_cell_angle_alpha 33.854181
_cell_angle_beta 112.375957
_cell_angle_gamma 107.379740
_cell_volume 638.286767
_symmetry_space_group_name_H-M "P -1"
_symmetry_group_IT_number 2
_symmetry_cell_setting 'triclinic'
loop_
_space_group_symop_operation_xyz
x,y,z
-x,-y,-z
loop_
_atom_site_type_symbol
_atom_site_label
_atom_site_fract_x
_atom_site_fract_y
_atom_site_fract_z
Si Si1 0.698452 0.097401 0.823783
Si Si2 0.827594 0.055542 0.354561
Si Si3 0.559908 0.431518 0.450026
Si Si4 0.165720 0.175163 0.709303
Si Si5 0.026335 0.508882 0.311873
Si Si6 0.457556 0.813103 0.990627
Si Si7 0.443676 0.140417 0.262808
O O1 0.569280 0.378067 0.699066
O O2 0.872463 0.246193 0.809251
O O3 0.621963 0.840176 0.959430
O O4 0.679746 0.977209 0.779933
O O5 0.632642 0.098443 0.285950
O O6 0.895312 0.339124 0.301066
O O7 0.912584 0.993854 0.312201
O O8 0.859626 0.764499 0.526594
O O9 0.500000 0.500000 0.500000
O O10 0.734920 0.562648 0.413817
O O11 0.566047 0.079169 0.582004
O O12 0.053340 0.321165 0.696582
O O13 0.302024 0.958040 0.859646
O O14 0.417583 0.485017 0.135124
O O15 0.500000 0.000000 0.000000
#
# Coordination Sequence:
#
# PCOD9109585 Si02
#       7
#     2   2   2   2   2   2   2
#     4  10  20  41  66  90 126 165 215 265 316 373
#     4  11  21  39  67  95 133 165 209 263 333 372
#     4   9  16  35  68  94 117 160 216 259 308 377
#     4  11  22  43  66  93 135 169 208 267 325 380
#     4  11  24  40  64 103 129 164 211 272 321 382
#     4  11  24  42  65  95 126 170 222 264 309 385
#     4  11  19  40  70  91 122 172 216 256 323 382
#
# _framework density 21.933714999999999
#
# number of rings (size 3 to 8) (size 9 to 14) (size 15 to 20)
#    0.000    1.429    5.714    2.571    0.000    0.000 
#    7.714    5.714    0.000    0.000    0.000    0.000 
#    0.000    0.000    0.000    0.000    0.000    0.000 
#
# Total GULP energy -78163.656200 kJ/mol
# GULP energy per Si atom -5583.118300 kJ/mol
# Density = 2.188379 g / cm^3
# Si number density = 21.933715 Si / 1000 Ang^3
#
#
#
# Elastic Constant Matrix: (Units=GPa)
#
#
# Indices 1 2 3 4 5 6 
#
# 1 32.6830 -7.1347 -13.3420 -4.7392 -2.4299 8.0136
# 2 -7.1347 83.2443 15.8330 -14.0612 0.7747 4.0669
# 3 -13.3420 15.8330 108.9219 -27.9955 -1.7169 4.7074
# 4 -4.7392 -14.0612 -27.9955 33.2782 1.7859 -7.0360
# 5 -2.4299 0.7747 -1.7169 1.7859 18.3205 -4.6818
# 6 8.0136 4.0669 4.7074 -7.0360 -4.6818 22.7638
#
#
#
# Elastic Compliance Matrix: (Units=1/GPa)
#
#
# Indices 1 2 3 4 5 6 
#
# 1 0.039474 0.004418 0.007632 0.011186 0.001479 -0.012502
# 2 0.004418 0.013503 0.000227 0.006086 -0.001163 -0.002373
# 3 0.007632 0.000227 0.013231 0.011931 0.000660 -0.001640
# 4 0.011186 0.006086 0.011931 0.045655 -0.000438 0.006529
# 5 0.001479 -0.001163 0.000660 -0.000438 0.057823 0.011308
# 6 -0.012502 -0.002373 -0.001640 0.006529 0.011308 0.053437
#
#
# Mechanical properties :
#
#
# Convention : Reuss Voigt Hill
#
# Bulk Modulus (GPa) = 11.01784 23.95134 17.48459
# Shear Modulus (GPa) = 21.85086 30.17203 26.01145
#
# Velocity S-wave (km/s) = 3.15972 3.71293 3.44744
# Velocity P-wave (km/s) = 4.28322 5.41523 4.88215
#
# Compressibility (1/GPa) = 0.09076187
#
# Stress axis : x y z
#
# Youngs Moduli (GPa) = 25.33291 74.05655 75.58284
#
# Poissons Ratio (x) = -0.32720 -0.57683
# Poissons Ratio (y) = -0.11193 -0.01715
# Poissons Ratio (z) = -0.19333 -0.01681
#
# Static dielectric constant tensor:
#      x y z
#    x 1.837800 -0.042740 -0.011890 
#    y -0.042740 1.849210 0.023470 
#    z -0.011890 0.023470 1.867350 
# 
# From -- ./inp_files/587103.got.cif
#   From: 2010.05.17/outbox.cif.g08.bks.cpg/sg2_294_cif.got.tgz:587103.got - 2010.06.03 11:33:40.
