data_PCOD9109787
_publ_section_title
;
Structure prediction by ZEFSAII (Michael W. Deem and Ramdas Pophale) SiO2 
 PCOD9109787
Probable space group: P -1
;
_chemical_formula_sum "Si O2"
_cell_formula_units_Z 14
_cell_length_a 14.808778
_cell_length_b 7.600241
_cell_length_c 7.497398
_cell_angle_alpha 98.785284
_cell_angle_beta 97.462832
_cell_angle_gamma 136.771287
_cell_volume 533.687860
_symmetry_space_group_name_H-M "P -1"
_symmetry_group_IT_number 2
_symmetry_cell_setting 'triclinic'
loop_
_space_group_symop_operation_xyz
x,y,z
-x,-y,-z
loop_
_atom_site_type_symbol
_atom_site_label
_atom_site_fract_x
_atom_site_fract_y
_atom_site_fract_z
Si Si1 0.633115 0.620730 0.248568
Si Si2 0.162597 0.786510 0.547041
Si Si3 0.152962 0.691905 0.149257
Si Si4 0.117850 0.233687 0.205453
Si Si5 0.641165 0.201409 0.952756
Si Si6 0.601214 0.469237 0.804251
Si Si7 0.774708 0.505936 0.373243
O O1 0.523454 0.593965 0.303676
O O2 0.655938 0.481243 0.354107
O O3 0.775898 0.947680 0.305069
O O4 0.596410 0.504201 0.021213
O O5 0.174806 0.842751 0.350220
O O6 0.245529 0.730079 0.612952
O O7 0.000000 0.500000 0.500000
O O8 0.147017 0.480846 0.190077
O O9 0.290904 0.888143 0.089762
O O10 0.000000 0.500000 0.000000
O O11 0.245475 0.287117 0.204897
O O12 0.107072 0.242002 0.419500
O O13 0.000000 0.000000 0.000000
O O14 0.770537 0.479307 0.151222
O O15 0.591511 0.240046 0.773783
O O16 0.500000 0.000000 0.000000
#
# Coordination Sequence:
#
# PCOD9109787 Si02
#       7
#     2   2   2   2   2   2   2
#     4  10  22  41  65  92 130 168 216 267 320 400
#     4  11  24  40  64  97 134 173 218 270 327 392
#     4  10  23  41  59  95 128 166 218 266 328 389
#     4  10  23  41  63  90 131 168 214 276 323 390
#     4  10  20  41  67  92 131 172 216 271 329 393
#     4   9  21  41  63  93 128 171 215 264 331 388
#     4  10  23  41  62  98 123 171 220 261 334 384
#
# _framework density 26.232561
#
# number of rings (size 3 to 8) (size 9 to 14) (size 15 to 20)
#    0.000    2.000    0.000    1.714    6.000    2.286 
#    5.143    4.286    0.000    0.000    0.000    0.000 
#    0.000    0.000    0.000    0.000    0.000    0.000 
#
# Total GULP energy -78008.162517 kJ/mol
# GULP energy per Si atom -5572.011608 kJ/mol
# Density = 2.617285 g / cm^3
# Si number density = 26.232561 Si / 1000 Ang^3
#
#
#
# Elastic Constant Matrix: (Units=GPa)
#
#
# Indices 1 2 3 4 5 6 
#
# 1 158.6030 37.6903 11.7114 -11.2978 34.2489 8.0361
# 2 37.6903 64.8890 3.9379 2.4997 10.2299 0.7180
# 3 11.7114 3.9379 90.6397 -4.8543 5.6993 3.7733
# 4 -11.2978 2.4997 -4.8543 33.2076 -3.6091 -1.2769
# 5 34.2489 10.2299 5.6993 -3.6091 37.8859 -5.7181
# 6 8.0361 0.7180 3.7733 -1.2769 -5.7181 45.7829
#
#
#
# Elastic Compliance Matrix: (Units=1/GPa)
#
#
# Indices 1 2 3 4 5 6 
#
# 1 0.009202 -0.004256 -0.000316 0.002528 -0.007237 -0.002356
# 2 -0.004256 0.018216 -0.000332 -0.002996 -0.001269 0.000247
# 3 -0.000316 -0.000332 0.011288 0.001383 -0.001342 -0.000999
# 4 0.002528 -0.002996 0.001383 0.031575 0.001406 0.000546
# 5 -0.007237 -0.001269 -0.001342 0.001406 0.034483 0.005747
# 6 -0.002356 0.000247 -0.000999 0.000546 0.005747 0.023067
#
#
# Mechanical properties :
#
#
# Convention : Reuss Voigt Hill
#
# Bulk Modulus (GPa) = 34.60491 46.75676 40.68084
# Shear Modulus (GPa) = 33.95083 40.76141 37.35612
#
# Velocity S-wave (km/s) = 3.60144 3.94616 3.77773
# Velocity P-wave (km/s) = 5.52395 6.21495 5.87961
#
# Compressibility (1/GPa) = 0.02889763
#
# Stress axis : x y z
#
# Youngs Moduli (GPa) = 108.67352 54.89661 88.58995
#
# Poissons Ratio (x) = 0.23365 0.02796
# Poissons Ratio (y) = 0.46253 0.02945
# Poissons Ratio (z) = 0.03429 0.01825
#
# Static dielectric constant tensor:
#      x y z
#    x 2.168210 0.020500 -0.073700 
#    y 0.020500 2.206330 0.026450 
#    z -0.073700 0.026450 2.233880 
# 
# From -- ./inp_files/223191.got.cif
#   From: 2010.05.17/outbox.cif.g08.bks.cpg/sg2_112_cif.got.tgz:223191.got - 2010.06.03 11:33:40.
