data_PCOD9109720
_publ_section_title
;
Structure prediction by ZEFSAII (Michael W. Deem and Ramdas Pophale) SiO2 
 PCOD9109720
Probable space group: P -1
;
_chemical_formula_sum "Si O2"
_cell_formula_units_Z 12
_cell_length_a 12.783218
_cell_length_b 7.497063
_cell_length_c 6.597175
_cell_angle_alpha 117.504565
_cell_angle_beta 112.545125
_cell_angle_gamma 98.110233
_cell_volume 477.278378
_symmetry_space_group_name_H-M "P -1"
_symmetry_group_IT_number 2
_symmetry_cell_setting 'triclinic'
loop_
_space_group_symop_operation_xyz
x,y,z
-x,-y,-z
loop_
_atom_site_type_symbol
_atom_site_label
_atom_site_fract_x
_atom_site_fract_y
_atom_site_fract_z
Si Si1 0.467414 0.643301 0.721576
Si Si2 0.083193 0.340903 0.188332
Si Si3 0.810496 0.271407 0.864952
Si Si4 0.258471 0.449836 0.753864
Si Si5 0.320973 0.950259 0.698554
Si Si6 0.126150 0.062316 0.749506
O O1 0.500000 0.500000 0.500000
O O2 0.382020 0.484760 0.745954
O O3 0.383186 0.772493 0.649902
O O4 0.581514 0.834558 0.011583
O O5 0.142191 0.540715 0.177404
O O6 0.148892 0.389891 0.477875
O O7 0.107991 0.144121 0.997468
O O8 0.938529 0.283267 0.056561
O O9 0.727046 0.053903 0.569965
O O10 0.731363 0.333744 0.004521
O O11 0.218364 0.266936 0.798677
O O12 0.193603 0.895629 0.700589
O O13 0.000000 0.000000 0.500000
#
# Coordination Sequence:
#
# PCOD9109720 Si02
#       6
#     2   2   2   2   2   2
#     4  11  26  50  76  97 143 195 240 301 345 419
#     4  10  20  41  67 100 151 183 227 287 355 422
#     4  10  21  39  69 104 139 185 231 294 346 419
#     4  11  24  42  71 103 139 196 235 286 361 420
#     4  11  24  47  70 105 142 185 241 294 349 416
#     4  11  24  44  69 107 148 182 231 299 355 424
#
# _framework density 25.142558000000001
#
# number of rings (size 3 to 8) (size 9 to 14) (size 15 to 20)
#    0.000    1.333    3.333    1.500    2.333    3.333 
#    9.000    0.000    0.000    0.000    0.000    0.000 
#    0.000    0.000    0.000    0.000    0.000    0.000 
#
# Total GULP energy -67179.236456 kJ/mol
# GULP energy per Si atom -5598.269705 kJ/mol
# Density = 2.508533 g / cm^3
# Si number density = 25.142558 Si / 1000 Ang^3
#
#
#
# Elastic Constant Matrix: (Units=GPa)
#
#
# Indices 1 2 3 4 5 6 
#
# 1 180.8238 28.7530 67.5517 16.5498 -15.1057 -11.6514
# 2 28.7530 80.4679 10.3469 1.1756 -9.1703 -1.0556
# 3 67.5517 10.3469 160.9846 29.0292 -14.7023 -11.0794
# 4 16.5498 1.1756 29.0292 36.4970 -10.8133 -7.2159
# 5 -15.1057 -9.1703 -14.7023 -10.8133 68.6169 -5.3681
# 6 -11.6514 -1.0556 -11.0794 -7.2159 -5.3681 35.2459
#
#
#
# Elastic Compliance Matrix: (Units=1/GPa)
#
#
# Indices 1 2 3 4 5 6 
#
# 1 0.007017 -0.002068 -0.002537 -0.000589 0.000746 0.001453
# 2 -0.002068 0.013326 -0.000023 0.000995 0.001488 0.000139
# 3 -0.002537 -0.000023 0.008305 -0.005161 0.000466 0.000786
# 4 -0.000589 0.000995 -0.005161 0.034335 0.004775 0.005969
# 5 0.000746 0.001488 0.000466 0.004775 0.016092 0.003866
# 6 0.001453 0.000139 0.000786 0.005969 0.003866 0.030914
#
#
# Mechanical properties :
#
#
# Convention : Reuss Voigt Hill
#
# Bulk Modulus (GPa) = 51.56740 70.61993 61.09367
# Shear Modulus (GPa) = 39.77445 49.11362 44.44403
#
# Velocity S-wave (km/s) = 3.98170 4.42453 4.20894
# Velocity P-wave (km/s) = 6.45702 7.36551 6.92618
#
# Compressibility (1/GPa) = 0.01939210
#
# Stress axis : x y z
#
# Youngs Moduli (GPa) = 142.51585 75.04008 120.40726
#
# Poissons Ratio (x) = 0.15521 0.30549
# Poissons Ratio (y) = 0.29478 0.00271
# Poissons Ratio (z) = 0.36158 0.00169
#
# Static dielectric constant tensor:
#      x y z
#    x 1.988590 -0.064670 -0.010690 
#    y -0.064670 2.133400 0.060360 
#    z -0.010690 0.060360 1.981530 
# 
# From -- ./inp_files/61301.got.cif
#   From: 2010.05.17/outbox.cif.g08.bks.cpg/sg2_31_cif.got.tgz:61301.got - 2010.06.03 11:33:40.
