data_PCOD9109793
_publ_section_title
;
Structure prediction by ZEFSAII (Michael W. Deem and Ramdas Pophale) SiO2 
 PCOD9109793
Probable space group: P -1
;
_chemical_formula_sum "Si O2"
_cell_formula_units_Z 14
_cell_length_a 9.591330
_cell_length_b 9.789684
_cell_length_c 11.104021
_cell_angle_alpha 63.675451
_cell_angle_beta 141.300730
_cell_angle_gamma 91.121519
_cell_volume 474.855799
_symmetry_space_group_name_H-M "P -1"
_symmetry_group_IT_number 2
_symmetry_cell_setting 'triclinic'
loop_
_space_group_symop_operation_xyz
x,y,z
-x,-y,-z
loop_
_atom_site_type_symbol
_atom_site_label
_atom_site_fract_x
_atom_site_fract_y
_atom_site_fract_z
Si Si1 0.951290 0.621715 0.272612
Si Si2 0.779696 0.883634 0.660551
Si Si3 0.170263 0.749771 0.161824
Si Si4 0.627662 0.629100 0.682062
Si Si5 0.468925 0.511706 0.830942
Si Si6 0.785881 0.811606 0.426265
Si Si7 0.620003 0.139312 0.055214
O O1 0.998325 0.721546 0.156414
O O2 0.183522 0.571812 0.550243
O O3 0.034312 0.416078 0.364162
O O4 0.649659 0.753010 0.077883
O O5 0.845343 0.675911 0.796195
O O6 0.743622 0.912114 0.484417
O O7 0.500000 0.000000 0.500000
O O8 0.985714 0.897732 0.875974
O O9 0.381300 0.769954 0.367750
O O10 0.327092 0.557604 0.266348
O O11 0.541228 0.636949 0.759188
O O12 0.500000 0.500000 0.000000
O O13 0.686493 0.290271 0.035129
O O14 0.851274 0.929642 0.336248
O O15 0.506017 0.864753 0.154069
#
# Coordination Sequence:
#
# PCOD9109793 Si02
#       7
#     2   2   2   2   2   2   2
#     4  10  20  41  67  93 122 171 215 261 332 381
#     4  12  25  40  68  97 129 174 218 271 326 388
#     4  10  22  41  67  96 124 171 217 267 330 384
#     4  10  23  42  65  94 131 164 219 271 321 394
#     4  10  22  36  63  92 125 167 211 262 323 388
#     4  10  21  38  64  95 126 162 219 265 317 384
#     4  10  22  40  66  92 128 170 211 265 323 390
#
# _framework density 29.482635999999999
#
# number of rings (size 3 to 8) (size 9 to 14) (size 15 to 20)
#    0.000    1.714    1.429    3.000    6.000    1.714 
#    0.000    0.000    3.143    7.714    0.000    0.000 
#    0.000    0.000    0.000    0.000    0.000    0.000 
#
# Total GULP energy -78349.977089 kJ/mol
# GULP energy per Si atom -5596.426935 kJ/mol
# Density = 2.941553 g / cm^3
# Si number density = 29.482636 Si / 1000 Ang^3
#
#
#
# Elastic Constant Matrix: (Units=GPa)
#
#
# Indices 1 2 3 4 5 6 
#
# 1 128.3946 12.3729 32.4733 29.7172 -28.4054 -18.3532
# 2 12.3729 132.9917 44.0114 6.3479 -13.4468 -16.5632
# 3 32.4733 44.0114 119.0617 33.5742 -27.7320 -25.7726
# 4 29.7172 6.3479 33.5742 59.9150 -10.9238 -4.0125
# 5 -28.4054 -13.4468 -27.7320 -10.9238 52.8402 10.6683
# 6 -18.3532 -16.5632 -25.7726 -4.0125 10.6683 61.6796
#
#
#
# Elastic Compliance Matrix: (Units=1/GPa)
#
#
# Indices 1 2 3 4 5 6 
#
# 1 0.009917 -0.000011 -0.000253 -0.003919 0.004003 0.001895
# 2 -0.000011 0.008695 -0.003155 0.001021 0.000564 0.000982
# 3 -0.000253 -0.003155 0.012944 -0.005843 0.003956 0.003422
# 4 -0.003919 0.001021 -0.005843 0.021663 -0.000048 -0.001916
# 5 0.004003 0.000564 0.003956 -0.000048 0.023503 -0.001073
# 6 0.001895 0.000982 0.003422 -0.001916 -0.001073 0.018531
#
#
# Mechanical properties :
#
#
# Convention : Reuss Voigt Hill
#
# Bulk Modulus (GPa) = 40.45696 62.01815 51.23755
# Shear Modulus (GPa) = 45.31819 54.32634 49.82227
#
# Velocity S-wave (km/s) = 3.92486 4.29727 4.11528
# Velocity P-wave (km/s) = 5.85589 6.76042 6.32434
#
# Compressibility (1/GPa) = 0.02471763
#
# Stress axis : x y z
#
# Youngs Moduli (GPa) = 100.83643 115.00859 77.25538
#
# Poissons Ratio (x) = 0.00128 0.01955
# Poissons Ratio (y) = 0.00112 0.24375
# Poissons Ratio (z) = 0.02552 0.36286
#
# Static dielectric constant tensor:
#      x y z
#    x 2.379070 -0.008840 0.031600 
#    y -0.008840 2.409520 -0.185900 
#    z 0.031600 -0.185900 2.524950 
# 
# From -- ./inp_files/345011.got.cif
#   From: 2010.05.17/outbox.cif.g08.bks.cpg/sg2_173_cif.got.tgz:345011.got - 2010.06.03 11:33:40.
