data_PCOD9109112
_publ_section_title
;
Structure prediction by ZEFSAII (Michael W. Deem and Ramdas Pophale) SiO2 
 PCOD9109112
Probable space group: P -1
;
_chemical_formula_sum "Si O2"
_cell_formula_units_Z 13
_cell_length_a 11.622623
_cell_length_b 14.952708
_cell_length_c 12.187856
_cell_angle_alpha 26.971567
_cell_angle_beta 40.561866
_cell_angle_gamma 35.096812
_cell_volume 548.552662
_symmetry_space_group_name_H-M "P -1"
_symmetry_group_IT_number 2
_symmetry_cell_setting 'triclinic'
loop_
_space_group_symop_operation_xyz
x,y,z
-x,-y,-z
loop_
_atom_site_type_symbol
_atom_site_label
_atom_site_fract_x
_atom_site_fract_y
_atom_site_fract_z
Si Si1 0.933339 0.322372 0.869665
Si Si2 0.500000 0.000000 0.500000
Si Si3 0.204877 0.260536 0.934015
Si Si4 0.387480 0.784047 0.405554
Si Si5 0.928104 0.263869 0.463092
Si Si6 0.944761 0.789557 0.335212
Si Si7 0.665944 0.197175 0.333995
O O1 0.927115 0.560100 0.601281
O O2 0.113358 0.198719 0.962156
O O3 0.976783 0.203702 0.850032
O O4 0.735483 0.343942 0.048806
O O5 0.719997 0.974236 0.328743
O O6 0.486244 0.868470 0.543302
O O7 0.400685 0.277563 0.735980
O O8 0.050829 0.510343 0.812583
O O9 0.271351 0.056987 0.191544
O O10 0.253308 0.713433 0.505265
O O11 0.412229 0.695403 0.607955
O O12 0.910748 0.239667 0.634030
O O13 0.129083 0.036870 0.537481
#
# Coordination Sequence:
#
# PCOD9109112 Si02
#       7
#     2   1   2   2   2   2   2
#     4  10  20  41  63  86 118 166 195 248 300 361
#     4  10  22  40  56  92 118 150 202 258 290 352
#     4  10  22  39  63  88 124 157 204 246 300 351
#     4  11  22  41  60  91 123 160 197 252 297 360
#     4  10  21  39  62  92 115 161 199 244 299 362
#     4   9  21  40  63  88 121 153 208 244 301 356
#     4  11  23  40  62  87 124 158 201 248 305 354
#
# _framework density 23.698727000000002
#
# number of rings (size 3 to 8) (size 9 to 14) (size 15 to 20)
#    0.000    1.846    1.538    1.846    0.000    3.692 
#   11.077    1.538    0.000    0.000    0.000    0.000 
#    0.000    0.000    0.000    0.000    0.000    0.000 
#
# Total GULP energy -72420.749508 kJ/mol
# GULP energy per Si atom -5570.826885 kJ/mol
# Density = 2.364479 g / cm^3
# Si number density = 23.698727 Si / 1000 Ang^3
#
#
#
# Elastic Constant Matrix: (Units=GPa)
#
#
# Indices 1 2 3 4 5 6 
#
# 1 176.5657 7.7132 29.3248 36.1445 -26.0554 25.0904
# 2 7.7132 38.0348 17.7309 5.3557 8.3559 16.8289
# 3 29.3248 17.7309 86.3593 18.4223 7.9726 17.2870
# 4 36.1445 5.3557 18.4223 34.0748 9.3602 7.8378
# 5 -26.0554 8.3559 7.9726 9.3602 33.1622 -0.3406
# 6 25.0904 16.8289 17.2870 7.8378 -0.3406 37.0638
#
#
#
# Elastic Compliance Matrix: (Units=1/GPa)
#
#
# Indices 1 2 3 4 5 6 
#
# 1 0.011205 -0.001170 -0.001123 -0.013944 0.013269 -0.003460
# 2 -0.001170 0.036775 -0.004037 0.003964 -0.010487 -0.014958
# 3 -0.001123 -0.004037 0.014651 -0.004779 -0.002072 -0.003249
# 4 -0.013944 0.003964 -0.004779 0.053623 -0.025959 -0.001710
# 5 0.013269 -0.010487 -0.002072 -0.025959 0.051076 0.002704
# 6 -0.003460 -0.014958 -0.003249 -0.001710 0.002704 0.038016
#
#
# Mechanical properties :
#
#
# Convention : Reuss Voigt Hill
#
# Bulk Modulus (GPa) = 20.01076 45.61085 32.81081
# Shear Modulus (GPa) = 21.30734 37.27289 29.29011
#
# Velocity S-wave (km/s) = 3.00174 3.97013 3.51940
# Velocity P-wave (km/s) = 4.52505 6.34853 5.51271
#
# Compressibility (1/GPa) = 0.04997311
#
# Stress axis : x y z
#
# Youngs Moduli (GPa) = 89.24227 27.19266 68.25674
#
# Poissons Ratio (x) = 0.03181 0.07662
# Poissons Ratio (y) = 0.10438 0.27552
# Poissons Ratio (z) = 0.10018 0.10976
#
# Static dielectric constant tensor:
#      x y z
#    x 1.951800 -0.004660 -0.021550 
#    y -0.004660 1.950790 -0.054300 
#    z -0.021550 -0.054300 1.947090 
# 
# From -- ./inp_files/213470.got.cif
#   From: 2010.05.17/outbox.cif.g08.bks.cpg/sg2_107_cif.got.tgz:213470.got - 2010.06.03 11:33:40.
