data_PCOD9109097
_publ_section_title
;
Structure prediction by ZEFSAII (Michael W. Deem and Ramdas Pophale) SiO2 
 PCOD9109097
Probable space group: P -1
;
_chemical_formula_sum "Si O2"
_cell_formula_units_Z 16
_cell_length_a 11.871359
_cell_length_b 15.447442
_cell_length_c 6.665280
_cell_angle_alpha 100.438149
_cell_angle_beta 99.167374
_cell_angle_gamma 134.028647
_cell_volume 790.834906
_symmetry_space_group_name_H-M "P -1"
_symmetry_group_IT_number 2
_symmetry_cell_setting 'triclinic'
loop_
_space_group_symop_operation_xyz
x,y,z
-x,-y,-z
loop_
_atom_site_type_symbol
_atom_site_label
_atom_site_fract_x
_atom_site_fract_y
_atom_site_fract_z
Si Si1 0.031176 0.717666 0.412902
Si Si2 0.720569 0.458822 0.459449
Si Si3 0.452396 0.720698 0.060824
Si Si4 0.986676 0.017569 0.773805
Si Si5 0.230691 0.314431 0.858595
Si Si6 0.828791 0.375383 0.780376
Si Si7 0.807783 0.003914 0.391104
Si Si8 0.490465 0.569389 0.287258
O O1 0.894196 0.606301 0.493503
O O2 0.906798 0.686756 0.194211
O O3 0.136395 0.696182 0.350665
O O4 0.153489 0.870622 0.561547
O O5 0.780610 0.420718 0.620980
O O6 0.583231 0.443426 0.525457
O O7 0.626838 0.356850 0.204082
O O8 0.321774 0.709798 0.134495
O O9 0.468297 0.641762 0.166839
O O10 0.636478 0.873541 0.179120
O O11 0.138390 0.173752 0.841400
O O12 0.820998 0.970890 0.608828
O O13 0.031645 0.953848 0.644975
O O14 0.000000 0.000000 0.000000
O O15 0.318211 0.350994 0.680591
O O16 0.371892 0.424841 0.103003
O O17 0.000000 0.500000 0.000000
#
# Coordination Sequence:
#
# PCOD9109097 Si02
#       8
#     2   2   2   2   2   2   2   2
#     4  11  22  41  65  97 126 169 221 265 318 388
#     4  11  23  40  71  94 124 175 220 261 334 387
#     4  11  22  44  64  94 133 172 212 270 325 385
#     4  10  22  41  66  89 131 183 209 254 326 394
#     4  10  20  41  62  96 133 163 213 276 321 372
#     4  11  23  43  71  93 128 165 219 283 321 370
#     4  10  24  43  60  95 139 164 216 267 316 387
#     4  10  21  38  63  96 131 163 216 273 319 379
#
# _framework density 20.231781999999999
#
# number of rings (size 3 to 8) (size 9 to 14) (size 15 to 20)
#    0.000    1.500    3.750    1.125    1.750    3.000 
#    0.000    0.625    0.000    0.000    0.000    0.000 
#    0.000    0.000    0.000    0.000    0.000    0.000 
#
# Total GULP energy -89311.619481 kJ/mol
# GULP energy per Si atom -5581.976218 kJ/mol
# Density = 2.018573 g / cm^3
# Si number density = 20.231782 Si / 1000 Ang^3
#
#
#
# Elastic Constant Matrix: (Units=GPa)
#
#
# Indices 1 2 3 4 5 6 
#
# 1 109.0085 33.3237 28.0187 1.2974 -20.5758 -4.8844
# 2 33.3237 99.5995 60.3931 15.1750 -8.0652 -4.0216
# 3 28.0187 60.3931 103.9660 -4.9660 -5.8366 3.3814
# 4 1.2974 15.1750 -4.9660 32.6333 4.6412 -0.3668
# 5 -20.5758 -8.0652 -5.8366 4.6412 32.9384 5.1091
# 6 -4.8844 -4.0216 3.3814 -0.3668 5.1091 29.0602
#
#
#
# Elastic Compliance Matrix: (Units=1/GPa)
#
#
# Indices 1 2 3 4 5 6 
#
# 1 0.011488 -0.002394 -0.001394 -0.000445 0.006305 0.000648
# 2 -0.002394 0.019697 -0.011291 -0.011091 0.002413 0.003073
# 3 -0.001394 -0.011291 0.016980 0.008025 -0.001221 -0.003457
# 4 -0.000445 -0.011091 0.008025 0.037996 -0.006791 -0.000870
# 5 0.006305 0.002413 -0.001221 -0.006791 0.036398 -0.004949
# 6 0.000648 0.003073 -0.003457 -0.000870 -0.004949 0.036207
#
#
# Mechanical properties :
#
#
# Convention : Reuss Voigt Hill
#
# Bulk Modulus (GPa) = 55.53106 61.78277 58.65692
# Shear Modulus (GPa) = 25.65096 31.64896 28.64996
#
# Velocity S-wave (km/s) = 3.56456 3.95944 3.76718
# Velocity P-wave (km/s) = 6.66697 7.17681 6.92658
#
# Compressibility (1/GPa) = 0.01800794
#
# Stress axis : x y z
#
# Youngs Moduli (GPa) = 87.04602 50.76989 58.89280
#
# Poissons Ratio (x) = 0.12155 0.08208
# Poissons Ratio (y) = 0.20839 0.66494
# Poissons Ratio (z) = 0.12132 0.57323
#
# Static dielectric constant tensor:
#      x y z
#    x 1.741220 0.012080 -0.002360 
#    y 0.012080 1.723360 -0.024680 
#    z -0.002360 -0.024680 1.765370 
# 
# From -- ./inp_files/78181.got.cif
#   From: 2010.05.17/outbox.cif.g08.bks.cpg/sg2_40_cif.got.tgz:78181.got - 2010.06.03 11:33:40.
