data_PCOD9109463
_publ_section_title
;
Structure prediction by ZEFSAII (Michael W. Deem and Ramdas Pophale) SiO2 
 PCOD9109463
Probable space group: P -1
;
_chemical_formula_sum "Si O2"
_cell_formula_units_Z 16
_cell_length_a 16.849846
_cell_length_b 26.663060
_cell_length_c 13.830168
_cell_angle_alpha 20.505747
_cell_angle_beta 157.301250
_cell_angle_gamma 158.826164
_cell_volume 724.458718
_symmetry_space_group_name_H-M "P -1"
_symmetry_group_IT_number 2
_symmetry_cell_setting 'triclinic'
loop_
_space_group_symop_operation_xyz
x,y,z
-x,-y,-z
loop_
_atom_site_type_symbol
_atom_site_label
_atom_site_fract_x
_atom_site_fract_y
_atom_site_fract_z
Si Si1 0.729575 0.655394 0.524566
Si Si2 0.496084 0.324794 0.575304
Si Si3 0.331051 0.116591 0.360190
Si Si4 0.077017 0.321768 0.639030
Si Si5 0.173358 0.805577 0.869399
Si Si6 0.113151 0.662258 0.401194
Si Si7 0.962999 0.819257 0.798531
Si Si8 0.090733 0.883472 0.354229
O O1 0.500000 0.500000 0.500000
O O2 0.621414 0.719278 0.371076
O O3 0.884323 0.766055 0.409349
O O4 0.940464 0.654970 0.826318
O O5 0.710839 0.513037 0.469537
O O6 0.302516 0.303510 0.316775
O O7 0.599234 0.207006 0.878436
O O8 0.603036 0.247350 0.450687
O O9 0.209819 0.979346 0.556087
O O10 0.188360 0.210654 0.003561
O O11 0.317765 0.002815 0.458709
O O12 0.892591 0.219208 0.530705
O O13 0.969167 0.367738 0.525871
O O14 0.132251 0.798661 0.949208
O O15 0.000000 0.500000 0.500000
O O16 0.021280 0.778621 0.041479
O O17 0.000000 0.000000 0.500000
O O18 0.000000 0.000000 0.000000
#
# Coordination Sequence:
#
# PCOD9109463 Si02
#       8
#     2   2   2   2   2   2   2   2
#     4  10  20  41  65  93 131 165 206 264 321 386
#     4  11  23  40  66  96 128 165 211 273 320 377
#     4  10  23  43  65  91 131 168 213 271 321 389
#     4  11  23  42  65  92 130 171 214 262 331 381
#     4  10  23  40  64  98 125 165 222 258 323 388
#     4  12  26  41  63  96 127 169 224 267 317 383
#     4  11  24  41  63  90 128 171 214 265 323 378
#     4   9  20  41  66  95 127 171 210 256 328 392
#
# _framework density 22.085453999999999
#
# number of rings (size 3 to 8) (size 9 to 14) (size 15 to 20)
#    0.000    1.500    1.250    3.000    0.000   12.000 
#    0.000    0.000    0.000    0.000    0.000    0.000 
#    0.000    0.000    0.000    0.000    0.000    0.000 
#
# Total GULP energy -89364.042855 kJ/mol
# GULP energy per Si atom -5585.252678 kJ/mol
# Density = 2.203519 g / cm^3
# Si number density = 22.085454 Si / 1000 Ang^3
#
#
#
# Elastic Constant Matrix: (Units=GPa)
#
#
# Indices 1 2 3 4 5 6 
#
# 1 128.1412 24.4754 18.2237 2.7237 2.2850 -15.8743
# 2 24.4754 118.2550 -8.4283 7.7067 1.3381 -10.5392
# 3 18.2237 -8.4283 50.4106 -7.2404 1.1902 9.6030
# 4 2.7237 7.7067 -7.2404 27.5757 5.4850 -1.6865
# 5 2.2850 1.3381 1.1902 5.4850 31.1075 1.7184
# 6 -15.8743 -10.5392 9.6030 -1.6865 1.7184 15.6165
#
#
#
# Elastic Compliance Matrix: (Units=1/GPa)
#
#
# Indices 1 2 3 4 5 6 
#
# 1 0.010929 -0.001368 -0.007135 -0.001481 -0.001012 0.014525
# 2 -0.001368 0.009302 0.001002 -0.001906 -0.000228 0.004090
# 3 -0.007135 0.001002 0.027898 0.006433 -0.000451 -0.022987
# 4 -0.001481 -0.001906 0.006433 0.039923 -0.007003 -0.001666
# 5 -0.001012 -0.000228 -0.000451 -0.007003 0.033780 -0.005379
# 6 0.014525 0.004090 -0.022987 -0.001666 -0.005379 0.096108
#
#
# Mechanical properties :
#
#
# Convention : Reuss Voigt Hill
#
# Bulk Modulus (GPa) = 30.18715 40.59427 35.39071
# Shear Modulus (GPa) = 20.49315 32.36233 26.42774
#
# Velocity S-wave (km/s) = 3.04945 3.83211 3.46296
# Velocity P-wave (km/s) = 5.10851 6.16446 5.66116
#
# Compressibility (1/GPa) = 0.03312667
#
# Stress axis : x y z
#
# Youngs Moduli (GPa) = 91.50075 107.50149 35.84514
#
# Poissons Ratio (x) = 0.14707 0.25577
# Poissons Ratio (y) = 0.12518 -0.03593
# Poissons Ratio (z) = 0.65289 -0.10775
#
# Static dielectric constant tensor:
#      x y z
#    x 1.805550 -0.030710 0.002280 
#    y -0.030710 1.837190 -0.030670 
#    z 0.002280 -0.030670 1.798900 
# 
# From -- ./inp_files/484353.got.cif
#   From: 2010.05.17/outbox.cif.g08.bks.cpg/sg2_243_cif.got.tgz:484353.got - 2010.06.03 11:33:40.
