data_PCOD9109983
_publ_section_title
;
Structure prediction by ZEFSAII (Michael W. Deem and Ramdas Pophale) SiO2 
 PCOD9109983
Probable space group: P -1
;
_chemical_formula_sum "Si O2"
_cell_formula_units_Z 16
_cell_length_a 9.162928
_cell_length_b 9.531133
_cell_length_c 15.943193
_cell_angle_alpha 84.537052
_cell_angle_beta 32.443835
_cell_angle_gamma 93.494690
_cell_volume 717.075113
_symmetry_space_group_name_H-M "P -1"
_symmetry_group_IT_number 2
_symmetry_cell_setting 'triclinic'
loop_
_space_group_symop_operation_xyz
x,y,z
-x,-y,-z
loop_
_atom_site_type_symbol
_atom_site_label
_atom_site_fract_x
_atom_site_fract_y
_atom_site_fract_z
Si Si1 0.265585 0.340263 0.792900
Si Si2 0.752498 0.447332 0.337366
Si Si3 0.252683 0.425866 0.378349
Si Si4 0.306036 0.518719 0.168274
Si Si5 0.594845 0.809983 0.099131
Si Si6 0.537818 0.886702 0.558142
Si Si7 0.865610 0.984118 0.159772
Si Si8 0.950855 0.101892 0.592597
O O1 0.093853 0.431829 0.815621
O O2 0.533353 0.478266 0.665616
O O3 0.269864 0.279390 0.890841
O O4 0.249409 0.189922 0.759541
O O5 0.500000 0.500000 0.500000
O O6 0.622037 0.281092 0.377676
O O7 0.988055 0.457535 0.294051
O O8 0.358177 0.435692 0.231571
O O9 0.000000 0.500000 0.500000
O O10 0.132623 0.262437 0.471399
O O11 0.403231 0.688666 0.138656
O O12 0.500000 0.500000 0.000000
O O13 0.371226 0.890710 0.241579
O O14 0.861900 0.927805 0.924562
O O15 0.377201 0.934542 0.713239
O O16 0.872606 0.922317 0.410527
O O17 0.500000 0.000000 0.500000
O O18 0.000000 0.000000 0.000000
O O19 0.000000 0.000000 0.500000
#
# Coordination Sequence:
#
# PCOD9109983 Si02
#       8
#     2   2   2   2   2   2   2   2
#     4  10  20  41  68  97 125 176 224 271 328 391
#     4  12  24  41  68  98 136 177 224 275 340 396
#     4  11  21  43  73  95 133 178 228 278 324 403
#     4  11  24  42  65  99 140 174 219 276 342 389
#     4  10  22  45  69  95 137 178 224 274 332 406
#     4  12  27  44  66 103 138 173 227 282 335 400
#     4  10  22  45  69  93 139 180 215 275 338 401
#     4  12  24  42  73 102 128 176 234 273 333 401
#
# _framework density 22.312864999999999
#
# number of rings (size 3 to 8) (size 9 to 14) (size 15 to 20)
#    0.000    1.000    3.750    4.500    1.750    0.000 
#    6.750    5.000    0.000    0.000    0.000    0.000 
#    0.000    0.000    0.000    0.000    0.000    0.000 
#
# Total GULP energy -89134.492791 kJ/mol
# GULP energy per Si atom -5570.905799 kJ/mol
# Density = 2.226208 g / cm^3
# Si number density = 22.312865 Si / 1000 Ang^3
#
#
#
# Elastic Constant Matrix: (Units=GPa)
#
#
# Indices 1 2 3 4 5 6 
#
# 1 90.6149 25.4061 13.1942 -12.7802 5.8673 1.4834
# 2 25.4061 144.9079 11.4357 -17.9654 1.5245 8.7854
# 3 13.1942 11.4357 77.0263 11.0613 3.6699 -3.4505
# 4 -12.7802 -17.9654 11.0613 31.1873 12.6040 -1.2784
# 5 5.8673 1.5245 3.6699 12.6040 28.6337 -10.2507
# 6 1.4834 8.7854 -3.4505 -1.2784 -10.2507 35.9523
#
#
#
# Elastic Compliance Matrix: (Units=1/GPa)
#
#
# Indices 1 2 3 4 5 6 
#
# 1 0.013503 -0.000769 -0.003264 0.009037 -0.007144 -0.002398
# 2 -0.000769 0.008250 -0.001995 0.006661 -0.004067 -0.003098
# 3 -0.003264 -0.001995 0.015118 -0.009338 0.003977 0.002875
# 4 0.009037 0.006661 -0.009338 0.053827 -0.027903 -0.008938
# 5 -0.007144 -0.004067 0.003977 -0.027903 0.054146 0.016116
# 6 -0.002398 -0.003098 0.002875 -0.008938 0.016116 0.033224
#
#
# Mechanical properties :
#
#
# Convention : Reuss Voigt Hill
#
# Bulk Modulus (GPa) = 40.29638 45.84676 43.07157
# Shear Modulus (GPa) = 25.20236 36.65553 30.92895
#
# Velocity S-wave (km/s) = 3.36445 4.05754 3.72714
# Velocity P-wave (km/s) = 5.76121 6.52253 6.15366
#
# Compressibility (1/GPa) = 0.02481612
#
# Stress axis : x y z
#
# Youngs Moduli (GPa) = 74.05846 121.21689 66.14631
#
# Poissons Ratio (x) = 0.09321 0.21587
# Poissons Ratio (y) = 0.05695 0.13194
# Poissons Ratio (z) = 0.24169 0.24179
#
# Static dielectric constant tensor:
#      x y z
#    x 2.214080 -0.036560 0.143480 
#    y -0.036560 1.831570 -0.023450 
#    z 0.143480 -0.023450 1.912740 
# 
# From -- ./inp_files/495030.got.cif
#   From: 2010.05.17/outbox.cif.g08.bks.cpg/sg2_248_cif.got.tgz:495030.got - 2010.06.03 11:33:40.
