data_PCOD9109849
_publ_section_title
;
Structure prediction by ZEFSAII (Michael W. Deem and Ramdas Pophale) SiO2 
 PCOD9109849
Probable space group: P -1
;
_chemical_formula_sum "Si O2"
_cell_formula_units_Z 15
_cell_length_a 14.949674
_cell_length_b 5.361658
_cell_length_c 9.224121
_cell_angle_alpha 94.291741
_cell_angle_beta 119.620971
_cell_angle_gamma 108.079266
_cell_volume 587.241297
_symmetry_space_group_name_H-M "P -1"
_symmetry_group_IT_number 2
_symmetry_cell_setting 'triclinic'
loop_
_space_group_symop_operation_xyz
x,y,z
-x,-y,-z
loop_
_atom_site_type_symbol
_atom_site_label
_atom_site_fract_x
_atom_site_fract_y
_atom_site_fract_z
Si Si1 0.637646 0.215430 0.277216
Si Si2 0.677751 0.621654 0.553835
Si Si3 0.661041 0.852746 0.830684
Si Si4 0.157928 0.874231 0.440772
Si Si5 0.090450 0.774197 0.885800
Si Si6 0.128533 0.468066 0.150317
Si Si7 0.000000 0.500000 0.500000
Si Si8 0.577384 0.294892 0.914391
O O1 0.603583 0.360419 0.390624
O O2 0.763874 0.248271 0.413418
O O3 0.555535 0.896052 0.194412
O O4 0.623273 0.335957 0.117383
O O5 0.631512 0.786454 0.632628
O O6 0.753831 0.541276 0.722791
O O7 0.765062 0.814908 0.513970
O O8 0.605248 0.575725 0.866549
O O9 0.627357 0.095486 0.869298
O O10 0.795213 0.969450 0.977350
O O11 0.136603 0.733926 0.260611
O O12 0.044965 0.764356 0.434271
O O13 0.976912 0.769665 0.869164
O O14 0.062900 0.702536 0.694949
O O15 0.109549 0.529626 0.974871
#
# Coordination Sequence:
#
# PCOD9109849 Si02
#       8
#     2   2   2   2   2   2   1   2
#     4  10  26  47  73  99 147 186 242 295 371 421
#     4  11  24  42  73 103 141 190 238 301 357 433
#     4  12  26  46  72 109 147 187 248 293 362 421
#     4  10  21  43  65 101 136 187 231 299 349 427
#     4  10  20  41  67  97 144 184 233 299 347 435
#     4   9  20  42  62  97 137 188 232 282 365 421
#     4  10  22  38  70 100 136 186 238 284 358 432
#     4  11  28  48  73 108 142 195 239 304 361 431
#
# _framework density 25.543164000000001
#
# number of rings (size 3 to 8) (size 9 to 14) (size 15 to 20)
#    0.000    1.600    1.333    1.600    7.467    2.667 
#    7.200    2.000    0.000    0.000    0.000    0.000 
#    0.000    0.000    0.000    0.000    0.000    0.000 
#
# Total GULP energy -83679.657477 kJ/mol
# GULP energy per Si atom -5578.643832 kJ/mol
# Density = 2.548503 g / cm^3
# Si number density = 25.543164 Si / 1000 Ang^3
#
#
#
# Elastic Constant Matrix: (Units=GPa)
#
#
# Indices 1 2 3 4 5 6 
#
# 1 40.3139 17.8238 19.2348 -1.2244 -9.4135 -10.9300
# 2 17.8238 104.9599 29.0657 -9.5433 -5.4404 8.3509
# 3 19.2348 29.0657 152.0795 10.6229 -27.6883 -19.5441
# 4 -1.2244 -9.5433 10.6229 35.2109 6.5271 -10.5047
# 5 -9.4135 -5.4404 -27.6883 6.5271 38.3177 0.1909
# 6 -10.9300 8.3509 -19.5441 -10.5047 0.1909 33.5333
#
#
#
# Elastic Compliance Matrix: (Units=1/GPa)
#
#
# Indices 1 2 3 4 5 6 
#
# 1 0.032550 -0.005891 -0.000357 0.002177 0.006469 0.012513
# 2 -0.005891 0.011891 -0.002849 0.002585 -0.002229 -0.005720
# 3 -0.000357 -0.002849 0.009258 -0.003368 0.006747 0.004895
# 4 0.002177 0.002585 -0.003368 0.034209 -0.007403 0.008861
# 5 0.006469 -0.002229 0.006747 -0.007403 0.033486 0.004086
# 6 0.012513 -0.005720 0.004895 0.008861 0.004086 0.040930
#
#
# Mechanical properties :
#
#
# Convention : Reuss Voigt Hill
#
# Bulk Modulus (GPa) = 28.16538 47.73353 37.94945
# Shear Modulus (GPa) = 25.99394 36.82766 31.41080
#
# Velocity S-wave (km/s) = 3.19352 3.80120 3.51053
# Velocity P-wave (km/s) = 4.96474 6.16388 5.59652
#
# Compressibility (1/GPa) = 0.03550458
#
# Stress axis : x y z
#
# Youngs Moduli (GPa) = 30.72243 84.09516 108.01549
#
# Poissons Ratio (x) = 0.49539 0.03858
# Poissons Ratio (y) = 0.18098 0.30775
# Poissons Ratio (z) = 0.01097 0.23959
#
# Static dielectric constant tensor:
#      x y z
#    x 2.185560 -0.003520 0.020920 
#    y -0.003520 2.007310 0.035770 
#    z 0.020920 0.035770 1.935160 
# 
# From -- ./inp_files/140470.got.cif
#   From: 2010.05.17/outbox.cif.g08.bks.cpg/sg2_71_cif.got.tgz:140470.got - 2010.06.03 11:33:40.
