data_PCOD9109838
_publ_section_title
;
Structure prediction by ZEFSAII (Michael W. Deem and Ramdas Pophale) SiO2 
 PCOD9109838
Probable space group: P -1
;
_chemical_formula_sum "Si O2"
_cell_formula_units_Z 14
_cell_length_a 6.707604
_cell_length_b 10.807171
_cell_length_c 11.839873
_cell_angle_alpha 133.937069
_cell_angle_beta 91.310979
_cell_angle_gamma 82.043017
_cell_volume 608.865127
_symmetry_space_group_name_H-M "P -1"
_symmetry_group_IT_number 2
_symmetry_cell_setting 'triclinic'
loop_
_space_group_symop_operation_xyz
x,y,z
-x,-y,-z
loop_
_atom_site_type_symbol
_atom_site_label
_atom_site_fract_x
_atom_site_fract_y
_atom_site_fract_z
Si Si1 0.730302 0.751236 0.936447
Si Si2 0.333904 0.615617 0.789323
Si Si3 0.045869 0.195898 0.232725
Si Si4 0.262669 0.088796 0.550648
Si Si5 0.931987 0.518386 0.138601
Si Si6 0.641337 0.745657 0.558744
Si Si7 0.785365 0.023104 0.283072
O O1 0.513914 0.720761 0.873584
O O2 0.822104 0.866188 0.915977
O O3 0.875609 0.562501 0.832431
O O4 0.734798 0.843924 0.116086
O O5 0.157707 0.697896 0.754872
O O6 0.233406 0.597609 0.899149
O O7 0.398588 0.421261 0.618002
O O8 0.967478 0.066063 0.236666
O O9 0.196012 0.301206 0.369381
O O10 0.169902 0.284421 0.713783
O O11 0.257070 0.124910 0.439215
O O12 0.500000 0.000000 0.500000
O O13 0.174177 0.982194 0.584026
O O14 0.000000 0.500000 0.000000
O O15 0.421927 0.841946 0.655397
#
# Coordination Sequence:
#
# PCOD9109838 Si02
#       7
#     2   2   2   2   2   2   2
#     4  11  24  42  67 100 130 173 219 274 331 393
#     4  10  24  43  66  96 133 170 222 276 328 390
#     4  11  24  40  66  93 132 176 226 270 322 393
#     4   9  20  42  66  96 132 168 218 270 328 392
#     4  10  20  41  67  97 130 170 220 264 328 396
#     4  10  23  42  65  94 128 174 222 270 331 392
#     4  11  23  41  65  94 135 169 218 275 331 389
#
# _framework density 22.993597000000001
#
# number of rings (size 3 to 8) (size 9 to 14) (size 15 to 20)
#    0.000    1.714    1.429    1.714    0.000   11.429 
#    0.000    2.857    0.000    0.000    0.000    0.000 
#    0.000    0.000    0.000    0.000    0.000    0.000 
#
# Total GULP energy -77999.405788 kJ/mol
# GULP energy per Si atom -5571.386128 kJ/mol
# Density = 2.294126 g / cm^3
# Si number density = 22.993597 Si / 1000 Ang^3
#
#
#
# Elastic Constant Matrix: (Units=GPa)
#
#
# Indices 1 2 3 4 5 6 
#
# 1 100.0082 33.4749 44.5861 -6.1335 1.4771 -2.7066
# 2 33.4749 71.7740 21.3957 -15.6670 -3.4931 -5.7975
# 3 44.5861 21.3957 78.2695 -11.0437 -9.7218 -8.5994
# 4 -6.1335 -15.6670 -11.0437 42.3631 -1.2544 -14.0021
# 5 1.4771 -3.4931 -9.7218 -1.2544 29.0243 -5.9308
# 6 -2.7066 -5.7975 -8.5994 -14.0021 -5.9308 36.8919
#
#
#
# Elastic Compliance Matrix: (Units=1/GPa)
#
#
# Indices 1 2 3 4 5 6 
#
# 1 0.015828 -0.006166 -0.009063 -0.003948 -0.005638 -0.004325
# 2 -0.006166 0.019283 0.000836 0.008876 0.004708 0.006899
# 3 -0.009063 0.000836 0.020970 0.007670 0.009721 0.008828
# 4 -0.003948 0.008876 0.007670 0.034310 0.008864 0.017340
# 5 -0.005638 0.004708 0.009721 0.008864 0.041528 0.012633
# 6 -0.004325 0.006899 0.008828 0.017340 0.012633 0.038543
#
#
# Mechanical properties :
#
#
# Convention : Reuss Voigt Hill
#
# Bulk Modulus (GPa) = 36.63612 49.88501 43.26056
# Shear Modulus (GPa) = 23.99857 31.69551 27.84704
#
# Velocity S-wave (km/s) = 3.23415 3.71678 3.48383
# Velocity P-wave (km/s) = 5.46938 6.33731 5.91927
#
# Compressibility (1/GPa) = 0.02729547
#
# Stress axis : x y z
#
# Youngs Moduli (GPa) = 63.18046 51.85964 47.68644
#
# Poissons Ratio (x) = 0.31975 0.43219
# Poissons Ratio (y) = 0.38955 -0.03988
# Poissons Ratio (z) = 0.57262 -0.04337
#
# Static dielectric constant tensor:
#      x y z
#    x 1.861870 0.030870 -0.003830 
#    y 0.030870 1.922010 -0.013250 
#    z -0.003830 -0.013250 1.864920 
# 
# From -- ./inp_files/126894.got.cif
#   From: 2010.05.17/outbox.cif.g08.bks.cpg/sg2_64_cif.got.tgz:126894.got - 2010.06.03 11:33:40.
