data_PCOD9109923
_publ_section_title
;
Structure prediction by ZEFSAII (Michael W. Deem and Ramdas Pophale) SiO2 
 PCOD9109923
Probable space group: P -1
;
_chemical_formula_sum "Si O2"
_cell_formula_units_Z 12
_cell_length_a 20.727141
_cell_length_b 5.842711
_cell_length_c 5.037560
_cell_angle_alpha 97.099904
_cell_angle_beta 92.681988
_cell_angle_gamma 50.254419
_cell_volume 465.058979
_symmetry_space_group_name_H-M "P -1"
_symmetry_group_IT_number 2
_symmetry_cell_setting 'triclinic'
loop_
_space_group_symop_operation_xyz
x,y,z
-x,-y,-z
loop_
_atom_site_type_symbol
_atom_site_label
_atom_site_fract_x
_atom_site_fract_y
_atom_site_fract_z
Si Si1 0.996444 0.370223 0.762124
Si Si2 0.745983 0.321188 0.699704
Si Si3 0.672137 0.874649 0.089941
Si Si4 0.877301 0.331000 0.427896
Si Si5 0.409834 0.118187 0.415661
Si Si6 0.837835 0.737294 0.960018
O O1 0.067710 0.325598 0.990577
O O2 0.000000 0.500000 0.500000
O O3 0.900991 0.432301 0.710311
O O4 0.051625 0.012165 0.681393
O O5 0.798740 0.368700 0.523896
O O6 0.653362 0.518544 0.586646
O O7 0.728763 0.517110 0.984300
O O8 0.804535 0.979207 0.735985
O O9 0.631540 0.946561 0.376872
O O10 0.736064 0.933764 0.052150
O O11 0.598990 0.006526 0.875313
O O12 0.863815 0.523615 0.204840
O O13 0.500000 0.000000 0.500000
#
# Coordination Sequence:
#
# PCOD9109923 Si02
#       6
#     2   2   2   2   2   2
#     4   9  17  34  59  90 127 179 219 273 324 390
#     4   9  20  37  63  89 127 177 211 274 332 387
#     4   9  21  40  62  93 131 168 214 268 333 394
#     4   8  18  37  55  85 138 167 221 276 326 385
#     4  10  20  41  68  92 129 170 213 270 334 396
#     4   9  18  40  59  90 131 173 217 270 330 387
#
# _framework density 25.803177999999999
#
# number of rings (size 3 to 8) (size 9 to 14) (size 15 to 20)
#    2.000    1.000    0.000    0.500    0.000    2.000 
#    6.000    2.500    0.000    0.000    0.000    0.000 
#    0.000    0.000    0.000    0.000    0.000    0.000 
#
# Total GULP energy -66860.823004 kJ/mol
# GULP energy per Si atom -5571.735250 kJ/mol
# Density = 2.574445 g / cm^3
# Si number density = 25.803178 Si / 1000 Ang^3
#
#
#
# Elastic Constant Matrix: (Units=GPa)
#
#
# Indices 1 2 3 4 5 6 
#
# 1 154.6161 59.0544 46.0990 -35.6816 16.0433 -33.8333
# 2 59.0544 102.0095 71.0521 -11.1114 21.1914 -16.0298
# 3 46.0990 71.0521 192.0520 -36.6178 3.0971 13.5737
# 4 -35.6816 -11.1114 -36.6178 36.0123 -3.0525 14.3581
# 5 16.0433 21.1914 3.0971 -3.0525 46.9341 -19.9563
# 6 -33.8333 -16.0298 13.5737 14.3581 -19.9563 33.0877
#
#
#
# Elastic Compliance Matrix: (Units=1/GPa)
#
#
# Indices 1 2 3 4 5 6 
#
# 1 0.011448 -0.004959 -0.000222 0.006675 0.002068 0.007745
# 2 -0.004959 0.021105 -0.010584 -0.015338 -0.001702 0.015125
# 3 -0.000222 -0.010584 0.014730 0.020248 -0.004549 -0.022927
# 4 0.006675 -0.015338 0.020248 0.067200 -0.011446 -0.044975
# 5 0.002068 -0.001702 -0.004549 -0.011446 0.032786 0.027896
# 6 0.007745 0.015125 -0.022927 -0.044975 0.027896 0.091217
#
#
# Mechanical properties :
#
#
# Convention : Reuss Voigt Hill
#
# Bulk Modulus (GPa) = 63.46864 89.00983 76.23923
# Shear Modulus (GPa) = 18.16423 41.37166 29.76794
#
# Velocity S-wave (km/s) = 2.65609 4.00854 3.40023
# Velocity P-wave (km/s) = 5.83584 7.48298 6.71014
#
# Compressibility (1/GPa) = 0.01575581
#
# Stress axis : x y z
#
# Youngs Moduli (GPa) = 87.34867 47.38162 67.88815
#
# Poissons Ratio (x) = 0.23495 0.01504
# Poissons Ratio (y) = 0.43313 0.71852
# Poissons Ratio (z) = 0.01935 0.50148
#
# Static dielectric constant tensor:
#      x y z
#    x 2.081800 -0.003580 0.116480 
#    y -0.003580 2.010800 0.035140 
#    z 0.116480 0.035140 2.090580 
# 
# From -- ./inp_files/5502.got.cif
#   From: 2010.05.17/outbox.cif.g08.bks.cpg/sg2_3_cif.got.tgz:5502.got - 2010.06.03 11:33:40.
