data_PCOD9109336
_publ_section_title
;
Structure prediction by ZEFSAII (Michael W. Deem and Ramdas Pophale) SiO2 
 PCOD9109336
Probable space group: P -1
;
_chemical_formula_sum "Si O2"
_cell_formula_units_Z 15
_cell_length_a 12.396244
_cell_length_b 14.754126
_cell_length_c 7.059352
_cell_angle_alpha 61.957062
_cell_angle_beta 88.895801
_cell_angle_gamma 137.657131
_cell_volume 604.077813
_symmetry_space_group_name_H-M "P -1"
_symmetry_group_IT_number 2
_symmetry_cell_setting 'triclinic'
loop_
_space_group_symop_operation_xyz
x,y,z
-x,-y,-z
loop_
_atom_site_type_symbol
_atom_site_label
_atom_site_fract_x
_atom_site_fract_y
_atom_site_fract_z
Si Si1 0.970687 0.527902 0.184131
Si Si2 0.425751 0.651199 0.597131
Si Si3 0.500000 0.500000 0.500000
Si Si4 0.344216 0.967875 0.708013
Si Si5 0.858769 0.094168 0.594472
Si Si6 0.304085 0.431088 0.167998
Si Si7 0.727337 0.755926 0.974349
Si Si8 0.317874 0.863777 0.285983
O O1 0.797052 0.475417 0.266248
O O2 0.885971 0.367577 0.473791
O O3 0.000000 0.500000 0.000000
O O4 0.180548 0.754310 0.000821
O O5 0.468247 0.593638 0.510822
O O6 0.586463 0.871393 0.348884
O O7 0.430712 0.608809 0.853239
O O8 0.753119 0.731103 0.204097
O O9 0.231074 0.925933 0.572007
O O10 0.561852 0.084163 0.583792
O O11 0.745009 0.069605 0.775951
O O12 0.809170 0.934511 0.768136
O O13 0.099261 0.308471 0.379028
O O14 0.471525 0.536060 0.217988
O O15 0.236090 0.284827 0.170850
O O16 0.500000 0.000000 0.000000
#
# Coordination Sequence:
#
# PCOD9109336 Si02
#       8
#     2   2   1   2   2   2   2   2
#     4  11  22  41  70  98 126 172 229 277 320 402
#     4  10  21  40  66  93 132 163 221 268 335 389
#     4  10  24  46  62  92 136 180 204 272 350 402
#     4  11  23  41  71  95 128 179 224 275 328 393
#     4  12  22  40  69  97 124 174 229 270 323 399
#     4  10  20  41  64  97 122 164 220 277 312 389
#     4  10  23  40  66  92 133 165 215 275 331 385
#     4  11  27  43  62  99 143 171 217 278 340 396
#
# _framework density 24.831239
#
# number of rings (size 3 to 8) (size 9 to 14) (size 15 to 20)
#    0.000    1.333    4.000    0.800    5.600    1.600 
#    2.400    1.333    0.000    0.000    0.000    0.000 
#    0.000    0.000    0.000    0.000    0.000    0.000 
#
# Total GULP energy -83531.194673 kJ/mol
# GULP energy per Si atom -5568.746312 kJ/mol
# Density = 2.477472 g / cm^3
# Si number density = 24.831239 Si / 1000 Ang^3
#
#
#
# Elastic Constant Matrix: (Units=GPa)
#
#
# Indices 1 2 3 4 5 6 
#
# 1 80.0303 33.2642 33.1708 -2.7206 -8.8599 -16.9056
# 2 33.2642 79.8771 58.0632 -12.4979 -10.8790 -17.4734
# 3 33.1708 58.0632 168.2237 -10.7278 13.4632 -21.1689
# 4 -2.7206 -12.4979 -10.7278 44.5845 -7.6959 3.1716
# 5 -8.8599 -10.8790 13.4632 -7.6959 58.5410 0.5144
# 6 -16.9056 -17.4734 -21.1689 3.1716 0.5144 36.1401
#
#
#
# Elastic Compliance Matrix: (Units=1/GPa)
#
#
# Indices 1 2 3 4 5 6 
#
# 1 0.016068 -0.004736 -0.001132 -0.000656 0.001685 0.004597
# 2 -0.004736 0.021178 -0.005978 0.004819 0.005192 0.004026
# 3 -0.001132 -0.005978 0.008696 -0.000354 -0.003344 0.001753
# 4 -0.000656 0.004819 -0.000354 0.024388 0.004087 -0.000382
# 5 0.001685 0.005192 -0.003344 0.004087 0.019602 0.000702
# 6 0.004597 0.004026 0.001753 -0.000382 0.000702 0.032817
#
#
# Mechanical properties :
#
#
# Convention : Reuss Voigt Hill
#
# Bulk Modulus (GPa) = 44.93938 64.12528 54.53233
# Shear Modulus (GPa) = 32.49722 41.42865 36.96293
#
# Velocity S-wave (km/s) = 3.62155 4.08905 3.86238
# Velocity P-wave (km/s) = 5.96865 6.94077 6.47298
#
# Compressibility (1/GPa) = 0.02225220
#
# Stress axis : x y z
#
# Youngs Moduli (GPa) = 62.23398 47.21771 114.98895
#
# Poissons Ratio (x) = 0.22363 0.13016
# Poissons Ratio (y) = 0.29475 0.68735
# Poissons Ratio (z) = 0.07044 0.28225
#
# Static dielectric constant tensor:
#      x y z
#    x 2.007180 0.079430 0.080850 
#    y 0.079430 2.193550 0.181900 
#    z 0.080850 0.181900 2.084620 
# 
# From -- ./inp_files/269787.got.cif
#   From: 2010.05.17/outbox.cif.g08.bks.cpg/sg2_135_cif.got.tgz:269787.got - 2010.06.03 11:33:40.
