data_PCOD9109821
_publ_section_title
;
Structure prediction by ZEFSAII (Michael W. Deem and Ramdas Pophale) SiO2 
 PCOD9109821
Probable space group: P -1
;
_chemical_formula_sum "Si O2"
_cell_formula_units_Z 16
_cell_length_a 9.695746
_cell_length_b 12.516772
_cell_length_c 10.075044
_cell_angle_alpha 125.079318
_cell_angle_beta 60.851663
_cell_angle_gamma 128.219985
_cell_volume 769.497026
_symmetry_space_group_name_H-M "P -1"
_symmetry_group_IT_number 2
_symmetry_cell_setting 'triclinic'
loop_
_space_group_symop_operation_xyz
x,y,z
-x,-y,-z
loop_
_atom_site_type_symbol
_atom_site_label
_atom_site_fract_x
_atom_site_fract_y
_atom_site_fract_z
Si Si1 0.289132 0.576945 0.884242
Si Si2 0.405884 0.351580 0.780256
Si Si3 0.954622 0.462811 0.773107
Si Si4 0.777570 0.627576 0.866027
Si Si5 0.469210 0.111903 0.428145
Si Si6 0.577596 0.886985 0.858667
Si Si7 0.923603 0.909160 0.834288
Si Si8 0.794075 0.157664 0.479512
O O1 0.347091 0.450298 0.788166
O O2 0.454241 0.735078 0.886202
O O3 0.146144 0.525312 0.796341
O O4 0.189392 0.583516 0.071034
O O5 0.607266 0.466795 0.812011
O O6 0.411136 0.215294 0.612567
O O7 0.275712 0.305056 0.934823
O O8 0.939912 0.594786 0.798585
O O9 0.905298 0.323341 0.602042
O O10 0.816491 0.736661 0.804785
O O11 0.443870 0.138676 0.306889
O O12 0.669214 0.151254 0.409465
O O13 0.341573 0.943463 0.413902
O O14 0.781989 0.947892 0.855700
O O15 0.500000 0.000000 0.000000
O O16 0.080865 0.914092 0.672279
O O17 0.000000 0.000000 0.000000
#
# Coordination Sequence:
#
# PCOD9109821 Si02
#       8
#     2   2   2   2   2   2   2   2
#     4  10  23  42  66  96 132 168 211 263 316 380
#     4  10  20  41  67  95 127 170 213 253 321 380
#     4  10  22  41  67  97 130 169 212 261 315 377
#     4  10  21  40  68  95 127 169 212 261 312 380
#     4  11  25  44  68  93 130 174 211 266 324 378
#     4  12  27  45  66  93 130 171 214 266 326 381
#     4  12  27  44  66  96 128 168 218 268 317 384
#     4  11  25  45  66  95 130 169 219 264 318 384
#
# _framework density 20.792802999999999
#
# number of rings (size 3 to 8) (size 9 to 14) (size 15 to 20)
#    0.000    1.250    2.500    2.250    5.250    4.500 
#    4.500    0.000    0.000    0.000    0.000    0.000 
#    0.000    0.000    0.000    0.000    0.000    0.000 
#
# Total GULP energy -89468.981862 kJ/mol
# GULP energy per Si atom -5591.811366 kJ/mol
# Density = 2.074548 g / cm^3
# Si number density = 20.792803 Si / 1000 Ang^3
#
#
#
# Elastic Constant Matrix: (Units=GPa)
#
#
# Indices 1 2 3 4 5 6 
#
# 1 162.1202 7.1499 30.0055 2.2840 -2.9239 -4.6481
# 2 7.1499 42.3686 1.7991 -2.5633 -4.0999 0.4600
# 3 30.0055 1.7991 74.3576 18.6277 -5.0353 6.9372
# 4 2.2840 -2.5633 18.6277 23.8889 -3.1815 3.5783
# 5 -2.9239 -4.0999 -5.0353 -3.1815 24.9556 0.1395
# 6 -4.6481 0.4600 6.9372 3.5783 0.1395 25.3322
#
#
#
# Elastic Compliance Matrix: (Units=1/GPa)
#
#
# Indices 1 2 3 4 5 6 
#
# 1 0.006858 -0.000928 -0.003305 0.001551 0.000171 0.001960
# 2 -0.000928 0.024467 -0.000865 0.004104 0.004265 -0.000981
# 3 -0.003305 -0.000865 0.018655 -0.013552 0.001528 -0.003794
# 4 0.001551 0.004104 -0.013552 0.053947 0.005020 -0.003727
# 5 0.000171 0.004265 0.001528 0.005020 0.041748 -0.001404
# 6 0.001960 -0.000981 -0.003794 -0.003727 -0.001404 0.041426
#
#
# Mechanical properties :
#
#
# Convention : Reuss Voigt Hill
#
# Bulk Modulus (GPa) = 25.13517 39.63949 32.38733
# Shear Modulus (GPa) = 23.74626 30.82815 27.28721
#
# Velocity S-wave (km/s) = 3.38308 3.85468 3.62655
# Velocity P-wave (km/s) = 5.23211 6.23833 5.75725
#
# Compressibility (1/GPa) = 0.03978489
#
# Stress axis : x y z
#
# Youngs Moduli (GPa) = 145.80866 40.87083 53.60358
#
# Poissons Ratio (x) = 0.03793 0.17715
# Poissons Ratio (y) = 0.13530 0.04638
# Poissons Ratio (z) = 0.48188 0.03536
#
# Static dielectric constant tensor:
#      x y z
#    x 1.751530 0.014080 -0.007130 
#    y 0.014080 1.688890 0.028290 
#    z -0.007130 0.028290 1.660350 
# 
# From -- ./inp_files/186081.got.cif
#   From: 2010.05.17/outbox.cif.g08.bks.cpg/sg2_94_cif.got.tgz:186081.got - 2010.06.03 11:33:40.
