data_PCOD9109007
_publ_section_title
;
Structure prediction by ZEFSAII (Michael W. Deem and Ramdas Pophale) SiO2 
 PCOD9109007
Probable space group: P -1
;
_chemical_formula_sum "Si O2"
_cell_formula_units_Z 14
_cell_length_a 13.471291
_cell_length_b 11.843861
_cell_length_c 8.692451
_cell_angle_alpha 87.244582
_cell_angle_beta 73.286167
_cell_angle_gamma 146.094723
_cell_volume 625.176086
_symmetry_space_group_name_H-M "P -1"
_symmetry_group_IT_number 2
_symmetry_cell_setting 'triclinic'
loop_
_space_group_symop_operation_xyz
x,y,z
-x,-y,-z
loop_
_atom_site_type_symbol
_atom_site_label
_atom_site_fract_x
_atom_site_fract_y
_atom_site_fract_z
Si Si1 0.233392 0.064796 0.124344
Si Si2 0.646051 0.361345 0.093802
Si Si3 0.131650 0.403105 0.464744
Si Si4 0.004012 0.583346 0.751469
Si Si5 0.888613 0.096731 0.153263
Si Si6 0.641217 0.248726 0.419510
Si Si7 0.078874 0.142788 0.306225
O O1 0.028917 0.808581 0.323549
O O2 0.447110 0.218717 0.097037
O O3 0.220604 0.029407 0.951438
O O4 0.219699 0.186166 0.150135
O O5 0.574002 0.253815 0.300820
O O6 0.766686 0.373074 0.950871
O O7 0.845635 0.641633 0.009235
O O8 0.337411 0.653992 0.445788
O O9 0.016708 0.390965 0.415096
O O10 0.184812 0.358160 0.316945
O O11 0.152105 0.819350 0.760165
O O12 0.109443 0.562579 0.722880
O O13 0.877639 0.991916 0.297893
O O14 0.500000 0.000000 0.500000
O O15 0.000000 0.000000 0.500000
#
# Coordination Sequence:
#
# PCOD9109007 Si02
#       7
#     2   2   2   2   2   2   2
#     4  11  20  39  69  90 126 168 201 251 319 364
#     4  10  23  39  61  95 126 160 213 253 304 373
#     4  10  20  41  61  91 127 161 207 264 296 374
#     4   9  21  40  60  88 129 158 206 263 303 365
#     4   9  20  40  62  91 132 155 207 256 299 373
#     4  12  23  40  64  89 125 170 210 255 317 361
#     4   9  20  38  67  93 123 165 204 249 316 366
#
# _framework density 22.393692000000001
#
# number of rings (size 3 to 8) (size 9 to 14) (size 15 to 20)
#    0.857    1.143    1.429    2.143    0.000    1.714 
#    0.000    2.857    3.143    0.000    0.000    0.000 
#    0.000    0.000    0.000    0.000    0.000    0.000 
#
# Total GULP energy -78144.217926 kJ/mol
# GULP energy per Si atom -5581.729852 kJ/mol
# Density = 2.234272 g / cm^3
# Si number density = 22.393692 Si / 1000 Ang^3
#
#
#
# Elastic Constant Matrix: (Units=GPa)
#
#
# Indices 1 2 3 4 5 6 
#
# 1 94.5515 63.2830 45.6828 39.6127 16.3328 11.7513
# 2 63.2830 102.4381 27.7827 31.9956 -0.2692 9.0567
# 3 45.6828 27.7827 65.3033 36.8045 11.1663 3.5082
# 4 39.6127 31.9956 36.8045 44.5639 6.7569 7.4356
# 5 16.3328 -0.2692 11.1663 6.7569 39.4551 9.3284
# 6 11.7513 9.0567 3.5082 7.4356 9.3284 26.6672
#
#
#
# Elastic Compliance Matrix: (Units=1/GPa)
#
#
# Indices 1 2 3 4 5 6 
#
# 1 0.027389 -0.012217 -0.008719 -0.006891 -0.007224 -0.002325
# 2 -0.012217 0.018342 0.002780 -0.005176 0.005699 -0.001762
# 3 -0.008719 0.002780 0.032742 -0.021757 -0.003285 0.005806
# 4 -0.006891 -0.005176 -0.021757 0.051173 0.001934 -0.007288
# 5 -0.007224 0.005699 -0.003285 0.001934 0.031291 -0.009805
# 6 -0.002325 -0.001762 0.005806 -0.007288 -0.009805 0.043821
#
#
# Mechanical properties :
#
#
# Convention : Reuss Voigt Hill
#
# Bulk Modulus (GPa) = 23.71777 59.53222 41.62500
# Shear Modulus (GPa) = 19.59839 30.50684 25.05262
#
# Velocity S-wave (km/s) = 2.96154 3.69493 3.34838
# Velocity P-wave (km/s) = 4.72320 6.69668 5.79457
#
# Compressibility (1/GPa) = 0.04216248
#
# Stress axis : x y z
#
# Youngs Moduli (GPa) = 36.51097 54.51825 30.54215
#
# Poissons Ratio (x) = 0.66602 0.26629
# Poissons Ratio (y) = 0.44604 -0.08490
# Poissons Ratio (z) = 0.31832 -0.15155
#
# Static dielectric constant tensor:
#      x y z
#    x 1.856760 -0.007760 -0.020550 
#    y -0.007760 1.830870 -0.038090 
#    z -0.020550 -0.038090 1.887660 
# 
# From -- ./inp_files/307684.got.cif
#   From: 2010.05.17/outbox.cif.g08.bks.cpg/sg2_154_cif.got.tgz:307684.got - 2010.06.03 11:33:40.
