data_PCOD9109115
_publ_section_title
;
Structure prediction by ZEFSAII (Michael W. Deem and Ramdas Pophale) SiO2 
 PCOD9109115
Probable space group: P -1
;
_chemical_formula_sum "Si O2"
_cell_formula_units_Z 16
_cell_length_a 14.891816
_cell_length_b 11.287636
_cell_length_c 12.128073
_cell_angle_alpha 103.086472
_cell_angle_beta 151.211366
_cell_angle_gamma 59.259149
_cell_volume 712.757349
_symmetry_space_group_name_H-M "P -1"
_symmetry_group_IT_number 2
_symmetry_cell_setting 'triclinic'
loop_
_space_group_symop_operation_xyz
x,y,z
-x,-y,-z
loop_
_atom_site_type_symbol
_atom_site_label
_atom_site_fract_x
_atom_site_fract_y
_atom_site_fract_z
Si Si1 0.949084 0.190633 0.371425
Si Si2 0.891148 0.370615 0.000012
Si Si3 0.989418 0.892042 0.339280
Si Si4 0.648067 0.721479 0.822203
Si Si5 0.461437 0.018509 0.831406
Si Si6 0.457608 0.161522 0.507126
Si Si7 0.654544 0.285788 0.869065
Si Si8 0.824757 0.373953 0.675422
O O1 0.924078 0.221451 0.482060
O O2 0.046285 0.008686 0.436764
O O3 0.708146 0.290045 0.055298
O O4 0.165844 0.176419 0.543108
O O5 0.713331 0.556010 0.891951
O O6 0.870840 0.260304 0.028591
O O7 0.798788 0.381087 0.779695
O O8 0.174676 0.293022 0.275972
O O9 0.128934 0.776397 0.360740
O O10 0.688280 0.004522 0.031050
O O11 0.522921 0.782416 0.579445
O O12 0.512413 0.868853 0.792998
O O13 0.919225 0.665136 0.081691
O O14 0.500000 0.000000 0.000000
O O15 0.635849 0.154250 0.782418
O O16 0.500000 0.000000 0.500000
O O17 0.401742 0.457641 0.589748
#
# Coordination Sequence:
#
# PCOD9109115 Si02
#       8
#     2   2   2   2   2   2   2   2
#     4  10  23  39  60  95 118 157 211 256 310 357
#     4  11  23  41  60  94 126 164 210 243 312 378
#     4   9  21  42  66  81 120 167 207 254 303 367
#     4  10  20  41  67  84 123 172 205 246 306 372
#     4   9  20  39  64  89 116 157 209 252 299 362
#     4  11  25  41  59  92 129 163 203 254 309 365
#     4  12  25  37  62  94 131 155 203 261 306 364
#     4  10  20  41  63  86 121 170 207 245 306 371
#
# _framework density 22.448031
#
# number of rings (size 3 to 8) (size 9 to 14) (size 15 to 20)
#    0.000    1.750    2.500    1.125    8.750    1.000 
#    0.000    0.000    0.000    2.250    0.000    0.000 
#    0.000    0.000    0.000    0.000    0.000    0.000 
#
# Total GULP energy -89352.908053 kJ/mol
# GULP energy per Si atom -5584.556753 kJ/mol
# Density = 2.239694 g / cm^3
# Si number density = 22.448031 Si / 1000 Ang^3
#
#
#
# Elastic Constant Matrix: (Units=GPa)
#
#
# Indices 1 2 3 4 5 6 
#
# 1 65.9029 2.9246 20.4613 5.8723 -1.0406 -0.7128
# 2 2.9246 39.7299 -19.0112 12.1025 2.4045 3.7435
# 3 20.4613 -19.0112 71.0438 17.2077 -16.0050 1.8939
# 4 5.8723 12.1025 17.2077 24.4066 -1.0485 -1.2813
# 5 -1.0406 2.4045 -16.0050 -1.0485 34.3232 -0.4371
# 6 -0.7128 3.7435 1.8939 -1.2813 -0.4371 25.5308
#
#
#
# Elastic Compliance Matrix: (Units=1/GPa)
#
#
# Indices 1 2 3 4 5 6 
#
# 1 0.017919 -0.007927 -0.009614 0.006401 -0.003155 0.002643
# 2 -0.007927 0.056211 0.031381 -0.048398 0.008810 -0.013069
# 3 -0.009614 0.031381 0.038407 -0.040220 0.014070 -0.009496
# 4 0.006401 -0.048398 -0.040220 0.092036 -0.012172 0.014669
# 5 -0.003155 0.008810 0.014070 -0.012172 0.034580 -0.002442
# 6 0.002643 -0.013069 -0.009496 0.014669 -0.002442 0.042557
#
#
# Mechanical properties :
#
#
# Convention : Reuss Voigt Hill
#
# Bulk Modulus (GPa) = 7.13182 20.60287 13.86735
# Shear Modulus (GPa) = 16.62411 28.33894 22.48153
#
# Velocity S-wave (km/s) = 2.72427 3.55692 3.16807
# Velocity P-wave (km/s) = 3.61656 5.10557 4.42416
#
# Compressibility (1/GPa) = 0.14021660
#
# Stress axis : x y z
#
# Youngs Moduli (GPa) = 55.80718 17.79016 26.03707
#
# Poissons Ratio (x) = 0.14102 0.25031
# Poissons Ratio (y) = 0.44239 -0.81706
# Poissons Ratio (z) = 0.53651 -0.55827
#
# Static dielectric constant tensor:
#      x y z
#    x 1.841100 0.011420 0.017160 
#    y 0.011420 1.833940 0.028070 
#    z 0.017160 0.028070 1.883630 
# 
# From -- ./inp_files/270808.got.cif
#   From: 2010.05.17/outbox.cif.g08.bks.cpg/sg2_136_cif.got.tgz:270808.got - 2010.06.03 11:33:40.
