data_PCOD9109878
_publ_section_title
;
Structure prediction by ZEFSAII (Michael W. Deem and Ramdas Pophale) SiO2 
 PCOD9109878
Probable space group: P -1
;
_chemical_formula_sum "Si O2"
_cell_formula_units_Z 16
_cell_length_a 11.943783
_cell_length_b 11.343403
_cell_length_c 12.641963
_cell_angle_alpha 75.628402
_cell_angle_beta 104.898103
_cell_angle_gamma 37.768217
_cell_volume 655.610055
_symmetry_space_group_name_H-M "P -1"
_symmetry_group_IT_number 2
_symmetry_cell_setting 'triclinic'
loop_
_space_group_symop_operation_xyz
x,y,z
-x,-y,-z
loop_
_atom_site_type_symbol
_atom_site_label
_atom_site_fract_x
_atom_site_fract_y
_atom_site_fract_z
Si Si1 0.291155 0.103326 0.678595
Si Si2 0.589910 0.235155 0.095338
Si Si3 0.021850 0.792755 0.101680
Si Si4 0.845862 0.615418 0.826600
Si Si5 0.934699 0.119272 0.274302
Si Si6 0.853905 0.355538 0.393465
Si Si7 0.762881 0.679742 0.190154
Si Si8 0.329364 0.723052 0.266369
O O1 0.474658 0.830204 0.851554
O O2 0.512741 0.955782 0.688304
O O3 0.162637 0.315269 0.687690
O O4 0.066424 0.235057 0.536719
O O5 0.763601 0.157012 0.234078
O O6 0.302589 0.574087 0.914187
O O7 0.805925 0.010846 0.099815
O O8 0.100214 0.578020 0.147313
O O9 0.283627 0.630570 0.231326
O O10 0.871141 0.999791 0.918465
O O11 0.982544 0.562504 0.777403
O O12 0.000000 0.500000 0.000000
O O13 0.994584 0.129749 0.394767
O O14 0.204344 0.848838 0.325204
O O15 0.687926 0.616782 0.224834
O O16 0.637076 0.485372 0.380861
O O17 0.500000 0.000000 0.000000
#
# Coordination Sequence:
#
# PCOD9109878 Si02
#       8
#     2   2   2   2   2   2   2   2
#     4  12  27  44  66  99 137 181 211 279 341 394
#     4  10  20  42  68  97 135 171 228 272 324 388
#     4  10  20  41  68 101 127 170 230 276 322 382
#     4  12  26  41  71 100 125 174 231 276 321 392
#     4  10  22  39  68 101 129 176 223 276 317 398
#     4  12  27  43  65 102 141 173 216 273 346 396
#     4  12  25  47  71  96 130 176 230 276 321 394
#     4  10  22  39  68  97 135 171 215 280 329 389
#
# _framework density 24.404751000000001
#
# number of rings (size 3 to 8) (size 9 to 14) (size 15 to 20)
#    0.000    1.000    3.750    2.625    5.250    2.000 
#    0.000    1.250    0.000    0.000    0.000    0.000 
#    0.000    0.000    0.000    0.000    0.000    0.000 
#
# Total GULP energy -89701.689964 kJ/mol
# GULP energy per Si atom -5606.355623 kJ/mol
# Density = 2.434920 g / cm^3
# Si number density = 24.404751 Si / 1000 Ang^3
#
#
#
# Elastic Constant Matrix: (Units=GPa)
#
#
# Indices 1 2 3 4 5 6 
#
# 1 123.1445 52.1387 33.6616 8.3061 17.6704 -10.8624
# 2 52.1387 138.6934 49.5731 27.2216 28.5768 -18.7328
# 3 33.6616 49.5731 93.2745 13.2377 36.1042 -4.2815
# 4 8.3061 27.2216 13.2377 40.9214 11.4913 8.7227
# 5 17.6704 28.5768 36.1042 11.4913 58.7050 -4.5944
# 6 -10.8624 -18.7328 -4.2815 8.7227 -4.5944 54.6136
#
#
#
# Elastic Compliance Matrix: (Units=1/GPa)
#
#
# Indices 1 2 3 4 5 6 
#
# 1 0.009996 -0.003012 -0.001885 0.000563 -0.000440 0.000680
# 2 -0.003012 0.011682 -0.003637 -0.006595 -0.000932 0.004098
# 3 -0.001885 -0.003637 0.016300 -0.000086 -0.007747 -0.000983
# 4 0.000563 -0.006595 -0.000086 0.031348 -0.003627 -0.007469
# 5 -0.000440 -0.000932 -0.007747 -0.003627 0.023214 0.001518
# 6 0.000680 0.004098 -0.000983 -0.007469 0.001518 0.021095
#
#
# Mechanical properties :
#
#
# Convention : Reuss Voigt Hill
#
# Bulk Modulus (GPa) = 47.82292 69.53989 58.68140
# Shear Modulus (GPa) = 36.31762 45.49726 40.90744
#
# Velocity S-wave (km/s) = 3.86182 4.32241 4.09859
# Velocity P-wave (km/s) = 6.28675 7.31213 6.81874
#
# Compressibility (1/GPa) = 0.02091048
#
# Stress axis : x y z
#
# Youngs Moduli (GPa) = 100.03707 85.59889 61.34938
#
# Poissons Ratio (x) = 0.25783 0.11564
# Poissons Ratio (y) = 0.30132 0.22314
# Poissons Ratio (z) = 0.18856 0.31134
#
# Static dielectric constant tensor:
#      x y z
#    x 1.907540 0.013500 -0.044620 
#    y 0.013500 1.917800 -0.023310 
#    z -0.044620 -0.023310 2.006070 
# 
# From -- ./inp_files/428188.got.cif
#   From: 2010.05.17/outbox.cif.g08.bks.cpg/sg2_215_cif.got.tgz:428188.got - 2010.06.03 11:33:40.
