data_PCOD9109272
_publ_section_title
;
Structure prediction by ZEFSAII (Michael W. Deem and Ramdas Pophale) SiO2 
 PCOD9109272
Probable space group: P -1
;
_chemical_formula_sum "Si O2"
_cell_formula_units_Z 13
_cell_length_a 11.537414
_cell_length_b 7.351153
_cell_length_c 12.081093
_cell_angle_alpha 78.243029
_cell_angle_beta 153.857909
_cell_angle_gamma 94.653975
_cell_volume 429.503249
_symmetry_space_group_name_H-M "P -1"
_symmetry_group_IT_number 2
_symmetry_cell_setting 'triclinic'
loop_
_space_group_symop_operation_xyz
x,y,z
-x,-y,-z
loop_
_atom_site_type_symbol
_atom_site_label
_atom_site_fract_x
_atom_site_fract_y
_atom_site_fract_z
Si Si1 0.116792 0.234369 0.605967
Si Si2 0.000000 0.500000 0.000000
Si Si3 0.310097 0.689372 0.573581
Si Si4 0.701140 0.182057 0.106538
Si Si5 0.211025 0.346257 0.390608
Si Si6 0.698877 0.193750 0.685555
Si Si7 0.601930 0.981213 0.829030
O O1 0.929886 0.285484 0.546663
O O2 0.915224 0.295538 0.321482
O O3 0.243675 0.003832 0.741983
O O4 0.394172 0.303498 0.839727
O O5 0.932033 0.440192 0.082911
O O6 0.121140 0.673542 0.129809
O O7 0.325558 0.491286 0.546852
O O8 0.252949 0.830353 0.399366
O O9 0.547040 0.773141 0.823476
O O10 0.735069 0.077638 0.029866
O O11 0.380704 0.312844 0.418633
O O12 0.312864 0.136677 0.552951
O O13 0.273135 0.985642 0.186925
#
# Coordination Sequence:
#
# PCOD9109272 Si02
#       7
#     2   1   2   2   2   2   2
#     4  10  22  39  71  97 127 183 219 277 332 398
#     4  10  16  38  62  82 130 178 198 260 322 394
#     4  11  19  41  66  97 129 169 229 265 329 406
#     4  10  21  45  65  96 138 169 227 276 338 385
#     4   9  23  41  61  94 132 175 211 265 339 381
#     4   9  22  40  61  94 133 169 211 269 334 385
#     4  10  22  40  68  92 132 175 214 280 325 401
#
# _framework density 30.267523000000001
#
# number of rings (size 3 to 8) (size 9 to 14) (size 15 to 20)
#    0.923    1.231    0.000    5.077    0.000    2.462 
#   22.154    5.385    0.000    0.000    0.000    3.231 
#    0.000    0.000    0.000    0.000    0.000    0.000 
#
# Total GULP energy -72558.460979 kJ/mol
# GULP energy per Si atom -5581.420075 kJ/mol
# Density = 3.019863 g / cm^3
# Si number density = 30.267523 Si / 1000 Ang^3
#
#
#
# Elastic Constant Matrix: (Units=GPa)
#
#
# Indices 1 2 3 4 5 6 
#
# 1 152.3456 33.0752 59.6335 9.1301 -2.8876 -45.2811
# 2 33.0752 167.6526 70.6872 26.0733 9.3584 -18.0179
# 3 59.6335 70.6872 133.4483 40.4479 3.8219 -13.3037
# 4 9.1301 26.0733 40.4479 59.7295 9.0147 -4.2968
# 5 -2.8876 9.3584 3.8219 9.0147 60.9298 -0.7219
# 6 -45.2811 -18.0179 -13.3037 -4.2968 -0.7219 51.1554
#
#
#
# Elastic Compliance Matrix: (Units=1/GPa)
#
#
# Indices 1 2 3 4 5 6 
#
# 1 0.010821 0.000506 -0.004845 0.001946 0.000554 0.008668
# 2 0.000506 0.007920 -0.004024 -0.000530 -0.000836 0.002135
# 3 -0.004845 -0.004024 0.013625 -0.007008 0.000538 -0.002744
# 4 0.001946 -0.000530 -0.007008 0.021925 -0.002613 0.001518
# 5 0.000554 -0.000836 0.000538 -0.002613 0.016924 0.000355
# 6 0.008668 0.002135 -0.002744 0.001518 0.000355 0.027392
#
#
# Mechanical properties :
#
#
# Convention : Reuss Voigt Hill
#
# Bulk Modulus (GPa) = 63.93787 86.69315 75.31551
# Shear Modulus (GPa) = 41.47763 53.69964 47.58864
#
# Velocity S-wave (km/s) = 3.70586 4.21666 3.96948
# Velocity P-wave (km/s) = 6.28342 7.23957 6.77838
#
# Compressibility (1/GPa) = 0.01564018
#
# Stress axis : x y z
#
# Youngs Moduli (GPa) = 92.41410 126.26235 73.39217
#
# Poissons Ratio (x) = -0.06389 0.35559
# Poissons Ratio (y) = -0.04676 0.29533
# Poissons Ratio (z) = 0.44776 0.50808
#
# Static dielectric constant tensor:
#      x y z
#    x 2.646550 0.071910 0.156530 
#    y 0.071910 2.250700 0.131140 
#    z 0.156530 0.131140 1.454030 
# 
# From -- ./inp_files/412762.got.cif
#   From: 2010.05.17/outbox.cif.g08.bks.cpg/sg2_207_cif.got.tgz:412762.got - 2010.06.03 11:33:40.
