data_PCOD9109764
_publ_section_title
;
Structure prediction by ZEFSAII (Michael W. Deem and Ramdas Pophale) SiO2 
 PCOD9109764
Probable space group: P -1
;
_chemical_formula_sum "Si O2"
_cell_formula_units_Z 16
_cell_length_a 14.813522
_cell_length_b 18.657844
_cell_length_c 11.300255
_cell_angle_alpha 48.764390
_cell_angle_beta 148.535565
_cell_angle_gamma 151.719309
_cell_volume 716.966263
_symmetry_space_group_name_H-M "P -1"
_symmetry_group_IT_number 2
_symmetry_cell_setting 'triclinic'
loop_
_space_group_symop_operation_xyz
x,y,z
-x,-y,-z
loop_
_atom_site_type_symbol
_atom_site_label
_atom_site_fract_x
_atom_site_fract_y
_atom_site_fract_z
Si Si1 0.439558 0.583191 0.620432
Si Si2 0.825120 0.873593 0.335818
Si Si3 0.649949 0.327785 0.795235
Si Si4 0.351571 0.095651 0.113138
Si Si5 0.645199 0.973261 0.340714
Si Si6 0.034703 0.763292 0.194833
Si Si7 0.861696 0.235443 0.424147
Si Si8 0.440546 0.771283 0.559370
O O1 0.486501 0.658676 0.466988
O O2 0.363025 0.633631 0.572495
O O3 0.145699 0.389282 0.499596
O O4 0.720313 0.649397 0.909238
O O5 0.501541 0.717144 0.199341
O O6 0.839502 0.946481 0.157859
O O7 0.000000 0.000000 0.500000
O O8 0.032328 0.880658 0.518489
O O9 0.565742 0.182817 0.812460
O O10 0.000000 0.500000 0.000000
O O11 0.678568 0.241522 0.264904
O O12 0.362119 0.154585 0.184172
O O13 0.254850 0.945748 0.201041
O O14 0.617523 0.902383 0.509483
O O15 0.622128 0.070404 0.256899
O O16 0.028698 0.764087 0.330612
O O17 0.175728 0.725984 0.348706
#
# Coordination Sequence:
#
# PCOD9109764 Si02
#       8
#     2   2   2   2   2   2   2   2
#     4  11  25  41  67  92 135 172 210 269 332 375
#     4  10  22  39  63  95 124 170 221 264 312 381
#     4  10  22  46  67  91 129 171 221 272 313 378
#     4  11  20  37  68  92 131 169 215 262 320 392
#     4  10  20  41  67  90 130 160 212 268 320 379
#     4  11  21  39  65  98 142 159 212 266 316 406
#     4  11  22  41  60 103 129 164 209 267 326 388
#     4  10  21  40  66  99 128 173 209 260 335 383
#
# _framework density 22.316251000000001
#
# number of rings (size 3 to 8) (size 9 to 14) (size 15 to 20)
#    0.000    1.500    2.500    4.125    1.750    3.000 
#    6.750    6.250    2.750    0.000    0.000    0.000 
#    0.000    0.000    0.000    0.000    0.000    0.000 
#
# Total GULP energy -89218.019662 kJ/mol
# GULP energy per Si atom -5576.126229 kJ/mol
# Density = 2.226546 g / cm^3
# Si number density = 22.316251 Si / 1000 Ang^3
#
#
#
# Elastic Constant Matrix: (Units=GPa)
#
#
# Indices 1 2 3 4 5 6 
#
# 1 81.3594 41.4640 -0.0729 -1.4132 4.3260 -11.1227
# 2 41.4640 76.9891 25.7955 17.2280 0.5465 -0.2741
# 3 -0.0729 25.7955 60.6315 4.8237 -3.6939 -5.3830
# 4 -1.4132 17.2280 4.8237 26.2400 10.5551 4.1203
# 5 4.3260 0.5465 -3.6939 10.5551 32.2320 5.9870
# 6 -11.1227 -0.2741 -5.3830 4.1203 5.9870 27.6817
#
#
#
# Elastic Compliance Matrix: (Units=1/GPa)
#
#
# Indices 1 2 3 4 5 6 
#
# 1 0.023574 -0.017978 0.007016 0.013531 -0.008430 0.010468
# 2 -0.017978 0.031425 -0.011797 -0.021872 0.009164 -0.007933
# 3 0.007016 -0.011797 0.021808 0.003302 -0.000544 0.006569
# 4 0.013531 -0.021872 0.003302 0.060933 -0.021280 0.001395
# 5 -0.008430 0.009164 -0.000544 -0.021280 0.040581 -0.009012
# 6 0.010468 -0.007933 0.006569 0.001395 -0.009012 0.043271
#
#
# Mechanical properties :
#
#
# Convention : Reuss Voigt Hill
#
# Bulk Modulus (GPa) = 31.95946 39.26146 35.61046
# Shear Modulus (GPa) = 18.01547 27.35029 22.68288
#
# Velocity S-wave (km/s) = 2.84435 3.50462 3.19161
# Velocity P-wave (km/s) = 5.01392 5.83163 5.43816
#
# Compressibility (1/GPa) = 0.03128964
#
# Stress axis : x y z
#
# Youngs Moduli (GPa) = 42.41971 31.82190 45.85473
#
# Poissons Ratio (x) = 0.57208 -0.32173
# Poissons Ratio (y) = 0.76261 0.54095
# Poissons Ratio (z) = -0.29762 0.37541
#
# Static dielectric constant tensor:
#      x y z
#    x 1.827420 0.003940 0.011890 
#    y 0.003940 1.835610 -0.003010 
#    z 0.011890 -0.003010 1.910320 
# 
# From -- ./inp_files/312509.got.cif
#   From: 2010.05.17/outbox.cif.g08.bks.cpg/sg2_157_cif.got.tgz:312509.got - 2010.06.03 11:33:40.
