data_PCOD9109022
_publ_section_title
;
Structure prediction by ZEFSAII (Michael W. Deem and Ramdas Pophale) SiO2 
 PCOD9109022
Probable space group: P -1
;
_chemical_formula_sum "Si O2"
_cell_formula_units_Z 16
_cell_length_a 18.208451
_cell_length_b 14.351055
_cell_length_c 4.745649
_cell_angle_alpha 107.459590
_cell_angle_beta 59.778010
_cell_angle_gamma 140.907759
_cell_volume 666.266411
_symmetry_space_group_name_H-M "P -1"
_symmetry_group_IT_number 2
_symmetry_cell_setting 'triclinic'
loop_
_space_group_symop_operation_xyz
x,y,z
-x,-y,-z
loop_
_atom_site_type_symbol
_atom_site_label
_atom_site_fract_x
_atom_site_fract_y
_atom_site_fract_z
Si Si1 0.578402 0.150550 0.814371
Si Si2 0.131916 0.022439 0.494641
Si Si3 0.030909 0.621059 0.246087
Si Si4 0.632876 0.381213 0.252644
Si Si5 0.208812 0.806189 0.603892
Si Si6 0.043461 0.154682 0.839844
Si Si7 0.624887 0.885465 0.750953
Si Si8 0.799002 0.563567 0.613660
O O1 0.648758 0.284447 0.018827
O O2 0.690766 0.189370 0.475043
O O3 0.464765 0.121570 0.883690
O O4 0.500000 0.000000 0.000000
O O5 0.078305 0.979579 0.244957
O O6 0.125509 0.128034 0.714053
O O7 0.272393 0.096890 0.296291
O O8 0.026691 0.872818 0.761313
O O9 0.121387 0.764267 0.993473
O O10 0.114455 0.681839 0.425067
O O11 0.000000 0.500000 0.000000
O O12 0.898824 0.564520 0.498704
O O13 0.726509 0.529870 0.010783
O O14 0.481448 0.265317 0.368291
O O15 0.680765 0.425872 0.516948
O O16 0.291055 0.966112 0.462654
O O17 0.125943 0.297199 0.610026
#
# Coordination Sequence:
#
# PCOD9109022 Si02
#       8
#     2   2   2   2   2   2   2   2
#     4   8  18  39  55  83 110 152 188 238 277 328
#     4  10  20  41  61  94 110 147 192 240 286 334
#     4  12  24  35  59  81 118 148 192 238 284 345
#     4  10  23  37  59  81 120 154 193 233 279 345
#     4  11  21  39  57  86 108 150 195 240 285 329
#     4  10  22  37  66  86 121 144 186 241 289 343
#     4   9  21  40  61  84 113 151 193 238 278 337
#     4  12  22  40  55  87 118 159 185 231 298 340
#
# _framework density 24.014417000000002
#
# number of rings (size 3 to 8) (size 9 to 14) (size 15 to 20)
#    0.750    1.000    0.000    4.875    0.000    2.000 
#    0.000    3.750    0.000    0.000    0.000    0.000 
#    0.000    0.000    0.000    0.000    0.000    0.000 
#
# Total GULP energy -89400.904632 kJ/mol
# GULP energy per Si atom -5587.556540 kJ/mol
# Density = 2.395976 g / cm^3
# Si number density = 24.014417 Si / 1000 Ang^3
#
#
#
# Elastic Constant Matrix: (Units=GPa)
#
#
# Indices 1 2 3 4 5 6 
#
# 1 156.6690 36.1782 55.5368 -7.1431 -30.3749 22.6416
# 2 36.1782 62.1980 30.9113 -15.3292 -4.0648 8.4654
# 3 55.5368 30.9113 85.9637 -14.2218 9.3432 20.3973
# 4 -7.1431 -15.3292 -14.2218 40.2749 5.1907 9.0410
# 5 -30.3749 -4.0648 9.3432 5.1907 47.3688 -5.1421
# 6 22.6416 8.4654 20.3973 9.0410 -5.1421 34.7935
#
#
#
# Elastic Compliance Matrix: (Units=1/GPa)
#
#
# Indices 1 2 3 4 5 6 
#
# 1 0.011414 -0.002916 -0.007766 -0.002959 0.008916 -0.000079
# 2 -0.002916 0.021940 -0.004121 0.007063 -0.000263 -0.002899
# 3 -0.007766 -0.004121 0.024128 0.010008 -0.012551 -0.012544
# 4 -0.002959 0.007063 0.010008 0.035296 -0.008886 -0.016145
# 5 0.008916 -0.000263 -0.012551 -0.008886 0.031182 0.008536
# 6 -0.000079 -0.002899 -0.012544 -0.016145 0.008536 0.042308
#
#
# Mechanical properties :
#
#
# Convention : Reuss Voigt Hill
#
# Bulk Modulus (GPa) = 35.87048 61.12035 48.49542
# Shear Modulus (GPa) = 24.37079 36.63441 30.50260
#
# Velocity S-wave (km/s) = 3.18911 3.91002 3.56782
# Velocity P-wave (km/s) = 5.34135 6.77430 6.10005
#
# Compressibility (1/GPa) = 0.02787808
#
# Stress axis : x y z
#
# Youngs Moduli (GPa) = 87.61042 45.57977 41.44639
#
# Poissons Ratio (x) = 0.13289 0.32185
# Poissons Ratio (y) = 0.25544 0.17078
# Poissons Ratio (z) = 0.68034 0.18781
#
# Static dielectric constant tensor:
#      x y z
#    x 1.905600 -0.032470 0.020950 
#    y -0.032470 2.023090 -0.030950 
#    z 0.020950 -0.030950 1.922690 
# 
# From -- ./inp_files/110551.got.cif
#   From: 2010.05.17/outbox.cif.g08.bks.cpg/sg2_56_cif.got.tgz:110551.got - 2010.06.03 11:33:40.
