data_PCOD9109680
_publ_section_title
;
Structure prediction by ZEFSAII (Michael W. Deem and Ramdas Pophale) SiO2 
 PCOD9109680
Probable space group: P -1
;
_chemical_formula_sum "Si O2"
_cell_formula_units_Z 16
_cell_length_a 21.157560
_cell_length_b 22.810923
_cell_length_c 7.604235
_cell_angle_alpha 131.666328
_cell_angle_beta 139.817394
_cell_angle_gamma 17.637852
_cell_volume 678.861223
_symmetry_space_group_name_H-M "P -1"
_symmetry_group_IT_number 2
_symmetry_cell_setting 'triclinic'
loop_
_space_group_symop_operation_xyz
x,y,z
-x,-y,-z
loop_
_atom_site_type_symbol
_atom_site_label
_atom_site_fract_x
_atom_site_fract_y
_atom_site_fract_z
Si Si1 0.615129 0.964743 0.839193
Si Si2 0.011019 0.940600 0.727458
Si Si3 0.609620 0.139614 0.460971
Si Si4 0.715860 0.732791 0.791848
Si Si5 0.309148 0.616755 0.479672
Si Si6 0.148378 0.987328 0.913869
Si Si7 0.613404 0.714057 0.178362
Si Si8 0.199215 0.535218 0.194809
O O1 0.639615 0.877499 0.864422
O O2 0.500000 0.000000 0.500000
O O3 0.473848 0.152606 0.875501
O O4 0.911204 0.771704 0.085512
O O5 0.263443 0.706985 0.731363
O O6 0.004672 0.012691 0.708590
O O7 0.794943 0.034724 0.491852
O O8 0.000000 0.000000 0.000000
O O9 0.494045 0.139973 0.257507
O O10 0.767104 0.041583 0.776334
O O11 0.351300 0.381606 0.369634
O O12 0.693296 0.698188 0.495307
O O13 0.000000 0.500000 0.000000
O O14 0.500000 0.500000 0.500000
O O15 0.362338 0.490877 0.407500
O O16 0.042048 0.816840 0.206737
O O17 0.404941 0.803417 0.977180
O O18 0.813407 0.516251 0.096935
#
# Coordination Sequence:
#
# PCOD9109680 Si02
#       8
#     2   2   2   2   2   2   2   2
#     4  10  22  41  67  92 133 176 229 288 352 407
#     4  10  22  43  69 100 143 184 223 284 349 415
#     4  10  22  40  66  94 137 181 220 289 349 407
#     4  10  20  41  66  96 131 175 235 289 344 412
#     4  12  24  41  71 107 137 184 237 282 347 425
#     4  10  20  42  67  98 137 178 224 282 344 413
#     4  10  22  41  69  95 137 175 226 296 347 412
#     4  12  23  41  67 100 132 178 231 284 350 418
#
# _framework density 23.568881000000001
#
# number of rings (size 3 to 8) (size 9 to 14) (size 15 to 20)
#    0.000    1.500    2.500    2.625    0.000    2.000 
#    0.000   16.875    2.750    0.000    0.000    0.000 
#    0.000    0.000    0.000    0.000    0.000    0.000 
#
# Total GULP energy -89123.680120 kJ/mol
# GULP energy per Si atom -5570.230008 kJ/mol
# Density = 2.351524 g / cm^3
# Si number density = 23.568881 Si / 1000 Ang^3
#
#
#
# Elastic Constant Matrix: (Units=GPa)
#
#
# Indices 1 2 3 4 5 6 
#
# 1 188.1466 38.6522 53.4174 13.0539 18.1693 26.9941
# 2 38.6522 76.6618 23.4796 13.3284 2.7556 16.2314
# 3 53.4174 23.4796 82.1087 8.0661 -3.2456 -2.7936
# 4 13.0539 13.3284 8.0661 35.3763 3.9769 3.2705
# 5 18.1693 2.7556 -3.2456 3.9769 53.5444 8.6961
# 6 26.9941 16.2314 -2.7936 3.2705 8.6961 43.2889
#
#
#
# Elastic Compliance Matrix: (Units=1/GPa)
#
#
# Indices 1 2 3 4 5 6 
#
# 1 0.007836 -0.001383 -0.004868 -0.000630 -0.002154 -0.004202
# 2 -0.001383 0.016767 -0.003609 -0.004550 0.000608 -0.005436
# 3 -0.004868 -0.003609 0.016773 -0.001383 0.002121 0.005150
# 4 -0.000630 -0.004550 -0.001383 0.030739 -0.001931 0.000075
# 5 -0.002154 0.000608 0.002121 -0.001931 0.020076 -0.002635
# 6 -0.004202 -0.005436 0.005150 0.000075 -0.002635 0.028615
#
#
# Mechanical properties :
#
#
# Convention : Reuss Voigt Hill
#
# Bulk Modulus (GPa) = 46.17829 64.22393 55.20111
# Shear Modulus (GPa) = 33.84208 41.86647 37.85427
#
# Velocity S-wave (km/s) = 3.79341 4.21924 4.01198
# Velocity P-wave (km/s) = 6.23074 7.14455 6.70323
#
# Compressibility (1/GPa) = 0.02165520
#
# Stress axis : x y z
#
# Youngs Moduli (GPa) = 127.61795 59.64098 59.61932
#
# Poissons Ratio (x) = 0.08249 0.29026
# Poissons Ratio (y) = 0.17652 0.21515
# Poissons Ratio (z) = 0.62131 0.21523
#
# Static dielectric constant tensor:
#      x y z
#    x 1.992390 -0.124590 -0.009430 
#    y -0.124590 1.929030 0.040660 
#    z -0.009430 0.040660 1.942890 
# 
# From -- ./inp_files/349560.got.cif
#   From: 2010.05.17/outbox.cif.g08.bks.cpg/sg2_175_cif.got.tgz:349560.got - 2010.06.03 11:33:40.
