data_PCOD9109875
_publ_section_title
;
Structure prediction by ZEFSAII (Michael W. Deem and Ramdas Pophale) SiO2 
 PCOD9109875
Probable space group: P -1
;
_chemical_formula_sum "Si O2"
_cell_formula_units_Z 12
_cell_length_a 12.343250
_cell_length_b 23.491739
_cell_length_c 9.405512
_cell_angle_alpha 26.829520
_cell_angle_beta 138.995012
_cell_angle_gamma 155.390881
_cell_volume 488.747887
_symmetry_space_group_name_H-M "P -1"
_symmetry_group_IT_number 2
_symmetry_cell_setting 'triclinic'
loop_
_space_group_symop_operation_xyz
x,y,z
-x,-y,-z
loop_
_atom_site_type_symbol
_atom_site_label
_atom_site_fract_x
_atom_site_fract_y
_atom_site_fract_z
Si Si1 0.049630 0.216262 0.328486
Si Si2 0.266522 0.572931 0.575695
Si Si3 0.929841 0.597247 0.531691
Si Si4 0.933878 0.899449 0.812852
Si Si5 0.649120 0.486565 0.774635
Si Si6 0.499135 0.126448 0.626373
O O1 0.132605 0.323388 0.322955
O O2 0.093383 0.092484 0.644536
O O3 0.743691 0.042310 0.351459
O O4 0.216419 0.401585 0.967276
O O5 0.281482 0.572371 0.422586
O O6 0.488609 0.769836 0.458046
O O7 0.000000 0.500000 0.500000
O O8 0.803472 0.501544 0.774110
O O9 0.210154 0.693510 0.567224
O O10 0.983948 0.781191 0.147908
O O11 0.609182 0.720595 0.928903
O O12 0.000000 0.000000 0.500000
O O13 0.500000 0.500000 0.500000
O O14 0.500000 0.000000 0.000000
#
# Coordination Sequence:
#
# PCOD9109875 Si02
#       6
#     2   2   2   2   2   2
#     4  12  23  43  71 103 138 184 231 285 341 412
#     4  10  20  41  68 100 139 178 231 286 333 403
#     4  10  22  45  69 102 144 186 218 294 349 392
#     4  11  22  46  71 104 131 178 244 278 339 419
#     4  10  26  47  64 102 150 179 226 288 349 408
#     4  11  21  42  70 103 137 178 241 277 336 419
#
# _framework density 24.552534999999999
#
# number of rings (size 3 to 8) (size 9 to 14) (size 15 to 20)
#    0.000    1.333    5.000    1.000    0.000    4.000 
#   15.000    7.500    0.000    0.000    0.000    0.000 
#    0.000    0.000    0.000    0.000    0.000    0.000 
#
# Total GULP energy -67006.054604 kJ/mol
# GULP energy per Si atom -5583.837884 kJ/mol
# Density = 2.449665 g / cm^3
# Si number density = 24.552535 Si / 1000 Ang^3
#
#
#
# Elastic Constant Matrix: (Units=GPa)
#
#
# Indices 1 2 3 4 5 6 
#
# 1 162.8238 82.5414 31.1920 -14.3329 -18.8089 -27.7392
# 2 82.5414 215.8910 42.9189 -14.8456 -10.7378 -31.5712
# 3 31.1920 42.9189 107.4351 -11.3126 -5.3184 -25.7232
# 4 -14.3329 -14.8456 -11.3126 35.2298 -9.0444 -0.5709
# 5 -18.8089 -10.7378 -5.3184 -9.0444 46.0793 4.4853
# 6 -27.7392 -31.5712 -25.7232 -0.5709 4.4853 59.3255
#
#
#
# Elastic Compliance Matrix: (Units=1/GPa)
#
#
# Indices 1 2 3 4 5 6 
#
# 1 0.008511 -0.002454 -0.000457 0.003152 0.003248 0.002260
# 2 -0.002454 0.006154 -0.001205 0.001336 0.000401 0.001587
# 3 -0.000457 -0.001205 0.011274 0.003270 0.001088 0.003983
# 4 0.003152 0.001336 0.003270 0.033444 0.008218 0.003304
# 5 0.003248 0.000401 0.001088 0.008218 0.024820 0.000406
# 6 0.002260 0.001587 0.003983 0.003304 0.000406 0.020486
#
#
# Mechanical properties :
#
#
# Convention : Reuss Voigt Hill
#
# Bulk Modulus (GPa) = 56.47755 88.82828 72.65291
# Shear Modulus (GPa) = 42.07931 50.09341 46.08636
#
# Velocity S-wave (km/s) = 4.14436 4.52182 4.33719
# Velocity P-wave (km/s) = 6.77891 7.96993 7.39843
#
# Compressibility (1/GPa) = 0.01770615
#
# Stress axis : x y z
#
# Youngs Moduli (GPa) = 117.49392 162.49858 88.70143
#
# Poissons Ratio (x) = 0.39884 0.04051
# Poissons Ratio (y) = 0.28838 0.10690
# Poissons Ratio (z) = 0.05366 0.19585
#
# Static dielectric constant tensor:
#      x y z
#    x 5.617440 5.594650 5.543400 
#    y 5.594650 10.439360 8.542180 
#    z 5.543400 8.542180 10.597130 
# 
# From -- ./inp_files/282662.got.cif
#   From: 2010.05.17/outbox.cif.g08.bks.cpg/sg2_142_cif.got.tgz:282662.got - 2010.06.03 11:33:40.
