data_PCOD9109473
_publ_section_title
;
Structure prediction by ZEFSAII (Michael W. Deem and Ramdas Pophale) SiO2 
 PCOD9109473
Probable space group: P -1
;
_chemical_formula_sum "Si O2"
_cell_formula_units_Z 16
_cell_length_a 5.861993
_cell_length_b 9.033020
_cell_length_c 17.243431
_cell_angle_alpha 50.743476
_cell_angle_beta 80.496574
_cell_angle_gamma 87.751186
_cell_volume 694.753345
_symmetry_space_group_name_H-M "P -1"
_symmetry_group_IT_number 2
_symmetry_cell_setting 'triclinic'
loop_
_space_group_symop_operation_xyz
x,y,z
-x,-y,-z
loop_
_atom_site_type_symbol
_atom_site_label
_atom_site_fract_x
_atom_site_fract_y
_atom_site_fract_z
Si Si1 0.790867 0.626249 0.264872
Si Si2 0.629172 0.546816 0.558152
Si Si3 0.233534 0.028737 0.535561
Si Si4 0.831915 0.202648 0.732143
Si Si5 0.972918 0.333931 0.250264
Si Si6 0.700661 0.524018 0.068147
Si Si7 0.508512 0.209069 0.894767
Si Si8 0.678302 0.773188 0.847587
O O1 0.568176 0.497826 0.350449
O O2 0.962231 0.469274 0.280411
O O3 0.715932 0.755371 0.155856
O O4 0.895507 0.772867 0.274779
O O5 0.500000 0.500000 0.500000
O O6 0.748004 0.758805 0.497813
O O7 0.792171 0.376383 0.619985
O O8 0.500000 0.000000 0.500000
O O9 0.179727 0.862049 0.657155
O O10 0.000000 0.000000 0.500000
O O11 0.715244 0.228488 0.814722
O O12 0.719217 0.999480 0.778120
O O13 0.868611 0.454593 0.147039
O O14 0.216185 0.277196 0.224390
O O15 0.506336 0.638245 0.086192
O O16 0.578505 0.331494 0.100672
O O17 0.798360 0.671122 0.947517
O O18 0.500000 0.000000 0.000000
#
# Coordination Sequence:
#
# PCOD9109473 Si02
#       8
#     2   2   2   2   2   2   2   2
#     4  10  23  44  66  96 135 179 233 289 358 440
#     4  11  27  46  70 105 142 185 242 313 369 436
#     4  12  28  50  80 111 149 200 257 309 376 451
#     4  11  24  42  66  97 138 180 235 292 369 433
#     4  11  24  43  70  96 137 183 238 291 359 437
#     4  10  23  43  65  97 138 177 238 293 362 433
#     4  10  20  41  65  94 129 180 226 289 354 434
#     4  11  24  41  66  99 136 183 229 299 363 438
#
# _framework density 23.029755999999999
#
# number of rings (size 3 to 8) (size 9 to 14) (size 15 to 20)
#    0.000    1.250    2.500    1.875    5.250    2.000 
#    2.250    0.000    0.000    0.000    0.000    0.000 
#    0.000    0.000    0.000    0.000    0.000    0.000 
#
# Total GULP energy -89272.549955 kJ/mol
# GULP energy per Si atom -5579.534372 kJ/mol
# Density = 2.297734 g / cm^3
# Si number density = 23.029756 Si / 1000 Ang^3
#
#
#
# Elastic Constant Matrix: (Units=GPa)
#
#
# Indices 1 2 3 4 5 6 
#
# 1 52.4468 31.3591 13.8383 -11.2509 0.6481 12.9905
# 2 31.3591 118.0985 32.1856 -39.8819 -3.3854 15.8729
# 3 13.8383 32.1856 88.1035 -24.3903 12.3782 0.3035
# 4 -11.2509 -39.8819 -24.3903 46.2533 1.5449 -8.7510
# 5 0.6481 -3.3854 12.3782 1.5449 26.9011 8.5913
# 6 12.9905 15.8729 0.3035 -8.7510 8.5913 32.1627
#
#
#
# Elastic Compliance Matrix: (Units=1/GPa)
#
#
# Indices 1 2 3 4 5 6 
#
# 1 0.024597 -0.005054 -0.002843 -0.001605 0.002929 -0.008633
# 2 -0.005054 0.013991 -0.002358 0.008833 0.003541 -0.003384
# 3 -0.002843 -0.002358 0.016142 0.007443 -0.010298 0.006936
# 4 -0.001605 0.008833 0.007443 0.034378 -0.006591 0.007334
# 5 0.002929 0.003541 -0.010298 -0.006591 0.048260 -0.017518
# 6 -0.008633 -0.003384 0.006936 0.007334 -0.017518 0.042858
#
#
# Mechanical properties :
#
#
# Convention : Reuss Voigt Hill
#
# Bulk Modulus (GPa) = 29.22349 45.93497 37.57923
# Shear Modulus (GPa) = 23.56894 33.14783 28.35838
#
# Velocity S-wave (km/s) = 3.20255 3.79799 3.51291
# Velocity P-wave (km/s) = 5.13733 6.26276 5.72775
#
# Compressibility (1/GPa) = 0.03421905
#
# Stress axis : x y z
#
# Youngs Moduli (GPa) = 40.65565 71.47274 61.95070
#
# Poissons Ratio (x) = 0.36125 0.17613
# Poissons Ratio (y) = 0.20549 0.14608
# Poissons Ratio (z) = 0.11559 0.16853
#
# Static dielectric constant tensor:
#      x y z
#    x 1.985700 0.005710 -0.008600 
#    y 0.005710 1.986060 -0.020130 
#    z -0.008600 -0.020130 1.893710 
# 
# From -- ./inp_files/38005.got.cif
#   From: 2010.05.17/outbox.cif.g08.bks.cpg/sg2_20_cif.got.tgz:38005.got - 2010.06.03 11:33:40.
