data_PCOD9109819
_publ_section_title
;
Structure prediction by ZEFSAII (Michael W. Deem and Ramdas Pophale) SiO2 
 PCOD9109819
Probable space group: P -1
;
_chemical_formula_sum "Si O2"
_cell_formula_units_Z 15
_cell_length_a 8.674075
_cell_length_b 19.901624
_cell_length_c 11.193220
_cell_angle_alpha 29.501400
_cell_angle_beta 103.491208
_cell_angle_gamma 124.036571
_cell_volume 617.378541
_symmetry_space_group_name_H-M "P -1"
_symmetry_group_IT_number 2
_symmetry_cell_setting 'triclinic'
loop_
_space_group_symop_operation_xyz
x,y,z
-x,-y,-z
loop_
_atom_site_type_symbol
_atom_site_label
_atom_site_fract_x
_atom_site_fract_y
_atom_site_fract_z
Si Si1 0.094411 0.839525 0.759873
Si Si2 0.500000 0.500000 0.500000
Si Si3 0.637768 0.230457 0.681948
Si Si4 0.037090 0.332187 0.730235
Si Si5 0.334970 0.244988 0.273566
Si Si6 0.985866 0.477412 0.890857
Si Si7 0.805743 0.913966 0.237243
Si Si8 0.271721 0.411654 0.347642
O O1 0.872578 0.782902 0.756476
O O2 0.023365 0.736671 0.036425
O O3 0.298330 0.082374 0.441843
O O4 0.144361 0.743862 0.831726
O O5 0.317136 0.513811 0.478222
O O6 0.458241 0.503574 0.344170
O O7 0.416222 0.187672 0.728205
O O8 0.855229 0.331431 0.652535
O O9 0.761578 0.360866 0.380860
O O10 0.500000 0.000000 0.000000
O O11 0.980644 0.152651 0.924411
O O12 0.294155 0.178951 0.504472
O O13 0.582720 0.467354 0.935155
O O14 0.868699 0.541234 0.724657
O O15 0.000000 0.500000 0.000000
O O16 0.895271 0.827054 0.337308
#
# Coordination Sequence:
#
# PCOD9109819 Si02
#       8
#     2   1   2   2   2   2   2   2
#     4  10  22  40  69  91 129 173 217 271 327 393
#     4  12  24  42  60 102 136 168 216 272 326 392
#     4  10  22  43  66  95 129 174 224 267 322 390
#     4  10  22  44  68  95 131 171 223 269 326 387
#     4  10  20  41  67  95 121 168 222 269 329 386
#     4  12  25  42  63  98 137 172 219 273 330 390
#     4  10  22  41  70  95 125 171 221 270 321 392
#     4  12  24  40  64  98 133 169 215 269 334 386
#
# _framework density 24.296277
#
# number of rings (size 3 to 8) (size 9 to 14) (size 15 to 20)
#    0.000    1.333    2.667    2.800    0.000    2.667 
#    0.000    0.000    0.000    0.000    0.000    0.000 
#    0.000    0.000    0.000    0.000    0.000    0.000 
#
# Total GULP energy -83621.635215 kJ/mol
# GULP energy per Si atom -5574.775681 kJ/mol
# Density = 2.424098 g / cm^3
# Si number density = 24.296277 Si / 1000 Ang^3
#
#
#
# Elastic Constant Matrix: (Units=GPa)
#
#
# Indices 1 2 3 4 5 6 
#
# 1 99.8262 28.6556 -0.2246 -13.3737 41.4915 2.2153
# 2 28.6556 122.8740 14.5943 8.9670 25.5733 -4.0780
# 3 -0.2246 14.5943 73.6610 -8.8608 26.8131 -13.6145
# 4 -13.3737 8.9670 -8.8608 37.9002 -10.2168 17.6327
# 5 41.4915 25.5733 26.8131 -10.2168 44.5408 -5.1551
# 6 2.2153 -4.0780 -13.6145 17.6327 -5.1551 43.4624
#
#
#
# Elastic Compliance Matrix: (Units=1/GPa)
#
#
# Indices 1 2 3 4 5 6 
#
# 1 0.020758 -0.001594 0.008718 0.005086 -0.022880 -0.003254
# 2 -0.001594 0.010108 -0.000348 -0.005617 -0.005098 0.002595
# 3 0.008718 -0.000348 0.021892 0.001143 -0.020434 0.003493
# 4 0.005086 -0.005617 0.001143 0.038214 0.004786 -0.015364
# 5 -0.022880 -0.005098 -0.020434 0.004786 0.060028 -0.000535
# 6 -0.003254 0.002595 0.003493 -0.015364 -0.000535 0.030682
#
#
# Mechanical properties :
#
#
# Convention : Reuss Voigt Hill
#
# Bulk Modulus (GPa) = 15.08058 42.49020 28.78539
# Shear Modulus (GPa) = 26.28345 42.06974 34.17660
#
# Velocity S-wave (km/s) = 3.29262 4.16568 3.75462
# Velocity P-wave (km/s) = 4.54704 6.37680 5.53801
#
# Compressibility (1/GPa) = 0.06631045
#
# Stress axis : x y z
#
# Youngs Moduli (GPa) = 48.17483 98.92769 45.67797
#
# Poissons Ratio (x) = 0.15766 -0.39821
# Poissons Ratio (y) = 0.07678 0.01590
# Poissons Ratio (z) = -0.41998 0.03444
#
# Static dielectric constant tensor:
#      x y z
#    x 1.985860 -0.048920 -0.009490 
#    y -0.048920 2.004210 -0.034580 
#    z -0.009490 -0.034580 2.046360 
# 
# From -- ./inp_files/404560.got.cif
#   From: 2010.05.17/outbox.cif.g08.bks.cpg/sg2_203_cif.got.tgz:404560.got - 2010.06.03 11:33:40.
