data_PCOD9109975
_publ_section_title
;
Structure prediction by ZEFSAII (Michael W. Deem and Ramdas Pophale) SiO2 
 PCOD9109975
Probable space group: P -1
;
_chemical_formula_sum "Si O2"
_cell_formula_units_Z 14
_cell_length_a 9.665146
_cell_length_b 11.649567
_cell_length_c 8.585436
_cell_angle_alpha 104.509551
_cell_angle_beta 62.879494
_cell_angle_gamma 65.721819
_cell_volume 660.203017
_symmetry_space_group_name_H-M "P -1"
_symmetry_group_IT_number 2
_symmetry_cell_setting 'triclinic'
loop_
_space_group_symop_operation_xyz
x,y,z
-x,-y,-z
loop_
_atom_site_type_symbol
_atom_site_label
_atom_site_fract_x
_atom_site_fract_y
_atom_site_fract_z
Si Si1 0.336604 0.026677 0.715207
Si Si2 0.403681 0.671876 0.165410
Si Si3 0.425182 0.265762 0.330467
Si Si4 0.074766 0.745980 0.158765
Si Si5 0.035709 0.457701 0.783635
Si Si6 0.321600 0.240231 0.048770
Si Si7 0.535482 0.473188 0.293103
O O1 0.125965 0.118222 0.769900
O O2 0.500000 0.000000 0.500000
O O3 0.400673 0.873585 0.708251
O O4 0.330877 0.122757 0.892972
O O5 0.194904 0.776097 0.222669
O O6 0.412061 0.634579 0.329254
O O7 0.500000 0.500000 0.000000
O O8 0.533140 0.726810 0.085785
O O9 0.253861 0.366786 0.577495
O O10 0.366864 0.206216 0.197029
O O11 0.468679 0.369512 0.257892
O O12 0.024936 0.650326 0.246195
O O13 0.236440 0.630383 0.908365
O O14 0.895323 0.606131 0.807025
O O15 0.000000 0.500000 0.000000
O O16 0.500000 0.500000 0.500000
#
# Coordination Sequence:
#
# PCOD9109975 Si02
#       7
#     2   2   2   2   2   2   2
#     4  12  27  45  68  94 141 186 225 270 340 414
#     4  10  20  41  68  96 134 168 214 287 339 385
#     4  12  25  43  66 105 137 177 228 278 334 407
#     4  11  21  44  66  94 134 179 218 269 345 394
#     4  12  21  39  73 100 128 175 231 278 333 392
#     4  12  23  44  70 100 134 176 227 286 334 398
#     4  11  23  40  72 105 135 167 228 285 339 393
#
# _framework density 21.205597999999998
#
# number of rings (size 3 to 8) (size 9 to 14) (size 15 to 20)
#    0.000    0.571    8.571    1.714    2.000    0.571 
#    0.000    0.714    0.000    0.000    0.000    0.000 
#    0.000    0.000    0.000    0.000    0.000    0.000 
#
# Total GULP energy -78178.433708 kJ/mol
# GULP energy per Si atom -5584.173836 kJ/mol
# Density = 2.115733 g / cm^3
# Si number density = 21.205598 Si / 1000 Ang^3
#
#
#
# Elastic Constant Matrix: (Units=GPa)
#
#
# Indices 1 2 3 4 5 6 
#
# 1 97.1854 31.2758 40.0190 14.1437 -12.8839 -24.3619
# 2 31.2758 84.3598 41.7007 5.5920 -10.6595 -24.1888
# 3 40.0190 41.7007 82.8518 -3.4329 -12.0637 -21.3662
# 4 14.1437 5.5920 -3.4329 29.0364 -6.7290 -3.3754
# 5 -12.8839 -10.6595 -12.0637 -6.7290 34.4409 -5.8409
# 6 -24.3619 -24.1888 -21.3662 -3.3754 -5.8409 50.8490
#
#
#
# Elastic Compliance Matrix: (Units=1/GPa)
#
#
# Indices 1 2 3 4 5 6 
#
# 1 0.015417 -0.000754 -0.005765 -0.006843 0.002939 0.004488
# 2 -0.000754 0.017570 -0.006720 -0.002434 0.003239 0.005384
# 3 -0.005765 -0.006720 0.020256 0.008098 0.005064 0.003672
# 4 -0.006843 -0.002434 0.008098 0.041372 0.008053 0.002637
# 5 0.002939 0.003239 0.005064 0.008053 0.036140 0.009762
# 6 0.004488 0.005384 0.003672 0.002637 0.009762 0.027217
#
#
# Mechanical properties :
#
#
# Convention : Reuss Voigt Hill
#
# Bulk Modulus (GPa) = 37.36241 54.48755 45.92498
# Shear Modulus (GPa) = 25.85698 32.95869 29.40784
#
# Velocity S-wave (km/s) = 3.49570 3.94667 3.72801
# Velocity P-wave (km/s) = 5.82672 6.82048 6.34309
#
# Compressibility (1/GPa) = 0.02676487
#
# Stress axis : x y z
#
# Youngs Moduli (GPa) = 64.86379 56.91677 49.36693
#
# Poissons Ratio (x) = 0.04291 0.28462
# Poissons Ratio (y) = 0.04890 0.33173
# Poissons Ratio (z) = 0.37397 0.38247
#
# Static dielectric constant tensor:
#      x y z
#    x 1.921890 0.026060 0.044860 
#    y 0.026060 1.807740 -0.024560 
#    z 0.044860 -0.024560 1.796040 
# 
# From -- ./inp_files/159208.got.cif
#   From: 2010.05.17/outbox.cif.g08.bks.cpg/sg2_80_cif.got.tgz:159208.got - 2010.06.03 11:33:40.
