data_PCOD9109072
_publ_section_title
;
Structure prediction by ZEFSAII (Michael W. Deem and Ramdas Pophale) SiO2 
 PCOD9109072
Probable space group: P -1
;
_chemical_formula_sum "Si O2"
_cell_formula_units_Z 16
_cell_length_a 16.637903
_cell_length_b 6.530647
_cell_length_c 7.603886
_cell_angle_alpha 109.500458
_cell_angle_beta 125.463049
_cell_angle_gamma 73.159679
_cell_volume 629.357182
_symmetry_space_group_name_H-M "P -1"
_symmetry_group_IT_number 2
_symmetry_cell_setting 'triclinic'
loop_
_space_group_symop_operation_xyz
x,y,z
-x,-y,-z
loop_
_atom_site_type_symbol
_atom_site_label
_atom_site_fract_x
_atom_site_fract_y
_atom_site_fract_z
Si Si1 0.758007 0.609695 0.161195
Si Si2 0.780508 0.809142 0.885013
Si Si3 0.611687 0.248019 0.231450
Si Si4 0.429888 0.599920 0.137666
Si Si5 0.173329 0.668136 0.364048
Si Si6 0.112625 0.817329 0.971439
Si Si7 0.934657 0.581442 0.606417
Si Si8 0.593930 0.063577 0.526012
O O1 0.816938 0.379289 0.096295
O O2 0.826070 0.677909 0.425046
O O3 0.751788 0.777815 0.041371
O O4 0.647996 0.566815 0.058998
O O5 0.811667 0.570220 0.777617
O O6 0.689495 0.915952 0.681435
O O7 0.868060 0.961361 0.034423
O O8 0.539805 0.473684 0.245425
O O9 0.726976 0.281512 0.400601
O O10 0.590619 0.084829 0.316751
O O11 0.584731 0.217882 0.983492
O O12 0.398910 0.694413 0.316168
O O13 0.083758 0.633492 0.369426
O O14 0.150379 0.830877 0.221821
O O15 0.002661 0.746875 0.825632
O O16 0.000000 0.500000 0.500000
O O17 0.500000 0.000000 0.500000
#
# Coordination Sequence:
#
# PCOD9109072 Si02
#       8
#     2   2   2   2   2   2   2   2
#     4  10  20  41  62  90 129 165 211 267 316 378
#     4  11  22  37  63  92 129 168 209 263 327 380
#     4  11  23  40  68  96 128 177 217 259 324 383
#     4  11  22  41  67  94 132 173 217 262 317 386
#     4  11  21  42  63  92 128 162 216 273 311 385
#     4  10  21  40  64  91 122 166 218 259 327 382
#     4  10  22  40  67  89 120 172 213 267 332 374
#     4  12  23  41  63  98 136 173 213 263 321 384
#
# _framework density 25.422764000000001
#
# number of rings (size 3 to 8) (size 9 to 14) (size 15 to 20)
#    0.000    1.250    3.750    3.000    0.000    1.500 
#    2.250    2.500    0.000    0.000    0.000    0.000 
#    0.000    0.000    0.000    0.000    0.000    0.000 
#
# Total GULP energy -89561.106491 kJ/mol
# GULP energy per Si atom -5597.569156 kJ/mol
# Density = 2.536490 g / cm^3
# Si number density = 25.422764 Si / 1000 Ang^3
#
#
#
# Elastic Constant Matrix: (Units=GPa)
#
#
# Indices 1 2 3 4 5 6 
#
# 1 93.5076 30.6314 16.4127 2.1528 9.0886 33.0860
# 2 30.6314 75.8982 23.0027 -8.1881 3.1658 24.7290
# 3 16.4127 23.0027 105.2966 -10.3614 5.5265 24.1381
# 4 2.1528 -8.1881 -10.3614 35.4205 17.9609 -2.3593
# 5 9.0886 3.1658 5.5265 17.9609 43.8154 0.5863
# 6 33.0860 24.7290 24.1381 -2.3593 0.5863 61.7644
#
#
#
# Elastic Compliance Matrix: (Units=1/GPa)
#
#
# Indices 1 2 3 4 5 6 
#
# 1 0.014369 -0.003807 0.000026 -0.001045 -0.002198 -0.006202
# 2 -0.003807 0.017072 -0.001690 0.004432 -0.001994 -0.003947
# 3 0.000026 -0.001690 0.011239 0.004160 -0.002959 -0.003543
# 4 -0.001045 0.004432 0.004160 0.038841 -0.016534 -0.001200
# 5 -0.002198 -0.001994 -0.002959 -0.016534 0.030544 0.002210
# 6 -0.006202 -0.003947 -0.003543 -0.001200 0.002210 0.022411
#
#
# Mechanical properties :
#
#
# Convention : Reuss Voigt Hill
#
# Bulk Modulus (GPa) = 31.50928 46.08845 38.79887
# Shear Modulus (GPa) = 32.05180 41.84376 36.94778
#
# Velocity S-wave (km/s) = 3.55456 4.06139 3.81640
# Velocity P-wave (km/s) = 5.40995 6.33730 5.89190
#
# Compressibility (1/GPa) = 0.03173668
#
# Stress axis : x y z
#
# Youngs Moduli (GPa) = 69.59373 58.57654 88.97704
#
# Poissons Ratio (x) = 0.22302 -0.00235
# Poissons Ratio (y) = 0.26497 0.15041
# Poissons Ratio (z) = -0.00184 0.09902
#
# Static dielectric constant tensor:
#      x y z
#    x 2.028880 0.008570 -0.017940 
#    y 0.008570 2.026980 0.023730 
#    z -0.017940 0.023730 2.023720 
# 
# From -- ./inp_files/53226.got.cif
#   From: 2010.05.17/outbox.cif.g08.bks.cpg/sg2_27_cif.got.tgz:53226.got - 2010.06.03 11:33:40.
