data_PCOD9109420
_publ_section_title
;
Structure prediction by ZEFSAII (Michael W. Deem and Ramdas Pophale) SiO2 
 PCOD9109420
Probable space group: P -1
;
_chemical_formula_sum "Si O2"
_cell_formula_units_Z 14
_cell_length_a 19.570305
_cell_length_b 13.619870
_cell_length_c 7.546944
_cell_angle_alpha 133.809674
_cell_angle_beta 144.369772
_cell_angle_gamma 27.178939
_cell_volume 531.678352
_symmetry_space_group_name_H-M "P -1"
_symmetry_group_IT_number 2
_symmetry_cell_setting 'triclinic'
loop_
_space_group_symop_operation_xyz
x,y,z
-x,-y,-z
loop_
_atom_site_type_symbol
_atom_site_label
_atom_site_fract_x
_atom_site_fract_y
_atom_site_fract_z
Si Si1 0.957945 0.600513 0.274604
Si Si2 0.246497 0.608012 0.230833
Si Si3 0.270967 0.874694 0.690202
Si Si4 0.518686 0.748456 0.467669
Si Si5 0.211721 0.160272 0.141813
Si Si6 0.843256 0.937076 0.683809
Si Si7 0.335275 0.439733 0.834035
O O1 0.051745 0.368889 0.186359
O O2 0.149897 0.515310 0.541488
O O3 0.855807 0.767920 0.429705
O O4 0.822333 0.730999 0.980899
O O5 0.320656 0.673813 0.571123
O O6 0.328972 0.399094 0.238962
O O7 0.298906 0.572418 0.088626
O O8 0.025801 0.809736 0.015756
O O9 0.157319 0.987294 0.411982
O O10 0.458989 0.794874 0.962090
O O11 0.172270 0.040558 0.849004
O O12 0.612519 0.585561 0.294522
O O13 0.411966 0.973733 0.429958
O O14 0.338216 0.858782 0.333629
#
# Coordination Sequence:
#
# PCOD9109420 Si02
#       7
#     2   2   2   2   2   2   2
#     4   9  20  43  69  89 129 173 211 265 322 381
#     4  11  23  43  64  94 133 171 210 264 315 388
#     4  10  20  41  65  90 131 173 209 260 323 379
#     4  11  24  39  65 101 128 164 217 266 316 382
#     4   9  21  40  65  96 125 170 217 260 319 386
#     4  10  22  41  66  93 130 171 212 262 324 376
#     4  10  22  39  65  93 127 167 211 260 322 374
#
# _framework density 26.331710999999999
#
# number of rings (size 3 to 8) (size 9 to 14) (size 15 to 20)
#    0.000    2.000    1.429    0.857    2.000    5.143 
#    0.000    5.714    0.000    0.000    0.000    0.000 
#    0.000    0.000    0.000    0.000    0.000    0.000 
#
# Total GULP energy -77958.194591 kJ/mol
# GULP energy per Si atom -5568.442471 kJ/mol
# Density = 2.627178 g / cm^3
# Si number density = 26.331711 Si / 1000 Ang^3
#
#
#
# Elastic Constant Matrix: (Units=GPa)
#
#
# Indices 1 2 3 4 5 6 
#
# 1 101.4179 48.6413 37.3771 -1.3301 -30.7857 -12.0551
# 2 48.6413 124.2282 38.5411 -0.4294 -0.6997 -11.9404
# 3 37.3771 38.5411 94.4561 -29.3698 -8.7727 7.3183
# 4 -1.3301 -0.4294 -29.3698 72.0145 -5.8674 -6.7453
# 5 -30.7857 -0.6997 -8.7727 -5.8674 33.0462 0.8167
# 6 -12.0551 -11.9404 7.3183 -6.7453 0.8167 22.0920
#
#
#
# Elastic Compliance Matrix: (Units=1/GPa)
#
#
# Indices 1 2 3 4 5 6 
#
# 1 0.020993 -0.005710 -0.004802 0.000759 0.018061 0.009524
# 2 -0.005710 0.011951 -0.004146 -0.001852 -0.006605 0.004396
# 3 -0.004802 -0.004146 0.016838 0.006042 0.001195 -0.008638
# 4 0.000759 -0.001852 0.006042 0.017005 0.005232 0.002411
# 5 0.018061 -0.006605 0.001195 0.005232 0.048051 0.005711
# 6 0.009524 0.004396 -0.008638 0.002411 0.005711 0.056224
#
#
# Mechanical properties :
#
#
# Convention : Reuss Voigt Hill
#
# Bulk Modulus (GPa) = 48.86422 63.24682 56.05552
# Shear Modulus (GPa) = 24.13119 38.46671 31.29895
#
# Velocity S-wave (km/s) = 3.03054 3.82625 3.45141
# Velocity P-wave (km/s) = 5.55365 6.60240 6.10061
#
# Compressibility (1/GPa) = 0.02046487
#
# Stress axis : x y z
#
# Youngs Moduli (GPa) = 47.63498 83.67586 59.39047
#
# Poissons Ratio (x) = 0.47782 0.28517
# Poissons Ratio (y) = 0.27201 0.24626
# Poissons Ratio (z) = 0.22872 0.34696
#
# Static dielectric constant tensor:
#      x y z
#    x 2.151400 0.030770 0.020480 
#    y 0.030770 2.120770 0.050210 
#    z 0.020480 0.050210 2.078660 
# 
# From -- ./inp_files/357629.got.cif
#   From: 2010.05.17/outbox.cif.g08.bks.cpg/sg2_179_cif.got.tgz:357629.got - 2010.06.03 11:33:40.
