data_PCOD9109231
_publ_section_title
;
Structure prediction by ZEFSAII (Michael W. Deem and Ramdas Pophale) SiO2 
 PCOD9109231
Probable space group: P -1
;
_chemical_formula_sum "Si O2"
_cell_formula_units_Z 14
_cell_length_a 9.116294
_cell_length_b 9.270267
_cell_length_c 15.178409
_cell_angle_alpha 130.390061
_cell_angle_beta 143.147104
_cell_angle_gamma 49.408348
_cell_volume 560.907566
_symmetry_space_group_name_H-M "P -1"
_symmetry_group_IT_number 2
_symmetry_cell_setting 'triclinic'
loop_
_space_group_symop_operation_xyz
x,y,z
-x,-y,-z
loop_
_atom_site_type_symbol
_atom_site_label
_atom_site_fract_x
_atom_site_fract_y
_atom_site_fract_z
Si Si1 0.859560 0.579716 0.559209
Si Si2 0.480447 0.730063 0.883931
Si Si3 0.622639 0.582962 0.173672
Si Si4 0.110040 0.036867 0.321403
Si Si5 0.011250 0.653763 0.142292
Si Si6 0.269277 0.006967 0.588662
Si Si7 0.556044 0.643688 0.689579
O O1 0.655466 0.469429 0.441452
O O2 0.000000 0.500000 0.500000
O O3 0.077673 0.523660 0.714841
O O4 0.749719 0.816517 0.596133
O O5 0.485438 0.508521 0.829417
O O6 0.188707 0.859086 0.805405
O O7 0.544517 0.752990 0.821633
O O8 0.715593 0.767108 0.066343
O O9 0.611804 0.813178 0.259206
O O10 0.500000 0.500000 0.000000
O O11 0.179130 0.040820 0.458272
O O12 0.148474 0.808658 0.231879
O O13 0.174448 0.525883 0.248452
O O14 0.000000 0.500000 0.000000
O O15 0.471780 0.802526 0.635481
O O16 0.000000 0.000000 0.500000
#
# Coordination Sequence:
#
# PCOD9109231 Si02
#       7
#     2   2   2   2   2   2   2
#     4  11  18  40  64  93 121 165 218 270 313 381
#     4  10  20  41  64  87 130 165 217 260 324 375
#     4  11  23  36  61 102 128 159 214 279 319 366
#     4  11  21  38  69  90 119 177 219 260 317 381
#     4  10  25  39  58  95 133 170 209 268 324 379
#     4  12  21  37  65  98 123 163 224 263 316 381
#     4  11  21  39  64  92 130 165 215 265 314 390
#
# _framework density 24.95955
#
# number of rings (size 3 to 8) (size 9 to 14) (size 15 to 20)
#    0.000    1.143    7.143    0.429    2.000    5.714 
#    0.000    0.714    0.000    0.000    0.000    0.000 
#    0.000    0.000    0.000    0.000    0.000    0.000 
#
# Total GULP energy -78232.069012 kJ/mol
# GULP energy per Si atom -5588.004929 kJ/mol
# Density = 2.490274 g / cm^3
# Si number density = 24.959550 Si / 1000 Ang^3
#
#
#
# Elastic Constant Matrix: (Units=GPa)
#
#
# Indices 1 2 3 4 5 6 
#
# 1 76.4172 46.6196 33.5613 -5.5982 0.2195 19.3398
# 2 46.6196 220.0544 86.2246 6.6793 4.5311 35.2262
# 3 33.5613 86.2246 170.0659 -7.3006 10.5968 5.4545
# 4 -5.5982 6.6793 -7.3006 68.3683 -0.6684 8.4188
# 5 0.2195 4.5311 10.5968 -0.6684 27.6472 3.1721
# 6 19.3398 35.2262 5.4545 8.4188 3.1721 33.9082
#
#
#
# Elastic Compliance Matrix: (Units=1/GPa)
#
#
# Indices 1 2 3 4 5 6 
#
# 1 0.017457 -0.001429 -0.002464 0.002419 0.002117 -0.008874
# 2 -0.001429 0.007034 -0.003157 -0.000401 0.000742 -0.005954
# 3 -0.002464 -0.003157 0.008058 0.000503 -0.002946 0.003539
# 4 0.002419 -0.000401 0.000503 0.015538 0.000801 -0.004977
# 5 0.002117 0.000742 -0.002946 0.000801 0.037781 -0.005237
# 6 -0.008874 -0.005954 0.003539 -0.004977 -0.005237 0.041895
#
#
# Mechanical properties :
#
#
# Convention : Reuss Voigt Hill
#
# Bulk Modulus (GPa) = 54.20081 88.81650 71.50865
# Shear Modulus (GPa) = 33.78062 45.99355 39.88708
#
# Velocity S-wave (km/s) = 3.68287 4.29735 4.00192
# Velocity P-wave (km/s) = 6.31247 7.76430 7.07572
#
# Compressibility (1/GPa) = 0.01844991
#
# Stress axis : x y z
#
# Youngs Moduli (GPa) = 57.28284 142.16377 124.09474
#
# Poissons Ratio (x) = 0.20322 0.30573
# Poissons Ratio (y) = 0.08188 0.39173
# Poissons Ratio (z) = 0.14113 0.44877
#
# Static dielectric constant tensor:
#      x y z
#    x 2.095540 -0.067120 -0.015220 
#    y -0.067120 2.028150 0.021000 
#    z -0.015220 0.021000 2.026250 
# 
# From -- ./inp_files/436431.got.cif
#   From: 2010.05.17/outbox.cif.g08.bks.cpg/sg2_219_cif.got.tgz:436431.got - 2010.06.03 11:33:40.
