data_PCOD9109610
_publ_section_title
;
Structure prediction by ZEFSAII (Michael W. Deem and Ramdas Pophale) SiO2 
 PCOD9109610
Probable space group: P -1
;
_chemical_formula_sum "Si O2"
_cell_formula_units_Z 16
_cell_length_a 8.844546
_cell_length_b 12.805660
_cell_length_c 8.620216
_cell_angle_alpha 94.094288
_cell_angle_beta 90.522750
_cell_angle_gamma 126.877639
_cell_volume 777.335712
_symmetry_space_group_name_H-M "P -1"
_symmetry_group_IT_number 2
_symmetry_cell_setting 'triclinic'
loop_
_space_group_symop_operation_xyz
x,y,z
-x,-y,-z
loop_
_atom_site_type_symbol
_atom_site_label
_atom_site_fract_x
_atom_site_fract_y
_atom_site_fract_z
Si Si1 0.263751 0.019496 0.701405
Si Si2 0.183506 0.473116 0.268176
Si Si3 0.381846 0.555927 0.970658
Si Si4 0.508145 0.721225 0.474965
Si Si5 0.857795 0.784981 0.684590
Si Si6 0.218273 0.623025 0.729417
Si Si7 0.557404 0.096962 0.155084
Si Si8 0.706193 0.854553 0.960750
O O1 0.389027 0.147827 0.611778
O O2 0.376181 0.957613 0.721921
O O3 0.230203 0.058752 0.875378
O O4 0.053589 0.907176 0.626214
O O5 0.383869 0.591800 0.354310
O O6 0.136485 0.336487 0.305010
O O7 0.004347 0.469393 0.310423
O O8 0.215546 0.491612 0.086702
O O9 0.291196 0.546205 0.801864
O O10 0.532582 0.711966 0.005312
O O11 0.500000 0.500000 0.000000
O O12 0.673909 0.735301 0.576049
O O13 0.348799 0.696884 0.589289
O O14 0.832201 0.828484 0.858407
O O15 0.272090 0.747686 0.848612
O O16 0.373812 0.095349 0.160869
O O17 0.500000 0.000000 0.000000
#
# Coordination Sequence:
#
# PCOD9109610 Si02
#       8
#     2   2   2   2   2   2   2   2
#     4  11  23  41  67  95 124 167 215 259 318 380
#     4  12  24  42  66  94 125 171 215 258 314 380
#     4  11  20  40  70  93 125 164 207 262 323 366
#     4  12  25  42  63  90 134 170 209 262 314 376
#     4  12  23  42  65  93 129 168 210 265 318 374
#     4  11  23  44  65  94 127 167 214 262 312 376
#     4   9  19  39  67  88 122 162 207 263 316 361
#     4  10  20  41  66  92 125 161 209 267 317 369
#
# _framework density 20.583127000000001
#
# number of rings (size 3 to 8) (size 9 to 14) (size 15 to 20)
#    0.000    1.000    6.250    1.875    0.000    0.500 
#    0.000    0.000    0.000    0.000    0.000    0.000 
#    0.000    0.000    0.000    0.000    0.000    0.000 
#
# Total GULP energy -89197.345469 kJ/mol
# GULP energy per Si atom -5574.834092 kJ/mol
# Density = 2.053628 g / cm^3
# Si number density = 20.583127 Si / 1000 Ang^3
#
#
#
# Elastic Constant Matrix: (Units=GPa)
#
#
# Indices 1 2 3 4 5 6 
#
# 1 106.7962 51.1608 33.4713 -16.4266 15.9554 10.7255
# 2 51.1608 96.4690 24.8818 -13.5662 8.8969 6.9070
# 3 33.4713 24.8818 62.9526 -16.4790 2.4808 6.6552
# 4 -16.4266 -13.5662 -16.4790 23.5440 0.3468 -2.7953
# 5 15.9554 8.8969 2.4808 0.3468 17.7820 -4.8736
# 6 10.7255 6.9070 6.6552 -2.7953 -4.8736 40.9332
#
#
#
# Elastic Compliance Matrix: (Units=1/GPa)
#
#
# Indices 1 2 3 4 5 6 
#
# 1 0.016331 -0.005419 -0.004349 0.004960 -0.012475 -0.003804
# 2 -0.005419 0.014434 -0.001805 0.003214 -0.002386 -0.000787
# 3 -0.004349 -0.001805 0.021894 0.011088 0.001202 -0.001215
# 4 0.004960 0.003214 0.011088 0.055570 -0.008940 -0.000914
# 5 -0.012475 -0.002386 0.001202 -0.008940 0.071758 0.011409
# 6 -0.003804 -0.000787 -0.001215 -0.000914 0.011409 0.027053
#
#
# Mechanical properties :
#
#
# Convention : Reuss Voigt Hill
#
# Bulk Modulus (GPa) = 33.88336 53.91617 43.89977
# Shear Modulus (GPa) = 20.83114 26.89877 23.86496
#
# Velocity S-wave (km/s) = 3.18472 3.61894 3.40875
# Velocity P-wave (km/s) = 5.47912 6.61162 6.07183
#
# Compressibility (1/GPa) = 0.02951301
#
# Stress axis : x y z
#
# Youngs Moduli (GPa) = 61.23137 69.28155 45.67359
#
# Poissons Ratio (x) = 0.37543 0.19865
# Poissons Ratio (y) = 0.33181 0.08245
# Poissons Ratio (z) = 0.26632 0.12506
#
# Static dielectric constant tensor:
#      x y z
#    x 1.762210 -0.007420 0.011540 
#    y -0.007420 1.728030 0.056070 
#    z 0.011540 0.056070 1.794400 
# 
# From -- ./inp_files/187670.got.cif
#   From: 2010.05.17/outbox.cif.g08.bks.cpg/sg2_94_cif.got.tgz:187670.got - 2010.06.03 11:33:40.
