data_PCOD9109460
_publ_section_title
;
Structure prediction by ZEFSAII (Michael W. Deem and Ramdas Pophale) SiO2 
 PCOD9109460
Probable space group: P -1
;
_chemical_formula_sum "Si O2"
_cell_formula_units_Z 14
_cell_length_a 9.409288
_cell_length_b 10.066311
_cell_length_c 22.571644
_cell_angle_alpha 131.036105
_cell_angle_beta 27.453017
_cell_angle_gamma 118.506539
_cell_volume 708.519435
_symmetry_space_group_name_H-M "P -1"
_symmetry_group_IT_number 2
_symmetry_cell_setting 'triclinic'
loop_
_space_group_symop_operation_xyz
x,y,z
-x,-y,-z
loop_
_atom_site_type_symbol
_atom_site_label
_atom_site_fract_x
_atom_site_fract_y
_atom_site_fract_z
Si Si1 0.776343 0.925831 0.777205
Si Si2 0.133962 0.794562 0.729010
Si Si3 0.076746 0.904587 0.006696
Si Si4 0.112516 0.497399 0.890825
Si Si5 0.789898 0.325087 0.861235
Si Si6 0.271061 0.424013 0.630518
Si Si7 0.731930 0.396250 0.560554
O O1 0.901182 0.876977 0.783869
O O2 0.064752 0.810193 0.593972
O O3 0.700339 0.139923 0.852001
O O4 0.456647 0.866366 0.868347
O O5 0.065708 0.618362 0.734494
O O6 0.489739 0.702201 0.542954
O O7 0.107901 0.955047 0.832913
O O8 0.003907 0.711198 0.974358
O O9 0.000000 0.000000 0.000000
O O10 0.494702 0.418527 0.710840
O O11 0.942083 0.378262 0.880111
O O12 0.000000 0.500000 0.000000
O O13 0.059243 0.311279 0.707060
O O14 0.500000 0.500000 0.000000
O O15 0.494153 0.470303 0.613814
O O16 0.000000 0.500000 0.500000
#
# Coordination Sequence:
#
# PCOD9109460 Si02
#       7
#     2   2   2   2   2   2   2
#     4  11  23  39  68  91 117 176 215 253 311 384
#     4  10  21  38  61  94 122 157 221 256 306 376
#     4  12  23  39  62  90 127 167 211 255 317 377
#     4  11  24  40  62  94 128 160 203 270 316 359
#     4  11  23  43  61  90 130 166 208 257 319 377
#     4   9  21  39  63  91 125 168 203 269 311 366
#     4  10  20  41  65  93 129 164 212 259 317 379
#
# _framework density 19.759515
#
# number of rings (size 3 to 8) (size 9 to 14) (size 15 to 20)
#    0.000    1.429    1.429    4.714    0.000    7.429 
#    2.571    0.000    0.000    3.429    0.000    0.000 
#    0.000    0.000    0.000    0.000    0.000    0.000 
#
# Total GULP energy -78213.609862 kJ/mol
# GULP energy per Si atom -5586.686419 kJ/mol
# Density = 1.971454 g / cm^3
# Si number density = 19.759515 Si / 1000 Ang^3
#
#
#
# Elastic Constant Matrix: (Units=GPa)
#
#
# Indices 1 2 3 4 5 6 
#
# 1 46.8653 8.1504 31.6800 -3.4794 5.2142 -9.9952
# 2 8.1504 54.8516 0.8954 10.5573 -0.8452 -14.8793
# 3 31.6800 0.8954 105.3527 0.0139 23.2411 -8.1009
# 4 -3.4794 10.5573 0.0139 33.3374 -4.2216 -2.6893
# 5 5.2142 -0.8452 23.2411 -4.2216 36.1459 -0.0920
# 6 -9.9952 -14.8793 -8.1009 -2.6893 -0.0920 29.7222
#
#
#
# Elastic Compliance Matrix: (Units=1/GPa)
#
#
# Indices 1 2 3 4 5 6 
#
# 1 0.029310 -0.003442 -0.008725 0.004893 0.001888 0.006204
# 2 -0.003442 0.022763 0.001823 -0.006870 -0.000920 0.010110
# 3 -0.008725 0.001823 0.013975 -0.002377 -0.007958 0.001548
# 4 0.004893 -0.006870 -0.002377 0.033307 0.004553 0.000586
# 5 0.001888 -0.000920 -0.007958 0.004553 0.033017 -0.001480
# 6 0.006204 0.010110 0.001548 0.000586 -0.001480 0.041263
#
#
# Mechanical properties :
#
#
# Convention : Reuss Voigt Hill
#
# Bulk Modulus (GPa) = 22.04570 32.05790 27.05180
# Shear Modulus (GPa) = 23.87272 30.93070 27.40171
#
# Velocity S-wave (km/s) = 3.47964 3.96075 3.72796
# Velocity P-wave (km/s) = 5.22734 6.09721 5.67895
#
# Compressibility (1/GPa) = 0.04536032
#
# Stress axis : x y z
#
# Youngs Moduli (GPa) = 34.11749 43.93016 71.55699
#
# Poissons Ratio (x) = 0.15123 0.62431
# Poissons Ratio (y) = 0.11745 -0.13044
# Poissons Ratio (z) = 0.29767 -0.08008
#
# Static dielectric constant tensor:
#      x y z
#    x 1.670650 0.005280 -0.001740 
#    y 0.005280 1.645320 -0.000820 
#    z -0.001740 -0.000820 1.723480 
# 
# From -- ./inp_files/173130.got.cif
#   From: 2010.05.17/outbox.cif.g08.bks.cpg/sg2_87_cif.got.tgz:173130.got - 2010.06.03 11:33:40.
