data_PCOD9109309
_publ_section_title
;
Structure prediction by ZEFSAII (Michael W. Deem and Ramdas Pophale) SiO2 
 PCOD9109309
Probable space group: P -1
;
_chemical_formula_sum "Si O2"
_cell_formula_units_Z 16
_cell_length_a 8.605253
_cell_length_b 14.812967
_cell_length_c 12.444594
_cell_angle_alpha 33.174418
_cell_angle_beta 53.842193
_cell_angle_gamma 65.319686
_cell_volume 690.298340
_symmetry_space_group_name_H-M "P -1"
_symmetry_group_IT_number 2
_symmetry_cell_setting 'triclinic'
loop_
_space_group_symop_operation_xyz
x,y,z
-x,-y,-z
loop_
_atom_site_type_symbol
_atom_site_label
_atom_site_fract_x
_atom_site_fract_y
_atom_site_fract_z
Si Si1 0.958758 0.258471 0.952403
Si Si2 0.591121 0.187784 0.310322
Si Si3 0.140439 0.864453 0.099398
Si Si4 0.414901 0.114561 0.132541
Si Si5 0.900070 0.088279 0.688973
Si Si6 0.267310 0.275719 0.240593
Si Si7 0.226722 0.591265 0.816635
Si Si8 0.652480 0.553227 0.292188
O O1 0.749118 0.267477 0.078412
O O2 0.946362 0.275883 0.811994
O O3 0.001576 0.074437 0.156067
O O4 0.133755 0.384764 0.807266
O O5 0.399802 0.270354 0.296304
O O6 0.710056 0.230531 0.329365
O O7 0.500000 0.000000 0.500000
O O8 0.142483 0.832678 0.257708
O O9 0.365521 0.922872 0.912825
O O10 0.000000 0.000000 0.000000
O O11 0.319814 0.150334 0.250355
O O12 0.284791 0.983484 0.237401
O O13 0.416343 0.291972 0.895066
O O14 0.048059 0.212950 0.431251
O O15 0.308879 0.458022 0.991367
O O16 0.322072 0.585601 0.667468
O O17 0.000000 0.500000 0.000000
O O18 0.500000 0.500000 0.500000
#
# Coordination Sequence:
#
# PCOD9109309 Si02
#       8
#     2   2   2   2   2   2   2   2
#     4  10  20  41  64  93 135 172 221 279 329 396
#     4  12  23  42  71  99 137 178 221 276 342 396
#     4  10  21  38  60  92 133 174 217 276 329 389
#     4  10  21  39  63  91 135 176 220 278 333 397
#     4  10  21  37  62 100 132 171 226 272 330 403
#     4  11  23  40  67  98 132 174 221 276 342 396
#     4  11  25  45  67  99 136 175 226 281 332 402
#     4  10  23  44  67  91 130 182 224 276 337 398
#
# _framework density 23.178384999999999
#
# number of rings (size 3 to 8) (size 9 to 14) (size 15 to 20)
#    0.000    1.500    3.750    1.125    0.000    3.000 
#    4.500    0.625    0.000    0.000    0.000    0.000 
#    0.000    0.000    0.000    0.000    0.000    0.000 
#
# Total GULP energy -89402.541374 kJ/mol
# GULP energy per Si atom -5587.658836 kJ/mol
# Density = 2.312563 g / cm^3
# Si number density = 23.178385 Si / 1000 Ang^3
#
#
#
# Elastic Constant Matrix: (Units=GPa)
#
#
# Indices 1 2 3 4 5 6 
#
# 1 95.5502 29.5132 10.2584 -8.2553 -17.5274 12.4427
# 2 29.5132 137.0918 50.6215 18.7113 -10.9360 32.9986
# 3 10.2584 50.6215 85.3786 12.0698 -10.1970 15.7846
# 4 -8.2553 18.7113 12.0698 40.0284 1.4407 -0.3049
# 5 -17.5274 -10.9360 -10.1970 1.4407 31.2087 5.8875
# 6 12.4427 32.9986 15.7846 -0.3049 5.8875 42.7023
#
#
#
# Elastic Compliance Matrix: (Units=1/GPa)
#
#
# Indices 1 2 3 4 5 6 
#
# 1 0.013116 -0.002112 0.000748 0.003175 0.007377 -0.003461
# 2 -0.002112 0.012171 -0.004458 -0.004957 0.003291 -0.007631
# 3 0.000748 -0.004458 0.015834 -0.002734 0.004781 -0.003305
# 4 0.003175 -0.004957 -0.002734 0.028922 -0.003039 0.004542
# 5 0.007377 0.003291 0.004781 -0.003039 0.041339 -0.012181
# 6 -0.003461 -0.007631 -0.003305 0.004542 -0.012181 0.033257
#
#
# Mechanical properties :
#
#
# Convention : Reuss Voigt Hill
#
# Bulk Modulus (GPa) = 33.92296 55.42299 44.67298
# Shear Modulus (GPa) = 30.10079 37.96304 34.03192
#
# Velocity S-wave (km/s) = 3.60760 4.05144 3.83595
# Velocity P-wave (km/s) = 5.65866 6.77119 6.23977
#
# Compressibility (1/GPa) = 0.02947856
#
# Stress axis : x y z
#
# Youngs Moduli (GPa) = 76.24413 82.16204 63.15415
#
# Poissons Ratio (x) = 0.17349 -0.04725
# Poissons Ratio (y) = 0.16100 0.28153
# Poissons Ratio (z) = -0.05705 0.36627
#
# Static dielectric constant tensor:
#      x y z
#    x 1.988630 -0.005540 0.009580 
#    y -0.005540 1.922830 -0.024160 
#    z 0.009580 -0.024160 1.879390 
# 
# From -- ./inp_files/396925.got.cif
#   From: 2010.05.17/outbox.cif.g08.bks.cpg/sg2_199_cif.got.tgz:396925.got - 2010.06.03 11:33:40.
