data_PCOD9109754
_publ_section_title
;
Structure prediction by ZEFSAII (Michael W. Deem and Ramdas Pophale) SiO2 
 PCOD9109754
Probable space group: P -1
;
_chemical_formula_sum "Si O2"
_cell_formula_units_Z 12
_cell_length_a 15.861099
_cell_length_b 8.788639
_cell_length_c 13.777971
_cell_angle_alpha 139.708014
_cell_angle_beta 146.470826
_cell_angle_gamma 32.983257
_cell_volume 564.506360
_symmetry_space_group_name_H-M "P -1"
_symmetry_group_IT_number 2
_symmetry_cell_setting 'triclinic'
loop_
_space_group_symop_operation_xyz
x,y,z
-x,-y,-z
loop_
_atom_site_type_symbol
_atom_site_label
_atom_site_fract_x
_atom_site_fract_y
_atom_site_fract_z
Si Si1 0.692962 0.340402 0.551135
Si Si2 0.809276 0.031779 0.319625
Si Si3 0.057421 0.935870 0.159583
Si Si4 0.189302 0.260537 0.119714
Si Si5 0.450056 0.738084 0.988407
Si Si6 0.188304 0.510325 0.913918
O O1 0.500000 0.500000 0.500000
O O2 0.696031 0.176869 0.380052
O O3 0.851076 0.129529 0.678814
O O4 0.740792 0.567256 0.676054
O O5 0.840924 0.725788 0.189956
O O6 0.701259 0.217981 0.212754
O O7 0.000000 0.000000 0.500000
O O8 0.197146 0.684505 0.097098
O O9 0.878419 0.916616 0.977924
O O10 0.982722 0.245116 0.196097
O O11 0.352330 0.040439 0.096548
O O12 0.000000 0.500000 0.000000
O O13 0.500000 0.500000 0.000000
O O14 0.629216 0.647317 0.053564
#
# Coordination Sequence:
#
# PCOD9109754 Si02
#       6
#     2   2   2   2   2   2
#     4  11  22  39  63  94 134 167 211 269 334 378
#     4  12  25  42  65  98 132 169 212 272 335 378
#     4  10  21  41  65  95 124 177 222 262 319 388
#     4  10  20  41  67  89 128 173 213 258 320 390
#     4  12  24  44  69  99 127 171 228 265 314 396
#     4  11  23  42  69  93 131 173 225 265 316 398
#
# _framework density 21.257511000000001
#
# number of rings (size 3 to 8) (size 9 to 14) (size 15 to 20)
#    0.000    1.000    1.667    7.500    0.000    0.667 
#    3.000    0.833    0.000    0.000    0.000    0.000 
#    0.000    0.000    0.000    0.000    0.000    0.000 
#
# Total GULP energy -67090.767329 kJ/mol
# GULP energy per Si atom -5590.897277 kJ/mol
# Density = 2.120913 g / cm^3
# Si number density = 21.257511 Si / 1000 Ang^3
#
#
#
# Elastic Constant Matrix: (Units=GPa)
#
#
# Indices 1 2 3 4 5 6 
#
# 1 87.6713 35.9469 22.1029 -12.9798 -3.5057 4.9784
# 2 35.9469 118.6459 33.0593 0.2045 -8.9021 -5.1518
# 3 22.1029 33.0593 67.9426 -9.7982 -13.3333 24.7582
# 4 -12.9798 0.2045 -9.7982 24.5510 -5.4828 -7.9260
# 5 -3.5057 -8.9021 -13.3333 -5.4828 44.0066 -6.2998
# 6 4.9784 -5.1518 24.7582 -7.9260 -6.2998 46.4701
#
#
#
# Elastic Compliance Matrix: (Units=1/GPa)
#
#
# Indices 1 2 3 4 5 6 
#
# 1 0.014520 -0.003850 -0.001753 0.007285 0.000797 0.000302
# 2 -0.003850 0.011641 -0.006499 -0.003136 0.000358 0.004679
# 3 -0.001753 -0.006499 0.024706 0.006275 0.005105 -0.011933
# 4 0.007285 -0.003136 0.006275 0.050864 0.008960 0.005419
# 5 0.000797 0.000358 0.005105 0.008960 0.025847 0.002267
# 6 0.000302 0.004679 -0.011933 0.005419 0.002267 0.029595
#
#
# Mechanical properties :
#
#
# Convention : Reuss Voigt Hill
#
# Bulk Modulus (GPa) = 37.50576 50.71979 44.11277
# Shear Modulus (GPa) = 26.27907 35.21559 30.74733
#
# Velocity S-wave (km/s) = 3.51981 4.07457 3.80731
# Velocity P-wave (km/s) = 5.84813 6.78585 6.33436
#
# Compressibility (1/GPa) = 0.02666257
#
# Stress axis : x y z
#
# Youngs Moduli (GPa) = 68.86953 85.90118 40.47624
#
# Poissons Ratio (x) = 0.33075 0.07097
# Poissons Ratio (y) = 0.26517 0.26305
# Poissons Ratio (z) = 0.12075 0.55825
#
# Static dielectric constant tensor:
#      x y z
#    x 1.822110 -0.017180 0.007420 
#    y -0.017180 1.794050 0.010300 
#    z 0.007420 0.010300 1.743080 
# 
# From -- ./inp_files/537856.got.cif
#   From: 2010.05.17/outbox.cif.g08.bks.cpg/sg2_269_cif.got.tgz:537856.got - 2010.06.03 11:33:40.
