data_PCOD9109382
_publ_section_title
;
Structure prediction by ZEFSAII (Michael W. Deem and Ramdas Pophale) SiO2 
 PCOD9109382
Probable space group: P -1
;
_chemical_formula_sum "Si O2"
_cell_formula_units_Z 16
_cell_length_a 17.864380
_cell_length_b 8.691145
_cell_length_c 15.747341
_cell_angle_alpha 130.304452
_cell_angle_beta 157.588055
_cell_angle_gamma 50.363830
_cell_volume 704.160591
_symmetry_space_group_name_H-M "P -1"
_symmetry_group_IT_number 2
_symmetry_cell_setting 'triclinic'
loop_
_space_group_symop_operation_xyz
x,y,z
-x,-y,-z
loop_
_atom_site_type_symbol
_atom_site_label
_atom_site_fract_x
_atom_site_fract_y
_atom_site_fract_z
Si Si1 0.948578 0.065651 0.872542
Si Si2 0.032851 0.624837 0.796335
Si Si3 0.346671 0.578960 0.258158
Si Si4 0.615759 0.189357 0.173940
Si Si5 0.755034 0.431269 0.560961
Si Si6 0.112778 0.818293 0.699426
Si Si7 0.142239 0.212668 0.979752
Si Si8 0.227394 0.396689 0.761769
O O1 0.746742 0.221518 0.716560
O O2 0.113457 0.173255 0.035152
O O3 0.958096 0.847313 0.760247
O O4 0.000000 0.000000 0.000000
O O5 0.093817 0.469838 0.729934
O O6 0.862149 0.570853 0.659686
O O7 0.227278 0.611042 0.054952
O O8 0.576372 0.548936 0.468575
O O9 0.288381 0.373021 0.165483
O O10 0.669346 0.276926 0.351576
O O11 0.804781 0.143473 0.294209
O O12 0.452147 0.344284 0.007839
O O13 0.500000 0.000000 0.000000
O O14 0.927300 0.317951 0.759486
O O15 0.205528 0.592585 0.747763
O O16 0.878258 0.794611 0.448833
O O17 0.177504 0.998511 0.889847
#
# Coordination Sequence:
#
# PCOD9109382 Si02
#       8
#     2   2   2   2   2   2   2   2
#     4  10  22  43  69  91 118 164 209 255 318 365
#     4  10  20  41  65  88 122 164 208 253 303 365
#     4  10  22  41  65  90 125 161 203 262 307 360
#     4  12  24  38  62  94 128 167 208 244 305 371
#     4  11  23  38  62  92 127 162 205 254 304 366
#     4  11  24  39  63  91 127 168 205 252 303 363
#     4  11  23  41  64  93 125 161 207 255 309 366
#     4  11  22  41  62  87 129 168 203 253 303 360
#
# _framework density 22.722090000000001
#
# number of rings (size 3 to 8) (size 9 to 14) (size 15 to 20)
#    0.000    1.250    3.750    2.250    1.750    2.000 
#    0.000    3.750    0.000    0.000    0.000    0.000 
#    0.000    0.000    0.000    0.000    0.000    0.000 
#
# Total GULP energy -89451.595828 kJ/mol
# GULP energy per Si atom -5590.724739 kJ/mol
# Density = 2.267037 g / cm^3
# Si number density = 22.722090 Si / 1000 Ang^3
#
#
#
# Elastic Constant Matrix: (Units=GPa)
#
#
# Indices 1 2 3 4 5 6 
#
# 1 99.5090 20.4638 22.4337 -0.5053 16.3825 6.9250
# 2 20.4638 85.7520 28.5284 9.9950 13.8624 10.6179
# 3 22.4337 28.5284 89.0017 2.6191 16.1029 4.3080
# 4 -0.5053 9.9950 2.6191 19.1018 -3.6838 4.8436
# 5 16.3825 13.8624 16.1029 -3.6838 31.1034 0.8599
# 6 6.9250 10.6179 4.3080 4.8436 0.8599 30.1568
#
#
#
# Elastic Compliance Matrix: (Units=1/GPa)
#
#
# Indices 1 2 3 4 5 6 
#
# 1 0.011571 -0.001360 -0.001596 0.000865 -0.004506 -0.001961
# 2 -0.001360 0.015193 -0.003199 -0.007747 -0.005228 -0.003187
# 3 -0.001596 -0.003199 0.013590 -0.001145 -0.004902 -0.000125
# 4 0.000865 -0.007747 -0.001145 0.060563 0.010966 -0.007347
# 5 -0.004506 -0.005228 -0.004902 0.010966 0.040673 0.000655
# 6 -0.001961 -0.003187 -0.000125 -0.007347 0.000655 0.035912
#
#
# Mechanical properties :
#
#
# Convention : Reuss Voigt Hill
#
# Bulk Modulus (GPa) = 35.65779 46.34606 41.00192
# Shear Modulus (GPa) = 25.10550 29.59486 27.35018
#
# Velocity S-wave (km/s) = 3.32760 3.61289 3.47318
# Velocity P-wave (km/s) = 5.52186 6.15184 5.84535
#
# Compressibility (1/GPa) = 0.02804436
#
# Stress axis : x y z
#
# Youngs Moduli (GPa) = 86.41929 65.81928 73.58342
#
# Poissons Ratio (x) = 0.08952 0.11744
# Poissons Ratio (y) = 0.11754 0.23539
# Poissons Ratio (z) = 0.13793 0.21055
#
# Static dielectric constant tensor:
#      x y z
#    x 1.860790 -0.009280 -0.042570 
#    y -0.009280 1.892760 0.013520 
#    z -0.042570 0.013520 1.858950 
# 
# From -- ./inp_files/39463.got.cif
#   From: 2010.05.17/outbox.cif.g08.bks.cpg/sg2_20_cif.got.tgz:39463.got - 2010.06.03 11:33:40.
