data_PCOD9109867
_publ_section_title
;
Structure prediction by ZEFSAII (Michael W. Deem and Ramdas Pophale) SiO2 
 PCOD9109867
Probable space group: P -1
;
_chemical_formula_sum "Si O2"
_cell_formula_units_Z 14
_cell_length_a 5.494040
_cell_length_b 17.269379
_cell_length_c 8.971704
_cell_angle_alpha 139.634727
_cell_angle_beta 66.060605
_cell_angle_gamma 108.366442
_cell_volume 503.850854
_symmetry_space_group_name_H-M "P -1"
_symmetry_group_IT_number 2
_symmetry_cell_setting 'triclinic'
loop_
_space_group_symop_operation_xyz
x,y,z
-x,-y,-z
loop_
_atom_site_type_symbol
_atom_site_label
_atom_site_fract_x
_atom_site_fract_y
_atom_site_fract_z
Si Si1 0.347755 0.914876 0.797895
Si Si2 0.103507 0.600199 0.006181
Si Si3 0.025019 0.221340 0.477823
Si Si4 0.721551 0.927585 0.436991
Si Si5 0.925458 0.417840 0.557727
Si Si6 0.371146 0.299179 0.066877
Si Si7 0.403439 0.741455 0.753006
O O1 0.098456 0.904711 0.728057
O O2 0.577380 0.899960 0.591347
O O3 0.217821 0.829534 0.836251
O O4 0.500000 0.000000 0.000000
O O5 0.989113 0.546625 0.801264
O O6 0.421314 0.615409 0.945420
O O7 0.007147 0.728941 0.275886
O O8 0.000000 0.500000 0.000000
O O9 0.873569 0.326642 0.575655
O O10 0.321671 0.233783 0.364408
O O11 0.500000 0.000000 0.500000
O O12 0.752456 0.802992 0.155407
O O13 0.000000 0.000000 0.500000
O O14 0.174562 0.369914 0.329576
O O15 0.685017 0.391034 0.465490
O O16 0.562883 0.236141 0.050460
#
# Coordination Sequence:
#
# PCOD9109867 Si02
#       7
#     2   2   2   2   2   2   2
#     4  11  24  43  68  97 137 186 238 300 363 431
#     4  10  20  41  67  99 139 184 239 296 369 432
#     4   9  20  40  63  96 134 180 230 296 356 433
#     4  12  30  48  74 112 147 195 245 303 373 437
#     4   9  21  39  66  95 136 184 231 290 360 436
#     4  11  23  44  70 100 146 182 238 304 360 441
#     4  10  23  41  67  98 136 187 238 293 365 433
#
# _framework density 27.786000999999999
#
# number of rings (size 3 to 8) (size 9 to 14) (size 15 to 20)
#    0.000    1.714    1.429    1.286   10.000    1.714 
#    0.000    1.429    0.000    0.000    0.000    0.000 
#    0.000    0.000    0.000    0.000    0.000    0.000 
#
# Total GULP energy -78124.891386 kJ/mol
# GULP energy per Si atom -5580.349385 kJ/mol
# Density = 2.772276 g / cm^3
# Si number density = 27.786001 Si / 1000 Ang^3
#
#
#
# Elastic Constant Matrix: (Units=GPa)
#
#
# Indices 1 2 3 4 5 6 
#
# 1 111.6752 46.4544 68.2369 8.0600 29.4332 36.8443
# 2 46.4544 138.9952 60.4115 -17.0188 14.5015 22.9650
# 3 68.2369 60.4115 266.7352 14.5024 52.7258 21.8820
# 4 8.0600 -17.0188 14.5024 58.4089 11.6627 12.6830
# 5 29.4332 14.5015 52.7258 11.6627 50.1160 4.9620
# 6 36.8443 22.9650 21.8820 12.6830 4.9620 68.5068
#
#
#
# Elastic Compliance Matrix: (Units=1/GPa)
#
#
# Indices 1 2 3 4 5 6 
#
# 1 0.014383 -0.002576 -0.001514 0.000046 -0.005525 -0.005996
# 2 -0.002576 0.009581 -0.001473 0.004053 -0.000448 -0.002074
# 3 -0.001514 -0.001473 0.005320 -0.000728 -0.004116 0.000042
# 4 0.000046 0.004053 -0.000728 0.020417 -0.004731 -0.004588
# 5 -0.005525 -0.000448 -0.004116 -0.004731 0.028437 0.003253
# 6 -0.005996 -0.002074 0.000042 -0.004588 0.003253 0.019118
#
#
# Mechanical properties :
#
#
# Convention : Reuss Voigt Hill
#
# Bulk Modulus (GPa) = 55.07319 96.40122 75.73721
# Shear Modulus (GPa) = 43.69339 58.22654 50.95996
#
# Velocity S-wave (km/s) = 3.96977 4.58267 4.28719
# Velocity P-wave (km/s) = 6.39341 7.92279 7.19883
#
# Compressibility (1/GPa) = 0.01815766
#
# Stress axis : x y z
#
# Youngs Moduli (GPa) = 69.52792 104.37299 187.97908
#
# Poissons Ratio (x) = 0.26885 0.28467
# Poissons Ratio (y) = 0.17909 0.27683
# Poissons Ratio (z) = 0.10529 0.15370
#
# Static dielectric constant tensor:
#      x y z
#    x 2.435430 -0.181670 -0.079400 
#    y -0.181670 2.320660 0.128000 
#    z -0.079400 0.128000 2.320890 
# 
# From -- ./inp_files/40160.got.cif
#   From: 2010.05.17/outbox.cif.g08.bks.cpg/sg2_21_cif.got.tgz:40160.got - 2010.06.03 11:33:40.
