data_PCOD9109172
_publ_section_title
;
Structure prediction by ZEFSAII (Michael W. Deem and Ramdas Pophale) SiO2 
 PCOD9109172
Probable space group: P -1
;
_chemical_formula_sum "Si O2"
_cell_formula_units_Z 16
_cell_length_a 8.276046
_cell_length_b 12.560056
_cell_length_c 8.336172
_cell_angle_alpha 51.400737
_cell_angle_beta 80.441973
_cell_angle_gamma 92.699249
_cell_volume 654.923693
_symmetry_space_group_name_H-M "P -1"
_symmetry_group_IT_number 2
_symmetry_cell_setting 'triclinic'
loop_
_space_group_symop_operation_xyz
x,y,z
-x,-y,-z
loop_
_atom_site_type_symbol
_atom_site_label
_atom_site_fract_x
_atom_site_fract_y
_atom_site_fract_z
Si Si1 0.193874 0.062833 0.081528
Si Si2 0.966827 0.499545 0.814222
Si Si3 0.785485 0.234474 0.502215
Si Si4 0.677341 0.273870 0.122633
Si Si5 0.234495 0.342112 0.964142
Si Si6 0.797776 0.026627 0.189598
Si Si7 0.485390 0.592273 0.570918
Si Si8 0.686950 0.752135 0.647064
O O1 0.211688 0.921558 0.301275
O O2 0.998113 0.071580 0.117228
O O3 0.286513 0.209517 0.997777
O O4 0.244124 0.042968 0.910132
O O5 0.051221 0.648807 0.588125
O O6 0.085450 0.391112 0.845605
O O7 0.000000 0.500000 0.000000
O O8 0.777713 0.419365 0.899736
O O9 0.763131 0.241926 0.306821
O O10 0.627715 0.291648 0.546974
O O11 0.488799 0.269899 0.208958
O O12 0.703921 0.152483 0.114002
O O13 0.375941 0.480238 0.813645
O O14 0.191973 0.295882 0.197821
O O15 0.745425 0.911548 0.442497
O O16 0.500000 0.500000 0.500000
O O17 0.649200 0.666979 0.568363
#
# Coordination Sequence:
#
# PCOD9109172 Si02
#       8
#     2   2   2   2   2   2   2   2
#     4  11  24  42  64  96 127 171 219 262 325 380
#     4   9  19  37  64  89 125 163 208 264 312 368
#     4   9  21  39  65  95 122 169 218 258 315 384
#     4  10  20  41  63  93 132 163 211 267 320 373
#     4  11  22  41  68  94 126 170 218 261 315 380
#     4  11  24  40  63  93 136 166 212 271 323 379
#     4  10  22  43  65  93 137 172 206 262 328 384
#     4  11  24  39  65 102 128 163 219 266 318 379
#
# _framework density 24.430325
#
# number of rings (size 3 to 8) (size 9 to 14) (size 15 to 20)
#    0.000    1.750    1.250    3.000    3.500    3.000 
#    0.000    4.375    0.000    0.000    0.000    0.000 
#    0.000    0.000    0.000    0.000    0.000    0.000 
#
# Total GULP energy -89513.947484 kJ/mol
# GULP energy per Si atom -5594.621718 kJ/mol
# Density = 2.437472 g / cm^3
# Si number density = 24.430325 Si / 1000 Ang^3
#
#
#
# Elastic Constant Matrix: (Units=GPa)
#
#
# Indices 1 2 3 4 5 6 
#
# 1 48.8431 23.7275 13.8953 1.6644 -3.4280 -10.8029
# 2 23.7275 125.2222 -2.4596 -16.8309 6.2190 -14.8011
# 3 13.8953 -2.4596 62.0897 -30.1957 2.3681 -9.5747
# 4 1.6644 -16.8309 -30.1957 41.2088 -2.0651 0.7659
# 5 -3.4280 6.2190 2.3681 -2.0651 25.9326 -6.2297
# 6 -10.8029 -14.8011 -9.5747 0.7659 -6.2297 30.5063
#
#
#
# Elastic Compliance Matrix: (Units=1/GPa)
#
#
# Indices 1 2 3 4 5 6 
#
# 1 0.029877 -0.007580 -0.013236 -0.013736 0.006967 0.004516
# 2 -0.007580 0.011770 0.008373 0.011031 -0.002544 0.004858
# 3 -0.013236 0.008373 0.035256 0.029496 -0.002417 0.009207
# 4 -0.013736 0.011031 0.029496 0.050730 -0.001135 0.008240
# 5 0.006967 -0.002544 -0.002417 -0.001135 0.042425 0.009167
# 6 0.004516 0.004858 0.009207 0.008240 0.009167 0.041291
#
#
# Mechanical properties :
#
#
# Convention : Reuss Voigt Hill
#
# Bulk Modulus (GPa) = 19.22397 34.05350 26.63874
# Shear Modulus (GPa) = 19.71812 32.92897 26.32355
#
# Velocity S-wave (km/s) = 2.84406 3.67532 3.28608
# Velocity P-wave (km/s) = 4.32098 5.65508 5.03244
#
# Compressibility (1/GPa) = 0.05201839
#
# Stress axis : x y z
#
# Youngs Moduli (GPa) = 33.47026 84.96385 28.36367
#
# Poissons Ratio (x) = 0.64400 0.37543
# Poissons Ratio (y) = 0.25369 -0.23750
# Poissons Ratio (z) = 0.44302 -0.71143
#
# Static dielectric constant tensor:
#      x y z
#    x 2.069990 -0.045280 0.001810 
#    y -0.045280 1.955040 0.016980 
#    z 0.001810 0.016980 1.896940 
# 
# From -- ./inp_files/184149.got.cif
#   From: 2010.05.17/outbox.cif.g08.bks.cpg/sg2_93_cif.got.tgz:184149.got - 2010.06.03 11:33:40.
