data_PCOD9109843
_publ_section_title
;
Structure prediction by ZEFSAII (Michael W. Deem and Ramdas Pophale) SiO2 
 PCOD9109843
Probable space group: P -1
;
_chemical_formula_sum "Si O2"
_cell_formula_units_Z 16
_cell_length_a 14.655219
_cell_length_b 5.438203
_cell_length_c 12.767641
_cell_angle_alpha 97.035536
_cell_angle_beta 134.978393
_cell_angle_gamma 94.848335
_cell_volume 692.832793
_symmetry_space_group_name_H-M "P -1"
_symmetry_group_IT_number 2
_symmetry_cell_setting 'triclinic'
loop_
_space_group_symop_operation_xyz
x,y,z
-x,-y,-z
loop_
_atom_site_type_symbol
_atom_site_label
_atom_site_fract_x
_atom_site_fract_y
_atom_site_fract_z
Si Si1 0.386487 0.764793 0.642965
Si Si2 0.283829 0.558348 0.754342
Si Si3 0.174821 0.990199 0.931132
Si Si4 0.359052 0.429693 0.200052
Si Si5 0.872625 0.996277 0.328209
Si Si6 0.919623 0.218463 0.954612
Si Si7 0.650689 0.176182 0.615409
Si Si8 0.570337 0.196661 0.922668
O O1 0.319242 0.549814 0.660117
O O2 0.523197 0.713237 0.708019
O O3 0.315633 0.801040 0.479600
O O4 0.431075 0.010766 0.767745
O O5 0.225955 0.277062 0.738854
O O6 0.184432 0.750772 0.689126
O O7 0.408624 0.680946 0.938859
O O8 0.088298 0.008697 0.762269
O O9 0.219339 0.241965 0.049558
O O10 0.114139 0.766004 0.949034
O O11 0.314307 0.957367 0.995717
O O12 0.355632 0.567567 0.314173
O O13 0.394531 0.612672 0.137187
O O14 0.000000 0.000000 0.500000
O O15 0.777843 0.116661 0.774486
O O16 0.000000 0.500000 0.000000
O O17 0.000000 0.000000 0.000000
O O18 0.500000 0.000000 0.500000
#
# Coordination Sequence:
#
# PCOD9109843 Si02
#       8
#     2   2   2   2   2   2   2   2
#     4  11  25  38  66 106 144 178 223 308 358 416
#     4  11  25  43  66 103 138 177 228 290 368 421
#     4  10  22  44  68  95 135 188 236 283 347 435
#     4  11  20  41  71  96 138 191 234 279 356 436
#     4  11  25  44  71  95 129 183 241 287 346 430
#     4  12  28  46  71 105 142 187 238 296 359 420
#     4  12  24  46  72 105 143 191 249 292 361 435
#     4  10  20  41  67  97 135 184 229 279 350 438
#
# _framework density 23.093595000000001
#
# number of rings (size 3 to 8) (size 9 to 14) (size 15 to 20)
#    0.000    1.000    3.750    2.625    1.750    3.500 
#    0.000    0.000    0.000    0.000    0.000    0.000 
#    0.000    0.000    0.000    0.000    0.000    0.000 
#
# Total GULP energy -89353.029237 kJ/mol
# GULP energy per Si atom -5584.564327 kJ/mol
# Density = 2.304103 g / cm^3
# Si number density = 23.093595 Si / 1000 Ang^3
#
#
#
# Elastic Constant Matrix: (Units=GPa)
#
#
# Indices 1 2 3 4 5 6 
#
# 1 75.6124 30.4736 44.0245 -4.3590 -13.2460 4.9859
# 2 30.4736 109.7186 41.5740 -6.5158 -0.2263 8.1915
# 3 44.0245 41.5740 165.8295 -21.2089 -24.2450 8.8486
# 4 -4.3590 -6.5158 -21.2089 32.0007 6.2284 -6.9743
# 5 -13.2460 -0.2263 -24.2450 6.2284 36.5110 -19.5988
# 6 4.9859 8.1915 8.8486 -6.9743 -19.5988 54.6584
#
#
#
# Elastic Compliance Matrix: (Units=1/GPa)
#
#
# Indices 1 2 3 4 5 6 
#
# 1 0.017295 -0.003761 -0.003136 -0.001212 0.004979 0.001124
# 2 -0.003761 0.011202 -0.002214 0.000588 -0.004148 -0.002390
# 3 -0.003136 -0.002214 0.008548 0.004206 0.004562 0.001407
# 4 -0.001212 0.000588 0.004206 0.035050 -0.001951 0.003114
# 5 0.004979 -0.004148 0.004562 -0.001951 0.039741 0.013430
# 6 0.001124 -0.002390 0.001407 0.003114 0.013430 0.023536
#
#
# Mechanical properties :
#
#
# Convention : Reuss Voigt Hill
#
# Bulk Modulus (GPa) = 53.12319 64.81163 58.96741
# Shear Modulus (GPa) = 31.27574 40.30658 35.79116
#
# Velocity S-wave (km/s) = 3.68408 4.18228 3.94106
# Velocity P-wave (km/s) = 6.41482 7.17270 6.80432
#
# Compressibility (1/GPa) = 0.01882417
#
# Stress axis : x y z
#
# Youngs Moduli (GPa) = 57.81968 89.26594 116.99195
#
# Poissons Ratio (x) = 0.33574 0.36684
# Poissons Ratio (y) = 0.21747 0.25899
# Poissons Ratio (z) = 0.18130 0.19761
#
# Static dielectric constant tensor:
#      x y z
#    x 1.967390 -0.013440 0.012150 
#    y -0.013440 1.950170 -0.008170 
#    z 0.012150 -0.008170 1.893050 
# 
# From -- ./inp_files/442087.got.cif
#   From: 2010.05.17/outbox.cif.g08.bks.cpg/sg2_222_cif.got.tgz:442087.got - 2010.06.03 11:33:40.
