data_PCOD9109841
_publ_section_title
;
Structure prediction by ZEFSAII (Michael W. Deem and Ramdas Pophale) SiO2 
 PCOD9109841
Probable space group: P -1
;
_chemical_formula_sum "Si O2"
_cell_formula_units_Z 16
_cell_length_a 8.152143
_cell_length_b 24.098676
_cell_length_c 6.032657
_cell_angle_alpha 85.734474
_cell_angle_beta 89.634056
_cell_angle_gamma 149.742063
_cell_volume 589.623111
_symmetry_space_group_name_H-M "P -1"
_symmetry_group_IT_number 2
_symmetry_cell_setting 'triclinic'
loop_
_space_group_symop_operation_xyz
x,y,z
-x,-y,-z
loop_
_atom_site_type_symbol
_atom_site_label
_atom_site_fract_x
_atom_site_fract_y
_atom_site_fract_z
Si Si1 0.016344 0.367223 0.307753
Si Si2 0.867265 0.232069 0.027300
Si Si3 0.288654 0.650752 0.049617
Si Si4 0.763470 0.738981 0.753688
Si Si5 0.348398 0.918052 0.224135
Si Si6 0.533445 0.819067 0.275700
Si Si7 0.257943 0.528154 0.557196
Si Si8 0.070292 0.932541 0.531242
O O1 0.774978 0.268304 0.523474
O O2 0.279411 0.482285 0.403234
O O3 0.086868 0.343502 0.116399
O O4 0.802095 0.349691 0.185885
O O5 0.910411 0.202776 0.829893
O O6 0.544841 0.168544 0.952527
O O7 0.895551 0.192899 0.226005
O O8 0.506238 0.749238 0.192017
O O9 0.933273 0.548148 0.199806
O O10 0.494529 0.656548 0.981219
O O11 0.587512 0.656414 0.579477
O O12 0.833433 0.824952 0.715990
O O13 0.197406 0.920782 0.375998
O O14 0.628813 0.965053 0.338966
O O15 0.500000 0.000000 0.000000
O O16 0.867897 0.916449 0.387535
O O17 0.000000 0.500000 0.500000
#
# Coordination Sequence:
#
# PCOD9109841 Si02
#       8
#     2   2   2   2   2   2   2   2
#     4  10  22  43  62  95 142 173 219 275 329 394
#     4  11  26  41  66  98 139 173 213 283 340 393
#     4  10  20  41  67  97 133 174 228 274 317 390
#     4  12  22  41  71  99 130 179 224 275 332 387
#     4  11  25  47  71 102 133 163 227 284 332 395
#     4  10  22  42  67  95 134 179 218 267 334 398
#     4  11  22  39  68 103 132 177 233 276 314 394
#     4  11  24  44  74  97 128 176 228 274 327 400
#
# _framework density 27.13598
#
# number of rings (size 3 to 8) (size 9 to 14) (size 15 to 20)
#    0.000    1.250    3.750    1.875    1.750    1.000 
#    0.000    6.875    0.000    0.000    0.000    0.000 
#    0.000    0.000    0.000    0.000    0.000    0.000 
#
# Total GULP energy -89130.698003 kJ/mol
# GULP energy per Si atom -5570.668625 kJ/mol
# Density = 2.707422 g / cm^3
# Si number density = 27.135980 Si / 1000 Ang^3
#
#
#
# Elastic Constant Matrix: (Units=GPa)
#
#
# Indices 1 2 3 4 5 6 
#
# 1 102.1272 16.4919 37.6782 21.2320 26.1271 3.4355
# 2 16.4919 84.0808 48.1149 49.2347 -19.6384 -7.9965
# 3 37.6782 48.1149 97.4440 29.1671 -5.6841 -3.4788
# 4 21.2320 49.2347 29.1671 52.0317 -11.9054 -4.2357
# 5 26.1271 -19.6384 -5.6841 -11.9054 66.0978 32.8436
# 6 3.4355 -7.9965 -3.4788 -4.2357 32.8436 25.9307
#
#
#
# Elastic Compliance Matrix: (Units=1/GPa)
#
#
# Indices 1 2 3 4 5 6 
#
# 1 0.016895 0.002874 -0.005658 -0.008811 -0.016549 0.017411
# 2 0.002874 0.032657 -0.009196 -0.026248 0.002635 0.000831
# 3 -0.005658 -0.009196 0.016377 0.002235 0.002911 -0.003211
# 4 -0.008811 -0.026248 0.002235 0.047819 0.010526 -0.012148
# 5 -0.016549 0.002635 0.002911 0.010526 0.059514 -0.070265
# 6 0.017411 0.000831 -0.003211 -0.012148 -0.070265 0.123097
#
#
# Mechanical properties :
#
#
# Convention : Reuss Voigt Hill
#
# Bulk Modulus (GPa) = 23.82740 54.24687 39.03714
# Shear Modulus (GPa) = 14.95625 40.90317 27.92971
#
# Velocity S-wave (km/s) = 2.35023 3.88666 3.21167
# Velocity P-wave (km/s) = 4.02052 6.33843 5.30755
#
# Compressibility (1/GPa) = 0.04196849
#
# Stress axis : x y z
#
# Youngs Moduli (GPa) = 59.18877 30.62165 61.06064
#
# Poissons Ratio (x) = -0.08801 0.34550
# Poissons Ratio (y) = -0.17012 0.56152
# Poissons Ratio (z) = 0.33491 0.28160
#
# Static dielectric constant tensor:
#      x y z
#    x 2.208750 -0.158160 0.205840 
#    y -0.158160 2.437640 -0.365010 
#    z 0.205840 -0.365010 2.527920 
# 
# From -- ./inp_files/56440.got.cif
#   From: 2010.05.17/outbox.cif.g08.bks.cpg/sg2_29_cif.got.tgz:56440.got - 2010.06.03 11:33:40.
