data_PCOD9109449
_publ_section_title
;
Structure prediction by ZEFSAII (Michael W. Deem and Ramdas Pophale) SiO2 
 PCOD9109449
Probable space group: P -1
;
_chemical_formula_sum "Si O2"
_cell_formula_units_Z 14
_cell_length_a 19.430659
_cell_length_b 5.594980
_cell_length_c 14.517118
_cell_angle_alpha 83.797175
_cell_angle_beta 156.999044
_cell_angle_gamma 98.054750
_cell_volume 609.704364
_symmetry_space_group_name_H-M "P -1"
_symmetry_group_IT_number 2
_symmetry_cell_setting 'triclinic'
loop_
_space_group_symop_operation_xyz
x,y,z
-x,-y,-z
loop_
_atom_site_type_symbol
_atom_site_label
_atom_site_fract_x
_atom_site_fract_y
_atom_site_fract_z
Si Si1 0.018648 0.881034 0.140618
Si Si2 0.107996 0.451420 0.840147
Si Si3 0.541381 0.272240 0.996047
Si Si4 0.814848 0.783064 0.523064
Si Si5 0.400533 0.696209 0.311082
Si Si6 0.275872 0.920347 0.323685
Si Si7 0.924820 0.161611 0.479779
O O1 0.185452 0.768671 0.303386
O O2 0.912086 0.755319 0.099157
O O3 0.114374 0.121925 0.295684
O O4 0.865395 0.888417 0.876232
O O5 0.933302 0.583520 0.640110
O O6 0.079675 0.344690 0.708056
O O7 0.288163 0.605273 0.087152
O O8 0.749371 0.282998 0.228994
O O9 0.500000 0.500000 0.000000
O O10 0.395779 0.282283 0.735957
O O11 0.500000 0.000000 0.000000
O O12 0.858701 0.993948 0.492245
O O13 0.500000 0.500000 0.500000
O O14 0.272553 0.778289 0.229766
O O15 0.534717 0.929675 0.439244
O O16 0.000000 0.000000 0.500000
#
# Coordination Sequence:
#
# PCOD9109449 Si02
#       7
#     2   2   2   2   2   2   2
#     4  10  21  39  61  90 120 169 216 266 309 398
#     4  11  21  39  67  89 125 170 220 262 332 396
#     4  10  20  41  65  92 127 170 218 278 342 406
#     4  10  21  40  64  88 125 167 217 270 334 396
#     4  11  22  39  59  89 129 169 202 265 327 389
#     4  10  22  38  60  87 129 163 212 264 324 378
#     4  10  23  42  66  94 129 168 218 280 343 402
#
# _framework density 22.961949000000001
#
# number of rings (size 3 to 8) (size 9 to 14) (size 15 to 20)
#    0.000    1.714    4.286    0.000    0.000    2.286 
#    5.143    0.000    0.000    0.000    0.000    0.000 
#    0.000    0.000    0.000    0.000    0.000    0.000 
#
# Total GULP energy -78001.043926 kJ/mol
# GULP energy per Si atom -5571.503138 kJ/mol
# Density = 2.290969 g / cm^3
# Si number density = 22.961949 Si / 1000 Ang^3
#
#
#
# Elastic Constant Matrix: (Units=GPa)
#
#
# Indices 1 2 3 4 5 6 
#
# 1 96.1361 23.4400 42.6217 17.2910 3.9227 -21.9784
# 2 23.4400 61.1633 31.7055 8.6428 -7.9726 -24.1556
# 3 42.6217 31.7055 158.7256 22.2197 -14.7427 -30.1880
# 4 17.2910 8.6428 22.2197 36.7429 -9.5858 -2.7553
# 5 3.9227 -7.9726 -14.7427 -9.5858 22.8623 1.1805
# 6 -21.9784 -24.1556 -30.1880 -2.7553 1.1805 29.3778
#
#
#
# Elastic Compliance Matrix: (Units=1/GPa)
#
#
# Indices 1 2 3 4 5 6 
#
# 1 0.014965 -0.001866 -0.002030 -0.006862 -0.007778 0.007244
# 2 -0.001866 0.026027 -0.000033 -0.001773 0.007625 0.019497
# 3 -0.002030 -0.000033 0.009061 -0.002756 0.004647 0.007320
# 4 -0.006862 -0.001773 -0.002756 0.035708 0.014097 -0.006640
# 5 -0.007778 0.007625 0.004647 0.014097 0.056420 0.004280
# 6 0.007244 0.019497 0.007320 -0.006640 0.004280 0.062218
#
#
# Mechanical properties :
#
#
# Convention : Reuss Voigt Hill
#
# Bulk Modulus (GPa) = 23.69962 56.83992 40.26977
# Shear Modulus (GPa) = 22.09248 32.34712 27.21980
#
# Velocity S-wave (km/s) = 3.10519 3.75737 3.44674
# Velocity P-wave (km/s) = 4.81663 6.60542 5.78063
#
# Compressibility (1/GPa) = 0.04219478
#
# Stress axis : x y z
#
# Youngs Moduli (GPa) = 66.82480 38.42235 110.35783
#
# Poissons Ratio (x) = 0.07169 0.22399
# Poissons Ratio (y) = 0.12469 0.00367
# Poissons Ratio (z) = 0.13563 0.00128
#
# Static dielectric constant tensor:
#      x y z
#    x 2.005340 0.064120 0.002970 
#    y 0.064120 1.682350 0.144010 
#    z 0.002970 0.144010 1.859880 
# 
# From -- ./inp_files/37266.got.cif
#   From: 2010.05.17/outbox.cif.g08.bks.cpg/sg2_19_cif.got.tgz:37266.got - 2010.06.03 11:33:40.
