data_PCOD9109561
_publ_section_title
;
Structure prediction by ZEFSAII (Michael W. Deem and Ramdas Pophale) SiO2 
 PCOD9109561
Probable space group: P -1
;
_chemical_formula_sum "Si O2"
_cell_formula_units_Z 16
_cell_length_a 12.487578
_cell_length_b 9.037148
_cell_length_c 12.530053
_cell_angle_alpha 126.892108
_cell_angle_beta 48.529905
_cell_angle_gamma 120.611436
_cell_volume 832.546337
_symmetry_space_group_name_H-M "P -1"
_symmetry_group_IT_number 2
_symmetry_cell_setting 'triclinic'
loop_
_space_group_symop_operation_xyz
x,y,z
-x,-y,-z
loop_
_atom_site_type_symbol
_atom_site_label
_atom_site_fract_x
_atom_site_fract_y
_atom_site_fract_z
Si Si1 0.124929 0.672013 0.208631
Si Si2 0.381035 0.979643 0.910764
Si Si3 0.303288 0.047066 0.346440
Si Si4 0.681044 0.447387 0.146695
Si Si5 0.623315 0.681464 0.775485
Si Si6 0.059542 0.013913 0.086327
Si Si7 0.886929 0.573700 0.680901
Si Si8 0.866174 0.775870 0.294726
O O1 0.215806 0.880734 0.259315
O O2 0.133045 0.564807 0.266358
O O3 0.969386 0.694800 0.275665
O O4 0.198323 0.557617 0.024096
O O5 0.349255 0.764664 0.879073
O O6 0.536158 0.998232 0.757126
O O7 0.402389 0.138267 0.058648
O O8 0.230596 0.001316 0.963648
O O9 0.323451 0.232406 0.337749
O O10 0.212396 0.078965 0.524978
O O11 0.527329 0.462862 0.202721
O O12 0.743722 0.608092 0.258200
O O13 0.741890 0.589071 0.718048
O O14 0.052473 0.217609 0.226462
O O15 0.968880 0.867670 0.168128
O O16 0.000000 0.000000 0.000000
O O17 0.000000 0.500000 0.500000
#
# Coordination Sequence:
#
# PCOD9109561 Si02
#       8
#     2   2   2   2   2   2   2   2
#     4  12  21  39  67  89 121 162 209 252 293 371
#     4  10  20  41  66  88 123 163 209 243 307 372
#     4  11  21  41  66  91 122 162 204 259 302 355
#     4  11  21  38  65  92 120 159 210 254 293 369
#     4  10  20  42  63  90 125 164 205 243 312 366
#     4  11  24  45  62  87 126 169 199 248 315 372
#     4  11  24  40  62  92 124 159 204 257 309 355
#     4  12  25  38  63 100 121 155 213 256 304 357
#
# _framework density 19.218149
#
# number of rings (size 3 to 8) (size 9 to 14) (size 15 to 20)
#    0.000    1.000    3.750    4.500    1.750    2.500 
#    4.500    0.625    0.000    0.000    0.000    0.000 
#    0.000    0.000    0.000    0.000    0.000    0.000 
#
# Total GULP energy -89343.007430 kJ/mol
# GULP energy per Si atom -5583.937964 kJ/mol
# Density = 1.917441 g / cm^3
# Si number density = 19.218149 Si / 1000 Ang^3
#
#
#
# Elastic Constant Matrix: (Units=GPa)
#
#
# Indices 1 2 3 4 5 6 
#
# 1 154.3164 39.3260 61.0579 10.8702 -14.0596 18.0458
# 2 39.3260 29.4058 18.8483 -7.9531 -18.6603 2.9837
# 3 61.0579 18.8483 81.0677 15.3956 -4.3737 4.5403
# 4 10.8702 -7.9531 15.3956 7.8007 -5.3740 2.4026
# 5 -14.0596 -18.6603 -4.3737 -5.3740 15.9349 2.1247
# 6 18.0458 2.9837 4.5403 2.4026 2.1247 31.1899
#
#
#
# Elastic Compliance Matrix: (Units=1/GPa)
#
#
# Indices 1 2 3 4 5 6 
#
# 1 0.011428 -0.002064 -0.008577 0.006583 0.008365 -0.006243
# 2 -0.002064 -0.012092 0.014126 -0.063415 -0.034495 0.007529
# 3 -0.008577 0.014126 0.014864 0.007956 0.015770 -0.000240
# 4 0.006583 -0.063415 0.007956 -0.012726 -0.071487 0.006950
# 5 0.008365 -0.034495 0.015770 -0.071487 0.009828 0.001002
# 6 -0.006243 0.007529 -0.000240 0.006950 0.001002 0.034385
#
#
# Mechanical properties :
#
#
# Convention : Reuss Voigt Hill
#
# Bulk Modulus (GPa) = 47.23384 55.91715 51.57550
# Shear Modulus (GPa) = 109.23639 20.68894 64.96266
#
# Velocity S-wave (km/s) = 7.54742 3.28461 5.82032
# Velocity P-wave (km/s) = 10.02909 6.59879 8.48901
#
# Compressibility (1/GPa) = 0.02117126
#
# Stress axis : x y z
#
# Youngs Moduli (GPa) = 87.50309 -82.69749 67.27663
#
# Poissons Ratio (x) = -0.17069 0.57702
# Poissons Ratio (y) = 0.18061 -0.95038
# Poissons Ratio (z) = 0.75050 1.16823
#
# Static dielectric constant tensor:
#      x y z
#    x 1.658360 0.000080 -0.025580 
#    y 0.000080 1.702830 -0.024620 
#    z -0.025580 -0.024620 1.650800 
# 
# From -- ./inp_files/186039.got.cif
#   From: 2010.05.17/outbox.cif.g08.bks.cpg/sg2_94_cif.got.tgz:186039.got - 2010.06.03 11:33:40.
