data_PCOD9109351
_publ_section_title
;
Structure prediction by ZEFSAII (Michael W. Deem and Ramdas Pophale) SiO2 
 PCOD9109351
Probable space group: P -1
;
_chemical_formula_sum "Si O2"
_cell_formula_units_Z 14
_cell_length_a 6.575362
_cell_length_b 5.267304
_cell_length_c 29.842670
_cell_angle_alpha 120.377609
_cell_angle_beta 138.436832
_cell_angle_gamma 73.162794
_cell_volume 584.433521
_symmetry_space_group_name_H-M "P -1"
_symmetry_group_IT_number 2
_symmetry_cell_setting 'triclinic'
loop_
_space_group_symop_operation_xyz
x,y,z
-x,-y,-z
loop_
_atom_site_type_symbol
_atom_site_label
_atom_site_fract_x
_atom_site_fract_y
_atom_site_fract_z
Si Si1 0.584816 0.745075 0.163584
Si Si2 0.380688 0.649799 0.950320
Si Si3 0.322368 0.272372 0.720101
Si Si4 0.647131 0.663570 0.408168
Si Si5 0.843476 0.849852 0.750054
Si Si6 0.997747 0.110207 0.433436
Si Si7 0.795933 0.784855 0.833211
O O1 0.526544 0.504524 0.093475
O O2 0.667353 0.655152 0.219297
O O3 0.289964 0.916227 0.134281
O O4 0.885664 0.976934 0.219207
O O5 0.005595 0.621134 0.885544
O O6 0.500000 0.500000 0.000000
O O7 0.500000 0.000000 0.000000
O O8 0.469826 0.581055 0.749219
O O9 0.574438 0.053238 0.731602
O O10 0.016247 0.101700 0.631110
O O11 0.321066 0.462367 0.325102
O O12 0.885717 0.418505 0.427213
O O13 0.698132 0.809683 0.478789
O O14 0.754107 0.915919 0.410882
O O15 0.973663 0.821555 0.818860
#
# Coordination Sequence:
#
# PCOD9109351 Si02
#       7
#     2   2   2   2   2   2   2
#     4  11  26  43  72 101 136 181 229 284 342 410
#     4  12  29  51  73 102 138 175 221 284 351 424
#     4  10  21  39  67  99 132 183 231 282 327 409
#     4   9  17  31  60  93 133 185 223 276 336 384
#     4  10  20  41  65 100 137 183 233 278 332 402
#     4   9  17  33  57  95 135 177 230 277 331 386
#     4  11  24  44  72 100 136 177 231 277 342 414
#
# _framework density 23.954820000000002
#
# number of rings (size 3 to 8) (size 9 to 14) (size 15 to 20)
#    0.000    1.714    2.857    0.857    6.000    1.143 
#    0.000    0.714    0.000    0.857    0.000    0.000 
#    0.000    0.000    0.000    0.000    0.000    0.000 
#
# Total GULP energy -78290.182965 kJ/mol
# GULP energy per Si atom -5592.155926 kJ/mol
# Density = 2.390030 g / cm^3
# Si number density = 23.954820 Si / 1000 Ang^3
#
#
#
# Elastic Constant Matrix: (Units=GPa)
#
#
# Indices 1 2 3 4 5 6 
#
# 1 70.6970 23.1794 38.2634 0.5795 -22.8449 1.3421
# 2 23.1794 98.4448 38.1132 -0.1940 -12.9405 1.5453
# 3 38.2634 38.1132 151.4497 12.4724 -29.7222 -17.5512
# 4 0.5795 -0.1940 12.4724 50.0708 -0.4820 -0.8091
# 5 -22.8449 -12.9405 -29.7222 -0.4820 44.3830 9.1224
# 6 1.3421 1.5453 -17.5512 -0.8091 9.1224 39.5523
#
#
#
# Elastic Compliance Matrix: (Units=1/GPa)
#
#
# Indices 1 2 3 4 5 6 
#
# 1 0.019233 -0.002170 -0.003259 0.000595 0.007876 -0.003818
# 2 -0.002170 0.011788 -0.002470 0.000668 0.001023 -0.001705
# 3 -0.003259 -0.002470 0.009235 -0.002186 0.003031 0.003561
# 4 0.000595 0.000668 -0.002186 0.020498 -0.000648 -0.000447
# 5 0.007876 0.001023 0.003031 -0.000648 0.030124 -0.005923
# 6 -0.003818 -0.001705 0.003561 -0.000447 -0.005923 0.028416
#
#
# Mechanical properties :
#
#
# Convention : Reuss Voigt Hill
#
# Bulk Modulus (GPa) = 40.88696 57.74483 49.31590
# Shear Modulus (GPa) = 34.90509 41.53692 38.22100
#
# Velocity S-wave (km/s) = 3.82137 4.16861 3.99876
# Velocity P-wave (km/s) = 6.04780 6.87952 6.47703
#
# Compressibility (1/GPa) = 0.02445767
#
# Stress axis : x y z
#
# Youngs Moduli (GPa) = 51.99462 84.83287 108.27919
#
# Poissons Ratio (x) = 0.18413 0.35286
# Poissons Ratio (y) = 0.11285 0.26744
# Poissons Ratio (z) = 0.16944 0.20953
#
# Static dielectric constant tensor:
#      x y z
#    x 1.882580 -0.015360 0.006240 
#    y -0.015360 1.934690 0.004460 
#    z 0.006240 0.004460 1.971550 
# 
# From -- ./inp_files/11052.got.cif
#   From: 2010.05.17/outbox.cif.g08.bks.cpg/sg2_6_cif.got.tgz:11052.got - 2010.06.03 11:33:40.
