data_PCOD9109563
_publ_section_title
;
Structure prediction by ZEFSAII (Michael W. Deem and Ramdas Pophale) SiO2 
 PCOD9109563
Probable space group: P -1
;
_chemical_formula_sum "Si O2"
_cell_formula_units_Z 16
_cell_length_a 14.658985
_cell_length_b 13.508125
_cell_length_c 11.932347
_cell_angle_alpha 144.998938
_cell_angle_beta 37.910496
_cell_angle_gamma 123.511031
_cell_volume 802.436986
_symmetry_space_group_name_H-M "P -1"
_symmetry_group_IT_number 2
_symmetry_cell_setting 'triclinic'
loop_
_space_group_symop_operation_xyz
x,y,z
-x,-y,-z
loop_
_atom_site_type_symbol
_atom_site_label
_atom_site_fract_x
_atom_site_fract_y
_atom_site_fract_z
Si Si1 0.752929 0.673560 0.326918
Si Si2 0.956454 0.319872 0.341415
Si Si3 0.021711 0.209575 0.932090
Si Si4 0.798735 0.737835 0.604653
Si Si5 0.280993 0.599016 0.524464
Si Si6 0.085400 0.807757 0.502135
Si Si7 0.517442 0.039378 0.889772
Si Si8 0.383202 0.596073 0.913836
O O1 0.909137 0.667569 0.102356
O O2 0.778061 0.696781 0.455896
O O3 0.685543 0.505651 0.210622
O O4 0.631307 0.854863 0.566369
O O5 0.780532 0.353887 0.498097
O O6 0.978015 0.195612 0.313739
O O7 0.000000 0.500000 0.500000
O O8 0.050166 0.245702 0.068830
O O9 0.098447 0.003755 0.641763
O O10 0.835005 0.250740 0.147280
O O11 0.777989 0.573343 0.545400
O O12 0.962365 0.767543 0.498905
O O13 0.657086 0.904516 0.933806
O O14 0.461070 0.542176 0.320414
O O15 0.246714 0.659643 0.194988
O O16 0.575616 0.219725 0.990175
O O17 0.500000 0.000000 0.000000
#
# Coordination Sequence:
#
# PCOD9109563 Si02
#       8
#     2   2   2   2   2   2   2   2
#     4  11  22  42  63  92 134 163 214 255 309 377
#     4  10  20  41  66  88 123 166 209 258 317 366
#     4  10  23  40  61  95 123 166 210 257 313 372
#     4  10  22  39  63  93 124 171 205 255 315 377
#     4   9  22  40  60  95 120 163 209 249 316 374
#     4  12  22  40  66  92 128 163 214 262 308 374
#     4   9  21  40  58  91 129 165 202 258 309 372
#     4  11  23  40  65  93 128 168 206 261 311 366
#
# _framework density 19.939260000000001
#
# number of rings (size 3 to 8) (size 9 to 14) (size 15 to 20)
#    0.750    1.000    2.500    1.875    1.750    7.500 
#    2.250    0.000    0.000    2.250    0.000    0.000 
#    0.000    0.000    0.000    0.000    0.000    0.000 
#
# Total GULP energy -89132.700883 kJ/mol
# GULP energy per Si atom -5570.793805 kJ/mol
# Density = 1.989388 g / cm^3
# Si number density = 19.939260 Si / 1000 Ang^3
#
#
#
# Elastic Constant Matrix: (Units=GPa)
#
#
# Indices 1 2 3 4 5 6 
#
# 1 73.8188 10.3177 25.0323 -0.9512 -3.9469 14.2963
# 2 10.3177 51.3843 1.5157 6.4347 1.3878 14.6932
# 3 25.0323 1.5157 79.7472 -3.9702 -14.9368 16.4320
# 4 -0.9512 6.4347 -3.9702 23.4730 2.7685 -4.5500
# 5 -3.9469 1.3878 -14.9368 2.7685 29.6215 1.3171
# 6 14.2963 14.6932 16.4320 -4.5500 1.3171 27.2555
#
#
#
# Elastic Compliance Matrix: (Units=1/GPa)
#
#
# Indices 1 2 3 4 5 6 
#
# 1 0.016141 -0.001476 -0.003825 -0.000729 0.000604 -0.005515
# 2 -0.001476 0.025677 0.003311 -0.010032 0.001956 -0.016833
# 3 -0.003825 0.003311 0.017520 -0.001262 0.008776 -0.010975
# 4 -0.000729 -0.010032 -0.001262 0.048650 -0.005474 0.014937
# 5 0.000604 0.001956 0.008776 -0.005474 0.039106 -0.009466
# 6 -0.005515 -0.016833 -0.010975 0.014937 -0.009466 0.058225
#
#
# Mechanical properties :
#
#
# Convention : Reuss Voigt Hill
#
# Bulk Modulus (GPa) = 18.06478 30.96465 24.51472
# Shear Modulus (GPa) = 21.95358 27.27564 24.61461
#
# Velocity S-wave (km/s) = 3.32177 3.70257 3.51733
# Velocity P-wave (km/s) = 4.87768 5.81738 5.36813
#
# Compressibility (1/GPa) = 0.05535632
#
# Stress axis : x y z
#
# Youngs Moduli (GPa) = 61.95305 38.94566 57.07828
#
# Poissons Ratio (x) = 0.05749 0.21834
# Poissons Ratio (y) = 0.09146 -0.18897
# Poissons Ratio (z) = 0.23699 -0.12894
#
# Static dielectric constant tensor:
#      x y z
#    x 1.720870 0.008050 -0.075930 
#    y 0.008050 1.685720 0.011090 
#    z -0.075930 0.011090 1.801880 
# 
# From -- ./inp_files/455984.got.cif
#   From: 2010.05.17/outbox.cif.g08.bks.cpg/sg2_228_cif.got.tgz:455984.got - 2010.06.03 11:33:40.
