data_PCOD9109202
_publ_section_title
;
Structure prediction by ZEFSAII (Michael W. Deem and Ramdas Pophale) SiO2 
 PCOD9109202
Probable space group: P -1
;
_chemical_formula_sum "Si O2"
_cell_formula_units_Z 12
_cell_length_a 9.034731
_cell_length_b 5.228428
_cell_length_c 12.189382
_cell_angle_alpha 80.006484
_cell_angle_beta 105.269198
_cell_angle_gamma 113.422223
_cell_volume 508.154625
_symmetry_space_group_name_H-M "P -1"
_symmetry_group_IT_number 2
_symmetry_cell_setting 'triclinic'
loop_
_space_group_symop_operation_xyz
x,y,z
-x,-y,-z
loop_
_atom_site_type_symbol
_atom_site_label
_atom_site_fract_x
_atom_site_fract_y
_atom_site_fract_z
Si Si1 0.497745 0.564840 0.644794
Si Si2 0.744425 0.992398 0.291670
Si Si3 0.308761 0.701144 0.409159
Si Si4 0.039948 0.369031 0.695371
Si Si5 0.924686 0.225879 0.932407
Si Si6 0.566667 0.931930 0.811531
O O1 0.366859 0.243917 0.628497
O O2 0.414002 0.721976 0.537318
O O3 0.669541 0.562324 0.630880
O O4 0.510005 0.618812 0.774447
O O5 0.872941 0.854269 0.288071
O O6 0.596495 0.020115 0.185490
O O7 0.839597 0.310600 0.322627
O O8 0.370910 0.931622 0.307726
O O9 0.125074 0.676921 0.402093
O O10 0.979351 0.329691 0.812204
O O11 0.725721 0.066902 0.907021
O O12 0.000000 0.500000 0.000000
O O13 0.000000 0.000000 0.000000
#
# Coordination Sequence:
#
# PCOD9109202 Si02
#       6
#     2   2   2   2   2   2
#     4  10  20  41  63  98 127 180 212 252 313 378
#     4  11  23  41  64  93 137 171 199 258 324 376
#     4   9  22  36  66  94 131 174 221 256 298 373
#     4  11  24  43  64  95 132 163 211 265 317 368
#     4  11  26  45  72  95 118 163 219 267 319 382
#     4  10  22  42  68  89 137 163 218 259 320 369
#
# _framework density 23.614858000000002
#
# number of rings (size 3 to 8) (size 9 to 14) (size 15 to 20)
#    0.000    1.667    1.667    1.500   11.667    1.333 
#    0.000    5.000    0.000    0.000    0.000    0.000 
#    0.000    0.000    0.000    0.000    0.000    0.000 
#
# Total GULP energy -66866.887389 kJ/mol
# GULP energy per Si atom -5572.240616 kJ/mol
# Density = 2.356111 g / cm^3
# Si number density = 23.614858 Si / 1000 Ang^3
#
#
#
# Elastic Constant Matrix: (Units=GPa)
#
#
# Indices 1 2 3 4 5 6 
#
# 1 169.6721 16.6768 26.3779 31.8841 34.0146 -23.4492
# 2 16.6768 88.3721 15.0386 8.0632 12.7460 -22.5480
# 3 26.3779 15.0386 64.7202 18.5393 20.6408 -11.4035
# 4 31.8841 8.0632 18.5393 31.3939 9.2453 -10.4261
# 5 34.0146 12.7460 20.6408 9.2453 42.2816 0.9877
# 6 -23.4492 -22.5480 -11.4035 -10.4261 0.9877 36.4430
#
#
#
# Elastic Compliance Matrix: (Units=1/GPa)
#
#
# Indices 1 2 3 4 5 6 
#
# 1 0.008827 0.000964 0.000931 -0.006158 -0.006616 0.004985
# 2 0.000964 0.014382 -0.000488 0.000326 -0.005168 0.009599
# 3 0.000931 -0.000488 0.021617 -0.009327 -0.009223 0.004642
# 4 -0.006158 0.000326 -0.009327 0.045913 -0.000782 0.006477
# 5 -0.006616 -0.005168 -0.009223 -0.000782 0.035474 -0.011525
# 6 0.004985 0.009599 0.004642 0.006477 -0.011525 0.040204
#
#
# Mechanical properties :
#
#
# Convention : Reuss Voigt Hill
#
# Bulk Modulus (GPa) = 20.99209 48.77234 34.88221
# Shear Modulus (GPa) = 27.85778 39.66843 33.76311
#
# Velocity S-wave (km/s) = 3.43836 4.10299 3.78529
# Velocity P-wave (km/s) = 4.96707 6.56842 5.82305
#
# Compressibility (1/GPa) = 0.04763700
#
# Stress axis : x y z
#
# Youngs Moduli (GPa) = 113.29375 69.53237 46.26085
#
# Poissons Ratio (x) = -0.06701 -0.04306
# Poissons Ratio (y) = -0.10919 0.02260
# Poissons Ratio (z) = -0.10544 0.03396
#
# Static dielectric constant tensor:
#      x y z
#    x 2.000680 -0.152440 -0.044240 
#    y -0.152440 2.408280 0.120600 
#    z -0.044240 0.120600 1.915000 
# 
# From -- ./inp_files/23881.got.cif
#   From: 2010.05.17/outbox.cif.g08.bks.cpg/sg2_12_cif.got.tgz:23881.got - 2010.06.03 11:33:40.
