data_PCOD9109323
_publ_section_title
;
Structure prediction by ZEFSAII (Michael W. Deem and Ramdas Pophale) SiO2 
 PCOD9109323
Probable space group: P -1
;
_chemical_formula_sum "Si O2"
_cell_formula_units_Z 16
_cell_length_a 15.593264
_cell_length_b 6.094594
_cell_length_c 7.219057
_cell_angle_alpha 111.172555
_cell_angle_beta 85.164856
_cell_angle_gamma 92.554369
_cell_volume 637.398807
_symmetry_space_group_name_H-M "P -1"
_symmetry_group_IT_number 2
_symmetry_cell_setting 'triclinic'
loop_
_space_group_symop_operation_xyz
x,y,z
-x,-y,-z
loop_
_atom_site_type_symbol
_atom_site_label
_atom_site_fract_x
_atom_site_fract_y
_atom_site_fract_z
Si Si1 0.493208 0.700492 0.393544
Si Si2 0.652346 0.777646 0.147425
Si Si3 0.162408 0.357749 0.812584
Si Si4 0.741787 0.897614 0.815712
Si Si5 0.045614 0.902630 0.697927
Si Si6 0.684043 0.149448 0.553429
Si Si7 0.153307 0.528006 0.445326
Si Si8 0.098678 0.796903 0.067274
O O1 0.500000 0.500000 0.500000
O O2 0.568446 0.657548 0.217232
O O3 0.395550 0.685057 0.333975
O O4 0.500000 0.000000 0.500000
O O5 0.739604 0.645823 0.142505
O O6 0.663858 0.029037 0.324952
O O7 0.664420 0.831377 0.946390
O O8 0.160793 0.461302 0.639021
O O9 0.120427 0.100135 0.728619
O O10 0.106023 0.518371 0.009108
O O11 0.815905 0.702728 0.734832
O O12 0.699438 0.948201 0.640956
O O13 0.801611 0.117899 0.934105
O O14 0.066495 0.678797 0.498283
O O15 0.053548 0.820581 0.883776
O O16 0.956419 0.039277 0.737070
O O17 0.771588 0.291749 0.568511
#
# Coordination Sequence:
#
# PCOD9109323 Si02
#       8
#     2   2   2   2   2   2   2   2
#     4  10  24  45  76 109 142 187 239 294 356 431
#     4  11  22  45  71  99 135 183 235 282 360 421
#     4  11  19  41  68  91 131 180 229 292 353 414
#     4  12  25  41  67 103 136 187 232 286 354 426
#     4  10  20  41  64  95 133 183 230 295 348 414
#     4  11  24  46  69  98 143 179 235 288 355 419
#     4  11  22  40  66  92 138 184 224 291 351 421
#     4  10  23  37  64 100 133 176 241 286 349 419
#
# _framework density 25.102025999999999
#
# number of rings (size 3 to 8) (size 9 to 14) (size 15 to 20)
#    0.000    1.250    3.750    1.875    3.500    2.000 
#    0.000    3.125    0.000    0.000    0.000    0.000 
#    0.000    0.000    0.000    0.000    0.000    0.000 
#
# Total GULP energy -89329.755565 kJ/mol
# GULP energy per Si atom -5583.109723 kJ/mol
# Density = 2.504489 g / cm^3
# Si number density = 25.102026 Si / 1000 Ang^3
#
#
#
# Elastic Constant Matrix: (Units=GPa)
#
#
# Indices 1 2 3 4 5 6 
#
# 1 96.8611 43.6236 38.9020 -2.7424 -52.7616 -2.7391
# 2 43.6236 131.7290 56.4768 -11.1633 -19.9997 -7.4371
# 3 38.9020 56.4768 75.3566 -4.1834 -24.4678 2.5802
# 4 -2.7424 -11.1633 -4.1834 44.1394 -4.0616 1.2932
# 5 -52.7616 -19.9997 -24.4678 -4.0616 37.4897 -2.9179
# 6 -2.7391 -7.4371 2.5802 1.2932 -2.9179 40.5028
#
#
#
# Elastic Compliance Matrix: (Units=1/GPa)
#
#
# Indices 1 2 3 4 5 6 
#
# 1 0.053444 -0.005699 0.001050 0.008601 0.074383 0.007585
# 2 -0.005699 0.012297 -0.008436 0.001286 -0.006680 0.001888
# 3 0.001050 -0.008436 0.023101 0.001290 0.012029 -0.002124
# 4 0.008601 0.001286 0.001290 0.025118 0.016441 0.001118
# 5 0.074383 -0.006680 0.012029 0.016441 0.138398 0.012483
# 6 0.007585 0.001888 -0.002124 0.001118 0.012483 0.026548
#
#
# Mechanical properties :
#
#
# Convention : Reuss Voigt Hill
#
# Bulk Modulus (GPa) = 15.95593 64.66129 40.30861
# Shear Modulus (GPa) = 15.33904 35.42264 25.38084
#
# Velocity S-wave (km/s) = 2.47466 3.76060 3.18324
# Velocity P-wave (km/s) = 3.81254 6.68367 5.44091
#
# Compressibility (1/GPa) = 0.06267263
#
# Stress axis : x y z
#
# Youngs Moduli (GPa) = 18.71111 81.32129 43.28867
#
# Poissons Ratio (x) = 0.46343 -0.04547
# Poissons Ratio (y) = 0.10663 0.36519
# Poissons Ratio (z) = -0.01965 0.68605
#
# Static dielectric constant tensor:
#      x y z
#    x 1.967460 -0.015110 -0.046050 
#    y -0.015110 2.041070 0.054210 
#    z -0.046050 0.054210 2.043040 
# 
# From -- ./inp_files/322893.got.cif
#   From: 2010.05.17/outbox.cif.g08.bks.cpg/sg2_162_cif.got.tgz:322893.got - 2010.06.03 11:33:40.
