data_PCOD9109824
_publ_section_title
;
Structure prediction by ZEFSAII (Michael W. Deem and Ramdas Pophale) SiO2 
 PCOD9109824
Probable space group: P -1
;
_chemical_formula_sum "Si O2"
_cell_formula_units_Z 16
_cell_length_a 20.811669
_cell_length_b 23.801220
_cell_length_c 14.052952
_cell_angle_alpha 161.979560
_cell_angle_beta 155.312986
_cell_angle_gamma 17.855347
_cell_volume 659.837045
_symmetry_space_group_name_H-M "P -1"
_symmetry_group_IT_number 2
_symmetry_cell_setting 'triclinic'
loop_
_space_group_symop_operation_xyz
x,y,z
-x,-y,-z
loop_
_atom_site_type_symbol
_atom_site_label
_atom_site_fract_x
_atom_site_fract_y
_atom_site_fract_z
Si Si1 0.207521 0.706313 0.348619
Si Si2 0.242820 0.415267 0.471084
Si Si3 0.466636 0.851336 0.085101
Si Si4 0.643310 0.545958 0.126590
Si Si5 0.411180 0.896133 0.863229
Si Si6 0.280091 0.605422 0.643227
Si Si7 0.826780 0.619600 0.329058
Si Si8 0.942778 0.015314 0.210282
O O1 0.435594 0.430314 0.225894
O O2 0.244874 0.865715 0.603387
O O3 0.107768 0.821236 0.502000
O O4 0.891067 0.365121 0.967536
O O5 0.405992 0.361185 0.681595
O O6 0.199729 0.582699 0.596012
O O7 0.033073 0.563231 0.490099
O O8 0.319387 0.157692 0.122109
O O9 0.475322 0.889094 0.046997
O O10 0.228786 0.012429 0.059128
O O11 0.636394 0.824943 0.332670
O O12 0.736415 0.643300 0.349446
O O13 0.450169 0.620669 0.927963
O O14 0.823735 0.247879 0.893864
O O15 0.597532 0.654080 0.665494
O O16 0.110835 0.830575 0.708558
#
# Coordination Sequence:
#
# PCOD9109824 Si02
#       8
#     2   2   2   2   2   2   2   2
#     4   9  17  35  70 103 120 162 224 269 311 378
#     4  12  29  41  59 102 141 162 214 274 320 392
#     4   9  17  37  68 103 124 160 220 274 312 374
#     4  12  26  45  68  95 126 181 221 253 327 390
#     4  11  19  42  69  94 129 168 215 273 320 373
#     4  12  23  49  68  92 129 177 218 263 326 379
#     4  10  20  41  67  95 134 165 214 269 324 372
#     4  11  20  40  74  94 124 167 229 266 302 396
#
# _framework density 24.248411000000001
#
# number of rings (size 3 to 8) (size 9 to 14) (size 15 to 20)
#    0.750    0.500    5.000    3.375    1.750    1.500 
#    4.500    2.500    0.000    0.000    0.000    0.000 
#    0.000    0.000    0.000    0.000    0.000    0.000 
#
# Total GULP energy -89505.997795 kJ/mol
# GULP energy per Si atom -5594.124862 kJ/mol
# Density = 2.419322 g / cm^3
# Si number density = 24.248411 Si / 1000 Ang^3
#
#
#
# Elastic Constant Matrix: (Units=GPa)
#
#
# Indices 1 2 3 4 5 6 
#
# 1 123.4883 26.1910 24.7786 -5.2140 17.4312 34.0116
# 2 26.1910 65.5160 7.4724 5.5008 5.0710 21.3251
# 3 24.7786 7.4724 66.0002 13.4929 5.2842 0.4987
# 4 -5.2140 5.5008 13.4929 33.3884 6.7296 -6.5237
# 5 17.4312 5.0710 5.2842 6.7296 35.0305 6.9730
# 6 34.0116 21.3251 0.4987 -6.5237 6.9730 34.5096
#
#
#
# Elastic Compliance Matrix: (Units=1/GPa)
#
#
# Indices 1 2 3 4 5 6 
#
# 1 0.012935 -0.001075 -0.004930 0.002908 -0.003974 -0.010660
# 2 -0.001075 0.020392 -0.000680 -0.006076 0.001435 -0.012970
# 3 -0.004930 -0.000680 0.018562 -0.007585 0.000518 0.003472
# 4 0.002908 -0.006076 -0.007585 0.038185 -0.008746 0.009984
# 5 -0.003974 0.001435 0.000518 -0.008746 0.032972 -0.005293
# 6 -0.010660 -0.012970 0.003472 0.009984 -0.005293 0.050405
#
#
# Mechanical properties :
#
#
# Convention : Reuss Voigt Hill
#
# Bulk Modulus (GPa) = 25.96156 41.32095 33.64126
# Shear Modulus (GPa) = 25.04252 33.68987 29.36620
#
# Velocity S-wave (km/s) = 3.21713 3.73146 3.48380
# Velocity P-wave (km/s) = 4.95274 5.97015 5.48509
#
# Compressibility (1/GPa) = 0.03851849
#
# Stress axis : x y z
#
# Youngs Moduli (GPa) = 77.30983 49.03984 53.87238
#
# Poissons Ratio (x) = 0.05274 0.26560
# Poissons Ratio (y) = 0.08314 0.03661
# Poissons Ratio (z) = 0.38115 0.03333
#
# Static dielectric constant tensor:
#      x y z
#    x 1.891800 -0.014830 -0.029790 
#    y -0.014830 1.983430 0.013620 
#    z -0.029790 0.013620 2.037560 
# 
# From -- ./inp_files/541779.got.cif
#   From: 2010.05.17/outbox.cif.g08.bks.cpg/sg2_271_cif.got.tgz:541779.got - 2010.06.03 11:33:40.
