data_PCOD9109196
_publ_section_title
;
Structure prediction by ZEFSAII (Michael W. Deem and Ramdas Pophale) SiO2 
 PCOD9109196
Probable space group: P -1
;
_chemical_formula_sum "Si O2"
_cell_formula_units_Z 16
_cell_length_a 9.889432
_cell_length_b 17.134396
_cell_length_c 8.242335
_cell_angle_alpha 78.496701
_cell_angle_beta 124.077697
_cell_angle_gamma 139.474789
_cell_volume 681.886440
_symmetry_space_group_name_H-M "P -1"
_symmetry_group_IT_number 2
_symmetry_cell_setting 'triclinic'
loop_
_space_group_symop_operation_xyz
x,y,z
-x,-y,-z
loop_
_atom_site_type_symbol
_atom_site_label
_atom_site_fract_x
_atom_site_fract_y
_atom_site_fract_z
Si Si1 0.299964 0.184607 0.134551
Si Si2 0.809102 0.350716 0.914089
Si Si3 0.665266 0.644782 0.075329
Si Si4 0.807390 0.984655 0.644388
Si Si5 0.262350 0.226717 0.617198
Si Si6 0.153715 0.877947 0.827177
Si Si7 0.214010 0.806868 0.236771
Si Si8 0.422271 0.839826 0.893271
O O1 0.994597 0.920785 0.107400
O O2 0.470613 0.181068 0.158404
O O3 0.151895 0.229748 0.387055
O O4 0.417742 0.318007 0.124700
O O5 0.501300 0.259741 0.729700
O O6 0.871721 0.315552 0.824918
O O7 0.793792 0.292728 0.090811
O O8 0.000000 0.500000 0.000000
O O9 0.628267 0.670174 0.215135
O O10 0.985266 0.749032 0.227597
O O11 0.500000 0.500000 0.000000
O O12 0.736227 0.865757 0.691394
O O13 0.522605 0.920251 0.462182
O O14 0.005611 0.082039 0.588791
O O15 0.277522 0.869806 0.770590
O O16 0.191336 0.850002 0.037999
O O17 0.312959 0.023788 0.889010
#
# Coordination Sequence:
#
# PCOD9109196 Si02
#       8
#     2   2   2   2   2   2   2   2
#     4  10  23  39  70  96 137 172 217 284 330 407
#     4  11  23  42  64  93 129 180 229 267 326 396
#     4  11  25  47  66  96 136 183 227 269 329 398
#     4  10  22  40  65 104 128 165 223 273 352 383
#     4  11  23  42  73  97 134 181 216 280 336 401
#     4  10  24  40  67 103 137 164 223 279 345 391
#     4  11  26  41  69  99 137 176 219 288 328 401
#     4  10  20  41  63  96 135 172 210 282 326 403
#
# _framework density 23.464319
#
# number of rings (size 3 to 8) (size 9 to 14) (size 15 to 20)
#    0.000    1.500    2.500    3.000    8.750    3.000 
#    0.000    8.750    0.000    0.000    0.000    0.000 
#    0.000    0.000    0.000    0.000    0.000    0.000 
#
# Total GULP energy -89322.754258 kJ/mol
# GULP energy per Si atom -5582.672141 kJ/mol
# Density = 2.341091 g / cm^3
# Si number density = 23.464319 Si / 1000 Ang^3
#
#
#
# Elastic Constant Matrix: (Units=GPa)
#
#
# Indices 1 2 3 4 5 6 
#
# 1 122.8370 13.5160 10.3619 3.3279 -7.0921 -20.9080
# 2 13.5160 144.0806 31.2281 4.8144 -5.4571 -26.4032
# 3 10.3619 31.2281 69.8267 -17.8191 11.3473 -9.2520
# 4 3.3279 4.8144 -17.8191 21.0624 -14.4967 -1.8367
# 5 -7.0921 -5.4571 11.3473 -14.4967 32.3570 8.3400
# 6 -20.9080 -26.4032 -9.2520 -1.8367 8.3400 33.1255
#
#
#
# Elastic Compliance Matrix: (Units=1/GPa)
#
#
# Indices 1 2 3 4 5 6 
#
# 1 0.009245 0.000580 -0.001467 -0.002218 0.000170 0.005722
# 2 0.000580 0.009284 -0.004896 -0.006621 -0.001189 0.006330
# 3 -0.001467 -0.004896 0.022292 0.019949 -0.000719 0.002685
# 4 -0.002218 -0.006621 0.019949 0.087739 0.031805 -0.004249
# 5 0.000170 -0.001189 -0.000719 0.031805 0.048184 -0.011409
# 6 0.005722 0.006330 0.002685 -0.004249 -0.011409 0.042232
#
#
# Mechanical properties :
#
#
# Convention : Reuss Voigt Hill
#
# Bulk Modulus (GPa) = 34.18254 49.66181 41.92217
# Shear Modulus (GPa) = 20.80796 36.08487 28.44641
#
# Velocity S-wave (km/s) = 2.98114 3.92581 3.48563
# Velocity P-wave (km/s) = 5.14287 6.46221 5.83991
#
# Compressibility (1/GPa) = 0.02925471
#
# Stress axis : x y z
#
# Youngs Moduli (GPa) = 108.17151 107.71740 44.85960
#
# Poissons Ratio (x) = -0.06245 0.06579
# Poissons Ratio (y) = -0.06271 0.21962
# Poissons Ratio (z) = 0.15865 0.52735
#
# Static dielectric constant tensor:
#      x y z
#    x 1.959850 -0.012480 -0.033940 
#    y -0.012480 1.924960 -0.019060 
#    z -0.033940 -0.019060 1.895950 
# 
# From -- ./inp_files/202601.got.cif
#   From: 2010.05.17/outbox.cif.g08.bks.cpg/sg2_102_cif.got.tgz:202601.got - 2010.06.03 11:33:40.
