data_PCOD9109367
_publ_section_title
;
Structure prediction by ZEFSAII (Michael W. Deem and Ramdas Pophale) SiO2 
 PCOD9109367
Probable space group: P -1
;
_chemical_formula_sum "Si O2"
_cell_formula_units_Z 16
_cell_length_a 12.681069
_cell_length_b 9.738996
_cell_length_c 9.918783
_cell_angle_alpha 69.656410
_cell_angle_beta 79.603944
_cell_angle_gamma 38.999556
_cell_volume 714.406310
_symmetry_space_group_name_H-M "P -1"
_symmetry_group_IT_number 2
_symmetry_cell_setting 'triclinic'
loop_
_space_group_symop_operation_xyz
x,y,z
-x,-y,-z
loop_
_atom_site_type_symbol
_atom_site_label
_atom_site_fract_x
_atom_site_fract_y
_atom_site_fract_z
Si Si1 0.376535 0.791617 0.568815
Si Si2 0.766485 0.032478 0.884240
Si Si3 0.711160 0.151643 0.149231
Si Si4 0.081466 0.678904 0.300681
Si Si5 0.340113 0.177268 0.074579
Si Si6 0.666673 0.845181 0.603672
Si Si7 0.272272 0.688659 0.429163
Si Si8 0.156470 0.668786 0.985878
O O1 0.413419 0.749738 0.733686
O O2 0.267741 0.769146 0.548281
O O3 0.557492 0.587842 0.523885
O O4 0.284849 0.036968 0.464667
O O5 0.762668 0.864800 0.908688
O O6 0.958386 0.878671 0.922933
O O7 0.704785 0.201261 0.719999
O O8 0.664408 0.161431 0.004172
O O9 0.756680 0.274495 0.099479
O O10 0.882830 0.882790 0.243486
O O11 0.179551 0.422757 0.383253
O O12 0.122722 0.744539 0.391053
O O13 0.162305 0.657994 0.151052
O O14 0.383571 0.132517 0.238098
O O15 0.237349 0.435737 0.987487
O O16 0.500000 0.000000 0.000000
O O17 0.500000 0.000000 0.500000
#
# Coordination Sequence:
#
# PCOD9109367 Si02
#       8
#     2   2   2   2   2   2   2   2
#     4  11  26  38  59  92 124 160 198 249 301 356
#     4  11  21  42  65  87 124 159 200 250 302 358
#     4  11  23  39  64  96 118 151 212 251 293 355
#     4  10  20  41  65  85 118 164 200 245 300 360
#     4  11  26  40  63  94 120 157 206 251 296 355
#     4  11  23  42  61  83 127 164 195 239 310 359
#     4  11  21  41  61  85 122 163 198 241 308 353
#     4  10  21  41  64  91 122 158 197 252 309 349
#
# _framework density 22.396217
#
# number of rings (size 3 to 8) (size 9 to 14) (size 15 to 20)
#    0.000    1.250    5.000    1.125    3.500    1.500 
#    0.000    0.000    0.000    0.000    0.000    0.000 
#    0.000    0.000    0.000    0.000    0.000    0.000 
#
# Total GULP energy -89483.650786 kJ/mol
# GULP energy per Si atom -5592.728174 kJ/mol
# Density = 2.234524 g / cm^3
# Si number density = 22.396217 Si / 1000 Ang^3
#
#
#
# Elastic Constant Matrix: (Units=GPa)
#
#
# Indices 1 2 3 4 5 6 
#
# 1 37.2112 21.4537 -0.8816 -2.0408 11.2699 15.7272
# 2 21.4537 108.8133 22.5605 -13.4194 -8.2836 25.2649
# 3 -0.8816 22.5605 73.4111 4.0397 6.8701 6.3404
# 4 -2.0408 -13.4194 4.0397 40.5519 4.9807 -2.0008
# 5 11.2699 -8.2836 6.8701 4.9807 30.8868 0.0612
# 6 15.7272 25.2649 6.3404 -2.0008 0.0612 32.3854
#
#
#
# Elastic Compliance Matrix: (Units=1/GPa)
#
#
# Indices 1 2 3 4 5 6 
#
# 1 0.044485 -0.007538 0.006108 0.000724 -0.019695 -0.016836
# 2 -0.007538 0.014068 -0.004733 0.003581 0.007011 -0.006179
# 3 0.006108 -0.004733 0.016119 -0.002164 -0.006729 -0.002550
# 4 0.000724 0.003581 -0.002164 0.026422 -0.003081 -0.001084
# 5 -0.019695 0.007011 -0.006729 -0.003081 0.043426 0.005140
# 6 -0.016836 -0.006179 -0.002550 -0.001084 0.005140 0.044298
#
#
# Mechanical properties :
#
#
# Convention : Reuss Voigt Hill
#
# Bulk Modulus (GPa) = 16.03965 33.96675 25.00320
# Shear Modulus (GPa) = 22.53012 32.51836 27.52424
#
# Velocity S-wave (km/s) = 3.17516 3.81459 3.50947
# Velocity P-wave (km/s) = 4.54087 5.88223 5.25453
#
# Compressibility (1/GPa) = 0.06234549
#
# Stress axis : x y z
#
# Youngs Moduli (GPa) = 22.47963 71.08455 62.03853
#
# Poissons Ratio (x) = 0.53583 -0.37894
# Poissons Ratio (y) = 0.16945 0.29365
# Poissons Ratio (z) = -0.13731 0.33646
#
# Static dielectric constant tensor:
#      x y z
#    x 1.846910 0.020710 0.000310 
#    y 0.020710 1.832690 0.016490 
#    z 0.000310 0.016490 1.835700 
# 
# From -- ./inp_files/180213.got.cif
#   From: 2010.05.17/outbox.cif.g08.bks.cpg/sg2_91_cif.got.tgz:180213.got - 2010.06.03 11:33:40.
