data_PCOD9109865
_publ_section_title
;
Structure prediction by ZEFSAII (Michael W. Deem and Ramdas Pophale) SiO2 
 PCOD9109865
Probable space group: P -1
;
_chemical_formula_sum "Si O2"
_cell_formula_units_Z 16
_cell_length_a 9.573077
_cell_length_b 7.730121
_cell_length_c 11.873167
_cell_angle_alpha 65.864286
_cell_angle_beta 103.075202
_cell_angle_gamma 128.124803
_cell_volume 630.342751
_symmetry_space_group_name_H-M "P -1"
_symmetry_group_IT_number 2
_symmetry_cell_setting 'triclinic'
loop_
_space_group_symop_operation_xyz
x,y,z
-x,-y,-z
loop_
_atom_site_type_symbol
_atom_site_label
_atom_site_fract_x
_atom_site_fract_y
_atom_site_fract_z
Si Si1 0.685813 0.795679 0.266068
Si Si2 0.028025 0.215533 0.126330
Si Si3 0.883967 0.437678 0.384248
Si Si4 0.497463 0.942492 0.843739
Si Si5 0.801625 0.934916 0.484651
Si Si6 0.907666 0.337024 0.856851
Si Si7 0.574606 0.461184 0.913902
Si Si8 0.499575 0.802294 0.624268
O O1 0.551327 0.609861 0.197560
O O2 0.624922 0.969756 0.206761
O O3 0.690044 0.756988 0.409491
O O4 0.889020 0.959479 0.218440
O O5 0.037583 0.415325 0.149285
O O6 0.229969 0.309366 0.132318
O O7 0.965374 0.227599 0.987735
O O8 0.833829 0.184400 0.405967
O O9 0.705169 0.418682 0.377464
O O10 0.000000 0.500000 0.500000
O O11 0.995036 0.612668 0.256922
O O12 0.504225 0.849906 0.745968
O O13 0.698267 0.161003 0.846904
O O14 0.423890 0.753205 0.981398
O O15 0.670442 0.826390 0.597874
O O16 0.000000 0.000000 0.500000
O O17 0.500000 0.500000 0.000000
O O18 0.500000 0.000000 0.500000
#
# Coordination Sequence:
#
# PCOD9109865 Si02
#       8
#     2   2   2   2   2   2   2   2
#     4  12  23  47  73  98 135 186 238 283 339 425
#     4  11  22  39  69  99 133 170 225 280 335 409
#     4  11  22  39  68 104 134 173 238 289 341 414
#     4  12  21  43  75  98 132 180 231 288 341 414
#     4  11  25  46  67  99 142 187 232 287 358 412
#     4  11  20  37  70 103 125 172 232 283 330 406
#     4  12  28  45  65 105 144 178 223 286 364 417
#     4  10  20  41  67  99 134 174 233 292 332 404
#
# _framework density 25.383015
#
# number of rings (size 3 to 8) (size 9 to 14) (size 15 to 20)
#    0.000    0.750    6.250    4.125    0.000    1.500 
#    6.750    0.625    0.000    0.000    0.000    0.000 
#    0.000    0.000    0.000    0.000    0.000    0.000 
#
# Total GULP energy -89657.818849 kJ/mol
# GULP energy per Si atom -5603.613678 kJ/mol
# Density = 2.532524 g / cm^3
# Si number density = 25.383015 Si / 1000 Ang^3
#
#
#
# Elastic Constant Matrix: (Units=GPa)
#
#
# Indices 1 2 3 4 5 6 
#
# 1 147.5554 29.4875 39.8008 9.7410 -22.6776 32.4268
# 2 29.4875 104.8226 33.1242 18.9222 -19.6488 34.5253
# 3 39.8008 33.1242 159.9232 22.9348 -23.3336 21.8787
# 4 9.7410 18.9222 22.9348 51.7652 8.4545 -5.9770
# 5 -22.6776 -19.6488 -23.3336 8.4545 42.9589 -4.1562
# 6 32.4268 34.5253 21.8787 -5.9770 -4.1562 59.0124
#
#
#
# Elastic Compliance Matrix: (Units=1/GPa)
#
#
# Indices 1 2 3 4 5 6 
#
# 1 0.008833 0.000854 -0.000506 -0.003143 0.004900 -0.005139
# 2 0.000854 0.015633 0.000403 -0.008608 0.008543 -0.010035
# 3 -0.000506 0.000403 0.008143 -0.004835 0.004990 -0.003115
# 4 -0.003143 -0.008608 -0.004835 0.028508 -0.012813 0.010540
# 5 0.004900 0.008543 0.004990 -0.012813 0.034188 -0.008430
# 6 -0.005139 -0.010035 -0.003115 0.010540 -0.008430 0.027269
#
#
# Mechanical properties :
#
#
# Convention : Reuss Voigt Hill
#
# Bulk Modulus (GPa) = 29.31729 68.56959 48.94344
# Shear Modulus (GPa) = 37.75233 51.40654 44.57944
#
# Velocity S-wave (km/s) = 3.86075 4.50514 4.19533
# Velocity P-wave (km/s) = 5.60793 7.35760 6.54153
#
# Compressibility (1/GPa) = 0.03410957
#
# Stress axis : x y z
#
# Youngs Moduli (GPa) = 113.21312 63.96890 122.80338
#
# Poissons Ratio (x) = -0.05460 0.06219
# Poissons Ratio (y) = -0.09664 -0.04953
# Poissons Ratio (z) = 0.05733 -0.02580
#
# Static dielectric constant tensor:
#      x y z
#    x 2.085180 -0.112560 0.035030 
#    y -0.112560 2.086110 -0.008840 
#    z 0.035030 -0.008840 1.937770 
# 
# From -- ./inp_files/382041.got.cif
#   From: 2010.05.17/outbox.cif.g08.bks.cpg/sg2_192_cif.got.tgz:382041.got - 2010.06.03 11:33:40.
