data_PCOD9109820
_publ_section_title
;
Structure prediction by ZEFSAII (Michael W. Deem and Ramdas Pophale) SiO2 
 PCOD9109820
Probable space group: P -1
;
_chemical_formula_sum "Si O2"
_cell_formula_units_Z 16
_cell_length_a 9.453521
_cell_length_b 17.317346
_cell_length_c 11.254274
_cell_angle_alpha 32.032194
_cell_angle_beta 59.140394
_cell_angle_gamma 50.264957
_cell_volume 749.591812
_symmetry_space_group_name_H-M "P -1"
_symmetry_group_IT_number 2
_symmetry_cell_setting 'triclinic'
loop_
_space_group_symop_operation_xyz
x,y,z
-x,-y,-z
loop_
_atom_site_type_symbol
_atom_site_label
_atom_site_fract_x
_atom_site_fract_y
_atom_site_fract_z
Si Si1 0.911224 0.425642 0.730069
Si Si2 0.905104 0.599791 0.077155
Si Si3 0.682753 0.312722 0.810770
Si Si4 0.750566 0.220478 0.390987
Si Si5 0.824387 0.926493 0.619482
Si Si6 0.700677 0.373025 0.462510
Si Si7 0.417563 0.872943 0.721754
Si Si8 0.318370 0.451481 0.107677
O O1 0.833519 0.321361 0.824064
O O2 0.738777 0.545774 0.732399
O O3 0.000000 0.500000 0.500000
O O4 0.064630 0.350031 0.866525
O O5 0.812239 0.480309 0.274580
O O6 0.115626 0.502508 0.067186
O O7 0.787570 0.769202 0.840031
O O8 0.740475 0.280239 0.691439
O O9 0.512029 0.494657 0.638427
O O10 0.613271 0.189618 0.057127
O O11 0.750184 0.254675 0.484363
O O12 0.959341 0.155954 0.338304
O O13 0.707092 0.071202 0.572631
O O14 0.643807 0.394384 0.144401
O O15 0.782178 0.024495 0.387195
O O16 0.539924 0.712131 0.802064
O O17 0.500000 0.000000 0.500000
#
# Coordination Sequence:
#
# PCOD9109820 Si02
#       8
#     2   2   2   2   2   2   2   2
#     4  10  20  41  67  95 124 164 226 264 312 385
#     4   9  21  41  65  94 125 171 215 261 319 384
#     4  11  23  39  65  97 124 172 215 271 319 383
#     4  10  21  39  61  94 122 171 216 261 310 395
#     4  10  23  37  62  95 130 161 214 266 327 363
#     4  11  22  39  68  92 129 168 223 259 324 384
#     4  12  25  40  63  97 137 163 213 280 318 378
#     4   9  21  38  66  89 122 173 219 254 320 379
#
# _framework density 21.344950999999998
#
# number of rings (size 3 to 8) (size 9 to 14) (size 15 to 20)
#    0.750    1.000    2.500    1.500    5.250    2.000 
#    0.000    1.875    0.000    3.000    0.000    0.000 
#    0.000    0.000    0.000    0.000    0.000    0.000 
#
# Total GULP energy -89182.785112 kJ/mol
# GULP energy per Si atom -5573.924069 kJ/mol
# Density = 2.129637 g / cm^3
# Si number density = 21.344951 Si / 1000 Ang^3
#
#
#
# Elastic Constant Matrix: (Units=GPa)
#
#
# Indices 1 2 3 4 5 6 
#
# 1 44.3958 5.6678 14.1722 -1.1880 -1.3030 8.1488
# 2 5.6678 88.0245 68.1403 11.0342 -0.5865 20.9491
# 3 14.1722 68.1403 145.3392 8.7661 2.4673 7.4978
# 4 -1.1880 11.0342 8.7661 37.1568 -1.5786 3.8513
# 5 -1.3030 -0.5865 2.4673 -1.5786 38.4849 1.2224
# 6 8.1488 20.9491 7.4978 3.8513 1.2224 29.9065
#
#
#
# Elastic Compliance Matrix: (Units=1/GPa)
#
#
# Indices 1 2 3 4 5 6 
#
# 1 0.024848 0.002802 -0.003442 0.001679 0.001432 -0.008145
# 2 0.002802 0.022541 -0.009989 -0.002763 0.001402 -0.013750
# 3 -0.003442 -0.009989 0.011685 -0.000482 -0.001200 0.005117
# 4 0.001679 -0.002763 -0.000482 0.028170 0.001267 -0.002081
# 5 0.001432 0.001402 -0.001200 0.001267 0.026256 -0.002308
# 6 -0.008145 -0.013750 0.005117 -0.002081 -0.002308 0.044368
#
#
# Mechanical properties :
#
#
# Convention : Reuss Voigt Hill
#
# Bulk Modulus (GPa) = 26.44434 50.41335 38.42885
# Shear Modulus (GPa) = 26.07824 33.76160 29.91992
#
# Velocity S-wave (km/s) = 3.49915 3.98139 3.74803
# Velocity P-wave (km/s) = 5.36109 6.69365 6.06409
#
# Compressibility (1/GPa) = 0.03781527
#
# Stress axis : x y z
#
# Youngs Moduli (GPa) = 40.24515 44.36435 85.58176
#
# Poissons Ratio (x) = -0.12431 0.29458
# Poissons Ratio (y) = -0.11277 0.85487
# Poissons Ratio (z) = 0.13853 0.44315
#
# Static dielectric constant tensor:
#      x y z
#    x 1.972640 0.009550 -0.003660 
#    y 0.009550 1.771630 0.014440 
#    z -0.003660 0.014440 1.796730 
# 
# From -- ./inp_files/435306.got.cif
#   From: 2010.05.17/outbox.cif.g08.bks.cpg/sg2_218_cif.got.tgz:435306.got - 2010.06.03 11:33:40.
