data_PCOD9109712
_publ_section_title
;
Structure prediction by ZEFSAII (Michael W. Deem and Ramdas Pophale) SiO2 
 PCOD9109712
Probable space group: P -1
;
_chemical_formula_sum "Si O2"
_cell_formula_units_Z 13
_cell_length_a 11.652502
_cell_length_b 8.838996
_cell_length_c 6.947433
_cell_angle_alpha 75.245117
_cell_angle_beta 48.549541
_cell_angle_gamma 79.708584
_cell_volume 518.597105
_symmetry_space_group_name_H-M "P -1"
_symmetry_group_IT_number 2
_symmetry_cell_setting 'triclinic'
loop_
_space_group_symop_operation_xyz
x,y,z
-x,-y,-z
loop_
_atom_site_type_symbol
_atom_site_label
_atom_site_fract_x
_atom_site_fract_y
_atom_site_fract_z
Si Si1 0.145610 0.612805 0.270357
Si Si2 0.500000 0.500000 0.500000
Si Si3 0.668790 0.881227 0.792786
Si Si4 0.533992 0.109134 0.613399
Si Si5 0.651548 0.599890 0.678748
Si Si6 0.028825 0.335409 0.909999
Si Si7 0.979881 0.826988 0.642440
O O1 0.298751 0.517266 0.166606
O O2 0.000000 0.500000 0.500000
O O3 0.110501 0.683853 0.078308
O O4 0.122476 0.732538 0.429008
O O5 0.527750 0.296437 0.523909
O O6 0.571754 0.506379 0.629630
O O7 0.579047 0.752558 0.808613
O O8 0.823812 0.789268 0.713824
O O9 0.680878 0.030386 0.588727
O O10 0.592367 0.920997 0.068571
O O11 0.500000 0.000000 0.500000
O O12 0.809643 0.656002 0.380950
O O13 0.038794 0.205700 0.103694
O O14 0.000000 0.500000 0.000000
O O15 0.000000 0.000000 0.500000
#
# Coordination Sequence:
#
# PCOD9109712 Si02
#       7
#     2   1   2   2   2   2   2
#     4  10  20  41  66  99 134 182 233 277 353 429
#     4  12  26  44  80 102 138 192 260 290 358 436
#     4  11  24  48  72  96 156 187 230 312 366 417
#     4  11  26  50  73 105 139 194 243 300 360 431
#     4  11  22  44  72 107 140 193 251 294 360 434
#     4  11  20  41  72  97 141 192 227 289 360 424
#     4  12  25  40  67 110 143 180 232 295 364 433
#
# _framework density 25.067629
#
# number of rings (size 3 to 8) (size 9 to 14) (size 15 to 20)
#    0.000    0.923    7.692    0.923    2.154    1.231 
#    0.000    1.538    0.000    0.000    0.000    0.000 
#    0.000    0.000    0.000    0.000    0.000    0.000 
#
# Total GULP energy -72377.362331 kJ/mol
# GULP energy per Si atom -5567.489410 kJ/mol
# Density = 2.501057 g / cm^3
# Si number density = 25.067629 Si / 1000 Ang^3
#
#
#
# Elastic Constant Matrix: (Units=GPa)
#
#
# Indices 1 2 3 4 5 6 
#
# 1 99.6365 41.6152 52.9790 -3.4416 49.2640 0.0891
# 2 41.6152 150.6483 59.5167 4.5165 21.1731 -0.2967
# 3 52.9790 59.5167 136.7769 0.9070 34.4535 3.0575
# 4 -3.4416 4.5165 0.9070 54.5429 -8.3677 20.1798
# 5 49.2640 21.1731 34.4535 -8.3677 41.0212 2.3948
# 6 0.0891 -0.2967 3.0575 20.1798 2.3948 46.7295
#
#
#
# Elastic Compliance Matrix: (Units=1/GPa)
#
#
# Indices 1 2 3 4 5 6 
#
# 1 0.027029 -0.002317 -0.001746 -0.004052 -0.030821 0.003377
# 2 -0.002317 0.008364 -0.002927 -0.000906 0.000703 0.000604
# 3 -0.001746 -0.002927 0.010658 -0.000872 -0.005519 -0.000053
# 4 -0.004052 -0.000906 -0.000872 0.023975 0.011592 -0.010888
# 5 -0.030821 0.000703 -0.005519 0.011592 0.068501 -0.008092
# 6 0.003377 0.000604 -0.000053 -0.010888 -0.008092 0.026517
#
#
# Mechanical properties :
#
#
# Convention : Reuss Voigt Hill
#
# Bulk Modulus (GPa) = 31.18017 77.25373 54.21695
# Shear Modulus (GPa) = 26.35552 43.98878 35.17215
#
# Velocity S-wave (km/s) = 3.24601 4.19358 3.74985
# Velocity P-wave (km/s) = 5.14919 7.37111 6.35796
#
# Compressibility (1/GPa) = 0.03207167
#
# Stress axis : x y z
#
# Youngs Moduli (GPa) = 36.99767 119.56481 93.82445
#
# Poissons Ratio (x) = 0.27699 0.16383
# Poissons Ratio (y) = 0.08571 0.27459
# Poissons Ratio (z) = 0.06460 0.34993
#
# Static dielectric constant tensor:
#      x y z
#    x 2.307430 -0.029040 -0.099430 
#    y -0.029040 2.055870 -0.011220 
#    z -0.099430 -0.011220 1.980790 
# 
# From -- ./inp_files/59110.got.cif
#   From: 2010.05.17/outbox.cif.g08.bks.cpg/sg2_30_cif.got.tgz:59110.got - 2010.06.03 11:33:40.
