data_PCOD9109973
_publ_section_title
;
Structure prediction by ZEFSAII (Michael W. Deem and Ramdas Pophale) SiO2 
 PCOD9109973
Probable space group: P -1
;
_chemical_formula_sum "Si O2"
_cell_formula_units_Z 16
_cell_length_a 22.293875
_cell_length_b 9.257970
_cell_length_c 9.431725
_cell_angle_alpha 89.247283
_cell_angle_beta 52.674834
_cell_angle_gamma 133.509895
_cell_volume 746.896053
_symmetry_space_group_name_H-M "P -1"
_symmetry_group_IT_number 2
_symmetry_cell_setting 'triclinic'
loop_
_space_group_symop_operation_xyz
x,y,z
-x,-y,-z
loop_
_atom_site_type_symbol
_atom_site_label
_atom_site_fract_x
_atom_site_fract_y
_atom_site_fract_z
Si Si1 0.100679 0.264827 0.961894
Si Si2 0.387700 0.701075 0.361203
Si Si3 0.365829 0.119226 0.293397
Si Si4 0.520830 0.633306 0.187102
Si Si5 0.127840 0.794547 0.212866
Si Si6 0.012453 0.601129 0.832502
Si Si7 0.870519 0.859457 0.784299
Si Si8 0.602492 0.289314 0.983448
O O1 0.262457 0.564872 0.643792
O O2 0.129041 0.220983 0.064699
O O3 0.017962 0.278848 0.114973
O O4 0.000000 0.000000 0.000000
O O5 0.337554 0.612030 0.266760
O O6 0.410548 0.578668 0.392226
O O7 0.562104 0.062686 0.100746
O O8 0.452424 0.292322 0.018924
O O9 0.187080 0.856400 0.527445
O O10 0.430228 0.330656 0.322069
O O11 0.427731 0.064149 0.238161
O O12 0.692200 0.918245 0.002632
O O13 0.000000 0.500000 0.500000
O O14 0.107063 0.677662 0.096673
O O15 0.096416 0.914247 0.250645
O O16 0.000000 0.500000 0.000000
O O17 0.712368 0.564232 0.925283
O O18 0.000000 0.000000 0.500000
#
# Coordination Sequence:
#
# PCOD9109973 Si02
#       8
#     2   2   2   2   2   2   2   2
#     4  12  26  47  69 101 145 185 230 287 356 414
#     4  10  23  41  70  98 138 183 228 284 342 416
#     4  10  20  41  68  96 132 177 227 277 335 411
#     4  10  21  39  70  97 132 175 227 281 342 404
#     4  12  25  45  69 104 137 178 240 290 345 416
#     4  12  26  44  71 101 139 185 229 283 346 414
#     4  12  27  43  71 103 142 182 232 290 355 416
#     4  10  22  43  69 104 134 179 234 283 343 415
#
# _framework density 21.421989
#
# number of rings (size 3 to 8) (size 9 to 14) (size 15 to 20)
#    0.000    1.000    2.500    3.750    3.500    1.500 
#    2.250    1.250    0.000    0.000    0.000    0.000 
#    0.000    0.000    0.000    0.000    0.000    0.000 
#
# Total GULP energy -89336.354970 kJ/mol
# GULP energy per Si atom -5583.522186 kJ/mol
# Density = 2.137323 g / cm^3
# Si number density = 21.421989 Si / 1000 Ang^3
#
#
#
# Elastic Constant Matrix: (Units=GPa)
#
#
# Indices 1 2 3 4 5 6 
#
# 1 92.5954 42.5548 20.5284 7.3956 7.5967 -7.5121
# 2 42.5548 133.8366 -1.8186 -0.6638 5.5703 1.9838
# 3 20.5284 -1.8186 61.5634 8.8878 3.4504 0.1018
# 4 7.3956 -0.6638 8.8878 27.3979 -0.5725 -6.1887
# 5 7.5967 5.5703 3.4504 -0.5725 40.6809 1.0349
# 6 -7.5121 1.9838 0.1018 -6.1887 1.0349 35.2712
#
#
#
# Elastic Compliance Matrix: (Units=1/GPa)
#
#
# Indices 1 2 3 4 5 6 
#
# 1 0.014508 -0.004657 -0.004610 -0.001873 -0.001786 0.003089
# 2 -0.004657 0.009019 0.001764 0.000580 -0.000472 -0.001389
# 3 -0.004610 0.001764 0.018648 -0.005240 -0.000985 -0.002025
# 4 -0.001873 0.000580 -0.005240 0.040235 0.001113 0.006611
# 5 -0.001786 -0.000472 -0.000985 0.001113 0.025101 -0.000892
# 6 0.003089 -0.001389 -0.002025 0.006611 -0.000892 0.030280
#
#
# Mechanical properties :
#
#
# Convention : Reuss Voigt Hill
#
# Bulk Modulus (GPa) = 36.80388 45.61383 41.20886
# Shear Modulus (GPa) = 30.89209 35.78538 33.33873
#
# Velocity S-wave (km/s) = 3.80158 4.09161 3.94926
# Velocity P-wave (km/s) = 6.04046 6.60764 6.33040
#
# Compressibility (1/GPa) = 0.02717105
#
# Stress axis : x y z
#
# Youngs Moduli (GPa) = 68.92530 110.87156 53.62561
#
# Poissons Ratio (x) = 0.51628 0.24722
# Poissons Ratio (y) = 0.32095 -0.09461
# Poissons Ratio (z) = 0.31775 -0.19560
#
# Static dielectric constant tensor:
#      x y z
#    x 1.749960 -0.048120 0.015480 
#    y -0.048120 1.823230 0.031250 
#    z 0.015480 0.031250 1.821190 
# 
# From -- ./inp_files/352243.got.cif
#   From: 2010.05.17/outbox.cif.g08.bks.cpg/sg2_177_cif.got.tgz:352243.got - 2010.06.03 11:33:40.
