data_PCOD9109131
_publ_section_title
;
Structure prediction by ZEFSAII (Michael W. Deem and Ramdas Pophale) SiO2 
 PCOD9109131
Probable space group: P -1
;
_chemical_formula_sum "Si O2"
_cell_formula_units_Z 16
_cell_length_a 8.351978
_cell_length_b 22.768150
_cell_length_c 5.942823
_cell_angle_alpha 53.443123
_cell_angle_beta 78.578572
_cell_angle_gamma 53.056454
_cell_volume 702.623134
_symmetry_space_group_name_H-M "P -1"
_symmetry_group_IT_number 2
_symmetry_cell_setting 'triclinic'
loop_
_space_group_symop_operation_xyz
x,y,z
-x,-y,-z
loop_
_atom_site_type_symbol
_atom_site_label
_atom_site_fract_x
_atom_site_fract_y
_atom_site_fract_z
Si Si1 0.023755 0.415635 0.301378
Si Si2 0.181885 0.725286 0.915538
Si Si3 0.119705 0.012977 0.246710
Si Si4 0.758920 0.150702 0.682758
Si Si5 0.645211 0.746418 0.160390
Si Si6 0.821129 0.749979 0.697759
Si Si7 0.839914 0.839409 0.089054
Si Si8 0.544714 0.521854 0.192063
O O1 0.788945 0.458326 0.293359
O O2 0.172666 0.363334 0.594850
O O3 0.124608 0.328616 0.309005
O O4 0.000000 0.500000 0.000000
O O5 0.177618 0.803901 0.612295
O O6 0.022810 0.710634 0.883446
O O7 0.408840 0.632546 0.007122
O O8 0.078718 0.762761 0.107652
O O9 0.268580 0.917110 0.291898
O O10 0.218815 0.062184 0.185453
O O11 0.000000 0.000000 0.500000
O O12 0.947176 0.086337 0.948456
O O13 0.557243 0.222677 0.722960
O O14 0.709537 0.810313 0.078551
O O15 0.633902 0.767396 0.852519
O O16 0.802399 0.830285 0.380949
O O17 0.500000 0.500000 0.500000
O O18 0.500000 0.500000 0.000000
#
# Coordination Sequence:
#
# PCOD9109131 Si02
#       8
#     2   2   2   2   2   2   2   2
#     4  11  24  44  62  95 137 177 228 289 343 406
#     4  11  21  40  68  93 131 176 230 278 338 404
#     4  11  23  42  68  99 132 162 225 283 338 415
#     4  11  24  41  66 101 128 170 221 281 345 408
#     4  10  24  42  64  95 132 174 221 269 350 414
#     4  10  20  41  63  88 128 177 217 264 339 409
#     4  10  21  41  68  91 126 177 212 274 337 404
#     4  12  25  43  70 105 137 183 243 291 339 414
#
# _framework density 22.771812000000001
#
# number of rings (size 3 to 8) (size 9 to 14) (size 15 to 20)
#    0.000    1.250    3.750    3.000    0.000    3.000 
#    4.500    1.250    0.000    0.000    0.000    0.000 
#    0.000    0.000    0.000    0.000    0.000    0.000 
#
# Total GULP energy -89174.906696 kJ/mol
# GULP energy per Si atom -5573.431668 kJ/mol
# Density = 2.271998 g / cm^3
# Si number density = 22.771812 Si / 1000 Ang^3
#
#
#
# Elastic Constant Matrix: (Units=GPa)
#
#
# Indices 1 2 3 4 5 6 
#
# 1 35.9892 2.9257 21.3257 4.1180 -10.8131 -11.4812
# 2 2.9257 56.6608 30.1978 15.5080 -5.5211 -10.3206
# 3 21.3257 30.1978 143.8046 4.9791 -24.2289 -5.5475
# 4 4.1180 15.5080 4.9791 41.2784 -7.1497 -17.4109
# 5 -10.8131 -5.5211 -24.2289 -7.1497 37.5698 -6.6566
# 6 -11.4812 -10.3206 -5.5475 -17.4109 -6.6566 35.1240
#
#
#
# Elastic Compliance Matrix: (Units=1/GPa)
#
#
# Indices 1 2 3 4 5 6 
#
# 1 0.039029 0.003087 -0.003613 0.005520 0.013671 0.018421
# 2 0.003087 0.022531 -0.004720 -0.006514 0.000583 0.003765
# 3 -0.003613 -0.004720 0.009251 0.002240 0.004821 0.000917
# 4 0.005520 -0.006514 0.002240 0.036919 0.012818 0.020974
# 5 0.013671 0.000583 0.004821 0.012818 0.039598 0.019260
# 6 0.018421 0.003765 0.000917 0.020974 0.019260 0.049790
#
#
# Mechanical properties :
#
#
# Convention : Reuss Voigt Hill
#
# Bulk Modulus (GPa) = 16.57885 38.37255 27.47570
# Shear Modulus (GPa) = 21.95714 34.92813 28.44264
#
# Velocity S-wave (km/s) = 3.10857 3.92067 3.53799
# Velocity P-wave (km/s) = 4.49227 6.11416 5.36486
#
# Compressibility (1/GPa) = 0.06031781
#
# Stress axis : x y z
#
# Youngs Moduli (GPa) = 25.62213 44.38419 108.09660
#
# Poissons Ratio (x) = -0.13701 0.39058
# Poissons Ratio (y) = -0.07909 0.51022
# Poissons Ratio (z) = 0.09258 0.20949
#
# Static dielectric constant tensor:
#      x y z
#    x 1.892510 0.122700 0.117200 
#    y 0.122700 1.854510 -0.036080 
#    z 0.117200 -0.036080 1.888270 
# 
# From -- ./inp_files/55267.got.cif
#   From: 2010.05.17/outbox.cif.g08.bks.cpg/sg2_28_cif.got.tgz:55267.got - 2010.06.03 11:33:40.
