data_PCOD9109581
_publ_section_title
;
Structure prediction by ZEFSAII (Michael W. Deem and Ramdas Pophale) SiO2 
 PCOD9109581
Probable space group: P -1
;
_chemical_formula_sum "Si O2"
_cell_formula_units_Z 16
_cell_length_a 15.165191
_cell_length_b 13.857923
_cell_length_c 9.009171
_cell_angle_alpha 139.021389
_cell_angle_beta 115.327604
_cell_angle_gamma 43.458475
_cell_volume 823.133456
_symmetry_space_group_name_H-M "P -1"
_symmetry_group_IT_number 2
_symmetry_cell_setting 'triclinic'
loop_
_space_group_symop_operation_xyz
x,y,z
-x,-y,-z
loop_
_atom_site_type_symbol
_atom_site_label
_atom_site_fract_x
_atom_site_fract_y
_atom_site_fract_z
Si Si1 0.634042 0.800881 0.799830
Si Si2 0.844261 0.787941 0.107288
Si Si3 0.633402 0.426528 0.076199
Si Si4 0.141473 0.721992 0.393117
Si Si5 0.376833 0.210699 0.570687
Si Si6 0.152677 0.938828 0.399449
Si Si7 0.619997 0.462317 0.455188
Si Si8 0.139627 0.447228 0.895652
O O1 0.632183 0.826254 0.650511
O O2 0.623502 0.637884 0.643711
O O3 0.751836 0.777662 0.930559
O O4 0.500000 0.000000 0.000000
O O5 0.870245 0.686715 0.167891
O O6 0.788146 0.001828 0.372419
O O7 0.990900 0.650812 0.980784
O O8 0.626066 0.606967 0.233592
O O9 0.630001 0.404559 0.224579
O O10 0.500000 0.500000 0.000000
O O11 0.753385 0.211849 0.838970
O O12 0.128769 0.821164 0.345747
O O13 0.244068 0.700749 0.546067
O O14 0.193044 0.512756 0.128207
O O15 0.995305 0.856899 0.515607
O O16 0.242665 0.315392 0.686378
O O17 0.500000 0.000000 0.500000
O O18 0.500000 0.500000 0.500000
#
# Coordination Sequence:
#
# PCOD9109581 Si02
#       8
#     2   2   2   2   2   2   2   2
#     4  11  25  42  62  92 127 162 210 261 305 370
#     4  10  22  39  66  94 124 161 205 253 312 371
#     4  11  25  42  62  92 127 162 210 261 305 370
#     4  10  20  41  66  90 122 166 206 253 307 369
#     4  11  25  42  64  90 124 168 209 257 311 363
#     4  10  22  39  66  94 124 161 205 253 312 371
#     4  11  25  42  64  90 124 168 209 257 311 363
#     4  10  20  41  66  90 122 166 206 253 307 369
#
# _framework density 19.437918
#
# number of rings (size 3 to 8) (size 9 to 14) (size 15 to 20)
#    0.000    1.500    2.500    1.500    7.000    1.000 
#    0.000    0.000    0.000    0.000    0.000    0.000 
#    0.000    0.000    0.000    0.000    0.000    0.000 
#
# Total GULP energy -89082.975134 kJ/mol
# GULP energy per Si atom -5567.685946 kJ/mol
# Density = 1.939368 g / cm^3
# Si number density = 19.437918 Si / 1000 Ang^3
#
#
#
# Elastic Constant Matrix: (Units=GPa)
#
#
# Indices 1 2 3 4 5 6 
#
# 1 117.8806 50.2997 74.0194 -11.6092 -22.0884 -11.3331
# 2 50.2997 87.6186 60.5879 -22.6064 -19.1870 -13.9575
# 3 74.0194 60.5879 146.7867 -6.0027 -29.1347 -18.4640
# 4 -11.6092 -22.6064 -6.0027 26.4723 -3.5671 11.6247
# 5 -22.0884 -19.1870 -29.1347 -3.5671 43.3114 3.0680
# 6 -11.3331 -13.9575 -18.4640 11.6247 3.0680 33.0202
#
#
#
# Elastic Compliance Matrix: (Units=1/GPa)
#
#
# Indices 1 2 3 4 5 6 
#
# 1 0.013703 -0.003241 -0.005067 0.002717 0.002416 -0.000681
# 2 -0.003241 0.023624 -0.006344 0.019011 0.006249 -0.001948
# 3 -0.005067 -0.006344 0.012786 -0.006542 0.002327 0.004816
# 4 0.002717 0.019011 -0.006542 0.063253 0.011896 -0.018063
# 5 0.002416 0.006249 0.002327 0.011896 0.029789 -0.002184
# 6 -0.000681 -0.001948 0.004816 -0.018063 -0.002184 0.038482
#
#
# Mechanical properties :
#
#
# Convention : Reuss Voigt Hill
#
# Bulk Modulus (GPa) = 48.05646 80.23331 64.14489
# Shear Modulus (GPa) = 22.94878 31.71938 27.33408
#
# Velocity S-wave (km/s) = 3.43974 4.04397 3.75403
# Velocity P-wave (km/s) = 6.36808 7.94804 7.20152
#
# Compressibility (1/GPa) = 0.02080886
#
# Stress axis : x y z
#
# Youngs Moduli (GPa) = 72.97919 42.33067 78.20814
#
# Poissons Ratio (x) = 0.13718 0.39629
# Poissons Ratio (y) = 0.23651 0.49615
# Poissons Ratio (z) = 0.36979 0.26854
#
# Static dielectric constant tensor:
#      x y z
#    x 1.701810 -0.001980 0.019040 
#    y -0.001980 1.757160 0.046740 
#    z 0.019040 0.046740 1.651860 
# 
# From -- ./inp_files/314272.got.cif
#   From: 2010.05.17/outbox.cif.g08.bks.cpg/sg2_158_cif.got.tgz:314272.got - 2010.06.03 11:33:40.
