data_PCOD9109723
_publ_section_title
;
Structure prediction by ZEFSAII (Michael W. Deem and Ramdas Pophale) SiO2 
 PCOD9109723
Probable space group: P -1
;
_chemical_formula_sum "Si O2"
_cell_formula_units_Z 16
_cell_length_a 16.515126
_cell_length_b 11.234668
_cell_length_c 22.019401
_cell_angle_alpha 29.181827
_cell_angle_beta 163.378810
_cell_angle_gamma 152.970160
_cell_volume 525.065573
_symmetry_space_group_name_H-M "P -1"
_symmetry_group_IT_number 2
_symmetry_cell_setting 'triclinic'
loop_
_space_group_symop_operation_xyz
x,y,z
-x,-y,-z
loop_
_atom_site_type_symbol
_atom_site_label
_atom_site_fract_x
_atom_site_fract_y
_atom_site_fract_z
Si Si1 0.691180 0.468387 0.827036
Si Si2 0.879383 0.402095 0.680887
Si Si3 0.006460 0.765834 0.281670
Si Si4 0.650847 0.018199 0.276955
Si Si5 0.847731 0.638784 0.665455
Si Si6 0.466615 0.802511 0.768164
Si Si7 0.908386 0.946669 0.251097
Si Si8 0.431983 0.382656 0.198848
O O1 0.458712 0.593803 0.573792
O O2 0.493348 0.153671 0.809785
O O3 0.734383 0.593455 0.869321
O O4 0.000000 0.500000 0.000000
O O5 0.931695 0.198400 0.762030
O O6 0.921486 0.424683 0.773786
O O7 0.130641 0.681968 0.713280
O O8 0.963427 0.965410 0.210311
O O9 0.294977 0.701638 0.540849
O O10 0.709961 0.499946 0.202024
O O11 0.843588 0.865192 0.515064
O O12 0.432914 0.033954 0.169679
O O13 0.500000 0.500000 0.500000
O O14 0.059070 0.795633 0.802424
O O15 0.197785 0.886750 0.511391
O O16 0.655746 0.787933 0.850909
O O17 0.610091 0.689627 0.168107
#
# Coordination Sequence:
#
# PCOD9109723 Si02
#       8
#     2   2   2   2   2   2   2   2
#     4  10  17  23  35  59  85 106 126 157 196 233
#     4   9  16  29  45  59  75 104 137 163 190 230
#     4   7  11  20  38  57  71  91 129 166 189 218
#     4   9  16  29  45  59  75 104 137 163 190 230
#     4  10  17  23  35  59  85 106 126 157 196 233
#     4   7  11  20  38  57  71  91 129 166 189 218
#     4   8  12  21  36  55  75  99 127 159 193 228
#     4   8  12  21  36  55  75  99 127 159 193 228
#
# _framework density 30.472383000000001
#
# number of rings (size 3 to 8) (size 9 to 14) (size 15 to 20)
#    0.000    3.500    0.000    6.000    0.000    0.000 
#    0.000    1.250    0.000    0.000    0.000   31.500 
#    0.000    0.000    0.000  198.000    0.000    4.000 
#
# Total GULP energy -89661.557961 kJ/mol
# GULP energy per Si atom -5603.847373 kJ/mol
# Density = 3.040303 g / cm^3
# Si number density = 30.472383 Si / 1000 Ang^3
#
#
#
# Elastic Constant Matrix: (Units=GPa)
#
#
# Indices 1 2 3 4 5 6 
#
# 1 335.3176 55.7383 86.9600 8.5102 2.9015 -76.2157
# 2 55.7383 109.7865 39.2156 4.7173 11.0718 -39.2682
# 3 86.9600 39.2156 115.0509 -2.3728 14.2707 -21.6666
# 4 8.5102 4.7173 -2.3728 58.2487 -16.4610 18.0986
# 5 2.9015 11.0718 14.2707 -16.4610 80.7275 -5.5959
# 6 -76.2157 -39.2682 -21.6666 18.0986 -5.5959 72.4729
#
#
#
# Elastic Compliance Matrix: (Units=1/GPa)
#
#
# Indices 1 2 3 4 5 6 
#
# 1 0.004904 0.000512 -0.002976 -0.002445 0.000139 0.005167
# 2 0.000512 0.013043 -0.003314 -0.004028 -0.001523 0.007503
# 3 -0.002976 -0.003314 0.011932 0.001355 -0.001397 -0.001804
# 4 -0.002445 -0.004028 0.001355 0.022066 0.004239 -0.009532
# 5 0.000139 -0.001523 -0.001397 0.004239 0.013626 -0.001103
# 6 0.005167 0.007503 -0.001804 -0.009532 -0.001103 0.025053
#
#
# Mechanical properties :
#
#
# Convention : Reuss Voigt Hill
#
# Bulk Modulus (GPa) = 54.57542 102.66476 78.62009
# Shear Modulus (GPa) = 46.17354 67.50589 56.83971
#
# Velocity S-wave (km/s) = 3.89686 4.71182 4.32358
# Velocity P-wave (km/s) = 6.18029 7.96027 7.12607
#
# Compressibility (1/GPa) = 0.01832327
#
# Stress axis : x y z
#
# Youngs Moduli (GPa) = 203.91252 76.67194 83.80721
#
# Poissons Ratio (x) = -0.03927 0.24941
# Poissons Ratio (y) = -0.10445 0.27774
# Poissons Ratio (z) = 0.60684 0.25409
#
# Static dielectric constant tensor:
#      x y z
#    x 2.355560 0.010020 -0.079930 
#    y 0.010020 2.335800 -0.044560 
#    z -0.079930 -0.044560 2.542570 
# 
# From -- ./inp_files/346356.got.cif
#   From: 2010.05.17/outbox.cif.g08.bks.cpg/sg2_174_cif.got.tgz:346356.got - 2010.06.03 11:33:40.
