data_PCOD9109259
_publ_section_title
;
Structure prediction by ZEFSAII (Michael W. Deem and Ramdas Pophale) SiO2 
 PCOD9109259
Probable space group: P -1
;
_chemical_formula_sum "Si O2"
_cell_formula_units_Z 15
_cell_length_a 18.231129
_cell_length_b 14.192756
_cell_length_c 5.261804
_cell_angle_alpha 72.350871
_cell_angle_beta 72.490553
_cell_angle_gamma 26.711359
_cell_volume 581.744566
_symmetry_space_group_name_H-M "P -1"
_symmetry_group_IT_number 2
_symmetry_cell_setting 'triclinic'
loop_
_space_group_symop_operation_xyz
x,y,z
-x,-y,-z
loop_
_atom_site_type_symbol
_atom_site_label
_atom_site_fract_x
_atom_site_fract_y
_atom_site_fract_z
Si Si1 0.721017 0.766137 0.667817
Si Si2 0.696167 0.290544 0.529188
Si Si3 0.000000 0.500000 0.000000
Si Si4 0.702222 0.994066 0.278985
Si Si5 0.735421 0.465861 0.542579
Si Si6 0.983240 0.346656 0.435843
Si Si7 0.666467 0.251399 0.091492
Si Si8 0.435225 0.256955 0.004240
O O1 0.646275 0.953681 0.497948
O O2 0.835138 0.592070 0.464317
O O3 0.600511 0.817668 0.843755
O O4 0.849495 0.643746 0.851338
O O5 0.500000 0.500000 0.500000
O O6 0.737576 0.349517 0.555485
O O7 0.766276 0.192716 0.255872
O O8 0.746565 0.156929 0.806473
O O9 0.958019 0.667166 0.866918
O O10 0.885497 0.795876 0.359877
O O11 0.631966 0.180543 0.282763
O O12 0.622250 0.071787 0.019539
O O13 0.909364 0.323707 0.488385
O O14 0.661547 0.573434 0.810296
O O15 0.634931 0.632534 0.283467
O O16 0.500000 0.500000 0.000000
#
# Coordination Sequence:
#
# PCOD9109259 Si02
#       8
#     2   2   1   2   2   2   2   2
#     4  10  22  41  63  93 136 173 214 259 327 392
#     4  10  19  37  62  87 120 164 215 267 315 373
#     4  10  16  38  60  86 124 174 204 248 310 386
#     4  11  22  41  64  98 129 171 223 269 325 385
#     4  11  22  43  68  94 130 178 215 265 334 386
#     4  10  23  42  64  95 133 175 214 259 328 398
#     4  10  21  39  60  91 123 166 211 269 325 371
#     4  11  22  41  63 102 129 170 215 270 319 396
#
# _framework density 25.784510999999998
#
# number of rings (size 3 to 8) (size 9 to 14) (size 15 to 20)
#    0.000    1.600    1.333    6.000    0.000    0.000 
#   19.200    3.333    0.000    0.000    0.000    0.000 
#    0.000    0.000    0.000    0.000    0.000    0.000 
#
# Total GULP energy -83585.846278 kJ/mol
# GULP energy per Si atom -5572.389752 kJ/mol
# Density = 2.572582 g / cm^3
# Si number density = 25.784511 Si / 1000 Ang^3
#
#
#
# Elastic Constant Matrix: (Units=GPa)
#
#
# Indices 1 2 3 4 5 6 
#
# 1 171.4750 0.8728 26.6649 -27.7615 -1.0102 11.9534
# 2 0.8728 27.9102 11.7476 -48.8527 8.2786 24.2052
# 3 26.6649 11.7476 129.9049 -28.5947 37.5347 6.2804
# 4 -27.7615 -48.8527 -28.5947 -33.6381 32.5031 24.8136
# 5 -1.0102 8.2786 37.5347 32.5031 33.8738 -21.6765
# 6 11.9534 24.2052 6.2804 24.8136 -21.6765 32.9411
#
#
#
# Elastic Compliance Matrix: (Units=1/GPa)
#
#
# Indices 1 2 3 4 5 6 
#
# 1 0.006143 -0.000385 -0.002020 -0.000027 0.002688 0.000229
# 2 -0.000385 0.019149 -0.007110 -0.008299 0.012271 0.001751
# 3 -0.002020 -0.007110 0.010149 -0.002168 -0.006685 0.001256
# 4 -0.000027 -0.008299 -0.002168 0.002045 0.009768 0.011409
# 5 0.002688 0.012271 -0.006685 0.009768 0.024788 0.000236
# 6 0.000229 0.001751 0.001256 0.011409 0.000236 0.020309
#
#
# Mechanical properties :
#
#
# Convention : Reuss Voigt Hill
#
# Bulk Modulus (GPa) = 60.93379 45.31784 53.12582
# Shear Modulus (GPa) = 46.69297 25.96901 36.33099
#
# Velocity S-wave (km/s) = 4.26007 3.17701 3.75777
# Velocity P-wave (km/s) = 6.91960 5.57420 6.28301
#
# Compressibility (1/GPa) = 0.01641126
#
# Stress axis : x y z
#
# Youngs Moduli (GPa) = 162.77906 52.22334 98.53091
#
# Poissons Ratio (x) = 0.02012 0.19903
# Poissons Ratio (y) = 0.06272 0.70051
# Poissons Ratio (z) = 0.32880 0.37129
#
# Static dielectric constant tensor:
#      x y z
#    x 1.965490 0.019370 0.023060 
#    y 0.019370 2.191580 0.092080 
#    z 0.023060 0.092080 1.852190 
# 
# From -- ./inp_files/110727.got.cif
#   From: 2010.05.17/outbox.cif.g08.bks.cpg/sg2_56_cif.got.tgz:110727.got - 2010.06.03 11:33:40.
