data_PCOD9109253
_publ_section_title
;
Structure prediction by ZEFSAII (Michael W. Deem and Ramdas Pophale) SiO2 
 PCOD9109253
Probable space group: P -1
;
_chemical_formula_sum "Si O2"
_cell_formula_units_Z 14
_cell_length_a 9.255822
_cell_length_b 9.150536
_cell_length_c 12.731336
_cell_angle_alpha 51.519131
_cell_angle_beta 111.332587
_cell_angle_gamma 116.500306
_cell_volume 749.683514
_symmetry_space_group_name_H-M "P -1"
_symmetry_group_IT_number 2
_symmetry_cell_setting 'triclinic'
loop_
_space_group_symop_operation_xyz
x,y,z
-x,-y,-z
loop_
_atom_site_type_symbol
_atom_site_label
_atom_site_fract_x
_atom_site_fract_y
_atom_site_fract_z
Si Si1 0.478703 0.051911 0.693500
Si Si2 0.421670 0.321098 0.137735
Si Si3 0.878096 0.598969 0.870932
Si Si4 0.540836 0.332397 0.402220
Si Si5 0.865789 0.587757 0.469276
Si Si6 0.907050 0.013124 0.361450
Si Si7 0.687096 0.430140 0.699346
O O1 0.535589 0.137876 0.552893
O O2 0.281746 0.991344 0.672836
O O3 0.560307 0.228486 0.717057
O O4 0.552832 0.875579 0.815017
O O5 0.242067 0.332029 0.113850
O O6 0.506562 0.327893 0.271937
O O7 0.500000 0.500000 0.000000
O O8 0.767291 0.442612 0.828830
O O9 0.986627 0.789152 0.753354
O O10 0.000000 0.500000 0.000000
O O11 0.707786 0.496144 0.398092
O O12 0.404003 0.404973 0.392023
O O13 0.908422 0.820484 0.382828
O O14 0.820920 0.501764 0.612766
O O15 0.000000 0.500000 0.500000
O O16 0.000000 0.000000 0.500000
#
# Coordination Sequence:
#
# PCOD9109253 Si02
#       7
#     2   2   2   2   2   2   2
#     4  11  21  40  69  92 122 162 208 252 304 370
#     4  11  25  42  62  91 123 165 212 251 301 368
#     4  11  25  44  63  88 127 166 204 256 311 366
#     4  10  20  41  64  90 125 163 204 246 304 371
#     4  11  22  34  61  98 128 154 200 259 307 355
#     4  12  22  39  65  96 126 161 202 255 315 357
#     4  10  20  44  62  90 126 163 203 247 308 374
#
# _framework density 18.674545999999999
#
# number of rings (size 3 to 8) (size 9 to 14) (size 15 to 20)
#    0.000    1.143    4.286    3.000    6.000    1.143 
#    2.571    2.857    0.000    0.000    0.000    0.000 
#    0.000    0.000    0.000    0.000    0.000    0.000 
#
# Total GULP energy -78132.244164 kJ/mol
# GULP energy per Si atom -5580.874583 kJ/mol
# Density = 1.863204 g / cm^3
# Si number density = 18.674546 Si / 1000 Ang^3
#
#
#
# Elastic Constant Matrix: (Units=GPa)
#
#
# Indices 1 2 3 4 5 6 
#
# 1 92.4445 42.0881 48.8409 4.1547 4.0216 6.6102
# 2 42.0881 78.7106 36.8135 -14.2825 2.5025 3.5020
# 3 48.8409 36.8135 109.6021 -29.0456 7.6216 7.1838
# 4 4.1547 -14.2825 -29.0456 22.8498 5.7745 1.6800
# 5 4.0216 2.5025 7.6216 5.7745 34.8818 -2.7687
# 6 6.6102 3.5020 7.1838 1.6800 -2.7687 28.1191
#
#
#
# Elastic Compliance Matrix: (Units=1/GPa)
#
#
# Indices 1 2 3 4 5 6 
#
# 1 0.029791 -0.014578 -0.020926 -0.043866 0.009742 0.003739
# 2 -0.014578 0.022620 0.006751 0.027179 -0.006182 -0.003347
# 3 -0.020926 0.006751 0.031664 0.052535 -0.014367 -0.008564
# 4 -0.043866 0.027179 0.052535 0.145442 -0.033919 -0.018524
# 5 0.009742 -0.006182 -0.014367 -0.033919 0.037366 0.007856
# 6 0.003739 -0.003347 -0.008564 -0.018524 0.007856 0.039169
#
#
# Mechanical properties :
#
#
# Convention : Reuss Voigt Hill
#
# Bulk Modulus (GPa) = 37.64013 59.58244 48.61129
# Shear Modulus (GPa) = 13.42586 27.37113 20.39850
#
# Velocity S-wave (km/s) = 2.68421 3.83259 3.30861
# Velocity P-wave (km/s) = 5.45951 7.18053 6.37833
#
# Compressibility (1/GPa) = 0.02656739
#
# Stress axis : x y z
#
# Youngs Moduli (GPa) = 33.56764 44.20889 31.58137
#
# Poissons Ratio (x) = 0.64448 0.66088
# Poissons Ratio (y) = 0.48935 -0.21319
# Poissons Ratio (z) = 0.70244 -0.29844
#
# Static dielectric constant tensor:
#      x y z
#    x 1.225420 0.126480 -0.129110 
#    y 0.126480 1.625400 0.054700 
#    z -0.129110 0.054700 1.599430 
# 
# From -- ./inp_files/156795.got.cif
#   From: 2010.05.17/outbox.cif.g08.bks.cpg/sg2_79_cif.got.tgz:156795.got - 2010.06.03 11:33:40.
