data_PCOD9109565
_publ_section_title
;
Structure prediction by ZEFSAII (Michael W. Deem and Ramdas Pophale) SiO2 
 PCOD9109565
Probable space group: P -1
;
_chemical_formula_sum "Si O2"
_cell_formula_units_Z 16
_cell_length_a 6.779200
_cell_length_b 13.784181
_cell_length_c 22.354694
_cell_angle_alpha 20.861942
_cell_angle_beta 111.489654
_cell_angle_gamma 109.418939
_cell_volume 691.892113
_symmetry_space_group_name_H-M "P -1"
_symmetry_group_IT_number 2
_symmetry_cell_setting 'triclinic'
loop_
_space_group_symop_operation_xyz
x,y,z
-x,-y,-z
loop_
_atom_site_type_symbol
_atom_site_label
_atom_site_fract_x
_atom_site_fract_y
_atom_site_fract_z
Si Si1 0.293345 0.393192 0.476993
Si Si2 0.475928 0.805690 0.492721
Si Si3 0.129069 0.365511 0.296488
Si Si4 0.799630 0.683251 0.805786
Si Si5 0.867899 0.479696 0.300783
Si Si6 0.047566 0.764626 0.312671
Si Si7 0.861478 0.123366 0.179232
Si Si8 0.248987 0.996803 0.962256
O O1 0.484846 0.345477 0.479356
O O2 0.077883 0.405546 0.405757
O O3 0.256359 0.667786 0.354001
O O4 0.273678 0.128823 0.669006
O O5 0.701837 0.813240 0.544826
O O6 0.325993 0.636446 0.617153
O O7 0.370231 0.103794 0.308654
O O8 0.156533 0.290301 0.274544
O O9 0.904710 0.355095 0.311251
O O10 0.190073 0.682399 0.131418
O O11 0.018897 0.753234 0.822183
O O12 0.739014 0.373938 0.990248
O O13 0.838245 0.805638 0.108464
O O14 0.857868 0.852405 0.194776
O O15 0.000000 0.500000 0.500000
O O16 0.040538 0.009019 0.218487
O O17 0.500000 0.000000 0.000000
#
# Coordination Sequence:
#
# PCOD9109565 Si02
#       8
#     2   2   2   2   2   2   2   2
#     4   9  20  39  67  93 122 166 209 265 327 371
#     4  11  22  41  63  94 128 167 209 264 318 377
#     4  11  23  40  62  96 124 170 208 259 327 376
#     4  11  23  39  63  89 130 172 215 253 307 385
#     4  10  21  39  64  91 132 161 206 268 325 378
#     4   9  19  38  69  93 127 168 207 268 325 378
#     4  10  20  41  66  88 126 175 212 257 311 376
#     4  11  20  38  66  98 128 159 208 273 327 382
#
# _framework density 23.12499
#
# number of rings (size 3 to 8) (size 9 to 14) (size 15 to 20)
#    0.000    1.750    3.750    0.750    0.000    1.000 
#    2.250    0.625   11.000    0.000    0.000    0.000 
#    0.000    0.000    0.000    0.000    0.000    0.000 
#
# Total GULP energy -89342.232461 kJ/mol
# GULP energy per Si atom -5583.889529 kJ/mol
# Density = 2.307236 g / cm^3
# Si number density = 23.124990 Si / 1000 Ang^3
#
#
#
# Elastic Constant Matrix: (Units=GPa)
#
#
# Indices 1 2 3 4 5 6 
#
# 1 114.7161 41.7197 39.5693 -7.4824 5.4978 -44.1473
# 2 41.7197 97.2425 2.7409 -0.1570 5.2191 -25.4694
# 3 39.5693 2.7409 109.8132 -8.8088 21.6193 -4.3032
# 4 -7.4824 -0.1570 -8.8088 29.8303 -1.5733 1.0034
# 5 5.4978 5.2191 21.6193 -1.5733 23.3412 -7.8382
# 6 -44.1473 -25.4694 -4.3032 1.0034 -7.8382 32.6254
#
#
#
# Elastic Compliance Matrix: (Units=1/GPa)
#
#
# Indices 1 2 3 4 5 6 
#
# 1 0.027719 -0.002510 -0.011703 0.003143 0.017916 0.038213
# 2 -0.002510 0.013162 0.001003 -0.000547 -0.001042 0.006777
# 3 -0.011703 0.001003 0.016350 0.001514 -0.018335 -0.017348
# 4 0.003143 -0.000547 0.001514 0.034720 0.001428 0.003301
# 5 0.017916 -0.001042 -0.018335 0.001428 0.068502 0.037426
# 6 0.038213 0.006777 -0.017348 0.003301 0.037426 0.094252
#
#
# Mechanical properties :
#
#
# Convention : Reuss Voigt Hill
#
# Bulk Modulus (GPa) = 32.45717 54.42575 43.44146
# Shear Modulus (GPa) = 17.15875 33.00881 25.08378
#
# Velocity S-wave (km/s) = 2.72692 3.78221 3.29706
# Velocity P-wave (km/s) = 4.89702 6.53146 5.77238
#
# Compressibility (1/GPa) = 0.03080984
#
# Stress axis : x y z
#
# Youngs Moduli (GPa) = 36.07622 75.97373 61.16325
#
# Poissons Ratio (x) = 0.19072 0.71580
# Poissons Ratio (y) = 0.09056 -0.06133
# Poissons Ratio (z) = 0.42220 -0.07619
#
# Static dielectric constant tensor:
#      x y z
#    x 1.885050 -0.026420 -0.014000 
#    y -0.026420 1.906260 -0.005020 
#    z -0.014000 -0.005020 1.901230 
# 
# From -- ./inp_files/604724.got.cif
#   From: 2010.05.17/outbox.cif.g08.bks.cpg/sg2_303_cif.got.tgz:604724.got - 2010.06.03 11:33:40.
