data_PCOD9109804
_publ_section_title
;
Structure prediction by ZEFSAII (Michael W. Deem and Ramdas Pophale) SiO2 
 PCOD9109804
Probable space group: P -1
;
_chemical_formula_sum "Si O2"
_cell_formula_units_Z 16
_cell_length_a 6.138925
_cell_length_b 14.256504
_cell_length_c 14.618174
_cell_angle_alpha 137.362163
_cell_angle_beta 82.071755
_cell_angle_gamma 76.494567
_cell_volume 743.646741
_symmetry_space_group_name_H-M "P -1"
_symmetry_group_IT_number 2
_symmetry_cell_setting 'triclinic'
loop_
_space_group_symop_operation_xyz
x,y,z
-x,-y,-z
loop_
_atom_site_type_symbol
_atom_site_label
_atom_site_fract_x
_atom_site_fract_y
_atom_site_fract_z
Si Si1 0.795941 0.152811 0.745208
Si Si2 0.935309 0.391250 0.988816
Si Si3 0.632613 0.095274 0.523492
Si Si4 0.593780 0.836449 0.093393
Si Si5 0.516682 0.361368 0.178180
Si Si6 0.061679 0.127430 0.042575
Si Si7 0.074428 0.403968 0.334267
Si Si8 0.311387 0.407750 0.670135
O O1 0.664150 0.180520 0.673455
O O2 0.668904 0.088907 0.781499
O O3 0.776101 0.317731 0.899195
O O4 0.088435 0.021319 0.615909
O O5 0.815135 0.497853 0.161706
O O6 0.000000 0.500000 0.000000
O O7 0.191983 0.235050 0.893768
O O8 0.452539 0.221862 0.549503
O O9 0.500000 0.000000 0.500000
O O10 0.599253 0.685764 0.933312
O O11 0.690192 0.916203 0.067014
O O12 0.482314 0.535369 0.315806
O O13 0.815412 0.236632 0.072871
O O14 0.370583 0.340968 0.256451
O O15 0.050457 0.247084 0.208595
O O16 0.000000 0.000000 0.000000
O O17 0.894617 0.523765 0.349917
O O18 0.000000 0.500000 0.500000
#
# Coordination Sequence:
#
# PCOD9109804 Si02
#       8
#     2   2   2   2   2   2   2   2
#     4  11  24  42  64  97 143 187 228 285 345 413
#     4  12  23  38  69 105 132 177 231 281 336 416
#     4  11  26  45  62  98 150 189 229 281 348 427
#     4  11  20  40  65  98 135 173 231 284 338 412
#     4  10  20  41  67  93 131 168 228 283 345 406
#     4  10  22  42  68 100 135 173 231 300 351 410
#     4  10  23  44  70  99 132 176 232 293 356 423
#     4  11  22  42  69  96 134 181 231 284 336 417
#
# _framework density 21.515591000000001
#
# number of rings (size 3 to 8) (size 9 to 14) (size 15 to 20)
#    0.000    1.250    5.000    2.250    1.750    7.000 
#    0.000   12.500    0.000    0.000    0.000    0.000 
#    0.000    0.000    0.000    0.000    0.000    0.000 
#
# Total GULP energy -89239.804170 kJ/mol
# GULP energy per Si atom -5577.487761 kJ/mol
# Density = 2.146662 g / cm^3
# Si number density = 21.515591 Si / 1000 Ang^3
#
#
#
# Elastic Constant Matrix: (Units=GPa)
#
#
# Indices 1 2 3 4 5 6 
#
# 1 109.3835 42.6507 43.1242 -9.4812 -2.4703 28.4278
# 2 42.6507 111.3853 43.1660 6.5497 5.3772 31.4000
# 3 43.1242 43.1660 82.7105 -29.2769 -4.8074 9.8792
# 4 -9.4812 6.5497 -29.2769 36.1470 -2.1387 4.8767
# 5 -2.4703 5.3772 -4.8074 -2.1387 36.4764 -5.2304
# 6 28.4278 31.4000 9.8792 4.8767 -5.2304 35.9818
#
#
#
# Elastic Compliance Matrix: (Units=1/GPa)
#
#
# Indices 1 2 3 4 5 6 
#
# 1 0.014082 -0.000336 -0.006128 -0.000020 -0.001141 -0.009313
# 2 -0.000336 0.018520 -0.013066 -0.012874 -0.006888 -0.011566
# 3 -0.006128 -0.013066 0.030968 0.025577 0.007869 0.005419
# 4 -0.000020 -0.012874 0.025577 0.051397 0.008056 -0.001567
# 5 -0.001141 -0.006888 0.007869 0.008056 0.031034 0.008171
# 6 -0.009313 -0.011566 0.005419 -0.001567 0.008171 0.045155
#
#
# Mechanical properties :
#
#
# Convention : Reuss Voigt Hill
#
# Bulk Modulus (GPa) = 40.79887 62.37347 51.58617
# Shear Modulus (GPa) = 20.97434 33.35693 27.16563
#
# Velocity S-wave (km/s) = 3.12564 3.94173 3.55717
# Velocity P-wave (km/s) = 5.65948 7.05473 6.39527
#
# Compressibility (1/GPa) = 0.02451048
#
# Stress axis : x y z
#
# Youngs Moduli (GPa) = 71.01308 53.99575 32.29092
#
# Poissons Ratio (x) = 0.01812 0.19788
# Poissons Ratio (y) = 0.02383 0.42193
# Poissons Ratio (z) = 0.43516 0.70553
#
# Static dielectric constant tensor:
#      x y z
#    x 1.973740 0.104840 0.024300 
#    y 0.104840 1.874970 0.020610 
#    z 0.024300 0.020610 1.827150 
# 
# From -- ./inp_files/111543.got.cif
#   From: 2010.05.17/outbox.cif.g08.bks.cpg/sg2_56_cif.got.tgz:111543.got - 2010.06.03 11:33:40.
