data_PCOD9109401
_publ_section_title
;
Structure prediction by ZEFSAII (Michael W. Deem and Ramdas Pophale) SiO2 
 PCOD9109401
Probable space group: P -1
;
_chemical_formula_sum "Si O2"
_cell_formula_units_Z 16
_cell_length_a 11.459664
_cell_length_b 6.680478
_cell_length_c 21.585675
_cell_angle_alpha 136.842065
_cell_angle_beta 38.803768
_cell_angle_gamma 123.138728
_cell_volume 707.415276
_symmetry_space_group_name_H-M "P -1"
_symmetry_group_IT_number 2
_symmetry_cell_setting 'triclinic'
loop_
_space_group_symop_operation_xyz
x,y,z
-x,-y,-z
loop_
_atom_site_type_symbol
_atom_site_label
_atom_site_fract_x
_atom_site_fract_y
_atom_site_fract_z
Si Si1 0.952230 0.499225 0.299029
Si Si2 0.895352 0.013545 0.959631
Si Si3 0.687640 0.951981 0.155428
Si Si4 0.580930 0.170871 0.909356
Si Si5 0.327867 0.690725 0.970608
Si Si6 0.178727 0.642904 0.546447
Si Si7 0.435647 0.473328 0.592126
Si Si8 0.875891 0.921390 0.638005
O O1 0.888774 0.330806 0.348563
O O2 0.779057 0.604164 0.349218
O O3 0.053895 0.773290 0.345566
O O4 0.087288 0.287438 0.154514
O O5 0.099537 0.055887 0.910533
O O6 0.849550 0.277166 0.991794
O O7 0.733136 0.000954 0.075387
O O8 0.595291 0.644534 0.136524
O O9 0.584189 0.215450 0.294129
O O10 0.453045 0.937319 0.944174
O O11 0.688260 0.005635 0.772417
O O12 0.500000 0.500000 0.000000
O O13 0.722765 0.233556 0.920986
O O14 0.400589 0.699503 0.475057
O O15 0.162691 0.313388 0.451592
O O16 0.038121 0.810648 0.594600
O O17 0.500000 0.500000 0.500000
#
# Coordination Sequence:
#
# PCOD9109401 Si02
#       8
#     2   2   2   2   2   2   2   2
#     4  10  20  41  65  89 124 166 207 256 323 375
#     4  10  21  38  64  95 128 162 204 262 320 378
#     4  10  21  39  64  94 127 163 209 262 317 381
#     4  11  25  41  61  91 131 167 209 265 321 374
#     4  11  22  38  61  94 123 168 208 255 320 382
#     4  10  23  41  61  90 127 163 214 262 307 380
#     4   9  21  42  63  90 125 166 209 261 317 374
#     4  11  23  40  63  91 122 167 214 261 313 378
#
# _framework density 22.617550999999999
#
# number of rings (size 3 to 8) (size 9 to 14) (size 15 to 20)
#    0.000    1.750    0.000    3.750    3.500    1.500 
#    9.000    7.500    0.000    0.000    0.000    0.000 
#    0.000    0.000    0.000    0.000    0.000    0.000 
#
# Total GULP energy -89175.129755 kJ/mol
# GULP energy per Si atom -5573.445610 kJ/mol
# Density = 2.256607 g / cm^3
# Si number density = 22.617551 Si / 1000 Ang^3
#
#
#
# Elastic Constant Matrix: (Units=GPa)
#
#
# Indices 1 2 3 4 5 6 
#
# 1 105.4512 20.1197 32.2229 -1.7122 1.3925 -14.2892
# 2 20.1197 74.4984 27.5718 5.9657 6.6269 10.3255
# 3 32.2229 27.5718 126.2853 0.5104 17.9966 -2.0225
# 4 -1.7122 5.9657 0.5104 16.0646 5.8374 7.0705
# 5 1.3925 6.6269 17.9966 5.8374 38.4012 1.6040
# 6 -14.2892 10.3255 -2.0225 7.0705 1.6040 30.6133
#
#
#
# Elastic Compliance Matrix: (Units=1/GPa)
#
#
# Indices 1 2 3 4 5 6 
#
# 1 0.011660 -0.003228 -0.002314 -0.000726 0.001058 0.006491
# 2 -0.003228 0.016547 -0.002785 -0.003312 -0.000659 -0.006472
# 3 -0.002314 -0.002785 0.009726 0.001915 -0.004297 0.000285
# 4 -0.000726 -0.003312 0.001915 0.074203 -0.010925 -0.015661
# 5 0.001058 -0.000659 -0.004297 -0.010925 0.029732 0.001398
# 6 0.006491 -0.006472 0.000285 -0.015661 0.001398 0.041441
#
#
# Mechanical properties :
#
#
# Convention : Reuss Voigt Hill
#
# Bulk Modulus (GPa) = 46.99756 51.78486 49.39121
# Shear Modulus (GPa) = 24.14799 32.10383 28.12591
#
# Velocity S-wave (km/s) = 3.27106 3.77161 3.53022
# Velocity P-wave (km/s) = 5.92375 6.47397 6.20496
#
# Compressibility (1/GPa) = 0.02127770
#
# Stress axis : x y z
#
# Youngs Moduli (GPa) = 85.76415 60.43513 102.81393
#
# Poissons Ratio (x) = 0.19509 0.23794
# Poissons Ratio (y) = 0.27685 0.28637
# Poissons Ratio (z) = 0.19848 0.16833
#
# Static dielectric constant tensor:
#      x y z
#    x 1.963250 0.024990 -0.043930 
#    y 0.024990 1.831460 0.005040 
#    z -0.043930 0.005040 1.829530 
# 
# From -- ./inp_files/364860.got.cif
#   From: 2010.05.17/outbox.cif.g08.bks.cpg/sg2_183_cif.got.tgz:364860.got - 2010.06.03 11:33:40.
