data_PCOD9109485
_publ_section_title
;
Structure prediction by ZEFSAII (Michael W. Deem and Ramdas Pophale) SiO2 
 PCOD9109485
Probable space group: P -1
;
_chemical_formula_sum "Si O2"
_cell_formula_units_Z 15
_cell_length_a 17.257392
_cell_length_b 8.659593
_cell_length_c 5.655576
_cell_angle_alpha 120.118713
_cell_angle_beta 89.034118
_cell_angle_gamma 56.964452
_cell_volume 561.582882
_symmetry_space_group_name_H-M "P -1"
_symmetry_group_IT_number 2
_symmetry_cell_setting 'triclinic'
loop_
_space_group_symop_operation_xyz
x,y,z
-x,-y,-z
loop_
_atom_site_type_symbol
_atom_site_label
_atom_site_fract_x
_atom_site_fract_y
_atom_site_fract_z
Si Si1 0.448208 0.272098 0.715070
Si Si2 0.500000 0.500000 0.500000
Si Si3 0.377641 0.849452 0.111907
Si Si4 0.881461 0.247179 0.387916
Si Si5 0.891021 0.655433 0.997398
Si Si6 0.753126 0.626054 0.286217
Si Si7 0.768478 0.157139 0.632087
Si Si8 0.072177 0.137505 0.217925
O O1 0.476473 0.358569 0.562259
O O2 0.504743 0.276514 0.942082
O O3 0.331390 0.391431 0.800805
O O4 0.500000 0.000000 0.500000
O O5 0.387296 0.753262 0.778755
O O6 0.341271 0.749712 0.218152
O O7 0.307391 0.121843 0.384507
O O8 0.828722 0.430547 0.320677
O O9 0.794118 0.294426 0.590208
O O10 0.973522 0.239667 0.459232
O O11 0.937259 0.983126 0.094992
O O12 0.820602 0.597118 0.042427
O O13 0.822419 0.916113 0.307449
O O14 0.907426 0.697096 0.759075
O O15 0.000000 0.500000 0.000000
O O16 0.830961 0.068076 0.803464
#
# Coordination Sequence:
#
# PCOD9109485 Si02
#       8
#     2   1   2   2   2   2   2   2
#     4  10  25  47  72 104 139 179 239 297 360 428
#     4  12  26  48  78  94 144 186 232 302 368 410
#     4  10  25  48  69 105 138 182 237 291 359 425
#     4  10  21  40  64 100 143 176 233 286 336 418
#     4  10  20  41  65  94 141 178 231 286 336 415
#     4  10  22  44  72 106 141 185 235 290 354 418
#     4  10  23  39  66  97 138 185 232 277 352 423
#     4  10  21  39  65  96 140 188 227 277 343 411
#
# _framework density 26.710215999999999
#
# number of rings (size 3 to 8) (size 9 to 14) (size 15 to 20)
#    0.000    1.867    1.333    0.800    3.733    5.867 
#    2.400    1.333    0.000    0.000    0.000    0.000 
#    0.000    0.000    0.000    0.000    0.000    0.000 
#
# Total GULP energy -83653.064033 kJ/mol
# GULP energy per Si atom -5576.870936 kJ/mol
# Density = 2.664942 g / cm^3
# Si number density = 26.710216 Si / 1000 Ang^3
#
#
#
# Elastic Constant Matrix: (Units=GPa)
#
#
# Indices 1 2 3 4 5 6 
#
# 1 179.6703 50.4302 26.9297 -9.7160 -31.2889 17.3242
# 2 50.4302 121.8670 13.6779 2.3345 -12.9142 17.7105
# 3 26.9297 13.6779 104.9795 14.4039 -51.3837 15.7926
# 4 -9.7160 2.3345 14.4039 43.0990 4.3148 -11.7287
# 5 -31.2889 -12.9142 -51.3837 4.3148 50.3198 -1.4670
# 6 17.3242 17.7105 15.7926 -11.7287 -1.4670 63.2640
#
#
#
# Elastic Compliance Matrix: (Units=1/GPa)
#
#
# Indices 1 2 3 4 5 6 
#
# 1 0.007048 -0.002362 0.000796 0.000663 0.004496 -0.001240
# 2 -0.002362 0.009764 0.001370 -0.002550 0.002572 -0.002842
# 3 0.000796 0.001370 0.026730 -0.014256 0.029095 -0.009243
# 4 0.000663 -0.002550 -0.014256 0.032639 -0.017314 0.009741
# 5 0.004496 0.002572 0.029095 -0.017314 0.054198 -0.011167
# 6 -0.001240 -0.002842 -0.009243 0.009741 -0.011167 0.020796
#
#
# Mechanical properties :
#
#
# Convention : Reuss Voigt Hill
#
# Bulk Modulus (GPa) = 23.17487 65.39915 44.28701
# Shear Modulus (GPa) = 30.12967 52.36850 41.24908
#
# Velocity S-wave (km/s) = 3.36225 4.43269 3.93405
# Velocity P-wave (km/s) = 4.87526 7.12293 6.10345
#
# Compressibility (1/GPa) = 0.04315018
#
# Stress axis : x y z
#
# Youngs Moduli (GPa) = 141.88883 102.42121 37.41057
#
# Poissons Ratio (x) = 0.24190 -0.02978
# Poissons Ratio (y) = 0.33512 -0.05125
# Poissons Ratio (z) = -0.11296 -0.14031
#
# Static dielectric constant tensor:
#      x y z
#    x 2.532420 -0.463600 0.559760 
#    y -0.463600 2.575540 -0.445830 
#    z 0.559760 -0.445830 2.796990 
# 
# From -- ./inp_files/105590.got.cif
#   From: 2010.05.17/outbox.cif.g08.bks.cpg/sg2_53_cif.got.tgz:105590.got - 2010.06.03 11:33:40.
