data_PCOD9109954
_publ_section_title
;
Structure prediction by ZEFSAII (Michael W. Deem and Ramdas Pophale) SiO2 
 PCOD9109954
Probable space group: P -1
;
_chemical_formula_sum "Si O2"
_cell_formula_units_Z 16
_cell_length_a 11.757661
_cell_length_b 24.458318
_cell_length_c 17.560220
_cell_angle_alpha 160.379800
_cell_angle_beta 150.970946
_cell_angle_gamma 27.851905
_cell_volume 763.895646
_symmetry_space_group_name_H-M "P -1"
_symmetry_group_IT_number 2
_symmetry_cell_setting 'triclinic'
loop_
_space_group_symop_operation_xyz
x,y,z
-x,-y,-z
loop_
_atom_site_type_symbol
_atom_site_label
_atom_site_fract_x
_atom_site_fract_y
_atom_site_fract_z
Si Si1 0.287091 0.609847 0.076358
Si Si2 0.870919 0.935926 0.183674
Si Si3 0.749983 0.486664 0.441454
Si Si4 0.683250 0.981336 0.965208
Si Si5 0.991199 0.494193 0.101062
Si Si6 0.273614 0.378416 0.558353
Si Si7 0.191418 0.697163 0.384457
Si Si8 0.553590 0.328163 0.251256
O O1 0.448455 0.675224 0.315952
O O2 0.078241 0.767955 0.119822
O O3 0.500000 0.500000 0.000000
O O4 0.157934 0.495027 0.894943
O O5 0.603024 0.959071 0.093625
O O6 0.923100 0.110130 0.461997
O O7 0.850251 0.937413 0.081921
O O8 0.744740 0.489607 0.349800
O O9 0.486914 0.653604 0.520885
O O10 0.704322 0.349588 0.292465
O O11 0.038343 0.472271 0.600915
O O12 0.748498 0.801124 0.720247
O O13 0.687802 0.145971 0.134808
O O14 0.044537 0.663194 0.326313
O O15 0.273043 0.348674 0.086010
O O16 0.838734 0.437911 0.872310
O O17 0.500000 0.500000 0.500000
#
# Coordination Sequence:
#
# PCOD9109954 Si02
#       8
#     2   2   2   2   2   2   2   2
#     4  12  27  42  64  95 132 174 214 265 326 387
#     4  11  24  40  64  98 131 162 221 268 325 375
#     4  10  22  41  67  93 130 171 212 261 324 384
#     4  11  23  40  67  98 127 169 215 273 320 378
#     4  10  21  38  66  95 124 167 212 262 326 383
#     4  11  25  41  68  94 135 173 216 261 321 394
#     4  10  20  41  68  95 126 163 213 272 320 376
#     4  11  24  39  68  97 130 168 219 272 317 383
#
# _framework density 20.945267999999999
#
# number of rings (size 3 to 8) (size 9 to 14) (size 15 to 20)
#    0.000    1.250    3.750    1.500    8.750    1.500 
#    0.000    0.625    0.000    0.000    0.000    0.000 
#    0.000    0.000    0.000    0.000    0.000    0.000 
#
# Total GULP energy -89263.169497 kJ/mol
# GULP energy per Si atom -5578.948094 kJ/mol
# Density = 2.089760 g / cm^3
# Si number density = 20.945268 Si / 1000 Ang^3
#
#
#
# Elastic Constant Matrix: (Units=GPa)
#
#
# Indices 1 2 3 4 5 6 
#
# 1 154.0739 46.4600 41.2983 14.4460 46.3598 5.8267
# 2 46.4600 116.8328 28.0651 2.1671 14.1418 7.9381
# 3 41.2983 28.0651 70.1852 9.5827 8.9332 2.4269
# 4 14.4460 2.1671 9.5827 29.3836 3.3174 10.1711
# 5 46.3598 14.1418 8.9332 3.3174 30.5720 -0.1625
# 6 5.8267 7.9381 2.4269 10.1711 -0.1625 36.0307
#
#
#
# Elastic Compliance Matrix: (Units=1/GPa)
#
#
# Indices 1 2 3 4 5 6 
#
# 1 0.014573 -0.002188 -0.004802 -0.002975 -0.019365 -0.000799
# 2 -0.002188 0.010365 -0.002965 0.002190 -0.000860 -0.002352
# 3 -0.004802 -0.002965 0.018318 -0.004317 0.003776 0.001431
# 4 -0.002975 0.002190 -0.004317 0.040571 0.000297 -0.011162
# 5 -0.019365 -0.000860 0.003776 0.000297 0.061355 0.003260
# 6 -0.000799 -0.002352 0.001431 -0.011162 0.003260 0.031471
#
#
# Mechanical properties :
#
#
# Convention : Reuss Voigt Hill
#
# Bulk Modulus (GPa) = 42.83325 63.63765 53.23545
# Shear Modulus (GPa) = 24.46830 34.21517 29.34173
#
# Velocity S-wave (km/s) = 3.42160 4.04611 3.74689
# Velocity P-wave (km/s) = 6.00869 7.23027 6.64760
#
# Compressibility (1/GPa) = 0.02334635
#
# Stress axis : x y z
#
# Youngs Moduli (GPa) = 68.61855 96.47838 54.59028
#
# Poissons Ratio (x) = 0.21113 0.26212
# Poissons Ratio (y) = 0.15016 0.16187
# Poissons Ratio (z) = 0.32948 0.28608
#
# Static dielectric constant tensor:
#      x y z
#    x 1.792370 0.032790 -0.037000 
#    y 0.032790 1.776050 -0.056510 
#    z -0.037000 -0.056510 1.803670 
# 
# From -- ./inp_files/571073.got.cif
#   From: 2010.05.17/outbox.cif.g08.bks.cpg/sg2_286_cif.got.tgz:571073.got - 2010.06.03 11:33:40.
