data_PCOD9109275
_publ_section_title
;
Structure prediction by ZEFSAII (Michael W. Deem and Ramdas Pophale) SiO2 
 PCOD9109275
Probable space group: P -1
;
_chemical_formula_sum "Si O2"
_cell_formula_units_Z 16
_cell_length_a 5.975191
_cell_length_b 6.011815
_cell_length_c 27.571442
_cell_angle_alpha 47.103556
_cell_angle_beta 69.571638
_cell_angle_gamma 77.755891
_cell_volume 679.462315
_symmetry_space_group_name_H-M "P -1"
_symmetry_group_IT_number 2
_symmetry_cell_setting 'triclinic'
loop_
_space_group_symop_operation_xyz
x,y,z
-x,-y,-z
loop_
_atom_site_type_symbol
_atom_site_label
_atom_site_fract_x
_atom_site_fract_y
_atom_site_fract_z
Si Si1 0.679396 0.271409 0.964331
Si Si2 0.750258 0.106425 0.523318
Si Si3 0.857704 0.864243 0.649239
Si Si4 0.335872 0.612305 0.605299
Si Si5 0.675052 0.201314 0.785998
Si Si6 0.931628 0.273766 0.154908
Si Si7 0.683222 0.178813 0.084522
Si Si8 0.498203 0.997114 0.729518
O O1 0.506646 0.554861 0.939604
O O2 0.899724 0.424279 0.894602
O O3 0.786860 0.189521 0.021025
O O4 0.500000 0.000000 0.000000
O O5 0.698623 0.388973 0.450504
O O6 0.773101 0.104292 0.579680
O O7 0.559172 0.838700 0.565458
O O8 0.000000 0.000000 0.500000
O O9 0.713381 0.540522 0.712722
O O10 0.766728 0.989957 0.688198
O O11 0.117683 0.766305 0.627446
O O12 0.383536 0.284449 0.670499
O O13 0.485526 0.128789 0.853359
O O14 0.546629 0.032143 0.776755
O O15 0.917148 0.030923 0.803524
O O16 0.854104 0.245520 0.107925
O O17 0.717282 0.255794 0.213316
#
# Coordination Sequence:
#
# PCOD9109275 Si02
#       8
#     2   2   2   2   2   2   2   2
#     4  10  21  40  64  94 132 168 222 274 323 398
#     4   9  20  39  65  91 127 170 215 272 327 390
#     4  11  22  39  64  92 128 173 216 266 336 388
#     4  10  20  41  64  91 132 166 214 278 329 385
#     4  10  21  40  60  90 135 163 219 278 315 390
#     4  10  21  41  65  91 133 178 215 274 334 384
#     4   9  21  39  63  92 126 177 217 265 336 386
#     4  11  23  39  64  96 129 172 224 271 326 399
#
# _framework density 23.548031999999999
#
# number of rings (size 3 to 8) (size 9 to 14) (size 15 to 20)
#    0.000    2.000    2.500    0.375    0.000    5.000 
#    0.000   14.375    0.000    0.000    0.000    0.000 
#    0.000    0.000    0.000    0.000    0.000    0.000 
#
# Total GULP energy -89135.331013 kJ/mol
# GULP energy per Si atom -5570.958188 kJ/mol
# Density = 2.349444 g / cm^3
# Si number density = 23.548032 Si / 1000 Ang^3
#
#
#
# Elastic Constant Matrix: (Units=GPa)
#
#
# Indices 1 2 3 4 5 6 
#
# 1 46.6025 2.3125 51.8126 -22.6273 -2.2526 3.0232
# 2 2.3125 13.0219 27.6315 -15.5789 7.3095 -10.2400
# 3 51.8126 27.6315 132.3329 15.2585 -20.9155 -5.4645
# 4 -22.6273 -15.5789 15.2585 1.7321 6.7539 4.2494
# 5 -2.2526 7.3095 -20.9155 6.7539 40.1618 -4.5144
# 6 3.0232 -10.2400 -5.4645 4.2494 -4.5144 21.5641
#
#
#
# Elastic Compliance Matrix: (Units=1/GPa)
#
#
# Indices 1 2 3 4 5 6 
#
# 1 0.019250 -0.029556 0.000230 -0.009498 0.006669 -0.013408
# 2 -0.029556 0.056359 0.005929 -0.036375 0.001780 0.039950
# 3 0.000230 0.005929 0.004796 0.012306 -0.000472 0.001475
# 4 -0.009498 -0.036375 0.012306 0.002346 0.010864 -0.011011
# 5 0.006669 0.001780 -0.000472 0.010864 0.023157 0.002498
# 6 -0.013408 0.039950 0.001475 -0.011011 0.002498 0.070290
#
#
# Mechanical properties :
#
#
# Convention : Reuss Voigt Hill
#
# Bulk Modulus (GPa) = 29.75134 39.49670 34.62402
# Shear Modulus (GPa) = 21.34961 20.03831 20.69396
#
# Velocity S-wave (km/s) = 3.01431 2.92028 2.96767
# Velocity P-wave (km/s) = 4.97760 5.30848 5.14570
#
# Compressibility (1/GPa) = 0.03361194
#
# Stress axis : x y z
#
# Youngs Moduli (GPa) = 51.94891 17.74328 208.50572
#
# Poissons Ratio (x) = 0.52442 -0.04794
# Poissons Ratio (y) = 1.53539 -1.23628
# Poissons Ratio (z) = -0.01194 -0.10520
#
# Static dielectric constant tensor:
#      x y z
#    x 1.906090 0.026040 0.017420 
#    y 0.026040 1.802230 -0.154260 
#    z 0.017420 -0.154260 1.800120 
# 
# From -- ./inp_files/14724.got.cif
#   From: 2010.05.17/outbox.cif.g08.bks.cpg/sg2_8_cif.got.tgz:14724.got - 2010.06.03 11:33:40.
