data_PCOD9109350
_publ_section_title
;
Structure prediction by ZEFSAII (Michael W. Deem and Ramdas Pophale) SiO2 
 PCOD9109350
Probable space group: P -1
;
_chemical_formula_sum "Si O2"
_cell_formula_units_Z 13
_cell_length_a 21.359052
_cell_length_b 5.047693
_cell_length_c 14.413410
_cell_angle_alpha 79.577586
_cell_angle_beta 20.782072
_cell_angle_gamma 76.237482
_cell_volume 531.639913
_symmetry_space_group_name_H-M "P -1"
_symmetry_group_IT_number 2
_symmetry_cell_setting 'triclinic'
loop_
_space_group_symop_operation_xyz
x,y,z
-x,-y,-z
loop_
_atom_site_type_symbol
_atom_site_label
_atom_site_fract_x
_atom_site_fract_y
_atom_site_fract_z
Si Si1 0.238747 0.872098 0.272937
Si Si2 0.775511 0.901402 0.091607
Si Si3 0.603254 0.387541 0.198531
Si Si4 0.828389 0.135279 0.423330
Si Si5 0.500000 0.500000 0.500000
Si Si6 0.391662 0.262019 0.324719
Si Si7 0.891916 0.703883 0.737269
O O1 0.203190 0.966215 0.421846
O O2 0.106997 0.657282 0.448899
O O3 0.175148 0.110711 0.270261
O O4 0.447352 0.759703 0.971760
O O5 0.679445 0.659218 0.268276
O O6 0.646702 0.206886 0.246878
O O7 0.828971 0.860023 0.911018
O O8 0.959674 0.917480 0.886573
O O9 0.493849 0.641268 0.391260
O O10 0.491987 0.276650 0.282056
O O11 0.787227 0.454065 0.900254
O O12 0.750484 0.458488 0.510773
O O13 0.709718 0.986886 0.530926
#
# Coordination Sequence:
#
# PCOD9109350 Si02
#       7
#     2   2   2   2   1   2   2
#     4  10  20  41  64  99 138 189 226 265 318 399
#     4  10  22  45  69  98 126 174 223 287 332 405
#     4  11  23  43  73  94 132 168 232 283 338 396
#     4  11  27  42  67  99 147 181 220 269 336 402
#     4  10  24  44  78  98 118 166 236 286 344 400
#     4  12  25  44  64 100 145 183 219 273 335 397
#     4   9  20  38  65 101 132 173 235 280 317 373
#
# _framework density 24.452641
#
# number of rings (size 3 to 8) (size 9 to 14) (size 15 to 20)
#    0.000    1.538    1.538    2.308    8.615    1.846 
#    2.769    1.538    0.000    0.000    0.000    0.000 
#    0.000    0.000    0.000    0.000    0.000    0.000 
#
# Total GULP energy -72562.014110 kJ/mol
# GULP energy per Si atom -5581.693393 kJ/mol
# Density = 2.439699 g / cm^3
# Si number density = 24.452641 Si / 1000 Ang^3
#
#
#
# Elastic Constant Matrix: (Units=GPa)
#
#
# Indices 1 2 3 4 5 6 
#
# 1 40.5659 34.3719 64.2082 -49.8792 -54.7862 40.4645
# 2 34.3719 17.4220 3.3001 23.6520 47.6823 -16.5886
# 3 64.2082 3.3001 145.5557 5.6973 13.2830 -0.0539
# 4 -49.8792 23.6520 5.6973 7.5903 -41.3564 11.4320
# 5 -54.7862 47.6823 13.2830 -41.3564 -21.9678 23.6999
# 6 40.4645 -16.5886 -0.0539 11.4320 23.6999 27.4047
#
#
#
# Elastic Compliance Matrix: (Units=1/GPa)
#
#
# Indices 1 2 3 4 5 6 
#
# 1 0.010398 0.007611 -0.003807 -0.002085 -0.009545 -0.001629
# 2 0.007611 0.020720 -0.004387 0.008592 0.002429 -0.004390
# 3 -0.003807 -0.004387 0.008316 0.000777 0.003314 -0.000208
# 4 -0.002085 0.008592 0.000777 0.022815 -0.010330 0.007697
# 5 -0.009545 0.002429 0.003314 -0.010330 0.013686 0.008044
# 6 -0.001629 -0.004390 -0.000208 0.007697 0.008044 0.026070
#
#
# Mechanical properties :
#
#
# Convention : Reuss Voigt Hill
#
# Bulk Modulus (GPa) = 26.13103 45.25600 35.69352
# Shear Modulus (GPa) = 43.13011 9.38298 26.25655
#
# Velocity S-wave (km/s) = 4.20434 1.96100 3.28040
# Velocity P-wave (km/s) = 5.85476 4.86571 5.38300
#
# Compressibility (1/GPa) = 0.03826868
#
# Stress axis : x y z
#
# Youngs Moduli (GPa) = 96.17248 48.26170 120.24662
#
# Poissons Ratio (x) = -0.36733 0.45781
# Poissons Ratio (y) = -0.73199 0.52751
# Poissons Ratio (z) = 0.36616 0.21172
#
# Static dielectric constant tensor:
#      x y z
#    x 1.972850 0.070040 0.053580 
#    y 0.070040 2.120780 0.119680 
#    z 0.053580 0.119680 1.969410 
# 
# From -- ./inp_files/20357.got.cif
#   From: 2010.05.17/outbox.cif.g08.bks.cpg/sg2_11_cif.got.tgz:20357.got - 2010.06.03 11:33:40.
