data_PCOD9109378
_publ_section_title
;
Structure prediction by ZEFSAII (Michael W. Deem and Ramdas Pophale) SiO2 
 PCOD9109378
Probable space group: P -1
;
_chemical_formula_sum "Si O2"
_cell_formula_units_Z 14
_cell_length_a 11.688005
_cell_length_b 12.338404
_cell_length_c 10.268029
_cell_angle_alpha 87.487227
_cell_angle_beta 64.004004
_cell_angle_gamma 142.183611
_cell_volume 576.424674
_symmetry_space_group_name_H-M "P -1"
_symmetry_group_IT_number 2
_symmetry_cell_setting 'triclinic'
loop_
_space_group_symop_operation_xyz
x,y,z
-x,-y,-z
loop_
_atom_site_type_symbol
_atom_site_label
_atom_site_fract_x
_atom_site_fract_y
_atom_site_fract_z
Si Si1 0.898543 0.298391 0.594194
Si Si2 0.177462 0.264774 0.772503
Si Si3 0.844599 0.852053 0.796581
Si Si4 0.788518 0.467103 0.330964
Si Si5 0.807722 0.040229 0.202630
Si Si6 0.337117 0.841848 0.724573
Si Si7 0.641461 0.533761 0.727309
O O1 0.919965 0.305412 0.739093
O O2 0.116709 0.372266 0.426041
O O3 0.000000 0.500000 0.500000
O O4 0.581881 0.032693 0.704279
O O5 0.275618 0.462863 0.691768
O O6 0.426466 0.390419 0.719662
O O7 0.059343 0.116801 0.708742
O O8 0.903668 0.060768 0.019020
O O9 0.769664 0.749569 0.697470
O O10 0.004927 0.873230 0.784371
O O11 0.553118 0.647858 0.039160
O O12 0.793964 0.376314 0.227128
O O13 0.527649 0.234863 0.574264
O O14 0.874343 0.218508 0.147645
O O15 0.500000 0.000000 0.500000
#
# Coordination Sequence:
#
# PCOD9109378 Si02
#       7
#     2   2   2   2   2   2   2
#     4  12  22  37  66  92 122 167 212 254 311 373
#     4  11  24  41  64  94 128 164 208 258 314 376
#     4  10  21  38  65  94 125 167 207 260 314 367
#     4  11  24  41  63  96 126 167 207 257 318 366
#     4  10  20  41  65  87 127 167 209 257 308 370
#     4  10  21  38  62  92 124 165 211 255 307 372
#     4  10  22  39  63  96 125 165 211 258 314 369
#
# _framework density 24.287649999999999
#
# number of rings (size 3 to 8) (size 9 to 14) (size 15 to 20)
#    0.000    1.429    2.857    5.143    0.000    4.000 
#    0.000    2.857    0.000    0.000    0.000    0.000 
#    0.000    0.000    0.000    0.000    0.000    0.000 
#
# Total GULP energy -78321.533638 kJ/mol
# GULP energy per Si atom -5594.395260 kJ/mol
# Density = 2.423237 g / cm^3
# Si number density = 24.287650 Si / 1000 Ang^3
#
#
#
# Elastic Constant Matrix: (Units=GPa)
#
#
# Indices 1 2 3 4 5 6 
#
# 1 98.0818 33.8699 7.7871 0.4840 -7.1785 -35.0824
# 2 33.8699 186.0193 22.4698 14.4937 -3.2098 -25.5642
# 3 7.7871 22.4698 64.4117 5.9578 1.7122 -15.7391
# 4 0.4840 14.4937 5.9578 19.9023 -10.2198 0.3563
# 5 -7.1785 -3.2098 1.7122 -10.2198 29.4590 0.6950
# 6 -35.0824 -25.5642 -15.7391 0.3563 0.6950 50.6236
#
#
#
# Elastic Compliance Matrix: (Units=1/GPa)
#
#
# Indices 1 2 3 4 5 6 
#
# 1 0.014250 -0.001529 0.000755 0.002358 0.003861 0.009268
# 2 -0.001529 0.006417 -0.001083 -0.005072 -0.001415 0.001899
# 3 0.000755 -0.001083 0.017864 -0.006382 -0.003319 0.005620
# 4 0.002358 -0.005072 -0.006382 0.068267 0.024164 -0.003724
# 5 0.003861 -0.001415 -0.003319 0.024164 0.043304 0.000165
# 6 0.009268 0.001899 0.005620 -0.003724 0.000165 0.028907
#
#
# Mechanical properties :
#
#
# Convention : Reuss Voigt Hill
#
# Bulk Modulus (GPa) = 28.72291 52.97404 40.84847
# Shear Modulus (GPa) = 25.72975 38.95606 32.34291
#
# Velocity S-wave (km/s) = 3.25834 4.00927 3.65315
# Velocity P-wave (km/s) = 5.09975 6.57958 5.88635
#
# Compressibility (1/GPa) = 0.03481542
#
# Stress axis : x y z
#
# Youngs Moduli (GPa) = 70.17718 155.84127 55.97992
#
# Poissons Ratio (x) = 0.23830 -0.04224
# Poissons Ratio (y) = 0.10731 0.06061
# Poissons Ratio (z) = -0.05295 0.16874
#
# Static dielectric constant tensor:
#      x y z
#    x 1.922100 -0.035760 -0.001590 
#    y -0.035760 2.120590 0.019260 
#    z -0.001590 0.019260 1.996920 
# 
# From -- ./inp_files/257299.got.cif
#   From: 2010.05.17/outbox.cif.g08.bks.cpg/sg2_129_cif.got.tgz:257299.got - 2010.06.03 11:33:40.
