data_PCOD9109215
_publ_section_title
;
Structure prediction by ZEFSAII (Michael W. Deem and Ramdas Pophale) SiO2 
 PCOD9109215
Probable space group: P -1
;
_chemical_formula_sum "Si O2"
_cell_formula_units_Z 12
_cell_length_a 9.463840
_cell_length_b 9.860490
_cell_length_c 9.858494
_cell_angle_alpha 46.428837
_cell_angle_beta 138.907904
_cell_angle_gamma 121.268352
_cell_volume 438.097375
_symmetry_space_group_name_H-M "P -1"
_symmetry_group_IT_number 2
_symmetry_cell_setting 'triclinic'
loop_
_space_group_symop_operation_xyz
x,y,z
-x,-y,-z
loop_
_atom_site_type_symbol
_atom_site_label
_atom_site_fract_x
_atom_site_fract_y
_atom_site_fract_z
Si Si1 0.856723 0.183766 0.281745
Si Si2 0.397271 0.280372 0.300764
Si Si3 0.228910 0.421026 0.335022
Si Si4 0.071956 0.799622 0.088222
Si Si5 0.150998 0.679033 0.512198
Si Si6 0.491262 0.927735 0.215147
O O1 0.875562 0.256427 0.398534
O O2 0.998055 0.328043 0.198642
O O3 0.615781 0.111588 0.130398
O O4 0.000000 0.000000 0.500000
O O5 0.346889 0.443161 0.261251
O O6 0.593122 0.345685 0.306384
O O7 0.460618 0.105170 0.565152
O O8 0.175888 0.226199 0.107810
O O9 0.187274 0.597563 0.277176
O O10 0.378890 0.254838 0.620610
O O11 0.091054 0.823053 0.248050
O O12 0.233133 0.926956 0.026905
O O13 0.000000 0.500000 0.500000
#
# Coordination Sequence:
#
# PCOD9109215 Si02
#       6
#     2   2   2   2   2   2
#     4  10  20  41  64  84 121 160 194 243 299 352
#     4   9  22  35  60  91 120 153 199 244 293 349
#     4   9  18  37  62  86 121 161 194 240 292 350
#     4  11  19  37  62  90 120 154 202 242 291 354
#     4  11  23  39  63  89 117 157 199 247 297 343
#     4   8  20  35  61  83 115 162 191 234 294 345
#
# _framework density 27.391171
#
# number of rings (size 3 to 8) (size 9 to 14) (size 15 to 20)
#    1.000    1.333    1.667    1.000    0.000    3.333 
#    0.000    4.167    0.000    0.000    0.000    0.000 
#    0.000    0.000    0.000    0.000    0.000    0.000 
#
# Total GULP energy -67123.211824 kJ/mol
# GULP energy per Si atom -5593.600985 kJ/mol
# Density = 2.732883 g / cm^3
# Si number density = 27.391171 Si / 1000 Ang^3
#
#
#
# Elastic Constant Matrix: (Units=GPa)
#
#
# Indices 1 2 3 4 5 6 
#
# 1 184.2197 61.6541 51.5014 12.8856 48.6950 8.3758
# 2 61.6541 126.2392 24.3854 22.0170 35.5317 6.4815
# 3 51.5014 24.3854 140.6778 28.8034 36.2972 12.4537
# 4 12.8856 22.0170 28.8034 34.3573 16.1899 13.6465
# 5 48.6950 35.5317 36.2972 16.1899 50.9235 16.2432
# 6 8.3758 6.4815 12.4537 13.6465 16.2432 57.4597
#
#
#
# Elastic Compliance Matrix: (Units=1/GPa)
#
#
# Indices 1 2 3 4 5 6 
#
# 1 0.008013 -0.002427 -0.001552 0.002371 -0.005780 0.000513
# 2 -0.002427 0.011191 0.001266 -0.005531 -0.005137 0.001583
# 3 -0.001552 0.001266 0.009953 -0.006726 -0.004620 0.000830
# 4 0.002371 -0.005531 -0.006726 0.042474 -0.004895 -0.006968
# 5 -0.005780 -0.005137 -0.004620 -0.004895 0.035671 -0.006498
# 6 0.000513 0.001583 0.000830 -0.006968 -0.006498 0.020462
#
#
# Mechanical properties :
#
#
# Convention : Reuss Voigt Hill
#
# Bulk Modulus (GPa) = 42.13755 80.69095 61.41425
# Shear Modulus (GPa) = 35.43579 49.45447 42.44513
#
# Velocity S-wave (km/s) = 3.60070 4.25371 3.94076
# Velocity P-wave (km/s) = 5.71872 7.32449 6.57084
#
# Compressibility (1/GPa) = 0.02373180
#
# Stress axis : x y z
#
# Youngs Moduli (GPa) = 124.79447 89.35462 100.47351
#
# Poissons Ratio (x) = 0.21683 0.15598
# Poissons Ratio (y) = 0.30283 -0.12723
# Poissons Ratio (z) = 0.19374 -0.11315
#
# Static dielectric constant tensor:
#      x y z
#    x 2.124460 0.038930 -0.042290 
#    y 0.038930 2.185040 -0.032430 
#    z -0.042290 -0.032430 2.189180 
# 
# From -- ./inp_files/378510.got.cif
#   From: 2010.05.17/outbox.cif.g08.bks.cpg/sg2_190_cif.got.tgz:378510.got - 2010.06.03 11:33:40.
