data_PCOD9109795
_publ_section_title
;
Structure prediction by ZEFSAII (Michael W. Deem and Ramdas Pophale) SiO2 
 PCOD9109795
Probable space group: P -1
;
_chemical_formula_sum "Si O2"
_cell_formula_units_Z 14
_cell_length_a 13.744150
_cell_length_b 7.096451
_cell_length_c 15.085446
_cell_angle_alpha 117.845556
_cell_angle_beta 149.585941
_cell_angle_gamma 52.008224
_cell_volume 579.485542
_symmetry_space_group_name_H-M "P -1"
_symmetry_group_IT_number 2
_symmetry_cell_setting 'triclinic'
loop_
_space_group_symop_operation_xyz
x,y,z
-x,-y,-z
loop_
_atom_site_type_symbol
_atom_site_label
_atom_site_fract_x
_atom_site_fract_y
_atom_site_fract_z
Si Si1 0.325575 0.040411 0.447534
Si Si2 0.889975 0.323173 0.238678
Si Si3 0.347791 0.114341 0.819691
Si Si4 0.015409 0.890342 0.364101
Si Si5 0.907288 0.202005 0.895813
Si Si6 0.508978 0.358619 0.381995
Si Si7 0.243884 0.062253 0.998548
O O1 0.187665 0.912874 0.275707
O O2 0.457691 0.892013 0.603692
O O3 0.500000 0.000000 0.500000
O O4 0.115811 0.293027 0.364780
O O5 0.730907 0.602233 0.187934
O O6 0.762327 0.196642 0.060043
O O7 0.968291 0.157323 0.352234
O O8 0.132321 0.089766 0.663327
O O9 0.515680 0.982567 0.843582
O O10 0.500000 0.000000 0.000000
O O11 0.271606 0.709878 0.516768
O O12 0.905996 0.814172 0.179001
O O13 0.700342 0.465154 0.802660
O O14 0.110706 0.208099 0.010810
O O15 0.000000 0.000000 0.000000
O O16 0.500000 0.500000 0.500000
#
# Coordination Sequence:
#
# PCOD9109795 Si02
#       7
#     2   2   2   2   2   2   2
#     4   9  18  30  51  77  97 129 170 209 256 292
#     4   8  16  27  39  69 104 117 155 215 243 291
#     4  10  17  23  46  70  99 129 156 206 262 293
#     4   8  16  27  43  72  92 124 169 200 257 285
#     4  10  19  32  51  73 104 138 162 204 257 299
#     4   9  15  30  48  68  99 125 165 213 235 300
#     4   8  16  29  40  68 103 123 164 198 256 290
#
# _framework density 24.15936
#
# number of rings (size 3 to 8) (size 9 to 14) (size 15 to 20)
#    0.857    2.286    2.857    0.429    4.000    0.000 
#    0.000    0.714    0.000    0.857    0.000    2.000 
#    0.000    0.000    0.000    0.000    0.000    0.000 
#
# Total GULP energy -77959.810099 kJ/mol
# GULP energy per Si atom -5568.557864 kJ/mol
# Density = 2.410437 g / cm^3
# Si number density = 24.159360 Si / 1000 Ang^3
#
#
#
# Elastic Constant Matrix: (Units=GPa)
#
#
# Indices 1 2 3 4 5 6 
#
# 1 176.2188 31.2764 89.5983 -25.7873 53.4733 6.4741
# 2 31.2764 62.6449 50.3429 -28.5470 11.8096 1.2576
# 3 89.5983 50.3429 150.8336 -32.9116 28.6889 -4.2863
# 4 -25.7873 -28.5470 -32.9116 50.3032 -1.6165 7.6439
# 5 53.4733 11.8096 28.6889 -1.6165 66.1062 -2.6198
# 6 6.4741 1.2576 -4.2863 7.6439 -2.6198 21.0983
#
#
#
# Elastic Compliance Matrix: (Units=1/GPa)
#
#
# Indices 1 2 3 4 5 6 
#
# 1 0.010970 0.002077 -0.005101 0.004293 -0.007202 -0.006976
# 2 0.002077 0.027546 -0.007106 0.013298 -0.003548 -0.008981
# 3 -0.005101 -0.007106 0.012264 0.000740 0.000259 0.004245
# 4 0.004293 0.013298 0.000740 0.032097 -0.005952 -0.014328
# 5 -0.007202 -0.003548 0.000259 -0.005952 0.021619 0.007315
# 6 -0.006976 -0.008981 0.004245 -0.014328 0.007315 0.057035
#
#
# Mechanical properties :
#
#
# Convention : Reuss Voigt Hill
#
# Bulk Modulus (GPa) = 32.76650 81.34805 57.05727
# Shear Modulus (GPa) = 26.04643 42.06683 34.05663
#
# Velocity S-wave (km/s) = 3.28702 4.17732 3.75863
# Velocity P-wave (km/s) = 5.29132 7.55058 6.51956
#
# Compressibility (1/GPa) = 0.03051897
#
# Stress axis : x y z
#
# Youngs Moduli (GPa) = 91.15901 36.30293 81.53668
#
# Poissons Ratio (x) = -0.07539 0.41592
# Poissons Ratio (y) = -0.18930 0.57942
# Poissons Ratio (z) = 0.46500 0.25798
#
# Static dielectric constant tensor:
#      x y z
#    x 1.897100 -0.033670 -0.041140 
#    y -0.033670 2.064760 0.049270 
#    z -0.041140 0.049270 1.952510 
# 
# From -- ./inp_files/285343.got.cif
#   From: 2010.05.17/outbox.cif.g08.bks.cpg/sg2_143_cif.got.tgz:285343.got - 2010.06.03 11:33:40.
