data_PCOD9109091
_publ_section_title
;
Structure prediction by ZEFSAII (Michael W. Deem and Ramdas Pophale) SiO2 
 PCOD9109091
Probable space group: P -1
;
_chemical_formula_sum "Si O2"
_cell_formula_units_Z 16
_cell_length_a 9.715822
_cell_length_b 17.221018
_cell_length_c 8.831900
_cell_angle_alpha 86.006806
_cell_angle_beta 136.488089
_cell_angle_gamma 118.213458
_cell_volume 800.486177
_symmetry_space_group_name_H-M "P -1"
_symmetry_group_IT_number 2
_symmetry_cell_setting 'triclinic'
loop_
_space_group_symop_operation_xyz
x,y,z
-x,-y,-z
loop_
_atom_site_type_symbol
_atom_site_label
_atom_site_fract_x
_atom_site_fract_y
_atom_site_fract_z
Si Si1 0.101543 0.554088 0.230696
Si Si2 0.980374 0.050484 0.226253
Si Si3 0.494409 0.066842 0.361223
Si Si4 0.438773 0.222088 0.385385
Si Si5 0.363959 0.262777 0.983202
Si Si6 0.775522 0.596720 0.160038
Si Si7 0.896893 0.077660 0.489307
Si Si8 0.053893 0.589248 0.631548
O O1 0.365052 0.663926 0.425129
O O2 0.906753 0.569666 0.149707
O O3 0.100177 0.473496 0.336802
O O4 0.000000 0.500000 0.000000
O O5 0.858456 0.054036 0.283771
O O6 0.197786 0.156263 0.311714
O O7 0.109489 0.002138 0.400944
O O8 0.771789 0.989289 0.935418
O O9 0.557135 0.163718 0.478117
O O10 0.700867 0.091909 0.398701
O O11 0.500000 0.000000 0.500000
O O12 0.369019 0.222156 0.154920
O O13 0.645117 0.332371 0.127511
O O14 0.263383 0.324783 0.930785
O O15 0.178210 0.176723 0.730437
O O16 0.946509 0.634275 0.442926
O O17 0.500000 0.500000 0.000000
O O18 0.000000 0.500000 0.500000
#
# Coordination Sequence:
#
# PCOD9109091 Si02
#       8
#     2   2   2   2   2   2   2   2
#     4  11  24  42  65  97 138 171 211 281 331 376
#     4  11  25  44  64 100 137 167 212 284 335 393
#     4  12  23  45  70  99 130 177 223 274 326 405
#     4  12  23  43  67  97 132 173 226 270 326 395
#     4  12  22  40  71  94 125 177 228 263 323 401
#     4  11  20  40  69  90 122 177 226 262 322 394
#     4  11  25  42  68  96 135 170 213 275 343 391
#     4  10  20  41  62  94 126 167 217 272 311 392
#
# _framework density 19.987852
#
# number of rings (size 3 to 8) (size 9 to 14) (size 15 to 20)
#    0.000    0.750    7.500    2.250    1.750    0.000 
#    0.000    5.000    0.000    0.000    0.000    0.000 
#    0.000    0.000    0.000    0.000    0.000    0.000 
#
# Total GULP energy -89290.320842 kJ/mol
# GULP energy per Si atom -5580.645053 kJ/mol
# Density = 1.994236 g / cm^3
# Si number density = 19.987852 Si / 1000 Ang^3
#
#
#
# Elastic Constant Matrix: (Units=GPa)
#
#
# Indices 1 2 3 4 5 6 
#
# 1 44.2116 30.1963 27.9447 9.7911 1.3164 6.3012
# 2 30.1963 112.0407 33.9387 -7.4021 1.9151 11.7689
# 3 27.9447 33.9387 91.4947 11.6619 -4.4934 14.0674
# 4 9.7911 -7.4021 11.6619 33.0925 7.0646 11.6298
# 5 1.3164 1.9151 -4.4934 7.0646 37.5812 -0.3384
# 6 6.3012 11.7689 14.0674 11.6298 -0.3384 26.2030
#
#
#
# Elastic Compliance Matrix: (Units=1/GPa)
#
#
# Indices 1 2 3 4 5 6 
#
# 1 0.034466 -0.008505 -0.006520 -0.011371 0.000621 0.004087
# 2 -0.008505 0.013387 -0.002649 0.009345 -0.002518 -0.006726
# 3 -0.006520 -0.002649 0.015038 -0.003186 0.002725 -0.003866
# 4 -0.011371 0.009345 -0.003186 0.045886 -0.009267 -0.020238
# 5 0.000621 -0.002518 0.002725 -0.009267 0.028820 0.004004
# 6 0.004087 -0.006726 -0.003866 -0.020238 0.004004 0.051311
#
#
# Mechanical properties :
#
#
# Convention : Reuss Voigt Hill
#
# Bulk Modulus (GPa) = 36.30786 47.98958 42.14872
# Shear Modulus (GPa) = 21.41901 29.75316 25.58609
#
# Velocity S-wave (km/s) = 3.27708 3.86237 3.58170
# Velocity P-wave (km/s) = 5.70293 6.62964 6.18367
#
# Compressibility (1/GPa) = 0.02754225
#
# Stress axis : x y z
#
# Youngs Moduli (GPa) = 29.01412 74.70044 66.49811
#
# Poissons Ratio (x) = 0.63533 0.43360
# Poissons Ratio (y) = 0.24676 0.17614
# Poissons Ratio (z) = 0.18919 0.19787
#
# Static dielectric constant tensor:
#      x y z
#    x 1.689950 0.003640 0.018580 
#    y 0.003640 1.729230 -0.017310 
#    z 0.018580 -0.017310 1.710880 
# 
# From -- ./inp_files/215237.got.cif
#   From: 2010.05.17/outbox.cif.g08.bks.cpg/sg2_108_cif.got.tgz:215237.got - 2010.06.03 11:33:40.
