data_PCOD9109234
_publ_section_title
;
Structure prediction by ZEFSAII (Michael W. Deem and Ramdas Pophale) SiO2 
 PCOD9109234
Probable space group: P -1
;
_chemical_formula_sum "Si O2"
_cell_formula_units_Z 14
_cell_length_a 11.739896
_cell_length_b 14.487843
_cell_length_c 11.448755
_cell_angle_alpha 30.415715
_cell_angle_beta 138.770372
_cell_angle_gamma 129.814439
_cell_volume 649.549863
_symmetry_space_group_name_H-M "P -1"
_symmetry_group_IT_number 2
_symmetry_cell_setting 'triclinic'
loop_
_space_group_symop_operation_xyz
x,y,z
-x,-y,-z
loop_
_atom_site_type_symbol
_atom_site_label
_atom_site_fract_x
_atom_site_fract_y
_atom_site_fract_z
Si Si1 0.704343 0.177780 0.695380
Si Si2 0.052898 0.291724 0.268029
Si Si3 0.185543 0.487449 0.722369
Si Si4 0.594827 0.884949 0.298167
Si Si5 0.765682 0.113411 0.378468
Si Si6 0.959246 0.769646 0.943824
Si Si7 0.425948 0.151813 0.186311
O O1 0.724647 0.323260 0.446977
O O2 0.537232 0.213530 0.609318
O O3 0.680389 0.974573 0.848203
O O4 0.869680 0.199773 0.882410
O O5 0.255348 0.249048 0.487930
O O6 0.008592 0.221052 0.179999
O O7 0.940272 0.207274 0.375511
O O8 0.000000 0.500000 0.000000
O O9 0.000000 0.500000 0.500000
O O10 0.130324 0.419217 0.882959
O O11 0.308795 0.322666 0.949854
O O12 0.689448 0.032350 0.289352
O O13 0.500000 0.000000 0.000000
O O14 0.605196 0.221583 0.192551
O O15 0.825631 0.934576 0.692380
O O16 0.500000 0.000000 0.500000
#
# Coordination Sequence:
#
# PCOD9109234 Si02
#       7
#     2   2   2   2   2   2   2
#     4  10  23  40  68  93 129 169 210 263 314 370
#     4  11  24  39  62  96 123 164 209 262 317 369
#     4  10  23  42  64  96 130 163 214 261 310 379
#     4  10  20  41  64  88 122 168 208 251 319 372
#     4  10  21  40  64  86 128 163 209 255 312 383
#     4  10  20  44  62  88 129 170 205 257 317 374
#     4  11  23  42  65  97 125 169 213 255 320 376
#
# _framework density 21.553387000000001
#
# number of rings (size 3 to 8) (size 9 to 14) (size 15 to 20)
#    0.000    1.714    1.429    3.429    2.000    4.000 
#   15.429    1.429    0.000    0.000    0.000    0.000 
#    0.000    0.000    0.000    0.000    0.000    0.000 
#
# Total GULP energy -78116.996500 kJ/mol
# GULP energy per Si atom -5579.785464 kJ/mol
# Density = 2.150433 g / cm^3
# Si number density = 21.553387 Si / 1000 Ang^3
#
#
#
# Elastic Constant Matrix: (Units=GPa)
#
#
# Indices 1 2 3 4 5 6 
#
# 1 90.9727 9.6449 20.2356 4.8492 11.2667 20.7801
# 2 9.6449 47.8981 12.7662 9.8029 8.4824 6.2660
# 3 20.2356 12.7662 94.0171 12.4755 17.9900 0.9528
# 4 4.8492 9.8029 12.4755 22.9872 4.0208 -1.6819
# 5 11.2667 8.4824 17.9900 4.0208 48.1223 -8.9161
# 6 20.7801 6.2660 0.9528 -1.6819 -8.9161 25.8653
#
#
#
# Elastic Compliance Matrix: (Units=1/GPa)
#
#
# Indices 1 2 3 4 5 6 
#
# 1 0.015512 0.000842 -0.001878 -0.002712 -0.005574 -0.014695
# 2 0.000842 0.025170 -0.001211 -0.010041 -0.005031 -0.009116
# 3 -0.001878 -0.001211 0.012615 -0.005312 -0.003670 -0.000273
# 4 -0.002712 -0.010041 -0.005312 0.051582 0.001702 0.008748
# 5 -0.005574 -0.005031 -0.003670 0.001702 0.027029 0.015260
# 6 -0.014695 -0.009116 -0.000273 0.008748 0.015260 0.058516
#
#
# Mechanical properties :
#
#
# Convention : Reuss Voigt Hill
#
# Bulk Modulus (GPa) = 20.49108 35.35350 27.92229
# Shear Modulus (GPa) = 23.67586 32.07771 27.87678
#
# Velocity S-wave (km/s) = 3.31792 3.86202 3.60027
# Velocity P-wave (km/s) = 4.91995 6.02705 5.50142
#
# Compressibility (1/GPa) = 0.04880172
#
# Stress axis : x y z
#
# Youngs Moduli (GPa) = 64.46459 39.73059 79.27248
#
# Poissons Ratio (x) = -0.03344 0.14884
# Poissons Ratio (y) = -0.05425 0.09604
# Poissons Ratio (z) = 0.12104 0.04813
#
# Static dielectric constant tensor:
#      x y z
#    x 1.887870 0.028140 -0.034010 
#    y 0.028140 1.740400 0.029520 
#    z -0.034010 0.029520 1.745710 
# 
# From -- ./inp_files/270629.got.cif
#   From: 2010.05.17/outbox.cif.g08.bks.cpg/sg2_136_cif.got.tgz:270629.got - 2010.06.03 11:33:40.
