data_PCOD9109755
_publ_section_title
;
Structure prediction by ZEFSAII (Michael W. Deem and Ramdas Pophale) SiO2 
 PCOD9109755
Probable space group: P -1
;
_chemical_formula_sum "Si O2"
_cell_formula_units_Z 16
_cell_length_a 21.583481
_cell_length_b 6.700646
_cell_length_c 9.533647
_cell_angle_alpha 130.727096
_cell_angle_beta 45.825511
_cell_angle_gamma 116.421757
_cell_volume 749.291218
_symmetry_space_group_name_H-M "P -1"
_symmetry_group_IT_number 2
_symmetry_cell_setting 'triclinic'
loop_
_space_group_symop_operation_xyz
x,y,z
-x,-y,-z
loop_
_atom_site_type_symbol
_atom_site_label
_atom_site_fract_x
_atom_site_fract_y
_atom_site_fract_z
Si Si1 0.760039 0.074433 0.627171
Si Si2 0.376961 0.590620 0.705824
Si Si3 0.052670 0.190604 0.404730
Si Si4 0.346459 0.400912 0.974250
Si Si5 0.766506 0.056057 0.945486
Si Si6 0.484691 0.093389 0.726032
Si Si7 0.577820 0.898588 0.732466
Si Si8 0.052042 0.810790 0.721390
O O1 0.721924 0.365899 0.786988
O O2 0.772325 0.026782 0.753076
O O3 0.853533 0.064645 0.401174
O O4 0.675329 0.914723 0.643035
O O5 0.423430 0.866408 0.783043
O O6 0.430051 0.408248 0.433135
O O7 0.371858 0.440256 0.791369
O O8 0.280161 0.658895 0.836181
O O9 0.062485 0.491388 0.587283
O O10 0.003015 0.196454 0.338424
O O11 0.142860 0.032471 0.175288
O O12 0.000000 0.000000 0.500000
O O13 0.297830 0.135546 0.961206
O O14 0.431325 0.366155 0.921364
O O15 0.566909 0.070160 0.685689
O O16 0.500000 0.000000 0.500000
O O17 0.500000 0.000000 0.000000
O O18 0.000000 0.000000 0.000000
#
# Coordination Sequence:
#
# PCOD9109755 Si02
#       8
#     2   2   2   2   2   2   2   2
#     4  11  24  44  65  99 146 170 224 298 346 412
#     4  10  23  41  66  92 133 177 232 287 337 415
#     4  11  23  46  77 102 139 193 239 282 367 438
#     4  10  20  41  67  89 128 177 224 283 333 401
#     4  10  21  43  70  97 127 179 231 276 343 425
#     4  11  23  42  65  91 125 180 239 275 331 415
#     4  12  25  42  64  98 139 182 223 288 357 398
#     4  11  26  47  73 110 150 182 232 306 362 429
#
# _framework density 21.353513
#
# number of rings (size 3 to 8) (size 9 to 14) (size 15 to 20)
#    0.000    1.250    3.750    2.625    1.750    3.000 
#    4.500    0.000    0.000    0.000    0.000    0.000 
#    0.000    0.000    0.000    0.000    0.000    0.000 
#
# Total GULP energy -89166.106542 kJ/mol
# GULP energy per Si atom -5572.881659 kJ/mol
# Density = 2.130491 g / cm^3
# Si number density = 21.353513 Si / 1000 Ang^3
#
#
#
# Elastic Constant Matrix: (Units=GPa)
#
#
# Indices 1 2 3 4 5 6 
#
# 1 98.5803 24.6684 34.6675 5.6238 -26.4613 -11.1508
# 2 24.6684 105.4347 42.2433 -6.3536 -3.2046 -10.0360
# 3 34.6675 42.2433 138.7809 1.9701 -14.7439 5.7749
# 4 5.6238 -6.3536 1.9701 35.7141 -3.3417 -7.5703
# 5 -26.4613 -3.2046 -14.7439 -3.3417 34.0277 1.5341
# 6 -11.1508 -10.0360 5.7749 -7.5703 1.5341 34.7878
#
#
#
# Elastic Compliance Matrix: (Units=1/GPa)
#
#
# Indices 1 2 3 4 5 6 
#
# 1 0.014523 -0.001919 -0.002137 -0.000764 0.009938 0.003852
# 2 -0.001919 0.011907 -0.003557 0.003345 -0.001773 0.004217
# 3 -0.002137 -0.003557 0.009207 -0.001384 0.002020 -0.003630
# 4 -0.000764 0.003345 -0.001384 0.030553 0.001782 0.007520
# 5 0.009938 -0.001773 0.002020 0.001782 0.037952 0.001053
# 6 0.003852 0.004217 -0.003630 0.007520 0.001053 0.033389
#
#
# Mechanical properties :
#
#
# Convention : Reuss Voigt Hill
#
# Bulk Modulus (GPa) = 48.99047 60.66158 54.82602
# Shear Modulus (GPa) = 31.33604 36.98704 34.16154
#
# Velocity S-wave (km/s) = 3.83494 4.16640 4.00410
# Velocity P-wave (km/s) = 6.52697 7.18437 6.86354
#
# Compressibility (1/GPa) = 0.02041213
#
# Stress axis : x y z
#
# Youngs Moduli (GPa) = 68.85790 83.98108 108.60842
#
# Poissons Ratio (x) = 0.16115 0.23213
# Poissons Ratio (y) = 0.13213 0.38627
# Poissons Ratio (z) = 0.14717 0.29868
#
# Static dielectric constant tensor:
#      x y z
#    x 1.863670 0.041900 -0.015960 
#    y 0.041900 1.804290 0.016290 
#    z -0.015960 0.016290 1.810670 
# 
# From -- ./inp_files/340625.got.cif
#   From: 2010.05.17/outbox.cif.g08.bks.cpg/sg2_171_cif.got.tgz:340625.got - 2010.06.03 11:33:40.
