data_PCOD9109139
_publ_section_title
;
Structure prediction by ZEFSAII (Michael W. Deem and Ramdas Pophale) SiO2 
 PCOD9109139
Probable space group: P -1
;
_chemical_formula_sum "Si O2"
_cell_formula_units_Z 16
_cell_length_a 21.344272
_cell_length_b 12.693526
_cell_length_c 11.806036
_cell_angle_alpha 135.814611
_cell_angle_beta 28.699752
_cell_angle_gamma 150.611632
_cell_volume 738.521985
_symmetry_space_group_name_H-M "P -1"
_symmetry_group_IT_number 2
_symmetry_cell_setting 'triclinic'
loop_
_space_group_symop_operation_xyz
x,y,z
-x,-y,-z
loop_
_atom_site_type_symbol
_atom_site_label
_atom_site_fract_x
_atom_site_fract_y
_atom_site_fract_z
Si Si1 0.490935 0.174076 0.280898
Si Si2 0.890652 0.965841 0.257429
Si Si3 0.276456 0.426703 0.625987
Si Si4 0.013608 0.348883 0.803903
Si Si5 0.791114 0.868774 0.833687
Si Si6 0.530825 0.483618 0.107847
Si Si7 0.062880 0.837857 0.444079
Si Si8 0.518688 0.172481 0.975186
O O1 0.310874 0.133161 0.535312
O O2 0.649533 0.374452 0.263859
O O3 0.568596 0.227465 0.070760
O O4 0.437619 0.959414 0.235081
O O5 0.857983 0.792262 0.255395
O O6 0.973571 0.163051 0.365049
O O7 0.000000 0.000000 0.000000
O O8 0.188435 0.417403 0.643413
O O9 0.449322 0.466160 0.343651
O O10 0.020949 0.355925 0.660431
O O11 0.844642 0.088336 0.901835
O O12 0.000000 0.500000 0.000000
O O13 0.643659 0.687039 0.833163
O O14 0.976616 0.917629 0.584435
O O15 0.675571 0.729076 0.022578
O O16 0.611923 0.383494 0.917622
O O17 0.290041 0.007608 0.207381
#
# Coordination Sequence:
#
# PCOD9109139 Si02
#       8
#     2   2   2   2   2   2   2   2
#     4  10  23  38  62  94 127 165 224 269 321 392
#     4  11  24  40  68  96 129 178 227 273 316 390
#     4  12  22  40  63  96 125 179 219 265 334 392
#     4  12  23  40  68 101 134 169 213 279 340 393
#     4  11  22  39  63  99 130 166 227 262 324 408
#     4  11  22  38  67  94 128 179 213 270 326 391
#     4  11  20  42  67  93 131 173 223 265 326 393
#     4  10  20  41  63  89 126 175 211 269 332 376
#
# _framework density 21.664894
#
# number of rings (size 3 to 8) (size 9 to 14) (size 15 to 20)
#    0.000    1.000    6.250    1.500    1.750    0.000 
#    0.000    4.375    0.000    6.750    0.000    0.000 
#    0.000    0.000    0.000    0.000    0.000    0.000 
#
# Total GULP energy -89265.623926 kJ/mol
# GULP energy per Si atom -5579.101495 kJ/mol
# Density = 2.161558 g / cm^3
# Si number density = 21.664894 Si / 1000 Ang^3
#
#
#
# Elastic Constant Matrix: (Units=GPa)
#
#
# Indices 1 2 3 4 5 6 
#
# 1 81.4045 28.6993 20.0504 8.4058 22.1074 19.8910
# 2 28.6993 92.5935 35.9649 23.6513 15.7797 15.3113
# 3 20.0504 35.9649 73.6885 22.0635 23.8613 3.2205
# 4 8.4058 23.6513 22.0635 33.4663 6.9729 1.2543
# 5 22.1074 15.7797 23.8613 6.9729 37.1454 7.8973
# 6 19.8910 15.3113 3.2205 1.2543 7.8973 40.1506
#
#
#
# Elastic Compliance Matrix: (Units=1/GPa)
#
#
# Indices 1 2 3 4 5 6 
#
# 1 0.016783 -0.002743 -0.000601 -0.000168 -0.007171 -0.005804
# 2 -0.002743 0.016046 -0.004728 -0.007405 0.000131 -0.004175
# 3 -0.000601 -0.004728 0.022062 -0.008924 -0.010708 0.002716
# 4 -0.000168 -0.007405 -0.008924 0.040778 0.000860 0.002180
# 5 -0.007171 0.000131 -0.010708 0.000860 0.038541 -0.003246
# 6 -0.005804 -0.004175 0.002716 0.002180 -0.003246 0.029726
#
#
# Mechanical properties :
#
#
# Convention : Reuss Voigt Hill
#
# Bulk Modulus (GPa) = 25.80913 46.34617 36.07765
# Shear Modulus (GPa) = 25.90703 33.01725 29.46214
#
# Velocity S-wave (km/s) = 3.46180 3.90808 3.69169
# Velocity P-wave (km/s) = 5.28370 6.46551 5.90425
#
# Compressibility (1/GPa) = 0.03874598
#
# Stress axis : x y z
#
# Youngs Moduli (GPa) = 59.58510 62.32036 45.32584
#
# Poissons Ratio (x) = 0.17096 0.02726
# Poissons Ratio (y) = 0.16346 0.21430
# Poissons Ratio (z) = 0.03584 0.29465
#
# Static dielectric constant tensor:
#      x y z
#    x 1.842370 0.011070 0.008730 
#    y 0.011070 1.816160 -0.019530 
#    z 0.008730 -0.019530 1.819510 
# 
# From -- ./inp_files/346514.got.cif
#   From: 2010.05.17/outbox.cif.g08.bks.cpg/sg2_174_cif.got.tgz:346514.got - 2010.06.03 11:33:40.
