data_PCOD9109817
_publ_section_title
;
Structure prediction by ZEFSAII (Michael W. Deem and Ramdas Pophale) SiO2 
 PCOD9109817
Probable space group: P -1
;
_chemical_formula_sum "Si O2"
_cell_formula_units_Z 16
_cell_length_a 8.777989
_cell_length_b 6.723192
_cell_length_c 11.596665
_cell_angle_alpha 105.501686
_cell_angle_beta 110.789561
_cell_angle_gamma 75.425376
_cell_volume 607.146163
_symmetry_space_group_name_H-M "P -1"
_symmetry_group_IT_number 2
_symmetry_cell_setting 'triclinic'
loop_
_space_group_symop_operation_xyz
x,y,z
-x,-y,-z
loop_
_atom_site_type_symbol
_atom_site_label
_atom_site_fract_x
_atom_site_fract_y
_atom_site_fract_z
Si Si1 0.659496 0.414616 0.766759
Si Si2 0.575300 0.042932 0.284812
Si Si3 0.157371 0.320430 0.990686
Si Si4 0.418416 0.335102 0.878410
Si Si5 0.144306 0.290541 0.575394
Si Si6 0.853566 0.251643 0.357359
Si Si7 0.050184 0.987665 0.179954
Si Si8 0.271448 0.292276 0.348218
O O1 0.492640 0.368748 0.774645
O O2 0.800930 0.209626 0.794269
O O3 0.680151 0.493539 0.654705
O O4 0.704292 0.616541 0.878354
O O5 0.517771 0.917649 0.141456
O O6 0.731500 0.885533 0.354645
O O7 0.662606 0.236955 0.308001
O O8 0.434406 0.117575 0.349682
O O9 0.237023 0.348496 0.890028
O O10 0.087617 0.102113 0.947290
O O11 0.000000 0.500000 0.000000
O O12 0.500000 0.500000 0.000000
O O13 0.133383 0.522856 0.658573
O O14 0.213790 0.302989 0.465774
O O15 0.958867 0.246782 0.502288
O O16 0.945684 0.059351 0.277649
O O17 0.134429 0.194534 0.221089
#
# Coordination Sequence:
#
# PCOD9109817 Si02
#       8
#     2   2   2   2   2   2   2   2
#     4  10  22  41  66  95 137 171 215 274 317 383
#     4  12  23  42  69  93 131 179 215 265 336 385
#     4   9  19  40  69  97 127 176 212 266 331 384
#     4  10  21  42  68  96 135 170 213 269 329 387
#     4  10  25  45  63  96 132 169 222 281 318 384
#     4  10  23  42  66  95 127 168 228 265 333 386
#     4  10  20  41  67  94 135 168 221 267 327 390
#     4  11  25  41  64  99 130 174 224 265 324 390
#
# _framework density 26.352799000000001
#
# number of rings (size 3 to 8) (size 9 to 14) (size 15 to 20)
#    0.000    1.750    2.500    0.750    1.750    6.000 
#    0.000    3.750    0.000    0.000    0.000    0.000 
#    0.000    0.000    0.000    0.000    0.000    0.000 
#
# Total GULP energy -89255.209938 kJ/mol
# GULP energy per Si atom -5578.450621 kJ/mol
# Density = 2.629282 g / cm^3
# Si number density = 26.352799 Si / 1000 Ang^3
#
#
#
# Elastic Constant Matrix: (Units=GPa)
#
#
# Indices 1 2 3 4 5 6 
#
# 1 170.0647 30.2303 26.4608 14.2000 -21.6337 18.0872
# 2 30.2303 59.0855 14.0932 20.2667 -6.8556 5.3587
# 3 26.4608 14.0932 68.0804 23.8389 -14.9124 4.1109
# 4 14.2000 20.2667 23.8389 39.8276 7.3972 1.6437
# 5 -21.6337 -6.8556 -14.9124 7.3972 46.9153 10.2083
# 6 18.0872 5.3587 4.1109 1.6437 10.2083 56.4765
#
#
#
# Elastic Compliance Matrix: (Units=1/GPa)
#
#
# Indices 1 2 3 4 5 6 
#
# 1 0.007291 -0.002394 -0.000934 -0.001364 0.003503 -0.002633
# 2 -0.002394 0.022927 0.002029 -0.012942 0.005401 -0.002156
# 3 -0.000934 0.002029 0.022671 -0.016051 0.010240 -0.002927
# 4 -0.001364 -0.012942 -0.016051 0.044502 -0.015586 0.004355
# 5 0.003503 0.005401 0.010240 -0.015586 0.031073 -0.007543
# 6 -0.002633 -0.002156 -0.002927 0.004355 -0.007543 0.020204
#
#
# Mechanical properties :
#
#
# Convention : Reuss Voigt Hill
#
# Bulk Modulus (GPa) = 19.88431 48.75547 34.31989
# Shear Modulus (GPa) = 29.75662 43.74032 36.74847
#
# Velocity S-wave (km/s) = 3.36395 4.07848 3.73833
# Velocity P-wave (km/s) = 4.75920 6.38121 5.62894
#
# Compressibility (1/GPa) = 0.05029090
#
# Stress axis : x y z
#
# Youngs Moduli (GPa) = 137.16278 43.61705 44.10832
#
# Poissons Ratio (x) = 0.10443 0.04120
# Poissons Ratio (y) = 0.32840 -0.08951
# Poissons Ratio (z) = 0.12813 -0.08852
#
# Static dielectric constant tensor:
#      x y z
#    x 2.066800 0.063790 0.086720 
#    y 0.063790 2.145430 -0.095200 
#    z 0.086720 -0.095200 2.305270 
# 
# From -- ./inp_files/273960.got.cif
#   From: 2010.05.17/outbox.cif.g08.bks.cpg/sg2_137_cif.got.tgz:273960.got - 2010.06.03 11:33:40.
