data_PCOD9109170
_publ_section_title
;
Structure prediction by ZEFSAII (Michael W. Deem and Ramdas Pophale) SiO2 
 PCOD9109170
Probable space group: P -1
;
_chemical_formula_sum "Si O2"
_cell_formula_units_Z 16
_cell_length_a 16.862252
_cell_length_b 7.544821
_cell_length_c 13.266063
_cell_angle_alpha 105.083387
_cell_angle_beta 41.135949
_cell_angle_gamma 73.040457
_cell_volume 686.856074
_symmetry_space_group_name_H-M "P -1"
_symmetry_group_IT_number 2
_symmetry_cell_setting 'triclinic'
loop_
_space_group_symop_operation_xyz
x,y,z
-x,-y,-z
loop_
_atom_site_type_symbol
_atom_site_label
_atom_site_fract_x
_atom_site_fract_y
_atom_site_fract_z
Si Si1 0.386829 0.642775 0.942984
Si Si2 0.965781 0.749662 0.539448
Si Si3 0.457779 0.007188 0.206560
Si Si4 0.715339 0.909546 0.405326
Si Si5 0.339477 0.448583 0.231283
Si Si6 0.189735 0.473920 0.098963
Si Si7 0.101740 0.614045 0.980148
Si Si8 0.415789 0.511367 0.681432
O O1 0.294600 0.548789 0.016596
O O2 0.232582 0.950698 0.187915
O O3 0.577771 0.457116 0.794014
O O4 0.421806 0.636468 0.790735
O O5 0.000000 0.500000 0.500000
O O6 0.130046 0.682366 0.422329
O O7 0.002906 0.709330 0.378774
O O8 0.341330 0.064454 0.421096
O O9 0.355772 0.289081 0.286065
O O10 0.525126 0.789124 0.021690
O O11 0.658081 0.833950 0.038375
O O12 0.805674 0.621504 0.228348
O O13 0.537710 0.191336 0.553647
O O14 0.877362 0.872737 0.230129
O O15 0.149737 0.472139 0.022773
O O16 0.203998 0.689538 0.891612
O O17 0.500000 0.500000 0.500000
#
# Coordination Sequence:
#
# PCOD9109170 Si02
#       8
#     2   2   2   2   2   2   2   2
#     4  11  23  43  62  96 124 173 212 250 334 375
#     4  11  24  41  62  96 131 167 215 262 315 376
#     4  10  20  41  63  93 128 165 214 257 316 372
#     4  11  23  43  68  95 123 172 215 262 318 376
#     4  10  24  39  62  96 128 170 208 265 310 377
#     4  10  22  41  65  94 130 168 208 266 316 384
#     4  10  24  42  68  98 122 167 219 260 320 374
#     4  11  26  46  66  93 132 166 210 271 316 379
#
# _framework density 23.294544999999999
#
# number of rings (size 3 to 8) (size 9 to 14) (size 15 to 20)
#    0.000    1.500    2.500    3.000    5.250    5.500 
#    2.250    0.000    0.000    0.000    0.000    0.000 
#    0.000    0.000    0.000    0.000    0.000    0.000 
#
# Total GULP energy -89473.250888 kJ/mol
# GULP energy per Si atom -5592.078180 kJ/mol
# Density = 2.324153 g / cm^3
# Si number density = 23.294545 Si / 1000 Ang^3
#
#
#
# Elastic Constant Matrix: (Units=GPa)
#
#
# Indices 1 2 3 4 5 6 
#
# 1 83.0854 -2.3758 31.0544 -15.9128 -1.6116 -3.0816
# 2 -2.3758 61.2919 21.0900 -23.7649 17.0328 -11.4882
# 3 31.0544 21.0900 124.3616 -21.9563 18.1549 -12.1735
# 4 -15.9128 -23.7649 -21.9563 40.8816 -11.7836 7.4374
# 5 -1.6116 17.0328 18.1549 -11.7836 37.2200 -8.8810
# 6 -3.0816 -11.4882 -12.1735 7.4374 -8.8810 27.9012
#
#
#
# Elastic Compliance Matrix: (Units=1/GPa)
#
#
# Indices 1 2 3 4 5 6 
#
# 1 0.014834 0.003726 -0.003497 0.006777 0.002976 0.000788
# 2 0.003726 0.024060 -0.001651 0.012236 -0.005041 0.004732
# 3 -0.003497 -0.001651 0.010188 0.001856 -0.003343 0.001820
# 4 0.006777 0.012236 0.001856 0.036977 0.005105 -0.001635
# 5 0.002976 -0.005041 -0.003343 0.005105 0.034046 0.006271
# 6 0.000788 0.004732 0.001820 -0.001635 0.006271 0.041102
#
#
# Mechanical properties :
#
#
# Convention : Reuss Voigt Hill
#
# Bulk Modulus (GPa) = 21.62702 40.91958 31.27330
# Shear Modulus (GPa) = 27.86052 35.79857 31.82955
#
# Velocity S-wave (km/s) = 3.46209 3.92443 3.70049
# Velocity P-wave (km/s) = 5.02849 6.17569 5.63138
#
# Compressibility (1/GPa) = 0.04623845
#
# Stress axis : x y z
#
# Youngs Moduli (GPa) = 67.41112 41.56266 98.15164
#
# Poissons Ratio (x) = -0.15488 0.34325
# Poissons Ratio (y) = -0.25121 0.16209
# Poissons Ratio (z) = 0.23575 0.06864
#
# Static dielectric constant tensor:
#      x y z
#    x 1.894520 0.017000 -0.027420 
#    y 0.017000 1.921750 -0.011220 
#    z -0.027420 -0.011220 1.866970 
# 
# From -- ./inp_files/447785.got.cif
#   From: 2010.05.17/outbox.cif.g08.bks.cpg/sg2_224_cif.got.tgz:447785.got - 2010.06.03 11:33:40.
