data_PCOD9109731
_publ_section_title
;
Structure prediction by ZEFSAII (Michael W. Deem and Ramdas Pophale) SiO2 
 PCOD9109731
Probable space group: P -1
;
_chemical_formula_sum "Si O2"
_cell_formula_units_Z 12
_cell_length_a 11.974880
_cell_length_b 5.110748
_cell_length_c 13.228680
_cell_angle_alpha 113.552871
_cell_angle_beta 40.947630
_cell_angle_gamma 115.865480
_cell_volume 474.051108
_symmetry_space_group_name_H-M "P -1"
_symmetry_group_IT_number 2
_symmetry_cell_setting 'triclinic'
loop_
_space_group_symop_operation_xyz
x,y,z
-x,-y,-z
loop_
_atom_site_type_symbol
_atom_site_label
_atom_site_fract_x
_atom_site_fract_y
_atom_site_fract_z
Si Si1 0.339544 0.098779 0.578488
Si Si2 0.567701 0.907091 0.830771
Si Si3 0.195555 0.498705 0.324659
Si Si4 0.618988 0.309243 0.266030
Si Si5 0.037406 0.064099 0.199006
Si Si6 0.968875 0.395206 0.120355
O O1 0.426560 0.241062 0.436378
O O2 0.311524 0.345677 0.713569
O O3 0.500000 0.000000 0.500000
O O4 0.158896 0.883889 0.642185
O O5 0.668284 0.639033 0.723519
O O6 0.405090 0.813806 0.849048
O O7 0.704020 0.185043 0.734238
O O8 0.500000 0.000000 0.000000
O O9 0.000000 0.500000 0.500000
O O10 0.166409 0.272910 0.215908
O O11 0.766513 0.220469 0.221777
O O12 0.068720 0.185989 0.081443
O O13 0.013053 0.721164 0.190535
O O14 0.000000 0.500000 0.000000
#
# Coordination Sequence:
#
# PCOD9109731 Si02
#       6
#     2   2   2   2   2   2
#     4  10  20  41  67 103 130 173 228 301 352 405
#     4  12  29  50  72 110 150 199 241 300 365 437
#     4  12  28  49  76 106 144 201 248 295 352 439
#     4  10  24  39  71  98 140 178 235 288 360 425
#     4  11  24  42  70  98 136 172 234 289 351 411
#     4  11  24  42  66 101 132 180 219 292 353 420
#
# _framework density 25.313728999999999
#
# number of rings (size 3 to 8) (size 9 to 14) (size 15 to 20)
#    0.000    1.000    1.667    3.500    9.333    0.000 
#    0.000    0.000    0.000    0.000    0.000    0.000 
#    0.000    0.000    0.000    0.000    0.000    0.000 
#
# Total GULP energy -66968.665268 kJ/mol
# GULP energy per Si atom -5580.722106 kJ/mol
# Density = 2.525611 g / cm^3
# Si number density = 25.313729 Si / 1000 Ang^3
#
#
#
# Elastic Constant Matrix: (Units=GPa)
#
#
# Indices 1 2 3 4 5 6 
#
# 1 85.9612 26.5774 -3.1187 8.5812 7.0940 6.5635
# 2 26.5774 93.5917 37.8978 -9.6197 10.4949 -11.0288
# 3 -3.1187 37.8978 88.6278 -6.0335 -6.6226 -4.1878
# 4 8.5812 -9.6197 -6.0335 46.8218 4.5073 4.5432
# 5 7.0940 10.4949 -6.6226 4.5073 37.6195 14.1542
# 6 6.5635 -11.0288 -4.1878 4.5432 14.1542 53.5068
#
#
#
# Elastic Compliance Matrix: (Units=1/GPa)
#
#
# Indices 1 2 3 4 5 6 
#
# 1 0.013978 -0.005795 0.002687 -0.003230 0.000836 -0.002646
# 2 -0.005795 0.017301 -0.007652 0.003839 -0.007554 0.005350
# 3 0.002687 -0.007652 0.014903 -0.000434 0.005073 -0.002046
# 4 -0.003230 0.003839 -0.000434 0.022994 -0.003323 0.000080
# 5 0.000836 -0.007554 0.005073 -0.003323 0.033529 -0.009850
# 6 -0.002646 0.005350 -0.002046 0.000080 -0.009850 0.022555
#
#
# Mechanical properties :
#
#
# Convention : Reuss Voigt Hill
#
# Bulk Modulus (GPa) = 40.54851 43.43263 41.99057
# Shear Modulus (GPa) = 32.25804 41.37791 36.81798
#
# Velocity S-wave (km/s) = 3.57365 4.04741 3.81788
# Velocity P-wave (km/s) = 5.75162 6.24796 6.00492
#
# Compressibility (1/GPa) = 0.02466182
#
# Stress axis : x y z
#
# Youngs Moduli (GPa) = 71.54207 57.80013 67.10189
#
# Poissons Ratio (x) = 0.33495 -0.18033
# Poissons Ratio (y) = 0.41459 0.51348
# Poissons Ratio (z) = -0.19227 0.44230
#
# Static dielectric constant tensor:
#      x y z
#    x 2.129370 -0.074890 -0.136230 
#    y -0.074890 2.150860 -0.091140 
#    z -0.136230 -0.091140 2.517290 
# 
# From -- ./inp_files/370220.got.cif
#   From: 2010.05.17/outbox.cif.g08.bks.cpg/sg2_186_cif.got.tgz:370220.got - 2010.06.03 11:33:40.
