data_PCOD9109341
_publ_section_title
;
Structure prediction by ZEFSAII (Michael W. Deem and Ramdas Pophale) SiO2 
 PCOD9109341
Probable space group: P -1
;
_chemical_formula_sum "Si O2"
_cell_formula_units_Z 16
_cell_length_a 5.354320
_cell_length_b 7.435587
_cell_length_c 19.937146
_cell_angle_alpha 75.607755
_cell_angle_beta 85.551836
_cell_angle_gamma 116.803118
_cell_volume 669.522254
_symmetry_space_group_name_H-M "P -1"
_symmetry_group_IT_number 2
_symmetry_cell_setting 'triclinic'
loop_
_space_group_symop_operation_xyz
x,y,z
-x,-y,-z
loop_
_atom_site_type_symbol
_atom_site_label
_atom_site_fract_x
_atom_site_fract_y
_atom_site_fract_z
Si Si1 0.333396 0.580257 0.044644
Si Si2 0.209835 0.007729 0.698872
Si Si3 0.217618 0.532704 0.550641
Si Si4 0.097248 0.826097 0.857117
Si Si5 0.793747 0.982530 0.944690
Si Si6 0.236926 0.112269 0.541968
Si Si7 0.877836 0.279639 0.698786
Si Si8 0.659144 0.258982 0.844776
O O1 0.440688 0.610459 0.117871
O O2 0.005668 0.394394 0.079992
O O3 0.500000 0.500000 0.000000
O O4 0.472015 0.817732 0.989931
O O5 0.171524 0.967406 0.623200
O O6 0.555948 0.147188 0.687555
O O7 0.039707 0.137982 0.710019
O O8 0.105995 0.827050 0.775809
O O9 0.272027 0.332359 0.554329
O O10 0.464994 0.774080 0.515351
O O11 0.000000 0.500000 0.500000
O O12 0.066412 0.479768 0.629984
O O13 0.869246 0.890293 0.885575
O O14 0.397812 0.028710 0.852294
O O15 0.846339 0.208732 0.897957
O O16 0.000000 0.000000 0.000000
O O17 0.000000 0.000000 0.500000
O O18 0.832399 0.350662 0.765825
#
# Coordination Sequence:
#
# PCOD9109341 Si02
#       8
#     2   2   2   2   2   2   2   2
#     4  10  23  40  61  94 121 159 213 269 322 391
#     4  10  20  42  65  95 133 175 222 272 333 397
#     4  10  20  41  64  97 133 175 227 276 328 397
#     4  10  22  41  61  87 126 166 214 269 327 383
#     4  11  21  40  63  89 121 163 212 264 327 389
#     4  10  22  40  65  99 134 178 222 276 336 401
#     4  10  21  39  71  92 130 182 219 272 334 396
#     4  11  22  42  64  89 127 172 212 266 338 389
#
# _framework density 23.897638000000001
#
# number of rings (size 3 to 8) (size 9 to 14) (size 15 to 20)
#    0.000    1.750    3.750    0.375    0.000    1.000 
#    6.750    3.750    0.000    0.000    0.000    0.000 
#    0.000    0.000    0.000    0.000    0.000    0.000 
#
# Total GULP energy -89145.270275 kJ/mol
# GULP energy per Si atom -5571.579392 kJ/mol
# Density = 2.384325 g / cm^3
# Si number density = 23.897638 Si / 1000 Ang^3
#
#
#
# Elastic Constant Matrix: (Units=GPa)
#
#
# Indices 1 2 3 4 5 6 
#
# 1 68.8060 24.2292 27.9382 -4.3318 -6.7250 20.1217
# 2 24.2292 110.6936 55.4485 -1.1771 -12.6265 13.6949
# 3 27.9382 55.4485 252.5372 10.8042 -26.8278 20.3824
# 4 -4.3318 -1.1771 10.8042 32.8477 5.3516 -2.0967
# 5 -6.7250 -12.6265 -26.8278 5.3516 34.1427 -0.3368
# 6 20.1217 13.6949 20.3824 -2.0967 -0.3368 39.3415
#
#
#
# Elastic Compliance Matrix: (Units=1/GPa)
#
#
# Indices 1 2 3 4 5 6 
#
# 1 0.018321 -0.002428 -0.000732 0.001767 0.001780 -0.008037
# 2 -0.002428 0.010897 -0.001781 0.000211 0.002104 -0.001600
# 3 -0.000732 -0.001781 0.005055 -0.002511 0.003546 -0.001729
# 4 0.001767 0.000211 -0.002511 0.032723 -0.006656 0.002011
# 5 0.001780 0.002104 0.003546 -0.006656 0.034212 -0.003542
# 6 -0.008037 -0.001600 -0.001729 0.002011 -0.003542 0.031059
#
#
# Mechanical properties :
#
#
# Convention : Reuss Voigt Hill
#
# Bulk Modulus (GPa) = 40.99311 71.91875 56.45593
# Shear Modulus (GPa) = 33.27151 42.89443 38.08297
#
# Velocity S-wave (km/s) = 3.73534 4.24125 3.99631
# Velocity P-wave (km/s) = 5.98285 7.35827 6.70592
#
# Compressibility (1/GPa) = 0.02439434
#
# Stress axis : x y z
#
# Youngs Moduli (GPa) = 54.58189 91.76509 197.80902
#
# Poissons Ratio (x) = 0.22276 0.14474
# Poissons Ratio (y) = 0.13250 0.35220
# Poissons Ratio (z) = 0.03994 0.16339
#
# Static dielectric constant tensor:
#      x y z
#    x 2.123710 -0.356480 0.049170 
#    y -0.356480 2.704330 -0.161590 
#    z 0.049170 -0.161590 2.022160 
# 
# From -- ./inp_files/581907.got.cif
#   From: 2010.05.17/outbox.cif.g08.bks.cpg/sg2_291_cif.got.tgz:581907.got - 2010.06.03 11:33:40.
