data_PCOD9109219
_publ_section_title
;
Structure prediction by ZEFSAII (Michael W. Deem and Ramdas Pophale) SiO2 
 PCOD9109219
Probable space group: P -1
;
_chemical_formula_sum "Si O2"
_cell_formula_units_Z 14
_cell_length_a 13.745276
_cell_length_b 15.689739
_cell_length_c 7.258408
_cell_angle_alpha 135.220210
_cell_angle_beta 140.475293
_cell_angle_gamma 37.095054
_cell_volume 582.330854
_symmetry_space_group_name_H-M "P -1"
_symmetry_group_IT_number 2
_symmetry_cell_setting 'triclinic'
loop_
_space_group_symop_operation_xyz
x,y,z
-x,-y,-z
loop_
_atom_site_type_symbol
_atom_site_label
_atom_site_fract_x
_atom_site_fract_y
_atom_site_fract_z
Si Si1 0.779016 0.402497 0.620555
Si Si2 0.484331 0.777416 0.337885
Si Si3 0.409478 0.165094 0.065011
Si Si4 0.000740 0.634637 0.788566
Si Si5 0.807340 0.295716 0.105795
Si Si6 0.538614 0.297214 0.205667
Si Si7 0.208222 0.120189 0.404033
O O1 0.788122 0.393362 0.400990
O O2 0.723513 0.289914 0.425241
O O3 0.608561 0.558582 0.677200
O O4 0.954581 0.372344 0.942324
O O5 0.623348 0.749607 0.661885
O O6 0.364134 0.950070 0.375906
O O7 0.350487 0.733582 0.161358
O O8 0.544558 0.699832 0.110275
O O9 0.557292 0.171595 0.165834
O O10 0.246808 0.202356 0.745384
O O11 0.500000 0.000000 0.000000
O O12 0.169773 0.633787 0.934603
O O13 0.000000 0.500000 0.500000
O O14 0.826255 0.788947 0.694543
O O15 0.010113 0.147675 0.194958
#
# Coordination Sequence:
#
# PCOD9109219 Si02
#       7
#     2   2   2   2   2   2   2
#     4  10  21  41  60  86 117 157 197 247 282 345
#     4  10  20  41  64  85 116 157 195 248 287 340
#     4  10  21  39  58  88 120 155 192 240 296 344
#     4  10  21  38  57  88 119 154 191 235 302 348
#     4   9  21  39  61  88 117 150 198 241 293 345
#     4  10  22  39  62  87 117 153 208 235 285 353
#     4   9  21  39  59  90 120 147 197 242 292 351
#
# _framework density 24.041314
#
# number of rings (size 3 to 8) (size 9 to 14) (size 15 to 20)
#    0.857    1.429    0.000    2.143    0.000    4.000 
#   10.286    5.714    0.000    0.000    0.000    0.000 
#    0.000    0.000    0.000    0.000    0.000    0.000 
#
# Total GULP energy -78211.777627 kJ/mol
# GULP energy per Si atom -5586.555545 kJ/mol
# Density = 2.398660 g / cm^3
# Si number density = 24.041314 Si / 1000 Ang^3
#
#
#
# Elastic Constant Matrix: (Units=GPa)
#
#
# Indices 1 2 3 4 5 6 
#
# 1 52.3684 -0.9726 1.4633 4.3408 2.6582 9.0677
# 2 -0.9726 68.1337 3.5552 6.3182 11.7872 4.9567
# 3 1.4633 3.5552 128.2946 -14.0375 -0.9014 2.7327
# 4 4.3408 6.3182 -14.0375 29.7631 3.3532 6.9127
# 5 2.6582 11.7872 -0.9014 3.3532 34.7063 2.0171
# 6 9.0677 4.9567 2.7327 6.9127 2.0171 31.1099
#
#
#
# Elastic Compliance Matrix: (Units=1/GPa)
#
#
# Indices 1 2 3 4 5 6 
#
# 1 0.020321 0.001142 -0.000366 -0.001927 -0.001445 -0.005551
# 2 0.001142 0.016032 -0.000775 -0.002928 -0.005163 -0.001834
# 3 -0.000366 -0.000775 0.008344 0.004486 0.000162 -0.001510
# 4 -0.001927 -0.002928 0.004486 0.038662 -0.002022 -0.007826
# 5 -0.001445 -0.005163 0.000162 -0.002022 0.030896 -0.000324
# 6 -0.005551 -0.001834 -0.001510 -0.007826 -0.000324 0.035947
#
#
# Mechanical properties :
#
#
# Convention : Reuss Voigt Hill
#
# Bulk Modulus (GPa) = 22.37204 28.54318 25.45761
# Shear Modulus (GPa) = 30.28460 35.43259 32.85860
#
# Velocity S-wave (km/s) = 3.55306 3.84320 3.70098
# Velocity P-wave (km/s) = 5.11451 5.62067 5.37355
#
# Compressibility (1/GPa) = 0.04469865
#
# Stress axis : x y z
#
# Youngs Moduli (GPa) = 49.20982 62.37583 119.84166
#
# Poissons Ratio (x) = -0.07121 0.04388
# Poissons Ratio (y) = -0.05618 0.09286
# Poissons Ratio (z) = 0.01802 0.04833
#
# Static dielectric constant tensor:
#      x y z
#    x 1.965520 0.005140 0.025530 
#    y 0.005140 1.900090 -0.001050 
#    z 0.025530 -0.001050 1.944240 
# 
# From -- ./inp_files/97440.got.cif
#   From: 2010.05.17/outbox.cif.g08.bks.cpg/sg2_49_cif.got.tgz:97440.got - 2010.06.03 11:33:40.
