data_PCOD9109066
_publ_section_title
;
Structure prediction by ZEFSAII (Michael W. Deem and Ramdas Pophale) SiO2 
 PCOD9109066
Probable space group: P -1
;
_chemical_formula_sum "Si O2"
_cell_formula_units_Z 16
_cell_length_a 15.638401
_cell_length_b 11.711628
_cell_length_c 13.969826
_cell_angle_alpha 113.740019
_cell_angle_beta 28.340313
_cell_angle_gamma 133.063386
_cell_volume 727.870985
_symmetry_space_group_name_H-M "P -1"
_symmetry_group_IT_number 2
_symmetry_cell_setting 'triclinic'
loop_
_space_group_symop_operation_xyz
x,y,z
-x,-y,-z
loop_
_atom_site_type_symbol
_atom_site_label
_atom_site_fract_x
_atom_site_fract_y
_atom_site_fract_z
Si Si1 0.682384 0.228385 0.159466
Si Si2 0.960678 0.488769 0.724750
Si Si3 0.412022 0.340964 0.463832
Si Si4 0.421573 0.096022 0.067504
Si Si5 0.944987 0.046432 0.970471
Si Si6 0.211626 0.783600 0.743842
Si Si7 0.423516 0.835559 0.281048
Si Si8 0.063206 0.289569 0.642982
O O1 0.601974 0.324600 0.242023
O O2 0.760961 0.286059 0.212635
O O3 0.447003 0.998277 0.321214
O O4 0.891262 0.267176 0.893660
O O5 0.632623 0.299554 0.979337
O O6 0.089645 0.418413 0.589177
O O7 0.076333 0.636442 0.743781
O O8 0.115083 0.628592 0.530047
O O9 0.500000 0.500000 0.500000
O O10 0.316818 0.361383 0.469418
O O11 0.165691 0.144605 0.701548
O O12 0.489251 0.148179 0.906795
O O13 0.500000 0.000000 0.000000
O O14 0.094822 0.906441 0.320920
O O15 0.975728 0.202893 0.030523
O O16 0.644233 0.892204 0.160101
O O17 0.000000 0.000000 0.000000
O O18 0.500000 0.000000 0.500000
#
# Coordination Sequence:
#
# PCOD9109066 Si02
#       8
#     2   2   2   2   2   2   2   2
#     4  10  21  39  60  85 126 162 195 253 314 354
#     4  11  21  33  67  88 117 164 210 244 307 373
#     4  12  24  36  60  91 121 166 204 244 308 368
#     4   9  19  39  63  89 118 160 208 254 303 354
#     4  11  23  37  57  89 133 160 194 254 311 363
#     4  11  19  36  57  90 122 157 202 247 310 361
#     4  10  20  41  62  90 120 162 202 254 304 365
#     4  10  22  42  59  90 125 159 204 259 299 360
#
# _framework density 21.981916999999999
#
# number of rings (size 3 to 8) (size 9 to 14) (size 15 to 20)
#    0.000    1.500    6.250    1.875    3.500    1.000 
#    0.000    0.000    0.000   24.750    0.000    0.000 
#    0.000    0.000    0.000    0.000    0.000    0.000 
#
# Total GULP energy -89119.230052 kJ/mol
# GULP energy per Si atom -5569.951878 kJ/mol
# Density = 2.193189 g / cm^3
# Si number density = 21.981917 Si / 1000 Ang^3
#
#
#
# Elastic Constant Matrix: (Units=GPa)
#
#
# Indices 1 2 3 4 5 6 
#
# 1 76.2392 24.0340 0.2035 2.2145 -16.2422 5.9451
# 2 24.0340 100.1501 30.0109 -18.1964 -17.2958 20.2242
# 3 0.2035 30.0109 50.0156 -4.6263 -0.1754 -2.1695
# 4 2.2145 -18.1964 -4.6263 36.0115 -2.0898 -9.0828
# 5 -16.2422 -17.2958 -0.1754 -2.0898 38.2971 -7.0047
# 6 5.9451 20.2242 -2.1695 -9.0828 -7.0047 33.4741
#
#
#
# Elastic Compliance Matrix: (Units=1/GPa)
#
#
# Indices 1 2 3 4 5 6 
#
# 1 0.015419 -0.004004 0.002141 -0.002392 0.004636 0.000141
# 2 -0.004004 0.017623 -0.010314 0.006138 0.005109 -0.007870
# 3 0.002141 -0.010314 0.026438 -0.000324 -0.002370 0.006981
# 4 -0.002392 0.006138 -0.000324 0.032923 0.004764 0.006626
# 5 0.004636 0.005109 -0.002370 0.004764 0.031327 0.003784
# 6 0.000141 -0.007870 0.006981 0.006626 0.003784 0.037646
#
#
# Mechanical properties :
#
#
# Convention : Reuss Voigt Hill
#
# Bulk Modulus (GPa) = 28.46839 37.21130 32.83984
# Shear Modulus (GPa) = 25.32403 33.03364 29.17884
#
# Velocity S-wave (km/s) = 3.39785 3.88076 3.64731
# Velocity P-wave (km/s) = 5.32661 6.08648 5.71918
#
# Compressibility (1/GPa) = 0.03512668
#
# Stress axis : x y z
#
# Youngs Moduli (GPa) = 64.85329 56.74248 37.82382
#
# Poissons Ratio (x) = 0.22721 -0.08098
# Poissons Ratio (y) = 0.25969 0.39012
# Poissons Ratio (z) = -0.13885 0.58525
#
# Static dielectric constant tensor:
#      x y z
#    x 2.046560 -0.021190 0.043250 
#    y -0.021190 1.825140 -0.068000 
#    z 0.043250 -0.068000 1.974570 
# 
# From -- ./inp_files/455152.got.cif
#   From: 2010.05.17/outbox.cif.g08.bks.cpg/sg2_228_cif.got.tgz:455152.got - 2010.06.03 11:33:40.
