data_PCOD9109952
_publ_section_title
;
Structure prediction by ZEFSAII (Michael W. Deem and Ramdas Pophale) SiO2 
 PCOD9109952
Probable space group: P -1
;
_chemical_formula_sum "Si O2"
_cell_formula_units_Z 14
_cell_length_a 8.727939
_cell_length_b 7.205591
_cell_length_c 9.305521
_cell_angle_alpha 82.786538
_cell_angle_beta 80.213046
_cell_angle_gamma 97.539518
_cell_volume 565.133809
_symmetry_space_group_name_H-M "P -1"
_symmetry_group_IT_number 2
_symmetry_cell_setting 'triclinic'
loop_
_space_group_symop_operation_xyz
x,y,z
-x,-y,-z
loop_
_atom_site_type_symbol
_atom_site_label
_atom_site_fract_x
_atom_site_fract_y
_atom_site_fract_z
Si Si1 0.024834 0.553302 0.820934
Si Si2 0.539908 0.291360 0.530576
Si Si3 0.967201 0.965688 0.680552
Si Si4 0.520850 0.778106 0.023990
Si Si5 0.228373 0.735835 0.273106
Si Si6 0.736852 0.895459 0.201971
Si Si7 0.639201 0.281839 0.217035
O O1 0.920098 0.400320 0.752870
O O2 0.213938 0.566172 0.771196
O O3 0.975299 0.752962 0.754108
O O4 0.000000 0.500000 0.000000
O O5 0.500000 0.500000 0.500000
O O6 0.711093 0.299461 0.573958
O O7 0.405719 0.179371 0.661543
O O8 0.543330 0.208763 0.379707
O O9 0.809726 0.049965 0.738251
O O10 0.103020 0.094813 0.739141
O O11 0.000000 0.000000 0.500000
O O12 0.375308 0.699743 0.157110
O O13 0.688714 0.782039 0.073858
O O14 0.482504 0.677402 0.888258
O O15 0.500000 0.000000 0.000000
O O16 0.725471 0.116277 0.153829
#
# Coordination Sequence:
#
# PCOD9109952 Si02
#       7
#     2   2   2   2   2   2   2
#     4  11  24  45  71 107 144 180 239 289 352 418
#     4  11  25  42  66 100 135 182 233 289 348 410
#     4  11  26  44  75 106 139 190 234 285 359 415
#     4   9  19  41  68  93 130 178 226 283 343 407
#     4  11  24  46  69  99 144 181 233 294 346 418
#     4   9  21  42  64  97 133 175 230 282 346 414
#     4  10  20  41  68  94 134 179 228 288 341 413
#
# _framework density 24.772895999999999
#
# number of rings (size 3 to 8) (size 9 to 14) (size 15 to 20)
#    0.000    1.714    1.429    2.143    4.000    4.000 
#    0.000    2.857    0.000    0.000    0.000    0.000 
#    0.000    0.000    0.000    0.000    0.000    0.000 
#
# Total GULP energy -78224.348390 kJ/mol
# GULP energy per Si atom -5587.453456 kJ/mol
# Density = 2.471651 g / cm^3
# Si number density = 24.772896 Si / 1000 Ang^3
#
#
#
# Elastic Constant Matrix: (Units=GPa)
#
#
# Indices 1 2 3 4 5 6 
#
# 1 86.2926 41.2025 39.4103 7.9145 39.4375 -7.1009
# 2 41.2025 107.8662 13.7924 -12.4235 18.4874 -22.5092
# 3 39.4103 13.7924 146.3881 -3.9630 34.6134 -3.9494
# 4 7.9145 -12.4235 -3.9630 29.3929 5.6370 6.0171
# 5 39.4375 18.4874 34.6134 5.6370 43.6534 -4.5715
# 6 -7.1009 -22.5092 -3.9494 6.0171 -4.5715 41.3685
#
#
#
# Elastic Compliance Matrix: (Units=1/GPa)
#
#
# Indices 1 2 3 4 5 6 
#
# 1 0.023743 -0.006931 -0.002129 -0.006372 -0.016082 -0.000749
# 2 -0.006931 0.013826 0.001080 0.006911 -0.000782 0.005344
# 3 -0.002129 0.001080 0.008800 0.003376 -0.005957 -0.000087
# 4 -0.006372 0.006911 0.003376 0.040900 -0.005503 -0.003568
# 5 -0.016082 -0.000782 -0.005957 -0.005503 0.043394 0.001841
# 6 -0.000749 0.005344 -0.000087 -0.003568 0.001841 0.027666
#
#
# Mechanical properties :
#
#
# Convention : Reuss Voigt Hill
#
# Bulk Modulus (GPa) = 32.88660 58.81747 45.85203
# Shear Modulus (GPa) = 27.11123 39.29240 33.20182
#
# Velocity S-wave (km/s) = 3.31175 3.98691 3.66491
# Velocity P-wave (km/s) = 5.28466 6.70732 6.03804
#
# Compressibility (1/GPa) = 0.03040753
#
# Stress axis : x y z
#
# Youngs Moduli (GPa) = 42.11817 72.32996 113.63494
#
# Poissons Ratio (x) = 0.50131 0.24194
# Poissons Ratio (y) = 0.29192 -0.12268
# Poissons Ratio (z) = 0.08967 -0.07809
#
# Static dielectric constant tensor:
#      x y z
#    x 2.029420 -0.127780 0.057470 
#    y -0.127780 2.223420 -0.053740 
#    z 0.057470 -0.053740 2.008740 
# 
# From -- ./inp_files/154848.got.cif
#   From: 2010.05.17/outbox.cif.g08.bks.cpg/sg2_78_cif.got.tgz:154848.got - 2010.06.03 11:33:40.
