data_PCOD9109521
_publ_section_title
;
Structure prediction by ZEFSAII (Michael W. Deem and Ramdas Pophale) SiO2 
 PCOD9109521
Probable space group: P -1
;
_chemical_formula_sum "Si O2"
_cell_formula_units_Z 15
_cell_length_a 10.153076
_cell_length_b 12.960092
_cell_length_c 9.105441
_cell_angle_alpha 59.905218
_cell_angle_beta 72.336038
_cell_angle_gamma 120.264518
_cell_volume 598.011982
_symmetry_space_group_name_H-M "P -1"
_symmetry_group_IT_number 2
_symmetry_cell_setting 'triclinic'
loop_
_space_group_symop_operation_xyz
x,y,z
-x,-y,-z
loop_
_atom_site_type_symbol
_atom_site_label
_atom_site_fract_x
_atom_site_fract_y
_atom_site_fract_z
Si Si1 0.474278 0.721876 0.556505
Si Si2 0.302037 0.547087 0.215921
Si Si3 0.267715 0.410498 0.645585
Si Si4 0.500000 0.000000 0.500000
Si Si5 0.738461 0.856653 0.652335
Si Si6 0.173758 0.878691 0.386976
Si Si7 0.658861 0.147486 0.036053
Si Si8 0.834758 0.030632 0.972275
O O1 0.270629 0.499354 0.722253
O O2 0.639990 0.769203 0.585172
O O3 0.416378 0.808826 0.587053
O O4 0.623000 0.843638 0.271453
O O5 0.278800 0.481866 0.433224
O O6 0.074297 0.345823 0.354838
O O7 0.534327 0.671914 0.961134
O O8 0.295468 0.684687 0.131789
O O9 0.500000 0.500000 0.500000
O O10 0.069429 0.174188 0.876024
O O11 0.679716 0.139303 0.206885
O O12 0.746467 0.006744 0.568420
O O13 0.000000 0.000000 0.500000
O O14 0.167409 0.981330 0.193914
O O15 0.389872 0.943715 0.233597
O O16 0.818948 0.165188 0.890043
#
# Coordination Sequence:
#
# PCOD9109521 Si02
#       8
#     2   2   2   1   2   2   2   2
#     4  11  23  44  67  95 135 170 222 271 332 389
#     4  10  23  44  65  98 128 174 218 275 327 387
#     4  11  27  45  66  99 136 176 225 269 325 393
#     4  10  20  42  62  98 132 164 212 264 338 386
#     4  11  25  41  64  95 127 178 218 267 328 390
#     4  10  21  41  64  94 127 166 218 272 326 387
#     4  10  20  41  65  99 129 167 222 270 337 384
#     4  10  24  41  69  98 124 180 218 276 330 384
#
# _framework density 25.083107999999999
#
# number of rings (size 3 to 8) (size 9 to 14) (size 15 to 20)
#    0.000    1.600    2.667    2.000    5.600    7.467 
#    0.000    2.000    0.000    0.000    0.000    0.000 
#    0.000    0.000    0.000    0.000    0.000    0.000 
#
# Total GULP energy -83537.492956 kJ/mol
# GULP energy per Si atom -5569.166197 kJ/mol
# Density = 2.502602 g / cm^3
# Si number density = 25.083108 Si / 1000 Ang^3
#
#
#
# Elastic Constant Matrix: (Units=GPa)
#
#
# Indices 1 2 3 4 5 6 
#
# 1 15.0321 -1.5741 15.4751 1.7762 -15.8109 -0.8106
# 2 -1.5741 143.1947 37.2172 -10.3860 -4.1138 8.2686
# 3 15.4751 37.2172 106.3833 -12.0602 -18.0061 14.7961
# 4 1.7762 -10.3860 -12.0602 35.9840 7.7449 -6.2215
# 5 -15.8109 -4.1138 -18.0061 7.7449 39.8802 -2.0400
# 6 -0.8106 8.2686 14.7961 -6.2215 -2.0400 40.2654
#
#
#
# Elastic Compliance Matrix: (Units=1/GPa)
#
#
# Indices 1 2 3 4 5 6 
#
# 1 0.146409 0.005704 -0.017469 -0.022050 0.055417 0.007596
# 2 0.005704 0.007994 -0.003289 0.000578 0.001481 -0.000154
# 3 -0.017469 -0.003289 0.013808 0.004261 -0.002073 -0.004197
# 4 -0.022050 0.000578 0.004261 0.033729 -0.013185 0.002415
# 5 0.055417 0.001481 -0.002073 -0.013185 0.048926 0.002015
# 6 0.007596 -0.000154 -0.004197 0.002415 0.002015 0.027037
#
#
# Mechanical properties :
#
#
# Convention : Reuss Voigt Hill
#
# Bulk Modulus (GPa) = 7.24101 40.76072 24.00087
# Shear Modulus (GPa) = 14.12247 37.45872 25.79059
#
# Velocity S-wave (km/s) = 2.37539 3.86863 3.21004
# Velocity P-wave (km/s) = 3.22744 6.02001 4.82996
#
# Compressibility (1/GPa) = 0.13810221
#
# Stress axis : x y z
#
# Youngs Moduli (GPa) = 6.83019 125.08803 72.42381
#
# Poissons Ratio (x) = -0.71349 1.26520
# Poissons Ratio (y) = -0.03896 0.23819
# Poissons Ratio (z) = 0.11932 0.41140
#
# Static dielectric constant tensor:
#      x y z
#    x 2.810090 0.873410 0.012340 
#    y 0.873410 3.071620 -0.137370 
#    z 0.012340 -0.137370 1.949300 
# 
# From -- ./inp_files/251296.got.cif
#   From: 2010.05.17/outbox.cif.g08.bks.cpg/sg2_126_cif.got.tgz:251296.got - 2010.06.03 11:33:40.
