data_PCOD9109424
_publ_section_title
;
Structure prediction by ZEFSAII (Michael W. Deem and Ramdas Pophale) SiO2 
 PCOD9109424
Probable space group: P -1
;
_chemical_formula_sum "Si O2"
_cell_formula_units_Z 16
_cell_length_a 12.157907
_cell_length_b 6.426626
_cell_length_c 13.456493
_cell_angle_alpha 79.942683
_cell_angle_beta 134.170888
_cell_angle_gamma 85.698392
_cell_volume 713.174637
_symmetry_space_group_name_H-M "P -1"
_symmetry_group_IT_number 2
_symmetry_cell_setting 'triclinic'
loop_
_space_group_symop_operation_xyz
x,y,z
-x,-y,-z
loop_
_atom_site_type_symbol
_atom_site_label
_atom_site_fract_x
_atom_site_fract_y
_atom_site_fract_z
Si Si1 0.102135 0.870155 0.482141
Si Si2 0.200270 0.787447 0.178505
Si Si3 0.733397 0.995377 0.595923
Si Si4 0.393589 0.836490 0.969441
Si Si5 0.357229 0.535687 0.790179
Si Si6 0.142758 0.240506 0.014608
Si Si7 0.858723 0.730501 0.213759
Si Si8 0.383817 0.323464 0.320324
O O1 0.150363 0.034880 0.421976
O O2 0.262209 0.696445 0.634622
O O3 0.012305 0.723681 0.375597
O O4 0.000000 0.000000 0.500000
O O5 0.193382 0.904763 0.272205
O O6 0.355725 0.581742 0.295051
O O7 0.199314 0.973821 0.081770
O O8 0.040776 0.708409 0.067924
O O9 0.564086 0.168883 0.445759
O O10 0.697193 0.776072 0.631830
O O11 0.392358 0.697334 0.881651
O O12 0.224623 0.005810 0.867015
O O13 0.482002 0.653320 0.119772
O O14 0.500000 0.000000 0.000000
O O15 0.243624 0.403439 0.780484
O O16 0.277634 0.305108 0.158441
O O17 0.129592 0.337647 0.887773
#
# Coordination Sequence:
#
# PCOD9109424 Si02
#       8
#     2   2   2   2   2   2   2   2
#     4  12  24  43  64  91 133 182 217 270 327 392
#     4  10  20  41  65  91 126 163 210 268 331 386
#     4  10  23  42  64  93 133 163 218 268 325 389
#     4   9  20  40  62  86 120 166 215 269 318 371
#     4  10  22  39  62  88 126 169 223 267 312 387
#     4  10  22  37  64  95 126 158 212 272 323 391
#     4  11  22  41  62  92 129 172 219 270 326 387
#     4  10  22  42  66  98 123 166 213 274 331 392
#
# _framework density 22.434896999999999
#
# number of rings (size 3 to 8) (size 9 to 14) (size 15 to 20)
#    0.000    1.750    2.500    1.125    0.000    6.000 
#    2.250    0.000    0.000    0.000    0.000    0.000 
#    0.000    0.000    0.000    0.000    0.000    0.000 
#
# Total GULP energy -89322.403281 kJ/mol
# GULP energy per Si atom -5582.650205 kJ/mol
# Density = 2.238383 g / cm^3
# Si number density = 22.434897 Si / 1000 Ang^3
#
#
#
# Elastic Constant Matrix: (Units=GPa)
#
#
# Indices 1 2 3 4 5 6 
#
# 1 64.4758 2.6469 1.7673 13.6489 -25.2004 14.9732
# 2 2.6469 48.7670 10.4041 -9.0473 -3.8167 4.8917
# 3 1.7673 10.4041 117.5469 5.8925 -5.4352 2.6278
# 4 13.6489 -9.0473 5.8925 28.9120 0.8346 4.2458
# 5 -25.2004 -3.8167 -5.4352 0.8346 30.5497 -2.3461
# 6 14.9732 4.8917 2.6278 4.2458 -2.3461 15.7751
#
#
#
# Elastic Compliance Matrix: (Units=1/GPa)
#
#
# Indices 1 2 3 4 5 6 
#
# 1 0.035410 -0.000213 0.002070 -0.014207 0.027950 -0.025908
# 2 -0.000213 0.023753 -0.002296 0.009292 0.001433 -0.009069
# 3 0.002070 -0.002296 0.009021 -0.003417 0.003013 -0.001388
# 4 -0.014207 0.009292 -0.003417 0.045706 -0.012647 -0.003009
# 5 0.027950 0.001433 0.003013 -0.012647 0.055637 -0.015797
# 6 -0.025908 -0.009069 -0.001388 -0.003009 -0.015797 0.089486
#
#
# Mechanical properties :
#
#
# Convention : Reuss Voigt Hill
#
# Bulk Modulus (GPa) = 14.85744 28.93624 21.89684
# Shear Modulus (GPa) = 17.71003 29.44546 23.57774
#
# Velocity S-wave (km/s) = 2.81267 3.62675 3.24534
# Velocity P-wave (km/s) = 4.14548 5.51939 4.88102
#
# Compressibility (1/GPa) = 0.06730633
#
# Stress axis : x y z
#
# Youngs Moduli (GPa) = 28.24042 42.10047 110.85275
#
# Poissons Ratio (x) = 0.00897 -0.22949
# Poissons Ratio (y) = 0.00602 0.25451
# Poissons Ratio (z) = -0.05846 0.09666
#
# Static dielectric constant tensor:
#      x y z
#    x 1.873740 -0.033390 -0.008300 
#    y -0.033390 1.816950 -0.011900 
#    z -0.008300 -0.011900 1.869560 
# 
# From -- ./inp_files/525791.got.cif
#   From: 2010.05.17/outbox.cif.g08.bks.cpg/sg2_263_cif.got.tgz:525791.got - 2010.06.03 11:33:40.
