data_PCOD9109181
_publ_section_title
;
Structure prediction by ZEFSAII (Michael W. Deem and Ramdas Pophale) SiO2 
 PCOD9109181
Probable space group: P -1
;
_chemical_formula_sum "Si O2"
_cell_formula_units_Z 16
_cell_length_a 13.686269
_cell_length_b 14.882829
_cell_length_c 5.789564
_cell_angle_alpha 56.764816
_cell_angle_beta 63.243868
_cell_angle_gamma 44.642218
_cell_volume 689.458829
_symmetry_space_group_name_H-M "P -1"
_symmetry_group_IT_number 2
_symmetry_cell_setting 'triclinic'
loop_
_space_group_symop_operation_xyz
x,y,z
-x,-y,-z
loop_
_atom_site_type_symbol
_atom_site_label
_atom_site_fract_x
_atom_site_fract_y
_atom_site_fract_z
Si Si1 0.222255 0.581517 0.844347
Si Si2 0.353758 0.217393 0.698404
Si Si3 0.085390 0.851825 0.329227
Si Si4 0.972042 0.573783 0.176219
Si Si5 0.468503 0.309437 0.096831
Si Si6 0.290008 0.722040 0.914592
Si Si7 0.192458 0.968400 0.383730
Si Si8 0.582916 0.043608 0.089485
O O1 0.182746 0.695294 0.539344
O O2 0.280503 0.615070 0.949586
O O3 0.346973 0.421228 0.892148
O O4 0.079017 0.608082 0.014831
O O5 0.193010 0.306897 0.809353
O O6 0.388613 0.307495 0.405430
O O7 0.450207 0.137200 0.930343
O O8 0.393114 0.092797 0.663982
O O9 0.121269 0.940390 0.298647
O O10 0.139448 0.830035 0.044356
O O11 0.927001 0.921849 0.465722
O O12 0.000000 0.500000 0.500000
O O13 0.000000 0.500000 0.000000
O O14 0.576326 0.340687 0.979994
O O15 0.564776 0.152011 0.132643
O O16 0.297337 0.818132 0.597065
O O17 0.280389 0.011013 0.129097
#
# Coordination Sequence:
#
# PCOD9109181 Si02
#       8
#     2   2   2   2   2   2   2   2
#     4  11  26  43  67 103 135 183 235 285 358 433
#     4  11  25  44  71 101 137 184 244 296 358 431
#     4  10  22  40  65  95 133 179 224 284 353 424
#     4  12  27  51  76 106 146 193 239 299 365 427
#     4  12  23  44  67  98 141 181 232 293 357 428
#     4  11  23  41  66 103 134 180 227 287 363 425
#     4  10  20  41  63  94 134 171 230 284 351 425
#     4  11  23  43  68 100 134 186 239 298 362 424
#
# _framework density 23.206607999999999
#
# number of rings (size 3 to 8) (size 9 to 14) (size 15 to 20)
#    0.000    1.000    3.750    2.625    1.750    1.500 
#    2.250    0.000    0.000    0.000    0.000    0.000 
#    0.000    0.000    0.000    0.000    0.000    0.000 
#
# Total GULP energy -89374.461435 kJ/mol
# GULP energy per Si atom -5585.903840 kJ/mol
# Density = 2.315379 g / cm^3
# Si number density = 23.206608 Si / 1000 Ang^3
#
#
#
# Elastic Constant Matrix: (Units=GPa)
#
#
# Indices 1 2 3 4 5 6 
#
# 1 104.6517 28.4932 26.8907 -0.4187 -26.0759 -15.6748
# 2 28.4932 100.3996 24.4061 8.4299 -8.1348 -11.5780
# 3 26.8907 24.4061 73.6825 -10.9094 -15.4309 -1.4171
# 4 -0.4187 8.4299 -10.9094 33.6571 -1.5618 -0.9110
# 5 -26.0759 -8.1348 -15.4309 -1.5618 32.4675 3.8223
# 6 -15.6748 -11.5780 -1.4171 -0.9110 3.8223 44.2959
#
#
#
# Elastic Compliance Matrix: (Units=1/GPa)
#
#
# Indices 1 2 3 4 5 6 
#
# 1 0.013420 -0.002223 -0.002173 0.000519 0.008819 0.003348
# 2 -0.002223 0.012107 -0.004042 -0.004362 -0.001149 0.002258
# 3 -0.002173 -0.004042 0.018053 0.007087 0.006357 -0.001651
# 4 0.000519 -0.004362 0.007087 0.033298 0.004344 -0.000420
# 5 0.008819 -0.001149 0.006357 0.004344 0.040874 -0.000414
# 6 0.003348 0.002258 -0.001651 -0.000420 -0.000414 0.024325
#
#
# Mechanical properties :
#
#
# Convention : Reuss Voigt Hill
#
# Bulk Modulus (GPa) = 37.44850 48.70151 43.07501
# Shear Modulus (GPa) = 29.78762 35.34702 32.56732
#
# Velocity S-wave (km/s) = 3.58660 3.90698 3.75021
# Velocity P-wave (km/s) = 5.77266 6.43306 6.11179
#
# Compressibility (1/GPa) = 0.02670334
#
# Stress axis : x y z
#
# Youngs Moduli (GPa) = 74.51420 82.59451 55.39373
#
# Poissons Ratio (x) = 0.18364 0.12037
# Poissons Ratio (y) = 0.16567 0.22390
# Poissons Ratio (z) = 0.16192 0.33385
#
# Static dielectric constant tensor:
#      x y z
#    x 1.872790 0.034700 0.043340 
#    y 0.034700 1.929930 -0.003120 
#    z 0.043340 -0.003120 1.890520 
# 
# From -- ./inp_files/70645.got.cif
#   From: 2010.05.17/outbox.cif.g08.bks.cpg/sg2_36_cif.got.tgz:70645.got - 2010.06.03 11:33:40.
