data_PCOD9109571
_publ_section_title
;
Structure prediction by ZEFSAII (Michael W. Deem and Ramdas Pophale) SiO2 
 PCOD9109571
Probable space group: P -1
;
_chemical_formula_sum "Si O2"
_cell_formula_units_Z 14
_cell_length_a 8.449798
_cell_length_b 9.074675
_cell_length_c 8.816800
_cell_angle_alpha 90.716353
_cell_angle_beta 66.366410
_cell_angle_gamma 88.124800
_cell_volume 618.787842
_symmetry_space_group_name_H-M "P -1"
_symmetry_group_IT_number 2
_symmetry_cell_setting 'triclinic'
loop_
_space_group_symop_operation_xyz
x,y,z
-x,-y,-z
loop_
_atom_site_type_symbol
_atom_site_label
_atom_site_fract_x
_atom_site_fract_y
_atom_site_fract_z
Si Si1 0.204929 0.618342 0.795306
Si Si2 0.873504 0.720856 0.104253
Si Si3 0.654211 0.875580 0.952546
Si Si4 0.356012 0.679862 0.411128
Si Si5 0.699828 0.792471 0.447928
Si Si6 0.804607 0.025505 0.620123
Si Si7 0.421161 0.374702 0.235068
O O1 0.183167 0.448460 0.853223
O O2 0.239170 0.632423 0.600882
O O3 0.382430 0.671541 0.798377
O O4 0.042541 0.708150 0.933092
O O5 0.870560 0.776354 0.279158
O O6 0.740083 0.839292 0.078929
O O7 0.613772 0.711498 0.905807
O O8 0.784386 0.942511 0.784285
O O9 0.500000 0.000000 0.000000
O O10 0.533719 0.737995 0.417696
O O11 0.259088 0.806533 0.354903
O O12 0.400782 0.547558 0.275861
O O13 0.706714 0.687888 0.590358
O O14 0.687621 0.951277 0.533208
O O15 0.000000 0.000000 0.500000
#
# Coordination Sequence:
#
# PCOD9109571 Si02
#       7
#     2   2   2   2   2   2   2
#     4  10  21  37  65  95 123 156 213 267 304 357
#     4  11  21  40  61  96 128 158 206 262 317 360
#     4  11  26  44  62  92 134 167 202 257 322 378
#     4  11  19  42  68  91 119 167 222 252 297 381
#     4  10  20  41  66  89 121 166 211 253 303 377
#     4  11  25  43  62  93 129 168 207 254 317 373
#     4  10  21  42  66  92 119 168 217 252 306 374
#
# _framework density 22.624880000000001
#
# number of rings (size 3 to 8) (size 9 to 14) (size 15 to 20)
#    0.000    1.429    2.857    3.000    0.000    4.000 
#    5.143    4.286    0.000    0.000    0.000    0.000 
#    0.000    0.000    0.000    0.000    0.000    0.000 
#
# Total GULP energy -78109.782022 kJ/mol
# GULP energy per Si atom -5579.270144 kJ/mol
# Density = 2.257338 g / cm^3
# Si number density = 22.624880 Si / 1000 Ang^3
#
#
#
# Elastic Constant Matrix: (Units=GPa)
#
#
# Indices 1 2 3 4 5 6 
#
# 1 23.3512 30.4348 14.6306 -4.0591 -4.1448 -9.0465
# 2 30.4348 97.3000 27.7652 7.9186 -3.7591 -14.9022
# 3 14.6306 27.7652 121.0760 -11.0210 -22.8308 1.0281
# 4 -4.0591 7.9186 -11.0210 24.8149 -0.1889 -4.7811
# 5 -4.1448 -3.7591 -22.8308 -0.1889 19.3332 1.3930
# 6 -9.0465 -14.9022 1.0281 -4.7811 1.3930 23.8443
#
#
#
# Elastic Compliance Matrix: (Units=1/GPa)
#
#
# Indices 1 2 3 4 5 6 
#
# 1 0.096942 -0.028480 -0.000113 0.029649 0.013663 0.024132
# 2 -0.028480 0.021151 -0.003872 -0.013113 -0.006719 0.000344
# 3 -0.000113 -0.003872 0.012428 0.006353 0.014145 -0.002551
# 4 0.029649 -0.013113 0.006353 0.054766 0.010898 0.013124
# 5 0.013663 -0.006719 0.014145 0.010898 0.070269 -0.001545
# 6 0.024132 0.000344 -0.002551 0.013124 -0.001545 0.054141
#
#
# Mechanical properties :
#
#
# Convention : Reuss Voigt Hill
#
# Bulk Modulus (GPa) = 15.24595 43.04316 29.14456
# Shear Modulus (GPa) = 12.61059 24.85824 18.73442
#
# Velocity S-wave (km/s) = 2.36344 3.31828 2.88070
# Velocity P-wave (km/s) = 3.76843 5.80924 4.89634
#
# Compressibility (1/GPa) = 0.06559117
#
# Stress axis : x y z
#
# Youngs Moduli (GPa) = 10.31540 47.27901 80.46186
#
# Poissons Ratio (x) = 1.34649 0.00911
# Poissons Ratio (y) = 0.29378 0.31158
# Poissons Ratio (z) = 0.00117 0.18308
#
# Static dielectric constant tensor:
#      x y z
#    x 1.832300 0.039940 -0.001750 
#    y 0.039940 1.879330 0.033270 
#    z -0.001750 0.033270 1.891350 
# 
# From -- ./inp_files/156802.got.cif
#   From: 2010.05.17/outbox.cif.g08.bks.cpg/sg2_79_cif.got.tgz:156802.got - 2010.06.03 11:33:40.
