data_PCOD9109579
_publ_section_title
;
Structure prediction by ZEFSAII (Michael W. Deem and Ramdas Pophale) SiO2 
 PCOD9109579
Probable space group: P -1
;
_chemical_formula_sum "Si O2"
_cell_formula_units_Z 14
_cell_length_a 9.186949
_cell_length_b 8.300022
_cell_length_c 12.031629
_cell_angle_alpha 74.642294
_cell_angle_beta 65.505960
_cell_angle_gamma 48.511896
_cell_volume 625.330163
_symmetry_space_group_name_H-M "P -1"
_symmetry_group_IT_number 2
_symmetry_cell_setting 'triclinic'
loop_
_space_group_symop_operation_xyz
x,y,z
-x,-y,-z
loop_
_atom_site_type_symbol
_atom_site_label
_atom_site_fract_x
_atom_site_fract_y
_atom_site_fract_z
Si Si1 0.316629 0.544272 0.978092
Si Si2 0.603765 0.142225 0.359983
Si Si3 0.638774 0.130364 0.866263
Si Si4 0.819597 0.656185 0.442591
Si Si5 0.028337 0.474598 0.828069
Si Si6 0.579186 0.003283 0.149755
Si Si7 0.077911 0.820872 0.820294
O O1 0.450018 0.380041 0.864172
O O2 0.158371 0.776827 0.929632
O O3 0.500000 0.500000 0.000000
O O4 0.180241 0.493094 0.091049
O O5 0.389688 0.299669 0.463284
O O6 0.742425 0.215464 0.301510
O O7 0.739649 0.900827 0.412018
O O8 0.557180 0.119131 0.250021
O O9 0.607237 0.004192 0.810355
O O10 0.866335 0.053965 0.814710
O O11 0.599652 0.086905 0.011719
O O12 0.911486 0.546753 0.314844
O O13 0.000000 0.500000 0.500000
O O14 0.212041 0.241641 0.862354
O O15 0.025801 0.660107 0.847669
#
# Coordination Sequence:
#
# PCOD9109579 Si02
#       7
#     2   2   2   2   2   2   2
#     4  12  26  40  66 104 138 175 217 265 328 405
#     4  10  25  45  67  98 129 170 227 277 323 390
#     4  11  23  36  64  98 134 177 207 259 332 394
#     4  10  25  46  72  90 125 178 229 276 329 379
#     4  11  23  45  67  96 138 177 215 278 327 386
#     4  10  20  41  66  89 138 175 214 258 329 392
#     4  12  25  41  67 104 136 169 218 270 333 402
#
# _framework density 22.388172999999998
#
# number of rings (size 3 to 8) (size 9 to 14) (size 15 to 20)
#    0.000    1.143    2.857    3.000   10.000    1.714 
#    0.000    0.714    0.000    0.000    0.000    0.000 
#    0.000    0.000    0.000    0.000    0.000    0.000 
#
# Total GULP energy -78238.808659 kJ/mol
# GULP energy per Si atom -5588.486333 kJ/mol
# Density = 2.233722 g / cm^3
# Si number density = 22.388173 Si / 1000 Ang^3
#
#
#
# Elastic Constant Matrix: (Units=GPa)
#
#
# Indices 1 2 3 4 5 6 
#
# 1 145.8099 36.9839 55.1968 6.5194 -29.0766 -29.1506
# 2 36.9839 62.5810 30.7179 9.8117 1.0142 -25.5965
# 3 55.1968 30.7179 106.0186 10.0782 -26.2126 -16.3364
# 4 6.5194 9.8117 10.0782 27.3831 -8.9557 -2.1266
# 5 -29.0766 1.0142 -26.2126 -8.9557 43.3270 -1.0611
# 6 -29.1506 -25.5965 -16.3364 -2.1266 -1.0611 37.1012
#
#
#
# Elastic Compliance Matrix: (Units=1/GPa)
#
#
# Indices 1 2 3 4 5 6 
#
# 1 0.010964 -0.003490 -0.002445 0.002097 0.006527 0.005437
# 2 -0.003490 0.027435 -0.005148 -0.008545 -0.007542 0.013213
# 3 -0.002445 -0.005148 0.014093 -0.000419 0.006941 0.000907
# 4 0.002097 -0.008545 -0.000419 0.042398 0.010075 -0.001714
# 5 0.006527 -0.007542 0.006941 0.010075 0.034030 0.004532
# 6 0.005437 0.013213 0.000907 -0.001714 0.004532 0.040772
#
#
# Mechanical properties :
#
#
# Convention : Reuss Voigt Hill
#
# Bulk Modulus (GPa) = 32.97585 62.24519 47.61052
# Shear Modulus (GPa) = 24.75663 34.32965 29.54314
#
# Velocity S-wave (km/s) = 3.32895 3.92009 3.63655
# Velocity P-wave (km/s) = 5.43480 6.95360 6.24058
#
# Compressibility (1/GPa) = 0.03032522
#
# Stress axis : x y z
#
# Youngs Moduli (GPa) = 91.21037 36.44929 70.95911
#
# Poissons Ratio (x) = 0.12721 0.17347
# Poissons Ratio (y) = 0.31834 0.36533
# Poissons Ratio (z) = 0.22298 0.18766
#
# Static dielectric constant tensor:
#      x y z
#    x 1.864900 0.022650 0.011180 
#    y 0.022650 1.927680 -0.022300 
#    z 0.011180 -0.022300 1.795570 
# 
# From -- ./inp_files/175789.got.cif
#   From: 2010.05.17/outbox.cif.g08.bks.cpg/sg2_88_cif.got.tgz:175789.got - 2010.06.03 11:33:40.
