data_PCOD9109747
_publ_section_title
;
Structure prediction by ZEFSAII (Michael W. Deem and Ramdas Pophale) SiO2 
 PCOD9109747
Probable space group: P -1
;
_chemical_formula_sum "Si O2"
_cell_formula_units_Z 14
_cell_length_a 5.156988
_cell_length_b 7.198508
_cell_length_c 16.859697
_cell_angle_alpha 85.912780
_cell_angle_beta 65.512553
_cell_angle_gamma 101.985965
_cell_volume 548.389099
_symmetry_space_group_name_H-M "P -1"
_symmetry_group_IT_number 2
_symmetry_cell_setting 'triclinic'
loop_
_space_group_symop_operation_xyz
x,y,z
-x,-y,-z
loop_
_atom_site_type_symbol
_atom_site_label
_atom_site_fract_x
_atom_site_fract_y
_atom_site_fract_z
Si Si1 0.591903 0.833990 0.306870
Si Si2 0.312130 0.163299 0.360947
Si Si3 0.893861 0.798282 0.126516
Si Si4 0.759732 0.631060 0.909181
Si Si5 0.657785 0.485593 0.767580
Si Si6 0.689991 0.138703 0.065798
Si Si7 0.694571 0.849709 0.465471
O O1 0.886491 0.842240 0.219188
O O2 0.345278 0.688294 0.288278
O O3 0.595319 0.751476 0.397159
O O4 0.023862 0.983030 0.408012
O O5 0.289696 0.321465 0.295730
O O6 0.339769 0.257083 0.442705
O O7 0.557282 0.050626 0.312028
O O8 0.675856 0.586290 0.153710
O O9 0.159593 0.474587 0.176003
O O10 0.707448 0.932786 0.103217
O O11 0.608610 0.796890 0.892002
O O12 0.040126 0.721414 0.924529
O O13 0.500000 0.500000 0.000000
O O14 0.803653 0.161749 0.959684
O O15 0.500000 0.000000 0.500000
#
# Coordination Sequence:
#
# PCOD9109747 Si02
#       7
#     2   2   2   2   2   2   2
#     4   9  20  42  57  95 127 160 221 267 324 398
#     4  10  20  41  67  88 125 172 203 275 333 398
#     4   9  22  42  61  99 128 175 228 277 327 399
#     4  12  24  44  66  98 136 185 227 278 331 397
#     4  10  23  40  62 100 126 166 232 265 332 394
#     4  11  24  45  68  91 143 185 223 281 335 382
#     4   9  20  40  66  89 125 165 210 260 344 401
#
# _framework density 25.529315
#
# number of rings (size 3 to 8) (size 9 to 14) (size 15 to 20)
#    0.857    1.143    1.429    1.286    2.000    2.857 
#    7.714    6.429    0.000    0.000    0.000    0.000 
#    0.000    0.000    0.000    0.000    0.000    0.000 
#
# Total GULP energy -78264.473914 kJ/mol
# GULP energy per Si atom -5590.319565 kJ/mol
# Density = 2.547121 g / cm^3
# Si number density = 25.529315 Si / 1000 Ang^3
#
#
#
# Elastic Constant Matrix: (Units=GPa)
#
#
# Indices 1 2 3 4 5 6 
#
# 1 68.1564 25.6478 9.9738 14.6920 9.0477 -8.1654
# 2 25.6478 85.9730 56.0208 6.1786 0.6675 6.8999
# 3 9.9738 56.0208 191.5910 37.6268 13.9204 7.4481
# 4 14.6920 6.1786 37.6268 44.4162 3.2861 2.9366
# 5 9.0477 0.6675 13.9204 3.2861 31.0563 5.7553
# 6 -8.1654 6.8999 7.4481 2.9366 5.7553 26.1842
#
#
#
# Elastic Compliance Matrix: (Units=1/GPa)
#
#
# Indices 1 2 3 4 5 6 
#
# 1 0.022045 -0.009028 0.003484 -0.009071 -0.008913 0.011239
# 2 -0.009028 0.018537 -0.006198 0.005745 0.005860 -0.007869
# 3 0.003484 -0.006198 0.008522 -0.007328 -0.004309 0.002065
# 4 -0.009071 0.005745 -0.007328 0.031081 0.003732 -0.006564
# 5 -0.008913 0.005860 -0.004309 0.003732 0.038424 -0.011962
# 6 0.011239 -0.007869 0.002065 -0.006564 -0.011962 0.046548
#
#
# Mechanical properties :
#
#
# Convention : Reuss Voigt Hill
#
# Bulk Modulus (GPa) = 39.03152 58.77834 48.90493
# Shear Modulus (GPa) = 25.35759 37.26985 31.31372
#
# Velocity S-wave (km/s) = 3.15504 3.82499 3.50605
# Velocity P-wave (km/s) = 5.34738 6.52543 5.96556
#
# Compressibility (1/GPa) = 0.02562032
#
# Stress axis : x y z
#
# Youngs Moduli (GPa) = 45.36276 53.94681 117.33850
#
# Poissons Ratio (x) = 0.48701 -0.40884
# Poissons Ratio (y) = 0.40952 0.72730
# Poissons Ratio (z) = -0.15806 0.33438
#
# Static dielectric constant tensor:
#      x y z
#    x 2.168460 -0.062060 -0.020210 
#    y -0.062060 2.098150 0.063270 
#    z -0.020210 0.063270 2.047710 
# 
# From -- ./inp_files/580692.got.cif
#   From: 2010.05.17/outbox.cif.g08.bks.cpg/sg2_291_cif.got.tgz:580692.got - 2010.06.03 11:33:40.
