data_PCOD9109458
_publ_section_title
;
Structure prediction by ZEFSAII (Michael W. Deem and Ramdas Pophale) SiO2 
 PCOD9109458
Probable space group: P -1
;
_chemical_formula_sum "Si O2"
_cell_formula_units_Z 10
_cell_length_a 7.169487
_cell_length_b 10.045100
_cell_length_c 11.111856
_cell_angle_alpha 121.648055
_cell_angle_beta 41.873140
_cell_angle_gamma 96.079266
_cell_volume 393.481049
_symmetry_space_group_name_H-M "P -1"
_symmetry_group_IT_number 2
_symmetry_cell_setting 'triclinic'
loop_
_space_group_symop_operation_xyz
x,y,z
-x,-y,-z
loop_
_atom_site_type_symbol
_atom_site_label
_atom_site_fract_x
_atom_site_fract_y
_atom_site_fract_z
Si Si1 0.754099 0.023098 0.307266
Si Si2 0.185019 0.255968 0.046849
Si Si3 0.674605 0.652801 0.475407
Si Si4 0.532063 0.237957 0.103536
Si Si5 0.763218 0.486941 0.008763
O O1 0.601520 0.226703 0.430528
O O2 0.500000 0.000000 0.500000
O O3 0.803152 0.906012 0.107747
O O4 0.103609 0.928946 0.154381
O O5 0.390028 0.326732 0.903327
O O6 0.313488 0.214051 0.099303
O O7 0.831303 0.435529 0.295390
O O8 0.593635 0.727081 0.683686
O O9 0.987276 0.659222 0.276140
O O10 0.549268 0.414989 0.136728
O O11 0.000000 0.500000 0.000000
#
# Coordination Sequence:
#
# PCOD9109458 Si02
#       5
#     2   2   2   2   2
#     4  12  23  44  66  96 135 167 219 270 315 390
#     4  10  24  43  67  96 129 173 216 266 323 383
#     4  10  24  42  66  97 132 167 217 269 319 387
#     4  12  22  43  70  93 132 174 213 266 329 379
#     4  10  20  41  65  93 128 167 210 263 314 381
#
# _framework density 25.414183000000001
#
# number of rings (size 3 to 8) (size 9 to 14) (size 15 to 20)
#    1.200    0.000    4.000    1.800    0.000    4.800 
#    0.000    6.000    0.000    0.000    0.000    0.000 
#    0.000    0.000    0.000    0.000    0.000    0.000 
#
# Total GULP energy -55976.218179 kJ/mol
# GULP energy per Si atom -5597.621818 kJ/mol
# Density = 2.535634 g / cm^3
# Si number density = 25.414183 Si / 1000 Ang^3
#
#
#
# Elastic Constant Matrix: (Units=GPa)
#
#
# Indices 1 2 3 4 5 6 
#
# 1 119.6017 30.4241 40.2141 -1.7279 1.3410 -13.7920
# 2 30.4241 134.0279 36.0389 3.9954 -3.6005 -21.0658
# 3 40.2141 36.0389 115.4935 0.1826 9.8569 -5.9295
# 4 -1.7279 3.9954 0.1826 46.7798 -13.2614 6.1778
# 5 1.3410 -3.6005 9.8569 -13.2614 21.7976 -9.4086
# 6 -13.7920 -21.0658 -5.9295 6.1778 -9.4086 31.7013
#
#
#
# Elastic Compliance Matrix: (Units=1/GPa)
#
#
# Indices 1 2 3 4 5 6 
#
# 1 0.010109 -0.000701 -0.003350 0.000758 0.002984 0.004044
# 2 -0.000701 0.009753 -0.002941 -0.000089 0.006154 0.007470
# 3 -0.003350 -0.002941 0.011243 -0.001698 -0.007821 -0.003299
# 4 0.000758 -0.000089 -0.001698 0.026128 0.016498 -0.000242
# 5 0.002984 0.006154 -0.007821 0.016498 0.069492 0.021334
# 6 0.004044 0.007470 -0.003299 -0.000242 0.021334 0.044029
#
#
# Mechanical properties :
#
#
# Convention : Reuss Voigt Hill
#
# Bulk Modulus (GPa) = 58.40125 64.71971 61.56048
# Shear Modulus (GPa) = 26.25429 37.55212 31.90320
#
# Velocity S-wave (km/s) = 3.21761 3.84813 3.54691
# Velocity P-wave (km/s) = 6.06907 6.72796 6.40699
#
# Compressibility (1/GPa) = 0.01712292
#
# Stress axis : x y z
#
# Youngs Moduli (GPa) = 98.91751 102.53175 88.94241
#
# Poissons Ratio (x) = 0.07188 0.29791
# Poissons Ratio (y) = 0.06935 0.26156
# Poissons Ratio (z) = 0.33132 0.30153
#
# Static dielectric constant tensor:
#      x y z
#    x 1.951540 0.004300 -0.036490 
#    y 0.004300 2.055260 -0.067190 
#    z -0.036490 -0.067190 2.075720 
# 
# From -- ./inp_files/442876.got.cif
#   From: 2010.05.17/outbox.cif.g08.bks.cpg/sg2_222_cif.got.tgz:442876.got - 2010.06.03 11:33:40.
