data_PCOD9109653
_publ_section_title
;
Structure prediction by ZEFSAII (Michael W. Deem and Ramdas Pophale) SiO2 
 PCOD9109653
Probable space group: P -1
;
_chemical_formula_sum "Si O2"
_cell_formula_units_Z 14
_cell_length_a 11.832625
_cell_length_b 8.346049
_cell_length_c 11.916942
_cell_angle_alpha 103.058703
_cell_angle_beta 100.667866
_cell_angle_gamma 35.742470
_cell_volume 669.676420
_symmetry_space_group_name_H-M "P -1"
_symmetry_group_IT_number 2
_symmetry_cell_setting 'triclinic'
loop_
_space_group_symop_operation_xyz
x,y,z
-x,-y,-z
loop_
_atom_site_type_symbol
_atom_site_label
_atom_site_fract_x
_atom_site_fract_y
_atom_site_fract_z
Si Si1 0.582442 0.985953 0.399278
Si Si2 0.210782 0.518528 0.806518
Si Si3 0.976841 0.014277 0.318823
Si Si4 0.875877 0.738932 0.922406
Si Si5 0.722465 0.587143 0.772282
Si Si6 0.509460 0.789545 0.983657
Si Si7 0.718621 0.181749 0.499498
O O1 0.404448 0.266068 0.339521
O O2 0.715197 0.988872 0.454960
O O3 0.500000 0.000000 0.500000
O O4 0.691936 0.729994 0.297416
O O5 0.142563 0.748953 0.756562
O O6 0.358068 0.394941 0.913619
O O7 0.021720 0.667168 0.858958
O O8 0.836347 0.131123 0.413044
O O9 0.073024 0.736592 0.250036
O O10 0.161118 0.906619 0.381648
O O11 0.764367 0.728957 0.829119
O O12 0.704650 0.030322 0.002107
O O13 0.000000 0.500000 0.000000
O O14 0.605447 0.632438 0.858455
O O15 0.500000 0.000000 0.000000
O O16 0.500000 0.500000 0.500000
#
# Coordination Sequence:
#
# PCOD9109653 Si02
#       7
#     2   2   2   2   2   2   2
#     4  12  25  42  74  99 131 179 226 277 333 392
#     4  12  24  42  67 102 131 169 230 278 321 404
#     4  11  27  42  68  99 136 182 221 271 340 398
#     4  11  20  40  72  95 127 179 224 273 330 390
#     4  11  22  45  66  97 138 173 220 271 343 398
#     4  10  20  41  66  94 134 168 219 276 329 391
#     4  11  24  48  66  93 142 181 221 274 335 394
#
# _framework density 20.905619000000002
#
# number of rings (size 3 to 8) (size 9 to 14) (size 15 to 20)
#    0.000    0.857    7.143    1.714    4.000    2.286 
#    0.000    0.714    0.000    0.000    0.000    0.000 
#    0.000    0.000    0.000    0.000    0.000    0.000 
#
# Total GULP energy -78231.453528 kJ/mol
# GULP energy per Si atom -5587.960966 kJ/mol
# Density = 2.085804 g / cm^3
# Si number density = 20.905619 Si / 1000 Ang^3
#
#
#
# Elastic Constant Matrix: (Units=GPa)
#
#
# Indices 1 2 3 4 5 6 
#
# 1 53.9709 19.0885 25.0587 -12.6484 -16.8859 -18.6606
# 2 19.0885 123.3110 40.7835 -3.9546 -26.2977 -11.2953
# 3 25.0587 40.7835 100.3518 -17.3611 -30.2167 -6.9521
# 4 -12.6484 -3.9546 -17.3611 39.4256 -3.7378 -10.4034
# 5 -16.8859 -26.2977 -30.2167 -3.7378 33.2857 1.8058
# 6 -18.6606 -11.2953 -6.9521 -10.4034 1.8058 36.2274
#
#
#
# Elastic Compliance Matrix: (Units=1/GPa)
#
#
# Indices 1 2 3 4 5 6 
#
# 1 0.039126 0.001450 0.003063 0.023455 0.024961 0.026685
# 2 0.001450 0.010503 -0.001583 0.002628 0.007670 0.004090
# 3 0.003063 -0.001583 0.017630 0.012093 0.017281 0.007079
# 4 0.023455 0.002628 0.012093 0.048532 0.028899 0.027718
# 5 0.024961 0.007670 0.017281 0.028899 0.066421 0.023553
# 6 0.026685 0.004090 0.007079 0.027718 0.023553 0.050768
#
#
# Mechanical properties :
#
#
# Convention : Reuss Voigt Hill
#
# Bulk Modulus (GPa) = 13.67639 49.72167 31.69903
# Shear Modulus (GPa) = 19.88125 34.63460 27.25792
#
# Velocity S-wave (km/s) = 3.08718 4.07469 3.61481
# Velocity P-wave (km/s) = 4.38904 6.78034 5.71125
#
# Compressibility (1/GPa) = 0.07311873
#
# Stress axis : x y z
#
# Youngs Moduli (GPa) = 25.55829 95.20719 56.72290
#
# Poissons Ratio (x) = -0.13806 -0.17373
# Poissons Ratio (y) = -0.03706 0.08980
# Poissons Ratio (z) = -0.07828 0.15073
#
# Static dielectric constant tensor:
#      x y z
#    x 1.750730 -0.007570 0.048190 
#    y -0.007570 1.747720 0.076980 
#    z 0.048190 0.076980 1.742630 
# 
# From -- ./inp_files/77267.got.cif
#   From: 2010.05.17/outbox.cif.g08.bks.cpg/sg2_39_cif.got.tgz:77267.got - 2010.06.03 11:33:40.
