data_PCOD9109472
_publ_section_title
;
Structure prediction by ZEFSAII (Michael W. Deem and Ramdas Pophale) SiO2 
 PCOD9109472
Probable space group: P -1
;
_chemical_formula_sum "Si O2"
_cell_formula_units_Z 16
_cell_length_a 5.363857
_cell_length_b 7.202239
_cell_length_c 20.159608
_cell_angle_alpha 98.078451
_cell_angle_beta 56.467919
_cell_angle_gamma 102.150120
_cell_volume 634.367229
_symmetry_space_group_name_H-M "P -1"
_symmetry_group_IT_number 2
_symmetry_cell_setting 'triclinic'
loop_
_space_group_symop_operation_xyz
x,y,z
-x,-y,-z
loop_
_atom_site_type_symbol
_atom_site_label
_atom_site_fract_x
_atom_site_fract_y
_atom_site_fract_z
Si Si1 0.420448 0.675372 0.366471
Si Si2 0.065627 0.196531 0.322089
Si Si3 0.848493 0.876213 0.430995
Si Si4 0.891789 0.882700 0.216887
Si Si5 0.169948 0.392151 0.023727
Si Si6 0.512346 0.638543 0.568893
Si Si7 0.322136 0.796446 0.825269
Si Si8 0.490457 0.065622 0.929930
O O1 0.608043 0.790470 0.405341
O O2 0.651602 0.712801 0.272926
O O3 0.334140 0.466466 0.400732
O O4 0.124982 0.758853 0.392314
O O5 0.411376 0.277837 0.257674
O O6 0.820754 0.335346 0.356761
O O7 0.991206 0.085733 0.396675
O O8 0.994203 0.024722 0.270396
O O9 0.673679 0.838575 0.524622
O O10 0.185940 0.824141 0.136854
O O11 0.748036 0.018599 0.194471
O O12 0.234214 0.196881 0.970337
O O13 0.500000 0.500000 0.000000
O O14 0.000000 0.500000 0.000000
O O15 0.975928 0.345444 0.117263
O O16 0.500000 0.500000 0.500000
O O17 0.438898 0.878493 0.883429
O O18 0.500000 0.000000 0.000000
#
# Coordination Sequence:
#
# PCOD9109472 Si02
#       8
#     2   2   2   2   2   2   2   2
#     4  10  21  41  62  96 132 173 224 282 344 409
#     4  10  22  42  67  99 133 185 238 287 346 421
#     4  10  20  41  65  94 129 177 228 281 333 409
#     4  10  22  41  68  97 132 182 243 287 338 420
#     4  12  28  45  68 108 144 175 228 295 359 413
#     4  10  22  42  65  98 141 179 226 291 358 413
#     4  11  23  45  74  96 140 189 242 288 347 429
#     4  11  23  44  76  99 135 190 242 287 346 425
#
# _framework density 25.221983000000002
#
# number of rings (size 3 to 8) (size 9 to 14) (size 15 to 20)
#    0.000    1.500    2.500    1.875    3.500    1.000 
#    9.000    3.750    0.000    0.000    0.000    0.000 
#    0.000    0.000    0.000    0.000    0.000    0.000 
#
# Total GULP energy -89598.704204 kJ/mol
# GULP energy per Si atom -5599.919013 kJ/mol
# Density = 2.516458 g / cm^3
# Si number density = 25.221983 Si / 1000 Ang^3
#
#
#
# Elastic Constant Matrix: (Units=GPa)
#
#
# Indices 1 2 3 4 5 6 
#
# 1 104.9593 36.2927 36.5729 -7.9805 -10.8833 -12.5214
# 2 36.2927 110.0265 44.7366 -19.6013 -11.8196 -13.1011
# 3 36.5729 44.7366 140.8303 -21.7178 -34.4254 -1.9472
# 4 -7.9805 -19.6013 -21.7178 52.4693 -2.2815 -3.3814
# 5 -10.8833 -11.8196 -34.4254 -2.2815 61.8299 5.9160
# 6 -12.5214 -13.1011 -1.9472 -3.3814 5.9160 53.1877
#
#
#
# Elastic Compliance Matrix: (Units=1/GPa)
#
#
# Indices 1 2 3 4 5 6 
#
# 1 0.011417 -0.002684 -0.002039 0.000022 0.000177 0.001934
# 2 -0.002684 0.011858 -0.002474 0.003163 0.000307 0.002365
# 3 -0.002039 -0.002474 0.010104 0.003096 0.005011 -0.001080
# 4 0.000022 0.003163 0.003096 0.021780 0.002949 0.001954
# 5 0.000177 0.000307 0.005011 0.002949 0.019321 -0.001661
# 6 0.001934 0.002365 -0.001080 0.001954 -0.001661 0.020109
#
#
# Mechanical properties :
#
#
# Convention : Reuss Voigt Hill
#
# Bulk Modulus (GPa) = 52.67335 65.66893 59.17114
# Shear Modulus (GPa) = 43.36143 49.37830 46.36987
#
# Velocity S-wave (km/s) = 4.15081 4.42945 4.29239
# Velocity P-wave (km/s) = 6.62583 7.22862 6.93377
#
# Compressibility (1/GPa) = 0.01898493
#
# Stress axis : x y z
#
# Youngs Moduli (GPa) = 87.59160 84.32982 98.97357
#
# Poissons Ratio (x) = 0.22630 0.20180
# Poissons Ratio (y) = 0.23506 0.24490
# Poissons Ratio (z) = 0.17859 0.20866
#
# Static dielectric constant tensor:
#      x y z
#    x 2.066800 0.096120 0.008780 
#    y 0.096120 2.048480 -0.032240 
#    z 0.008780 -0.032240 1.992820 
# 
# From -- ./inp_files/582420.got.cif
#   From: 2010.05.17/outbox.cif.g08.bks.cpg/sg2_292_cif.got.tgz:582420.got - 2010.06.03 11:33:40.
