data_PCOD9109000
_publ_section_title
;
Structure prediction by ZEFSAII (Michael W. Deem and Ramdas Pophale) SiO2 
 PCOD9109000
Probable space group: P -1
;
_chemical_formula_sum "Si O2"
_cell_formula_units_Z 14
_cell_length_a 16.782186
_cell_length_b 13.536811
_cell_length_c 15.689112
_cell_angle_alpha 27.247618
_cell_angle_beta 156.485402
_cell_angle_gamma 155.050764
_cell_volume 563.559284
_symmetry_space_group_name_H-M "P -1"
_symmetry_group_IT_number 2
_symmetry_cell_setting 'triclinic'
loop_
_space_group_symop_operation_xyz
x,y,z
-x,-y,-z
loop_
_atom_site_type_symbol
_atom_site_label
_atom_site_fract_x
_atom_site_fract_y
_atom_site_fract_z
Si Si1 0.629186 0.369058 0.183897
Si Si2 0.171018 0.116403 0.830200
Si Si3 0.263573 0.926577 0.710275
Si Si4 0.107866 0.643140 0.202899
Si Si5 0.331324 0.138996 0.790726
Si Si6 0.497869 0.619970 0.498270
Si Si7 0.136481 0.605310 0.445917
O O1 0.438254 0.202779 0.054339
O O2 0.703163 0.254493 0.423171
O O3 0.877723 0.556005 0.242854
O O4 0.500000 0.500000 0.000000
O O5 0.040117 0.845346 0.951858
O O6 0.166601 0.110852 0.727835
O O7 0.119081 0.333036 0.640126
O O8 0.100543 0.633206 0.771281
O O9 0.211697 0.021244 0.674759
O O10 0.301096 0.095940 0.534617
O O11 0.523787 0.986181 0.940191
O O12 0.268477 0.621580 0.304215
O O13 0.227830 0.720080 0.354656
O O14 0.504215 0.430036 0.717725
O O15 0.500000 0.500000 0.500000
#
# Coordination Sequence:
#
# PCOD9109000 Si02
#       7
#     2   2   2   2   2   2   2
#     4   9  21  45  73  92 136 166 213 281 333 403
#     4  11  22  41  65 100 135 172 220 275 329 399
#     4  10  23  40  60  90 134 177 225 273 318 389
#     4  12  24  40  65  98 135 175 224 269 327 399
#     4  10  20  41  61  90 130 177 222 271 330 373
#     4  10  22  41  61  90 130 178 225 268 321 378
#     4  10  22  43  68 102 127 172 221 268 342 398
#
# _framework density 24.842106000000001
#
# number of rings (size 3 to 8) (size 9 to 14) (size 15 to 20)
#    0.000    1.714    2.857    0.857    0.000    4.571 
#    0.000    6.429    0.000    0.000    0.000    0.000 
#    0.000    0.000    0.000    0.000    0.000    0.000 
#
# Total GULP energy -78196.535513 kJ/mol
# GULP energy per Si atom -5585.466822 kJ/mol
# Density = 2.478556 g / cm^3
# Si number density = 24.842106 Si / 1000 Ang^3
#
#
#
# Elastic Constant Matrix: (Units=GPa)
#
#
# Indices 1 2 3 4 5 6 
#
# 1 125.6060 16.6469 27.3471 -7.6142 -10.2341 11.7865
# 2 16.6469 92.7873 23.3870 -11.1216 -18.3470 13.9460
# 3 27.3471 23.3870 120.4104 -11.6575 -3.9649 16.1746
# 4 -7.6142 -11.1216 -11.6575 42.5277 15.1340 -8.1773
# 5 -10.2341 -18.3470 -3.9649 15.1340 53.2306 0.7287
# 6 11.7865 13.9460 16.1746 -8.1773 0.7287 34.2727
#
#
#
# Elastic Compliance Matrix: (Units=1/GPa)
#
#
# Indices 1 2 3 4 5 6 
#
# 1 0.008679 -0.000587 -0.001530 0.000112 0.001348 -0.002026
# 2 -0.000587 0.012789 -0.001599 0.000541 0.004080 -0.004205
# 3 -0.001530 -0.001599 0.009487 0.001537 -0.000536 -0.002922
# 4 0.000112 0.000541 0.001537 0.027965 -0.007709 0.005852
# 5 0.001348 0.004080 -0.000536 -0.007709 0.022661 -0.004192
# 6 -0.002026 -0.004205 -0.002922 0.005852 -0.004192 0.034450
#
#
# Mechanical properties :
#
#
# Convention : Reuss Voigt Hill
#
# Bulk Modulus (GPa) = 42.51134 52.61842 47.56488
# Shear Modulus (GPa) = 38.07949 44.10106 41.09027
#
# Velocity S-wave (km/s) = 3.91942 4.21795 4.07142
# Velocity P-wave (km/s) = 6.13452 6.70437 6.42576
#
# Compressibility (1/GPa) = 0.02352313
#
# Stress axis : x y z
#
# Youngs Moduli (GPa) = 115.22064 78.19027 105.41110
#
# Poissons Ratio (x) = 0.04590 0.16126
# Poissons Ratio (y) = 0.06764 0.16857
# Poissons Ratio (z) = 0.17626 0.12504
#
# Static dielectric constant tensor:
#      x y z
#    x 1.980270 -0.048000 -0.008620 
#    y -0.048000 2.026870 0.050930 
#    z -0.008620 0.050930 2.011370 
# 
# From -- ./inp_files/601644.got.cif
#   From: 2010.05.17/outbox.cif.g08.bks.cpg/sg2_301_cif.got.tgz:601644.got - 2010.06.03 11:33:40.
