data_PCOD9109154
_publ_section_title
;
Structure prediction by ZEFSAII (Michael W. Deem and Ramdas Pophale) SiO2 
 PCOD9109154
Probable space group: P -1
;
_chemical_formula_sum "Si O2"
_cell_formula_units_Z 14
_cell_length_a 6.284309
_cell_length_b 7.667214
_cell_length_c 22.805380
_cell_angle_alpha 132.684292
_cell_angle_beta 112.707717
_cell_angle_gamma 95.911113
_cell_volume 628.205141
_symmetry_space_group_name_H-M "P -1"
_symmetry_group_IT_number 2
_symmetry_cell_setting 'triclinic'
loop_
_space_group_symop_operation_xyz
x,y,z
-x,-y,-z
loop_
_atom_site_type_symbol
_atom_site_label
_atom_site_fract_x
_atom_site_fract_y
_atom_site_fract_z
Si Si1 0.420267 0.109591 0.072705
Si Si2 0.605084 0.879342 0.533265
Si Si3 0.471548 0.998579 0.664594
Si Si4 0.658791 0.438817 0.365309
Si Si5 0.118015 0.325835 0.014765
Si Si6 0.205284 0.353255 0.695683
Si Si7 0.839054 0.118739 0.830836
O O1 0.668263 0.344792 0.191773
O O2 0.293229 0.270399 0.065052
O O3 0.186683 0.858963 0.030831
O O4 0.500000 0.000000 0.000000
O O5 0.439481 0.832713 0.564173
O O6 0.610988 0.621480 0.447833
O O7 0.500000 0.000000 0.500000
O O8 0.913414 0.123258 0.637398
O O9 0.275742 0.767324 0.639965
O O10 0.400187 0.230809 0.696893
O O11 0.771227 0.119730 0.754759
O O12 0.840389 0.623674 0.373171
O O13 0.369202 0.208209 0.251688
O O14 0.104392 0.219200 0.922154
O O15 0.228364 0.654041 0.101351
#
# Coordination Sequence:
#
# PCOD9109154 Si02
#       7
#     2   2   2   2   2   2   2
#     4  11  23  36  65  96 124 168 213 258 319 381
#     4  12  26  42  70  98 129 168 220 271 324 384
#     4  10  23  45  66  93 132 169 217 262 322 381
#     4  10  22  44  66  95 127 174 214 262 326 376
#     4  10  20  41  63  91 129 168 208 262 317 375
#     4  12  24  45  65  95 135 170 214 272 320 383
#     4   9  20  39  68  87 129 171 210 260 320 379
#
# _framework density 22.285713000000001
#
# number of rings (size 3 to 8) (size 9 to 14) (size 15 to 20)
#    0.857    0.571    4.286    0.857    2.000    1.714 
#    2.571    4.286    3.143    0.000    0.000    0.000 
#    0.000    0.000    0.000    0.000    0.000    0.000 
#
# Total GULP energy -77968.773046 kJ/mol
# GULP energy per Si atom -5569.198075 kJ/mol
# Density = 2.223499 g / cm^3
# Si number density = 22.285713 Si / 1000 Ang^3
#
#
#
# Elastic Constant Matrix: (Units=GPa)
#
#
# Indices 1 2 3 4 5 6 
#
# 1 25.4297 9.5076 29.2529 2.9162 -11.0808 6.1607
# 2 9.5076 105.4363 15.4703 -18.2559 -15.4502 8.9411
# 3 29.2529 15.4703 113.8094 -0.3575 -9.5233 7.5659
# 4 2.9162 -18.2559 -0.3575 45.3563 0.1357 -6.6847
# 5 -11.0808 -15.4502 -9.5233 0.1357 22.1235 -4.4251
# 6 6.1607 8.9411 7.5659 -6.6847 -4.4251 4.3388
#
#
#
# Elastic Compliance Matrix: (Units=1/GPa)
#
#
# Indices 1 2 3 4 5 6 
#
# 1 0.103725 0.003605 -0.015632 -0.027902 0.017363 -0.152728
# 2 0.003605 0.012136 -0.000726 0.001632 0.005890 -0.020341
# 3 -0.015632 -0.000726 0.012672 0.000800 -0.002916 -0.000145
# 4 -0.027902 0.001632 0.000800 0.039916 0.008213 0.104734
# 5 0.017363 0.005890 -0.002916 0.008213 0.066449 0.048717
# 6 -0.152728 -0.020341 -0.000145 0.104734 0.048717 0.700551
#
#
# Mechanical properties :
#
#
# Convention : Reuss Voigt Hill
#
# Bulk Modulus (GPa) = 9.70633 39.23746 24.47189
# Shear Modulus (GPa) = 5.02362 27.06003 16.04183
#
# Velocity S-wave (km/s) = 1.50302 3.48836 2.68587
# Velocity P-wave (km/s) = 2.71606 5.81977 4.54129
#
# Compressibility (1/GPa) = 0.10302558
#
# Stress axis : x y z
#
# Youngs Moduli (GPa) = 9.64091 82.39636 78.91719
#
# Poissons Ratio (x) = -0.29703 1.23366
# Poissons Ratio (y) = -0.03475 0.05730
# Poissons Ratio (z) = 0.15071 0.05983
#
# Static dielectric constant tensor:
#      x y z
#    x 1.843560 0.003830 0.041180 
#    y 0.003830 1.843530 -0.031930 
#    z 0.041180 -0.031930 1.844130 
# 
# From -- ./inp_files/603922.got.cif
#   From: 2010.05.17/outbox.cif.g08.bks.cpg/sg2_302_cif.got.tgz:603922.got - 2010.06.03 11:33:40.
