data_PCOD9109702
_publ_section_title
;
Structure prediction by ZEFSAII (Michael W. Deem and Ramdas Pophale) SiO2 
 PCOD9109702
Probable space group: P -1
;
_chemical_formula_sum "Si O2"
_cell_formula_units_Z 15
_cell_length_a 12.367282
_cell_length_b 9.288403
_cell_length_c 14.400943
_cell_angle_alpha 108.514996
_cell_angle_beta 115.234019
_cell_angle_gamma 127.406130
_cell_volume 709.471671
_symmetry_space_group_name_H-M "P -1"
_symmetry_group_IT_number 2
_symmetry_cell_setting 'triclinic'
loop_
_space_group_symop_operation_xyz
x,y,z
-x,-y,-z
loop_
_atom_site_type_symbol
_atom_site_label
_atom_site_fract_x
_atom_site_fract_y
_atom_site_fract_z
Si Si1 0.000000 0.500000 0.000000
Si Si2 0.336850 0.460059 0.648620
Si Si3 0.249876 0.648852 0.309034
Si Si4 0.268616 0.354573 0.170819
Si Si5 0.804813 0.546449 0.014625
Si Si6 0.082501 0.217114 0.694368
Si Si7 0.032675 0.580510 0.376252
Si Si8 0.620758 0.143630 0.279767
O O1 0.852676 0.403606 0.836188
O O2 0.040452 0.724757 0.098158
O O3 0.550295 0.581276 0.732407
O O4 0.286218 0.416344 0.732101
O O5 0.382227 0.679139 0.674131
O O6 0.098111 0.122183 0.449475
O O7 0.288831 0.512898 0.284026
O O8 0.064106 0.495644 0.288397
O O9 0.500000 0.000000 0.500000
O O10 0.311805 0.474740 0.109308
O O11 0.000000 0.000000 0.000000
O O12 0.643505 0.215160 0.899120
O O13 0.830423 0.657706 0.144176
O O14 0.954683 0.233974 0.619213
O O15 0.240848 0.779829 0.568083
O O16 0.781803 0.286577 0.277758
#
# Coordination Sequence:
#
# PCOD9109702 Si02
#       8
#     1   2   2   2   2   2   2   2
#     4  10  22  38  64  96 128 158 230 274 310 404
#     4  10  23  42  62  95 136 168 216 265 333 401
#     4  11  22  41  70  94 130 182 222 272 331 397
#     4  11  27  44  61  94 136 172 214 277 332 408
#     4  11  23  41  65  94 121 174 219 272 333 384
#     4  10  21  41  69  93 127 173 210 274 331 395
#     4  10  20  41  66  98 128 169 227 270 334 388
#     4  10  23  39  69  97 127 167 223 286 321 401
#
# _framework density 21.142493000000002
#
# number of rings (size 3 to 8) (size 9 to 14) (size 15 to 20)
#    0.000    1.600    1.333    3.200    3.733    5.867 
#    0.000    1.333    0.000    0.000    0.000    0.000 
#    0.000    0.000    0.000    0.000    0.000    0.000 
#
# Total GULP energy -83628.986976 kJ/mol
# GULP energy per Si atom -5575.265798 kJ/mol
# Density = 2.109437 g / cm^3
# Si number density = 21.142493 Si / 1000 Ang^3
#
#
#
# Elastic Constant Matrix: (Units=GPa)
#
#
# Indices 1 2 3 4 5 6 
#
# 1 140.7872 30.7462 25.8736 -4.6040 -17.0771 -11.1403
# 2 30.7462 74.0264 38.2718 11.5287 -9.0773 -10.8074
# 3 25.8736 38.2718 40.5380 4.2672 -21.2114 -4.1944
# 4 -4.6040 11.5287 4.2672 22.5592 -4.7276 -8.8390
# 5 -17.0771 -9.0773 -21.2114 -4.7276 42.7194 -10.7185
# 6 -11.1403 -10.8074 -4.1944 -8.8390 -10.7185 23.3843
#
#
#
# Elastic Compliance Matrix: (Units=1/GPa)
#
#
# Indices 1 2 3 4 5 6 
#
# 1 0.009605 -0.003625 0.000993 0.008847 0.006952 0.009609
# 2 -0.003625 0.033833 -0.036954 -0.016976 -0.016125 -0.006526
# 3 0.000993 -0.036954 0.080986 0.022492 0.041646 0.025511
# 4 0.008847 -0.016976 0.022492 0.073059 0.029618 0.041594
# 5 0.006952 -0.016125 0.041646 0.029618 0.056907 0.040609
# 6 0.009609 -0.006526 0.025511 0.041594 0.040609 0.083237
#
#
# Mechanical properties :
#
#
# Convention : Reuss Voigt Hill
#
# Bulk Modulus (GPa) = 22.09852 49.45943 35.77897
# Shear Modulus (GPa) = 11.57723 28.42991 20.00357
#
# Velocity S-wave (km/s) = 2.34258 3.67097 3.07926
# Velocity P-wave (km/s) = 4.21803 6.43523 5.44077
#
# Compressibility (1/GPa) = 0.04525190
#
# Stress axis : x y z
#
# Youngs Moduli (GPa) = 104.11090 29.55684 12.34788
#
# Poissons Ratio (x) = 0.10714 -0.01226
# Poissons Ratio (y) = 0.37740 0.45630
# Poissons Ratio (z) = -0.10333 1.09223
#
# Static dielectric constant tensor:
#      x y z
#    x -3.079620 -2.942100 -2.346680 
#    y -2.942100 -0.033640 -1.424530 
#    z -2.346680 -1.424530 0.586610 
# 
# From -- ./inp_files/515964.got.cif
#   From: 2010.05.17/outbox.cif.g08.bks.cpg/sg2_258_cif.got.tgz:515964.got - 2010.06.03 11:33:40.
