data_PCOD9109779
_publ_section_title
;
Structure prediction by ZEFSAII (Michael W. Deem and Ramdas Pophale) SiO2 
 PCOD9109779
Probable space group: P -1
;
_chemical_formula_sum "Si O2"
_cell_formula_units_Z 15
_cell_length_a 22.055122
_cell_length_b 8.415101
_cell_length_c 10.925002
_cell_angle_alpha 42.436490
_cell_angle_beta 151.256185
_cell_angle_gamma 126.357407
_cell_volume 648.691229
_symmetry_space_group_name_H-M "P -1"
_symmetry_group_IT_number 2
_symmetry_cell_setting 'triclinic'
loop_
_space_group_symop_operation_xyz
x,y,z
-x,-y,-z
loop_
_atom_site_type_symbol
_atom_site_label
_atom_site_fract_x
_atom_site_fract_y
_atom_site_fract_z
Si Si1 0.500000 0.500000 0.500000
Si Si2 0.767287 0.985167 0.315786
Si Si3 0.989956 0.246608 0.574087
Si Si4 0.863012 0.245626 0.837139
Si Si5 0.588413 0.745082 0.285544
Si Si6 0.585540 0.304188 0.380906
Si Si7 0.557185 0.102046 0.694622
Si Si8 0.971347 0.661556 0.693152
O O1 0.587895 0.606677 0.489613
O O2 0.447402 0.326148 0.396923
O O3 0.720546 0.812043 0.430533
O O4 0.848079 0.827806 0.442614
O O5 0.856810 0.162498 0.420058
O O6 0.641319 0.138183 0.943079
O O7 0.000000 0.500000 0.500000
O O8 0.002011 0.257683 0.441338
O O9 0.095003 0.036816 0.933206
O O10 0.711520 0.308899 0.523113
O O11 0.936996 0.395953 0.790712
O O12 0.914062 0.316840 0.021289
O O13 0.540692 0.570256 0.199769
O O14 0.500000 0.000000 0.000000
O O15 0.625311 0.143803 0.665241
O O16 0.484169 0.154289 0.231103
#
# Coordination Sequence:
#
# PCOD9109779 Si02
#       8
#     1   2   2   2   2   2   2   2
#     4  10  22  40  58  86 132 174 204 262 322 376
#     4  11  21  43  66  91 126 176 213 265 322 389
#     4  11  25  43  64 100 131 164 214 273 332 384
#     4  10  20  41  67  92 123 167 217 265 313 390
#     4  11  22  42  61  93 132 169 216 261 327 383
#     4  10  21  39  63  96 127 166 221 262 317 387
#     4  10  21  37  63  92 127 171 214 259 321 385
#     4  10  21  41  70  94 119 170 220 259 326 381
#
# _framework density 23.123484000000001
#
# number of rings (size 3 to 8) (size 9 to 14) (size 15 to 20)
#    0.000    1.600    2.667    3.200    0.000    2.133 
#    7.200    0.000    0.000    0.000    0.000    0.000 
#    0.000    0.000    0.000    0.000    0.000    0.000 
#
# Total GULP energy -83563.803195 kJ/mol
# GULP energy per Si atom -5570.920213 kJ/mol
# Density = 2.307085 g / cm^3
# Si number density = 23.123484 Si / 1000 Ang^3
#
#
#
# Elastic Constant Matrix: (Units=GPa)
#
#
# Indices 1 2 3 4 5 6 
#
# 1 99.2999 49.3732 6.0866 -2.9595 -6.4297 41.3366
# 2 49.3732 181.4095 21.1773 -32.8241 17.5972 13.4707
# 3 6.0866 21.1773 33.8297 -14.5223 0.4568 8.8591
# 4 -2.9595 -32.8241 -14.5223 31.6782 5.2243 0.0286
# 5 -6.4297 17.5972 0.4568 5.2243 25.6769 -14.5276
# 6 41.3366 13.4707 8.8591 0.0286 -14.5276 38.1010
#
#
#
# Elastic Compliance Matrix: (Units=1/GPa)
#
#
# Indices 1 2 3 4 5 6 
#
# 1 0.022709 -0.003448 0.007028 0.003250 -0.008814 -0.028417
# 2 -0.003448 0.010539 0.001590 0.013667 -0.014156 -0.005763
# 3 0.007028 0.001590 0.046192 0.026943 -0.020853 -0.026899
# 4 0.003250 0.013667 0.026943 0.064829 -0.038919 -0.029511
# 5 -0.008814 -0.014156 -0.020853 -0.038919 0.083812 0.051403
# 6 -0.028417 -0.005763 -0.026899 -0.029511 0.051403 0.084989
#
#
# Mechanical properties :
#
#
# Convention : Reuss Voigt Hill
#
# Bulk Modulus (GPa) = 11.13818 51.97925 31.55871
# Shear Modulus (GPa) = 15.03049 34.95135 24.99092
#
# Velocity S-wave (km/s) = 2.55229 3.89203 3.29106
# Velocity P-wave (km/s) = 3.67599 6.53644 5.30273
#
# Compressibility (1/GPa) = 0.08978125
#
# Stress axis : x y z
#
# Youngs Moduli (GPa) = 44.03452 94.88436 21.64892
#
# Poissons Ratio (x) = 0.32716 -0.15216
# Poissons Ratio (y) = 0.15183 -0.03442
# Poissons Ratio (z) = -0.30949 -0.15087
#
# Static dielectric constant tensor:
#      x y z
#    x 1.843890 -0.012590 -0.040330 
#    y -0.012590 1.839350 0.062800 
#    z -0.040330 0.062800 1.879000 
# 
# From -- ./inp_files/305769.got.cif
#   From: 2010.05.17/outbox.cif.g08.bks.cpg/sg2_153_cif.got.tgz:305769.got - 2010.06.03 11:33:40.
