data_PCOD9109421
_publ_section_title
;
Structure prediction by ZEFSAII (Michael W. Deem and Ramdas Pophale) SiO2 
 PCOD9109421
Probable space group: P -1
;
_chemical_formula_sum "Si O2"
_cell_formula_units_Z 16
_cell_length_a 7.560018
_cell_length_b 16.693144
_cell_length_c 9.433249
_cell_angle_alpha 42.574065
_cell_angle_beta 110.478170
_cell_angle_gamma 113.110193
_cell_volume 737.231989
_symmetry_space_group_name_H-M "P -1"
_symmetry_group_IT_number 2
_symmetry_cell_setting 'triclinic'
loop_
_space_group_symop_operation_xyz
x,y,z
-x,-y,-z
loop_
_atom_site_type_symbol
_atom_site_label
_atom_site_fract_x
_atom_site_fract_y
_atom_site_fract_z
Si Si1 0.559270 0.736070 0.040956
Si Si2 0.424810 0.903820 0.986300
Si Si3 0.139900 0.259373 0.134772
Si Si4 0.306407 0.816613 0.641462
Si Si5 0.868003 0.326863 0.741694
Si Si6 0.225196 0.421540 0.530542
Si Si7 0.072674 0.382816 0.228697
Si Si8 0.716719 0.958467 0.473325
O O1 0.576757 0.855726 0.988517
O O2 0.594700 0.628689 0.292073
O O3 0.707885 0.733010 0.959691
O O4 0.368162 0.741560 0.890557
O O5 0.307258 0.784369 0.184307
O O6 0.500000 0.000000 0.000000
O O7 0.288234 0.965094 0.768718
O O8 0.126094 0.123123 0.362627
O O9 0.184983 0.339862 0.183107
O O10 0.965551 0.300056 0.952335
O O11 0.113792 0.727181 0.647273
O O12 0.503769 0.863774 0.544978
O O13 0.270209 0.944360 0.523217
O O14 0.792587 0.449539 0.578786
O O15 0.029814 0.337558 0.652429
O O16 0.200426 0.414299 0.364372
O O17 0.000000 0.500000 0.000000
#
# Coordination Sequence:
#
# PCOD9109421 Si02
#       8
#     2   2   2   2   2   2   2   2
#     4   9  21  43  65  89 127 168 204 251 314 383
#     4  11  24  39  63  94 126 158 212 255 304 371
#     4  10  20  41  65  91 122 163 212 250 311 371
#     4   9  20  41  65  87 124 164 204 255 311 367
#     4  10  22  44  65  87 127 171 198 254 319 376
#     4  10  23  42  66  91 126 164 209 256 315 362
#     4  12  24  38  64  97 127 157 216 266 296 363
#     4   9  20  39  64  86 120 166 203 250 314 367
#
# _framework density 21.702802999999999
#
# number of rings (size 3 to 8) (size 9 to 14) (size 15 to 20)
#    0.000    2.000    1.250    2.250    3.500    2.500 
#    0.000    3.750    0.000    0.000    0.000    0.000 
#    0.000    0.000    0.000    0.000    0.000    0.000 
#
# Total GULP energy -89228.820717 kJ/mol
# GULP energy per Si atom -5576.801295 kJ/mol
# Density = 2.165341 g / cm^3
# Si number density = 21.702803 Si / 1000 Ang^3
#
#
#
# Elastic Constant Matrix: (Units=GPa)
#
#
# Indices 1 2 3 4 5 6 
#
# 1 70.9664 -0.4821 -2.1622 -0.1948 -17.3707 -18.4719
# 2 -0.4821 75.3657 15.7635 -0.4133 -4.1746 -12.8378
# 3 -2.1622 15.7635 114.1723 -7.9249 19.1489 -14.8456
# 4 -0.1948 -0.4133 -7.9249 29.8381 -1.6610 -3.5977
# 5 -17.3707 -4.1746 19.1489 -1.6610 44.5158 -9.6089
# 6 -18.4719 -12.8378 -14.8456 -3.5977 -9.6089 31.1251
#
#
#
# Elastic Compliance Matrix: (Units=1/GPa)
#
#
# Indices 1 2 3 4 5 6 
#
# 1 0.022629 0.004218 0.000418 0.003471 0.013477 0.019930
# 2 0.004218 0.015738 -0.001692 0.001370 0.006109 0.010232
# 3 0.000418 -0.001692 0.010276 0.002961 -0.003504 0.003712
# 4 0.003471 0.001370 0.002961 0.035654 0.003536 0.009250
# 5 0.013477 0.006109 -0.003504 0.003536 0.034213 0.019818
# 6 0.019930 0.010232 0.003712 0.009250 0.019818 0.057135
#
#
# Mechanical properties :
#
#
# Convention : Reuss Voigt Hill
#
# Bulk Modulus (GPa) = 18.33827 31.86032 25.09930
# Shear Modulus (GPa) = 26.60500 37.58813 32.09657
#
# Velocity S-wave (km/s) = 3.50505 4.16618 3.84984
# Velocity P-wave (km/s) = 4.98484 6.15264 5.59926
#
# Compressibility (1/GPa) = 0.05453077
#
# Stress axis : x y z
#
# Youngs Moduli (GPa) = 44.19172 63.53897 97.31249
#
# Poissons Ratio (x) = -0.26799 -0.04070
# Poissons Ratio (y) = -0.18639 0.16467
# Poissons Ratio (z) = -0.01848 0.10752
#
# Static dielectric constant tensor:
#      x y z
#    x 1.871100 0.015000 -0.060920 
#    y 0.015000 1.789910 0.001180 
#    z -0.060920 0.001180 1.840830 
# 
# From -- ./inp_files/205416.got.cif
#   From: 2010.05.17/outbox.cif.g08.bks.cpg/sg2_103_cif.got.tgz:205416.got - 2010.06.03 11:33:40.
