data_PCOD9109559
_publ_section_title
;
Structure prediction by ZEFSAII (Michael W. Deem and Ramdas Pophale) SiO2 
 PCOD9109559
Probable space group: P -1
;
_chemical_formula_sum "Si O2"
_cell_formula_units_Z 16
_cell_length_a 12.130658
_cell_length_b 15.120030
_cell_length_c 8.770980
_cell_angle_alpha 99.990970
_cell_angle_beta 39.361504
_cell_angle_gamma 122.630659
_cell_volume 764.825855
_symmetry_space_group_name_H-M "P -1"
_symmetry_group_IT_number 2
_symmetry_cell_setting 'triclinic'
loop_
_space_group_symop_operation_xyz
x,y,z
-x,-y,-z
loop_
_atom_site_type_symbol
_atom_site_label
_atom_site_fract_x
_atom_site_fract_y
_atom_site_fract_z
Si Si1 0.754535 0.454525 0.705362
Si Si2 0.406124 0.260383 0.819964
Si Si3 0.881311 0.698028 0.670908
Si Si4 0.777556 0.119494 0.436430
Si Si5 0.350171 0.277560 0.321045
Si Si6 0.782622 0.965026 0.625112
Si Si7 0.695082 0.969607 0.034818
Si Si8 0.114950 0.190419 0.832097
O O1 0.660950 0.373033 0.629625
O O2 0.783176 0.570436 0.688311
O O3 0.000000 0.500000 0.500000
O O4 0.573738 0.379459 0.015635
O O5 0.347871 0.151087 0.941206
O O6 0.300787 0.207195 0.750715
O O7 0.273914 0.303755 0.037716
O O8 0.857878 0.758542 0.574425
O O9 0.126233 0.776101 0.512355
O O10 0.514350 0.050425 0.665986
O O11 0.814605 0.037341 0.463196
O O12 0.934725 0.176889 0.135329
O O13 0.356235 0.172089 0.304957
O O14 0.278541 0.294529 0.565994
O O15 0.671972 0.985317 0.886062
O O16 0.000000 0.000000 0.500000
O O17 0.937994 0.072758 0.884003
#
# Coordination Sequence:
#
# PCOD9109559 Si02
#       8
#     2   2   2   2   2   2   2   2
#     4  11  23  44  68  93 118 154 213 275 313 347
#     4  10  21  39  63  90 118 168 212 246 306 374
#     4  10  20  41  66  88 116 162 218 254 298 367
#     4  11  24  37  59  97 132 167 198 259 314 356
#     4  11  22  39  64  93 118 166 212 251 303 376
#     4  12  20  38  63  92 126 161 219 251 294 377
#     4  12  21  38  59  93 132 164 206 258 306 356
#     4  11  24  39  59  91 133 173 201 239 313 395
#
# _framework density 20.919795000000001
#
# number of rings (size 3 to 8) (size 9 to 14) (size 15 to 20)
#    0.000    1.000    5.000    4.125    1.750    0.000 
#    0.000    6.250    0.000    0.000    0.000    0.000 
#    0.000    0.000    0.000    0.000    0.000    0.000 
#
# Total GULP energy -89085.215337 kJ/mol
# GULP energy per Si atom -5567.825959 kJ/mol
# Density = 2.087218 g / cm^3
# Si number density = 20.919795 Si / 1000 Ang^3
#
#
#
# Elastic Constant Matrix: (Units=GPa)
#
#
# Indices 1 2 3 4 5 6 
#
# 1 84.3523 34.4978 36.1678 -1.9217 -7.2722 20.5634
# 2 34.4978 92.2159 11.9622 -15.0943 -3.2999 -1.1344
# 3 36.1678 11.9622 100.8797 -1.1061 6.1371 7.6264
# 4 -1.9217 -15.0943 -1.1061 22.5109 5.0021 -2.4014
# 5 -7.2722 -3.2999 6.1371 5.0021 39.7583 -1.7141
# 6 20.5634 -1.1344 7.6264 -2.4014 -1.7141 25.0360
#
#
#
# Elastic Compliance Matrix: (Units=1/GPa)
#
#
# Indices 1 2 3 4 5 6 
#
# 1 0.022578 -0.008891 -0.006070 -0.007193 0.004480 -0.017481
# 2 -0.008891 0.015955 0.000847 0.011241 -0.001470 0.008745
# 3 -0.006070 0.000847 0.012093 0.001454 -0.003035 0.001272
# 4 -0.007193 0.011241 0.001454 0.054103 -0.006953 0.010688
# 5 0.004480 -0.001470 -0.003035 -0.006953 0.027122 -0.001632
# 6 -0.017481 0.008745 0.001272 0.010688 -0.001632 0.055223
#
#
# Mechanical properties :
#
#
# Convention : Reuss Voigt Hill
#
# Bulk Modulus (GPa) = 44.64668 49.18930 46.91799
# Shear Modulus (GPa) = 22.44483 30.44906 26.44694
#
# Velocity S-wave (km/s) = 3.27907 3.81926 3.55943
# Velocity P-wave (km/s) = 5.97700 6.55845 6.27447
#
# Compressibility (1/GPa) = 0.02239808
#
# Stress axis : x y z
#
# Youngs Moduli (GPa) = 44.29089 62.67538 82.69193
#
# Poissons Ratio (x) = 0.55725 0.50197
# Poissons Ratio (y) = 0.39379 -0.07006
# Poissons Ratio (z) = 0.26886 -0.05310
#
# Static dielectric constant tensor:
#      x y z
#    x 1.789990 0.053910 0.007470 
#    y 0.053910 1.784940 0.029020 
#    z 0.007470 0.029020 1.883090 
# 
# From -- ./inp_files/273296.got.cif
#   From: 2010.05.17/outbox.cif.g08.bks.cpg/sg2_137_cif.got.tgz:273296.got - 2010.06.03 11:33:40.
