data_PCOD9109882
_publ_section_title
;
Structure prediction by ZEFSAII (Michael W. Deem and Ramdas Pophale) SiO2 
 PCOD9109882
Probable space group: P -1
;
_chemical_formula_sum "Si O2"
_cell_formula_units_Z 15
_cell_length_a 19.583539
_cell_length_b 5.933223
_cell_length_c 11.170942
_cell_angle_alpha 98.631283
_cell_angle_beta 148.376885
_cell_angle_gamma 69.923397
_cell_volume 611.979992
_symmetry_space_group_name_H-M "P -1"
_symmetry_group_IT_number 2
_symmetry_cell_setting 'triclinic'
loop_
_space_group_symop_operation_xyz
x,y,z
-x,-y,-z
loop_
_atom_site_type_symbol
_atom_site_label
_atom_site_fract_x
_atom_site_fract_y
_atom_site_fract_z
Si Si1 0.924296 0.688701 0.122397
Si Si2 0.106667 0.251782 0.502157
Si Si3 0.707362 0.587418 0.629996
Si Si4 0.510748 0.097936 0.282569
Si Si5 0.209153 0.752363 0.482823
Si Si6 0.238560 0.969494 0.901879
Si Si7 0.500000 0.500000 0.500000
Si Si8 0.347141 0.461775 0.890681
O O1 0.960171 0.478925 0.264194
O O2 0.071441 0.692259 0.299702
O O3 0.828447 0.955371 0.061551
O O4 0.841832 0.614606 0.891764
O O5 0.221953 0.367017 0.695592
O O6 0.157149 0.043182 0.457846
O O7 0.118110 0.104012 0.631166
O O8 0.748376 0.337292 0.594606
O O9 0.596740 0.603169 0.569475
O O10 0.634401 0.821461 0.450300
O O11 0.527156 0.272895 0.423783
O O12 0.487498 0.231933 0.129044
O O13 0.364343 0.062845 0.085747
O O14 0.331265 0.595353 0.749823
O O15 0.308499 0.677512 0.951228
#
# Coordination Sequence:
#
# PCOD9109882 Si02
#       8
#     2   2   2   2   2   2   1   2
#     4  11  23  40  68 101 139 178 222 280 344 403
#     4   9  21  40  65 103 135 180 226 275 339 399
#     4  12  27  45  67 101 140 182 228 276 335 414
#     4  11  24  43  68 101 134 177 232 277 336 397
#     4  10  24  45  68 101 140 178 225 277 344 404
#     4  10  20  41  68 102 137 172 231 279 337 400
#     4  12  26  44  68  96 134 184 224 278 332 392
#     4   9  21  42  72  99 138 179 222 285 339 398
#
# _framework density 24.510603
#
# number of rings (size 3 to 8) (size 9 to 14) (size 15 to 20)
#    0.000    1.600    1.333    2.000    1.867   11.200 
#    0.000    9.333    0.000    0.000    0.000    0.000 
#    0.000    0.000    0.000    0.000    0.000    0.000 
#
# Total GULP energy -83766.946994 kJ/mol
# GULP energy per Si atom -5584.463133 kJ/mol
# Density = 2.445482 g / cm^3
# Si number density = 24.510603 Si / 1000 Ang^3
#
#
#
# Elastic Constant Matrix: (Units=GPa)
#
#
# Indices 1 2 3 4 5 6 
#
# 1 76.1168 20.1089 4.5653 13.8721 9.5561 -4.9344
# 2 20.1089 114.5422 37.2570 29.9396 -4.2181 -5.9449
# 3 4.5653 37.2570 90.0440 3.3728 14.7993 -5.2639
# 4 13.8721 29.9396 3.3728 32.9213 -0.3647 -14.2687
# 5 9.5561 -4.2181 14.7993 -0.3647 7.4925 15.8419
# 6 -4.9344 -5.9449 -5.2639 -14.2687 15.8419 33.4275
#
#
#
# Elastic Compliance Matrix: (Units=1/GPa)
#
#
# Indices 1 2 3 4 5 6 
#
# 1 0.012251 0.002100 -0.004185 -0.010968 0.015212 -0.010368
# 2 0.002100 0.008949 0.000909 -0.004458 -0.023656 0.011353
# 3 -0.004185 0.000909 0.005344 -0.006394 0.029680 -0.016410
# 4 -0.010968 -0.004458 -0.006394 0.036803 0.042357 -0.007783
# 5 0.015212 -0.023656 0.029680 0.042357 -0.109518 0.072694
# 6 -0.010368 0.011353 -0.016410 -0.007783 0.072694 -0.009953
#
#
# Mechanical properties :
#
#
# Convention : Reuss Voigt Hill
#
# Bulk Modulus (GPa) = 41.33728 44.95170 43.14449
# Shear Modulus (GPa) = -109.39136 29.35307 -40.01915
#
# Velocity S-wave (km/s) = -6.68783 3.46434 -4.04509
# Velocity P-wave (km/s) = 6.53716 5.86359 2.04362
#
# Compressibility (1/GPa) = 0.02419124
#
# Stress axis : x y z
#
# Youngs Moduli (GPa) = 81.62582 111.73832 187.13348
#
# Poissons Ratio (x) = -0.23460 0.78322
# Poissons Ratio (y) = -0.17138 -0.17015
# Poissons Ratio (z) = 0.34163 -0.10160
#
# Static dielectric constant tensor:
#      x y z
#    x 1.919800 0.029850 -0.020240 
#    y 0.029850 1.892420 -0.042580 
#    z -0.020240 -0.042580 1.959600 
# 
# From -- ./inp_files/71941.got.cif
#   From: 2010.05.17/outbox.cif.g08.bks.cpg/sg2_36_cif.got.tgz:71941.got - 2010.06.03 11:33:40.
