data_PCOD9109118
_publ_section_title
;
Structure prediction by ZEFSAII (Michael W. Deem and Ramdas Pophale) SiO2 
 PCOD9109118
Probable space group: P -1
;
_chemical_formula_sum "Si O2"
_cell_formula_units_Z 15
_cell_length_a 14.580663
_cell_length_b 8.587769
_cell_length_c 14.322394
_cell_angle_alpha 97.431911
_cell_angle_beta 30.019683
_cell_angle_gamma 116.747627
_cell_volume 651.128841
_symmetry_space_group_name_H-M "P -1"
_symmetry_group_IT_number 2
_symmetry_cell_setting 'triclinic'
loop_
_space_group_symop_operation_xyz
x,y,z
-x,-y,-z
loop_
_atom_site_type_symbol
_atom_site_label
_atom_site_fract_x
_atom_site_fract_y
_atom_site_fract_z
Si Si1 0.845792 0.985279 0.547446
Si Si2 0.527843 0.230245 0.585210
Si Si3 0.698200 0.277024 0.941981
Si Si4 0.750578 0.548100 0.765497
Si Si5 0.500000 0.500000 0.500000
Si Si6 0.946537 0.563982 0.914437
Si Si7 0.024534 0.758910 0.044033
Si Si8 0.175572 0.367102 0.512005
O O1 0.783937 0.795184 0.527440
O O2 0.591700 0.919228 0.799035
O O3 0.000000 0.000000 0.500000
O O4 0.025837 0.222087 0.366704
O O5 0.486265 0.311906 0.537359
O O6 0.760302 0.251065 0.356802
O O7 0.634866 0.410962 0.582961
O O8 0.274923 0.001384 0.825470
O O9 0.726590 0.367993 0.822150
O O10 0.786338 0.459969 0.954145
O O11 0.891328 0.247796 0.781064
O O12 0.795297 0.570026 0.617728
O O13 0.500000 0.500000 0.000000
O O14 0.791613 0.688027 0.300895
O O15 0.909276 0.372267 0.982094
O O16 0.885386 0.651396 0.056758
#
# Coordination Sequence:
#
# PCOD9109118 Si02
#       8
#     2   2   2   2   1   2   2   2
#     4  10  22  42  62  87 126 166 200 265 313 365
#     4  10  21  41  60  91 123 160 209 251 313 367
#     4  11  22  42  63  95 125 162 217 256 311 379
#     4  11  22  43  61  92 125 162 209 257 315 377
#     4  10  22  36  56  94 120 156 206 244 306 368
#     4   9  22  39  62  90 121 160 211 253 302 376
#     4  10  20  41  63  86 129 162 200 259 306 370
#     4  10  23  42  64  90 129 164 211 262 306 381
#
# _framework density 23.036916000000002
#
# number of rings (size 3 to 8) (size 9 to 14) (size 15 to 20)
#    0.000    1.867    2.667    1.200    1.867    4.267 
#   12.000    0.000    0.000    0.000    0.000    0.000 
#    0.000    0.000    0.000    0.000    0.000    0.000 
#
# Total GULP energy -83567.404076 kJ/mol
# GULP energy per Si atom -5571.160272 kJ/mol
# Density = 2.298448 g / cm^3
# Si number density = 23.036916 Si / 1000 Ang^3
#
#
#
# Elastic Constant Matrix: (Units=GPa)
#
#
# Indices 1 2 3 4 5 6 
#
# 1 38.8355 9.6723 13.8560 -4.1182 4.1785 12.7624
# 2 9.6723 49.3541 27.7991 -1.9915 3.3962 5.5167
# 3 13.8560 27.7991 140.8898 -34.6742 -13.0181 -18.1561
# 4 -4.1182 -1.9915 -34.6742 36.8500 0.7499 8.9084
# 5 4.1785 3.3962 -13.0181 0.7499 29.4440 7.8999
# 6 12.7624 5.5167 -18.1561 8.9084 7.8999 29.7886
#
#
#
# Elastic Compliance Matrix: (Units=1/GPa)
#
#
# Indices 1 2 3 4 5 6 
#
# 1 0.034268 -0.001897 -0.004529 0.003783 -0.001996 -0.017693
# 2 -0.001897 0.025275 -0.006862 -0.003808 -0.004014 -0.005847
# 3 -0.004529 -0.006862 0.012467 0.009113 0.004893 0.006787
# 4 0.003783 -0.003808 0.009113 0.037762 0.005119 -0.008012
# 5 -0.001996 -0.004014 0.004893 0.005119 0.038676 -0.007207
# 6 -0.017693 -0.005847 0.006787 -0.008012 -0.007207 0.050676
#
#
# Mechanical properties :
#
#
# Convention : Reuss Voigt Hill
#
# Bulk Modulus (GPa) = 22.01024 36.85935 29.43480
# Shear Modulus (GPa) = 20.76028 31.06668 25.91348
#
# Velocity S-wave (km/s) = 3.00521 3.67626 3.35754
# Velocity P-wave (km/s) = 4.64939 5.83564 5.27596
#
# Compressibility (1/GPa) = 0.04543339
#
# Stress axis : x y z
#
# Youngs Moduli (GPa) = 29.18134 39.56534 80.21384
#
# Poissons Ratio (x) = 0.07506 0.36331
# Poissons Ratio (y) = 0.05536 0.55042
# Poissons Ratio (z) = 0.13217 0.27149
#
# Static dielectric constant tensor:
#      x y z
#    x 2.209260 0.136110 0.280020 
#    y 0.136110 1.932100 0.130870 
#    z 0.280020 0.130870 2.190070 
# 
# From -- ./inp_files/313219.got.cif
#   From: 2010.05.17/outbox.cif.g08.bks.cpg/sg2_157_cif.got.tgz:313219.got - 2010.06.03 11:33:40.
