data_PCOD9109222
_publ_section_title
;
Structure prediction by ZEFSAII (Michael W. Deem and Ramdas Pophale) SiO2 
 PCOD9109222
Probable space group: P -1
;
_chemical_formula_sum "Si O2"
_cell_formula_units_Z 16
_cell_length_a 10.921895
_cell_length_b 14.645256
_cell_length_c 13.746423
_cell_angle_alpha 44.830231
_cell_angle_beta 150.477932
_cell_angle_gamma 122.371817
_cell_volume 742.430203
_symmetry_space_group_name_H-M "P -1"
_symmetry_group_IT_number 2
_symmetry_cell_setting 'triclinic'
loop_
_space_group_symop_operation_xyz
x,y,z
-x,-y,-z
loop_
_atom_site_type_symbol
_atom_site_label
_atom_site_fract_x
_atom_site_fract_y
_atom_site_fract_z
Si Si1 0.638352 0.989132 0.499928
Si Si2 0.478952 0.721726 0.797755
Si Si3 0.944240 0.720936 0.988525
Si Si4 0.804179 0.477891 0.300752
Si Si5 0.558511 0.263115 0.745349
Si Si6 0.987808 0.430493 0.239797
Si Si7 0.384986 0.030545 0.708336
Si Si8 0.196352 0.790851 0.836373
O O1 0.855058 0.854776 0.763110
O O2 0.491159 0.973636 0.310329
O O3 0.500000 0.000000 0.500000
O O4 0.700993 0.133230 0.416941
O O5 0.746301 0.743392 0.923998
O O6 0.331866 0.643061 0.682560
O O7 0.582896 0.612718 0.034307
O O8 0.244715 0.705562 0.222472
O O9 0.916236 0.579538 0.033891
O O10 0.000000 0.500000 0.500000
O O11 0.933422 0.446232 0.306739
O O12 0.285989 0.365542 0.477801
O O13 0.514246 0.116337 0.804911
O O14 0.688382 0.264829 0.938628
O O15 0.839323 0.330390 0.163694
O O16 0.089282 0.112304 0.429514
O O17 0.375153 0.884427 0.848300
#
# Coordination Sequence:
#
# PCOD9109222 Si02
#       8
#     2   2   2   2   2   2   2   2
#     4  10  20  41  64  86 123 175 205 251 316 363
#     4   9  21  41  64  89 126 164 210 258 306 371
#     4  10  21  42  61  88 131 165 206 252 312 375
#     4  10  21  42  66  96 122 160 212 265 310 363
#     4  11  22  40  62  97 126 164 205 262 321 371
#     4  10  23  39  63  94 124 163 211 257 314 378
#     4  10  21  39  62  92 125 158 215 262 306 377
#     4  10  21  40  64  88 124 167 204 261 319 363
#
# _framework density 21.550847999999998
#
# number of rings (size 3 to 8) (size 9 to 14) (size 15 to 20)
#    0.000    2.000    1.250    1.500    0.000    4.500 
#   15.750    1.250    0.000    0.000    0.000    0.000 
#    0.000    0.000    0.000    0.000    0.000    0.000 
#
# Total GULP energy -89153.699705 kJ/mol
# GULP energy per Si atom -5572.106232 kJ/mol
# Density = 2.150180 g / cm^3
# Si number density = 21.550848 Si / 1000 Ang^3
#
#
#
# Elastic Constant Matrix: (Units=GPa)
#
#
# Indices 1 2 3 4 5 6 
#
# 1 84.5842 31.5893 23.6050 8.2568 13.0749 -3.6511
# 2 31.5893 146.0449 62.8218 -16.1443 1.4281 -17.8774
# 3 23.6050 62.8218 70.6794 -11.0943 6.0770 -14.1762
# 4 8.2568 -16.1443 -11.0943 50.7313 -4.3852 0.4541
# 5 13.0749 1.4281 6.0770 -4.3852 21.6857 12.2505
# 6 -3.6511 -17.8774 -14.1762 0.4541 12.2505 28.9912
#
#
#
# Elastic Compliance Matrix: (Units=1/GPa)
#
#
# Indices 1 2 3 4 5 6 
#
# 1 0.015923 -0.002481 -0.001756 -0.004920 -0.012830 0.005115
# 2 -0.002481 0.011743 -0.009329 0.002376 0.003286 0.000941
# 3 -0.001756 -0.009329 0.026908 0.002011 -0.012480 0.012425
# 4 -0.004920 0.002376 0.002011 0.022399 0.007803 -0.001819
# 5 -0.012830 0.003286 -0.012480 0.007803 0.081430 -0.040223
# 6 0.005115 0.000941 0.012425 -0.001819 -0.040223 0.058819
#
#
# Mechanical properties :
#
#
# Convention : Reuss Voigt Hill
#
# Bulk Modulus (GPa) = 36.44161 59.70452 48.07306
# Shear Modulus (GPa) = 19.72372 32.50114 26.11243
#
# Velocity S-wave (km/s) = 3.02854 3.88766 3.48468
# Velocity P-wave (km/s) = 5.40145 6.92214 6.20853
#
# Compressibility (1/GPa) = 0.02744116
#
# Stress axis : x y z
#
# Youngs Moduli (GPa) = 62.80033 85.15938 37.16377
#
# Poissons Ratio (x) = 0.21130 0.06525
# Poissons Ratio (y) = 0.15582 0.34672
# Poissons Ratio (z) = 0.11027 0.79449
#
# Static dielectric constant tensor:
#      x y z
#    x 1.875800 0.026520 0.014340 
#    y 0.026520 1.800820 -0.033570 
#    z 0.014340 -0.033570 1.789040 
# 
# From -- ./inp_files/522312.got.cif
#   From: 2010.05.17/outbox.cif.g08.bks.cpg/sg2_262_cif.got.tgz:522312.got - 2010.06.03 11:33:40.
