data_PCOD9109173
_publ_section_title
;
Structure prediction by ZEFSAII (Michael W. Deem and Ramdas Pophale) SiO2 
 PCOD9109173
Probable space group: P -1
;
_chemical_formula_sum "Si O2"
_cell_formula_units_Z 16
_cell_length_a 12.359161
_cell_length_b 10.021870
_cell_length_c 14.116754
_cell_angle_alpha 135.083275
_cell_angle_beta 48.312107
_cell_angle_gamma 96.367209
_cell_volume 673.547371
_symmetry_space_group_name_H-M "P -1"
_symmetry_group_IT_number 2
_symmetry_cell_setting 'triclinic'
loop_
_space_group_symop_operation_xyz
x,y,z
-x,-y,-z
loop_
_atom_site_type_symbol
_atom_site_label
_atom_site_fract_x
_atom_site_fract_y
_atom_site_fract_z
Si Si1 0.489618 0.773272 0.224835
Si Si2 0.165494 0.759238 0.348022
Si Si3 0.041505 0.670797 0.775473
Si Si4 0.040558 0.873237 0.062907
Si Si5 0.573464 0.092511 0.271261
Si Si6 0.609959 0.224651 0.522134
Si Si7 0.111378 0.283288 0.406859
Si Si8 0.598613 0.240202 0.125295
O O1 0.305035 0.797484 0.328926
O O2 0.458724 0.000114 0.306159
O O3 0.510802 0.775471 0.326713
O O4 0.683509 0.503343 0.932401
O O5 0.042370 0.740186 0.482586
O O6 0.000000 0.000000 0.500000
O O7 0.145325 0.403581 0.530823
O O8 0.035093 0.867510 0.815440
O O9 0.117178 0.666174 0.831791
O O10 0.808271 0.829457 0.999484
O O11 0.841310 0.969324 0.271374
O O12 0.214515 0.783351 0.984041
O O13 0.555872 0.227669 0.446184
O O14 0.540745 0.229435 0.260121
O O15 0.567349 0.486883 0.690950
O O16 0.000000 0.500000 0.500000
O O17 0.311474 0.011852 0.113642
#
# Coordination Sequence:
#
# PCOD9109173 Si02
#       8
#     2   2   2   2   2   2   2   2
#     4  11  23  43  64  90 128 173 209 251 323 381
#     4  11  25  45  64  89 130 171 209 260 317 379
#     4   9  18  35  63  88 123 170 205 251 320 372
#     4   9  19  38  61  88 130 168 199 260 327 363
#     4  10  20  41  63  93 132 168 208 263 314 382
#     4  11  23  39  66  97 128 163 214 262 316 377
#     4  12  20  39  70  93 124 164 211 270 314 372
#     4  11  22  40  66  97 130 162 214 269 316 369
#
# _framework density 23.754826000000001
#
# number of rings (size 3 to 8) (size 9 to 14) (size 15 to 20)
#    0.000    1.500    3.750    3.000    0.000    0.000 
#    4.500    0.625    0.000    4.500    0.000    0.000 
#    0.000    0.000    0.000    0.000    0.000    0.000 
#
# Total GULP energy -89573.051011 kJ/mol
# GULP energy per Si atom -5598.315688 kJ/mol
# Density = 2.370076 g / cm^3
# Si number density = 23.754826 Si / 1000 Ang^3
#
#
#
# Elastic Constant Matrix: (Units=GPa)
#
#
# Indices 1 2 3 4 5 6 
#
# 1 71.6201 21.6409 39.0050 1.8541 4.3254 10.5083
# 2 21.6409 123.7231 26.9750 -13.4169 -2.0232 1.8584
# 3 39.0050 26.9750 106.7463 -2.1577 22.1913 -7.6538
# 4 1.8541 -13.4169 -2.1577 39.7016 2.4437 0.2576
# 5 4.3254 -2.0232 22.1913 2.4437 42.0481 3.3517
# 6 10.5083 1.8584 -7.6538 0.2576 3.3517 29.5378
#
#
#
# Elastic Compliance Matrix: (Units=1/GPa)
#
#
# Indices 1 2 3 4 5 6 
#
# 1 0.020332 -0.001768 -0.008367 -0.002132 0.003130 -0.009627
# 2 -0.001768 0.009184 -0.001985 0.002987 0.001550 -0.000665
# 3 -0.008367 -0.001985 0.015162 0.000981 -0.007925 0.007921
# 4 -0.002132 0.002987 0.000981 0.026453 -0.001755 0.000793
# 5 0.003130 0.001550 -0.007925 -0.001755 0.028335 -0.006465
# 6 -0.009627 -0.000665 0.007921 0.000793 -0.006465 0.040101
#
#
# Mechanical properties :
#
#
# Convention : Reuss Voigt Hill
#
# Bulk Modulus (GPa) = 48.92364 53.03682 50.98023
# Shear Modulus (GPa) = 29.30550 36.55541 32.93046
#
# Velocity S-wave (km/s) = 3.51617 3.92709 3.72730
# Velocity P-wave (km/s) = 6.09299 6.55270 6.32702
#
# Compressibility (1/GPa) = 0.02044002
#
# Stress axis : x y z
#
# Youngs Moduli (GPa) = 49.18418 108.88858 65.95466
#
# Poissons Ratio (x) = 0.19247 0.55182
# Poissons Ratio (y) = 0.08694 0.13089
# Poissons Ratio (z) = 0.41150 0.21609
#
# Static dielectric constant tensor:
#      x y z
#    x 1.931300 0.013050 0.014350 
#    y 0.013050 1.860420 -0.036190 
#    z 0.014350 -0.036190 1.925580 
# 
# From -- ./inp_files/530131.got.cif
#   From: 2010.05.17/outbox.cif.g08.bks.cpg/sg2_266_cif.got.tgz:530131.got - 2010.06.03 11:33:40.
