data_PCOD9109205
_publ_section_title
;
Structure prediction by ZEFSAII (Michael W. Deem and Ramdas Pophale) SiO2 
 PCOD9109205
Probable space group: P -1
;
_chemical_formula_sum "Si O2"
_cell_formula_units_Z 16
_cell_length_a 6.244896
_cell_length_b 8.585277
_cell_length_c 20.076713
_cell_angle_alpha 124.399587
_cell_angle_beta 51.878245
_cell_angle_gamma 102.573413
_cell_volume 684.316776
_symmetry_space_group_name_H-M "P -1"
_symmetry_group_IT_number 2
_symmetry_cell_setting 'triclinic'
loop_
_space_group_symop_operation_xyz
x,y,z
-x,-y,-z
loop_
_atom_site_type_symbol
_atom_site_label
_atom_site_fract_x
_atom_site_fract_y
_atom_site_fract_z
Si Si1 0.086775 0.439973 0.878890
Si Si2 0.759180 0.957549 0.810127
Si Si3 0.257793 0.826940 0.907412
Si Si4 0.998245 0.413689 0.742346
Si Si5 0.169388 0.015111 0.542108
Si Si6 0.253976 0.763247 0.736315
Si Si7 0.871623 0.717443 0.597066
Si Si8 0.534161 0.633473 0.098217
O O1 0.178858 0.646201 0.914483
O O2 0.152145 0.370114 0.774003
O O3 0.266633 0.311963 0.868655
O O4 0.759618 0.494117 0.974470
O O5 0.538084 0.895637 0.888108
O O6 0.844994 0.795446 0.697057
O O7 0.040061 0.945454 0.793513
O O8 0.624841 0.164730 0.854780
O O9 0.296728 0.780111 0.810603
O O10 0.000000 0.000000 0.000000
O O11 0.113240 0.574465 0.717451
O O12 0.684820 0.466940 0.843909
O O13 0.028146 0.223738 0.647620
O O14 0.069316 0.845545 0.558990
O O15 0.500000 0.000000 0.500000
O O16 0.000000 0.000000 0.500000
O O17 0.551486 0.748644 0.641608
O O18 0.000000 0.500000 0.500000
#
# Coordination Sequence:
#
# PCOD9109205 Si02
#       8
#     2   2   2   2   2   2   2   2
#     4  10  23  41  68  98 148 194 245 299 369 443
#     4  11  23  41  68 102 137 185 240 296 365 432
#     4  10  20  41  63  98 142 189 247 291 357 432
#     4  11  24  46  69 102 147 188 252 304 377 439
#     4  12  30  49  78 113 146 195 249 315 381 452
#     4  10  25  43  71 102 140 193 235 305 367 442
#     4  11  26  49  74 102 142 186 241 302 374 450
#     4  11  22  41  66 105 140 193 240 301 365 440
#
# _framework density 23.380986
#
# number of rings (size 3 to 8) (size 9 to 14) (size 15 to 20)
#    0.000    1.250    2.500    1.875    5.250    3.000 
#    2.250    0.000    0.000    0.000    0.000    0.000 
#    0.000    0.000    0.000    0.000    0.000    0.000 
#
# Total GULP energy -89214.985226 kJ/mol
# GULP energy per Si atom -5575.936577 kJ/mol
# Density = 2.332777 g / cm^3
# Si number density = 23.380986 Si / 1000 Ang^3
#
#
#
# Elastic Constant Matrix: (Units=GPa)
#
#
# Indices 1 2 3 4 5 6 
#
# 1 115.6559 63.1313 49.2673 -5.7158 -27.2399 -0.1547
# 2 63.1313 122.1289 47.7717 -4.7396 -13.0717 27.0749
# 3 49.2673 47.7717 85.1041 -2.8350 -8.6283 15.5919
# 4 -5.7158 -4.7396 -2.8350 32.8952 13.9472 -6.4871
# 5 -27.2399 -13.0717 -8.6283 13.9472 55.1235 -3.6108
# 6 -0.1547 27.0749 15.5919 -6.4871 -3.6108 42.9571
#
#
#
# Elastic Compliance Matrix: (Units=1/GPa)
#
#
# Indices 1 2 3 4 5 6 
#
# 1 0.016692 -0.007113 -0.006413 0.000249 0.005980 0.007411
# 2 -0.007113 0.014674 -0.002674 -0.000667 -0.000840 -0.008475
# 3 -0.006413 -0.002674 0.017729 -0.000418 -0.001246 -0.004941
# 4 0.000249 -0.000667 -0.000418 0.034975 -0.008614 0.005131
# 5 0.005980 -0.000840 -0.001246 -0.008614 0.022989 0.001635
# 6 0.007411 -0.008475 -0.004941 0.005131 0.001635 0.031353
#
#
# Mechanical properties :
#
#
# Convention : Reuss Voigt Hill
#
# Bulk Modulus (GPa) = 59.90178 71.46993 65.68585
# Shear Modulus (GPa) = 28.34857 37.04307 32.69582
#
# Velocity S-wave (km/s) = 3.48582 3.98468 3.74357
# Velocity P-wave (km/s) = 6.47122 7.19751 6.84401
#
# Compressibility (1/GPa) = 0.01669399
#
# Stress axis : x y z
#
# Youngs Moduli (GPa) = 59.90990 68.14831 56.40505
#
# Poissons Ratio (x) = 0.48474 0.36175
# Poissons Ratio (y) = 0.42614 0.15082
# Poissons Ratio (z) = 0.38423 0.18222
#
# Static dielectric constant tensor:
#      x y z
#    x 2.111870 0.095740 0.002130 
#    y 0.095740 2.056070 -0.024920 
#    z 0.002130 -0.024920 1.850510 
# 
# From -- ./inp_files/446542.got.cif
#   From: 2010.05.17/outbox.cif.g08.bks.cpg/sg2_224_cif.got.tgz:446542.got - 2010.06.03 11:33:40.
