data_PCOD9109229
_publ_section_title
;
Structure prediction by ZEFSAII (Michael W. Deem and Ramdas Pophale) SiO2 
 PCOD9109229
Probable space group: P -1
;
_chemical_formula_sum "Si O2"
_cell_formula_units_Z 16
_cell_length_a 14.991495
_cell_length_b 8.703998
_cell_length_c 10.652878
_cell_angle_alpha 137.973409
_cell_angle_beta 128.889867
_cell_angle_gamma 77.929738
_cell_volume 629.911595
_symmetry_space_group_name_H-M "P -1"
_symmetry_group_IT_number 2
_symmetry_cell_setting 'triclinic'
loop_
_space_group_symop_operation_xyz
x,y,z
-x,-y,-z
loop_
_atom_site_type_symbol
_atom_site_label
_atom_site_fract_x
_atom_site_fract_y
_atom_site_fract_z
Si Si1 0.064913 0.513568 0.803492
Si Si2 0.908091 0.770978 0.876913
Si Si3 0.404882 0.793485 0.607625
Si Si4 0.778537 0.492418 0.267778
Si Si5 0.321311 0.973006 0.896766
Si Si6 0.165304 0.276335 0.955426
Si Si7 0.730216 0.867174 0.630968
Si Si8 0.513520 0.275003 0.801571
O O1 0.093352 0.340482 0.820417
O O2 0.177113 0.821160 0.107006
O O3 0.086432 0.441454 0.638885
O O4 0.933366 0.530377 0.721899
O O5 0.935351 0.836105 0.085196
O O6 0.767356 0.751816 0.714244
O O7 0.000000 0.000000 0.000000
O O8 0.537803 0.804392 0.784796
O O9 0.288464 0.541584 0.282958
O O10 0.453159 0.024880 0.687352
O O11 0.352230 0.877593 0.734987
O O12 0.767115 0.726064 0.466587
O O13 0.668259 0.386415 0.995531
O O14 0.733717 0.259247 0.188186
O O15 0.222833 0.086091 0.857122
O O16 0.578467 0.789456 0.439659
O O17 0.500000 0.500000 0.000000
#
# Coordination Sequence:
#
# PCOD9109229 Si02
#       8
#     2   2   2   2   2   2   2   2
#     4  11  24  40  63  93 125 164 213 263 310 363
#     4  10  23  43  65  88 121 168 215 263 308 363
#     4  10  21  40  60  94 130 165 204 249 313 371
#     4  10  22  40  63  95 125 166 206 252 313 379
#     4  10  22  38  63  93 130 166 203 252 305 379
#     4  12  23  40  64  91 126 163 207 262 313 370
#     4  10  20  41  64  87 124 166 207 259 304 366
#     4   9  19  36  62  94 127 159 200 250 308 372
#
# _framework density 25.400390999999999
#
# number of rings (size 3 to 8) (size 9 to 14) (size 15 to 20)
#    0.000    1.750    1.250    3.000    3.500    2.000 
#    2.250    2.500    0.000    6.000    0.000    0.000 
#    0.000    0.000    0.000    0.000    0.000    0.000 
#
# Total GULP energy -89588.082804 kJ/mol
# GULP energy per Si atom -5599.255175 kJ/mol
# Density = 2.534258 g / cm^3
# Si number density = 25.400391 Si / 1000 Ang^3
#
#
#
# Elastic Constant Matrix: (Units=GPa)
#
#
# Indices 1 2 3 4 5 6 
#
# 1 112.1068 53.7913 -3.7623 4.7210 -11.6900 -4.6887
# 2 53.7913 135.5543 14.0044 -9.7214 -0.5760 -25.5565
# 3 -3.7623 14.0044 82.6090 8.4258 1.7681 -6.6501
# 4 4.7210 -9.7214 8.4258 41.1821 -11.9677 -1.1047
# 5 -11.6900 -0.5760 1.7681 -11.9677 30.3398 -1.9717
# 6 -4.6887 -25.5565 -6.6501 -1.1047 -1.9717 37.7555
#
#
#
# Elastic Compliance Matrix: (Units=1/GPa)
#
#
# Indices 1 2 3 4 5 6 
#
# 1 0.011897 -0.005321 0.001425 -0.001935 0.003523 -0.001746
# 2 -0.005321 0.011249 -0.002015 0.003937 0.000271 0.006728
# 3 0.001425 -0.002015 0.013004 -0.003761 -0.001672 0.000906
# 4 -0.001935 0.003937 -0.003761 0.029614 0.011440 0.003226
# 5 0.003523 0.000271 -0.001672 0.011440 0.039108 0.002703
# 6 -0.001746 0.006728 0.000906 0.003226 0.002703 0.031219
#
#
# Mechanical properties :
#
#
# Convention : Reuss Voigt Hill
#
# Bulk Modulus (GPa) = 41.10519 50.92635 46.01577
# Shear Modulus (GPa) = 32.04682 39.60459 35.82571
#
# Velocity S-wave (km/s) = 3.55585 3.95297 3.75966
# Velocity P-wave (km/s) = 5.75124 6.39747 6.08294
#
# Compressibility (1/GPa) = 0.02432783
#
# Stress axis : x y z
#
# Youngs Moduli (GPa) = 84.05505 88.89842 76.89887
#
# Poissons Ratio (x) = 0.47305 -0.10960
# Poissons Ratio (y) = 0.44727 0.15496
# Poissons Ratio (z) = -0.11980 0.17914
#
# Static dielectric constant tensor:
#      x y z
#    x 1.958620 -0.029270 0.069160 
#    y -0.029270 1.947650 -0.048320 
#    z 0.069160 -0.048320 2.131340 
# 
# From -- ./inp_files/448426.got.cif
#   From: 2010.05.17/outbox.cif.g08.bks.cpg/sg2_225_cif.got.tgz:448426.got - 2010.06.03 11:33:40.
