data_PCOD9109103
_publ_section_title
;
Structure prediction by ZEFSAII (Michael W. Deem and Ramdas Pophale) SiO2 
 PCOD9109103
Probable space group: P -1
;
_chemical_formula_sum "Si O2"
_cell_formula_units_Z 16
_cell_length_a 14.835364
_cell_length_b 12.409166
_cell_length_c 5.331714
_cell_angle_alpha 70.710875
_cell_angle_beta 81.596536
_cell_angle_gamma 45.055059
_cell_volume 650.108742
_symmetry_space_group_name_H-M "P -1"
_symmetry_group_IT_number 2
_symmetry_cell_setting 'triclinic'
loop_
_space_group_symop_operation_xyz
x,y,z
-x,-y,-z
loop_
_atom_site_type_symbol
_atom_site_label
_atom_site_fract_x
_atom_site_fract_y
_atom_site_fract_z
Si Si1 0.837389 0.679531 0.625923
Si Si2 0.343346 0.188600 0.777415
Si Si3 0.345892 0.771521 0.345903
Si Si4 0.756493 0.537722 0.041862
Si Si5 0.994852 0.753521 0.635176
Si Si6 0.603013 0.029161 0.672125
Si Si7 0.589717 0.489177 0.157694
Si Si8 0.915826 0.960455 0.016269
O O1 0.805172 0.695652 0.334133
O O2 0.943185 0.669771 0.694482
O O3 0.705340 0.862907 0.611078
O O4 0.837789 0.550198 0.823442
O O5 0.336102 0.294271 0.905400
O O6 0.454246 0.138671 0.586301
O O7 0.385016 0.032326 0.002536
O O8 0.351069 0.882245 0.420653
O O9 0.487747 0.637261 0.272882
O O10 0.327156 0.676348 0.596163
O O11 0.232986 0.879097 0.104501
O O12 0.675129 0.509112 0.973561
O O13 0.851861 0.391867 0.308481
O O14 0.938062 0.866903 0.328819
O O15 0.957687 0.852229 0.832211
O O16 0.500000 0.500000 0.000000
O O17 0.000000 0.000000 0.000000
#
# Coordination Sequence:
#
# PCOD9109103 Si02
#       8
#     2   2   2   2   2   2   2   2
#     4  11  24  41  71 101 141 190 237 300 362 429
#     4  10  22  39  67  95 141 184 230 300 357 435
#     4  11  24  45  71 101 142 181 245 297 367 431
#     4  11  26  45  66 104 145 188 246 294 369 435
#     4  12  28  48  76 110 146 195 251 298 361 429
#     4  10  20  41  63 103 135 177 238 289 367 424
#     4  11  27  43  71 103 142 189 236 306 370 435
#     4  12  28  50  79 106 148 197 246 304 358 431
#
# _framework density 24.611270999999999
#
# number of rings (size 3 to 8) (size 9 to 14) (size 15 to 20)
#    0.000    1.000    2.500    2.625    8.750    1.500 
#    0.000    0.000    0.000    0.000    0.000    0.000 
#    0.000    0.000    0.000    0.000    0.000    0.000 
#
# Total GULP energy -89450.203655 kJ/mol
# GULP energy per Si atom -5590.637728 kJ/mol
# Density = 2.455525 g / cm^3
# Si number density = 24.611271 Si / 1000 Ang^3
#
#
#
# Elastic Constant Matrix: (Units=GPa)
#
#
# Indices 1 2 3 4 5 6 
#
# 1 180.8943 24.8062 41.8090 -14.0656 3.2287 39.7167
# 2 24.8062 74.5893 36.6570 -18.9375 -1.0822 9.7491
# 3 41.8090 36.6570 110.8341 -20.0952 3.9633 18.5001
# 4 -14.0656 -18.9375 -20.0952 33.3163 0.7378 1.1444
# 5 3.2287 -1.0822 3.9633 0.7378 37.9760 -3.3721
# 6 39.7167 9.7491 18.5001 1.1444 -3.3721 32.7203
#
#
#
# Elastic Compliance Matrix: (Units=1/GPa)
#
#
# Indices 1 2 3 4 5 6 
#
# 1 0.008128 -0.000300 -0.000725 0.003189 -0.001542 -0.009637
# 2 -0.000300 0.017771 -0.003893 0.007717 0.000527 -0.002946
# 3 -0.000725 -0.003893 0.012510 0.005256 -0.001938 -0.005417
# 4 0.003189 0.007717 0.005256 0.039339 -0.002319 -0.010757
# 5 -0.001542 0.000527 -0.001938 -0.002319 0.027232 0.005698
# 6 -0.009637 -0.002946 -0.005417 -0.010757 0.005698 0.047164
#
#
# Mechanical properties :
#
#
# Convention : Reuss Voigt Hill
#
# Bulk Modulus (GPa) = 34.99652 63.65135 49.32393
# Shear Modulus (GPa) = 29.15392 38.33887 33.74640
#
# Velocity S-wave (km/s) = 3.44550 3.95115 3.70696
# Velocity P-wave (km/s) = 5.48445 6.83625 6.19732
#
# Compressibility (1/GPa) = 0.02857427
#
# Stress axis : x y z
#
# Youngs Moduli (GPa) = 123.02813 56.27044 79.93767
#
# Poissons Ratio (x) = 0.01688 0.05795
# Poissons Ratio (y) = 0.03691 0.31116
# Poissons Ratio (z) = 0.08919 0.21904
#
# Static dielectric constant tensor:
#      x y z
#    x 2.014450 -0.002660 0.056800 
#    y -0.002660 2.015310 0.067870 
#    z 0.056800 0.067870 2.105280 
# 
# From -- ./inp_files/68987.got.cif
#   From: 2010.05.17/outbox.cif.g08.bks.cpg/sg2_35_cif.got.tgz:68987.got - 2010.06.03 11:33:40.
