data_PCOD9109676
_publ_section_title
;
Structure prediction by ZEFSAII (Michael W. Deem and Ramdas Pophale) SiO2 
 PCOD9109676
Probable space group: P -1
;
_chemical_formula_sum "Si O2"
_cell_formula_units_Z 14
_cell_length_a 4.975172
_cell_length_b 28.000199
_cell_length_c 8.239351
_cell_angle_alpha 145.935652
_cell_angle_beta 97.213777
_cell_angle_gamma 86.757808
_cell_volume 635.483805
_symmetry_space_group_name_H-M "P -1"
_symmetry_group_IT_number 2
_symmetry_cell_setting 'triclinic'
loop_
_space_group_symop_operation_xyz
x,y,z
-x,-y,-z
loop_
_atom_site_type_symbol
_atom_site_label
_atom_site_fract_x
_atom_site_fract_y
_atom_site_fract_z
Si Si1 0.583426 0.788185 0.594392
Si Si2 0.855993 0.220924 0.215914
Si Si3 0.245989 0.442433 0.388074
Si Si4 0.465644 0.668251 0.701703
Si Si5 0.724722 0.941624 0.789666
Si Si6 0.105181 0.167596 0.766269
Si Si7 0.153746 0.706099 0.105930
O O1 0.680704 0.857900 0.663932
O O2 0.376027 0.716803 0.292344
O O3 0.859029 0.760766 0.617766
O O4 0.500000 0.000000 0.000000
O O5 0.926902 0.163170 0.903449
O O6 0.616497 0.177053 0.186475
O O7 0.738156 0.308953 0.391666
O O8 0.500000 0.500000 0.500000
O O9 0.349062 0.410766 0.483739
O O10 0.000000 0.500000 0.500000
O O11 0.122298 0.352706 0.044509
O O12 0.673581 0.752915 0.961397
O O13 0.285621 0.666002 0.844904
O O14 0.741859 0.908799 0.512677
O O15 0.000000 0.000000 0.000000
O O16 0.916950 0.200968 0.701461
#
# Coordination Sequence:
#
# PCOD9109676 Si02
#       7
#     2   2   2   2   2   2   2
#     4  12  24  42  65 101 126 166 228 274 326 386
#     4  11  24  39  68  95 131 167 223 280 318 386
#     4  11  22  36  63 103 135 165 219 272 319 382
#     4  10  20  41  66  96 121 179 216 270 320 376
#     4  12  26  43  67  95 132 172 213 276 336 387
#     4  10  21  43  66  94 125 174 227 265 323 392
#     4  10  21  38  70  94 126 170 228 275 306 378
#
# _framework density 22.030460000000001
#
# number of rings (size 3 to 8) (size 9 to 14) (size 15 to 20)
#    0.000    1.143    4.286    2.571    4.000    0.000 
#    0.000    4.286    0.000    5.143    0.000    0.000 
#    0.000    0.000    0.000    0.000    0.000    0.000 
#
# Total GULP energy -78056.705218 kJ/mol
# GULP energy per Si atom -5575.478944 kJ/mol
# Density = 2.198032 g / cm^3
# Si number density = 22.030460 Si / 1000 Ang^3
#
#
#
# Elastic Constant Matrix: (Units=GPa)
#
#
# Indices 1 2 3 4 5 6 
#
# 1 168.4498 41.0766 24.9927 -14.5058 17.2828 1.0946
# 2 41.0766 74.3654 30.1019 -23.3949 9.2297 -13.7515
# 3 24.9927 30.1019 38.3218 -3.9249 19.7943 5.2320
# 4 -14.5058 -23.3949 -3.9249 18.7044 0.8791 8.3476
# 5 17.2828 9.2297 19.7943 0.8791 47.0481 -5.0935
# 6 1.0946 -13.7515 5.2320 8.3476 -5.0935 60.3731
#
#
#
# Elastic Compliance Matrix: (Units=1/GPa)
#
#
# Indices 1 2 3 4 5 6 
#
# 1 0.007177 -0.002593 -0.001323 0.002625 -0.001741 -0.001116
# 2 -0.002593 0.038731 -0.028637 0.037193 0.005430 0.006666
# 3 -0.001323 -0.028637 0.059094 -0.018761 -0.019563 -0.010677
# 4 0.002625 0.037193 -0.018761 0.099992 -0.002669 -0.004001
# 5 -0.001741 0.005430 -0.019563 -0.002669 0.029742 0.005842
# 6 -0.001116 0.006666 -0.010677 -0.004001 0.005842 0.020074
#
#
# Mechanical properties :
#
#
# Convention : Reuss Voigt Hill
#
# Bulk Modulus (GPa) = 25.06664 52.60885 38.83775
# Shear Modulus (GPa) = 15.00527 37.55619 26.28073
#
# Velocity S-wave (km/s) = 2.61265 4.13333 3.45762
# Velocity P-wave (km/s) = 4.52815 6.83455 5.79721
#
# Compressibility (1/GPa) = 0.03989365
#
# Stress axis : x y z
#
# Youngs Moduli (GPa) = 139.33259 25.81917 16.92219
#
# Poissons Ratio (x) = 0.06696 0.02240
# Poissons Ratio (y) = 0.36133 0.48461
# Poissons Ratio (z) = 0.18440 0.73940
#
# Static dielectric constant tensor:
#      x y z
#    x 1.912060 -0.039950 -0.057990 
#    y -0.039950 1.884210 -0.014450 
#    z -0.057990 -0.014450 1.840570 
# 
# From -- ./inp_files/142455.got.cif
#   From: 2010.05.17/outbox.cif.g08.bks.cpg/sg2_72_cif.got.tgz:142455.got - 2010.06.03 11:33:40.
