data_PCOD9109187
_publ_section_title
;
Structure prediction by ZEFSAII (Michael W. Deem and Ramdas Pophale) SiO2 
 PCOD9109187
Probable space group: P -1
;
_chemical_formula_sum "Si O2"
_cell_formula_units_Z 13
_cell_length_a 8.553411
_cell_length_b 7.045484
_cell_length_c 14.854375
_cell_angle_alpha 87.343029
_cell_angle_beta 126.410339
_cell_angle_gamma 128.256301
_cell_volume 487.207058
_symmetry_space_group_name_H-M "P -1"
_symmetry_group_IT_number 2
_symmetry_cell_setting 'triclinic'
loop_
_space_group_symop_operation_xyz
x,y,z
-x,-y,-z
loop_
_atom_site_type_symbol
_atom_site_label
_atom_site_fract_x
_atom_site_fract_y
_atom_site_fract_z
Si Si1 0.587918 0.399446 0.329020
Si Si2 0.426979 0.670667 0.046281
Si Si3 0.000000 0.500000 0.000000
Si Si4 0.431760 0.816055 0.848568
Si Si5 0.601863 0.334070 0.707485
Si Si6 0.788225 0.475051 0.581975
Si Si7 0.102170 0.059495 0.663835
O O1 0.462872 0.197053 0.207109
O O2 0.382984 0.424547 0.288189
O O3 0.681357 0.348885 0.448989
O O4 0.865715 0.710938 0.373846
O O5 0.723555 0.812451 0.185962
O O6 0.386717 0.863045 0.070025
O O7 0.437873 0.692932 0.943177
O O8 0.161123 0.409817 0.018505
O O9 0.855104 0.428090 0.849399
O O10 0.104630 0.638404 0.719157
O O11 0.597576 0.271736 0.604224
O O12 0.307232 0.086675 0.665321
O O13 0.823933 0.732177 0.583763
#
# Coordination Sequence:
#
# PCOD9109187 Si02
#       7
#     2   2   1   2   2   2   2
#     4  10  21  35  51  86 115 134 183 235 256 316
#     4   9  18  35  58  73 104 146 184 217 277 328
#     4  10  16  38  56  78 102 144 188 220 264 336
#     4  10  20  34  57  81 105 145 182 223 275 318
#     4   9  20  34  58  81 107 143 181 226 265 321
#     4  11  18  36  61  75 111 157 175 205 282 335
#     4   8  20  34  56  81 105 144 182 224 262 323
#
# _framework density 26.682700000000001
#
# number of rings (size 3 to 8) (size 9 to 14) (size 15 to 20)
#    0.923    1.538    1.538    1.385    0.000    0.615 
#    0.000    2.308    0.000    3.692    0.000    0.000 
#    0.000    0.000    0.000    0.000    0.000    0.000 
#
# Total GULP energy -72424.967431 kJ/mol
# GULP energy per Si atom -5571.151341 kJ/mol
# Density = 2.662197 g / cm^3
# Si number density = 26.682700 Si / 1000 Ang^3
#
#
#
# Elastic Constant Matrix: (Units=GPa)
#
#
# Indices 1 2 3 4 5 6 
#
# 1 37.1492 19.7948 44.8730 -1.8921 -7.8540 6.1916
# 2 19.7948 81.6402 44.1671 -9.0095 -14.8621 13.6671
# 3 44.8730 44.1671 244.3816 -43.5290 -25.2560 8.3243
# 4 -1.8921 -9.0095 -43.5290 43.8746 9.4270 -7.5340
# 5 -7.8540 -14.8621 -25.2560 9.4270 53.2957 -5.6570
# 6 6.1916 13.6671 8.3243 -7.5340 -5.6570 26.4161
#
#
#
# Elastic Compliance Matrix: (Units=1/GPa)
#
#
# Indices 1 2 3 4 5 6 
#
# 1 0.039574 -0.005140 -0.007399 -0.008120 0.001666 -0.006244
# 2 -0.005140 0.015696 -0.001443 0.000054 0.002294 -0.005955
# 3 -0.007399 -0.001443 0.006863 0.006407 0.000874 0.002333
# 4 -0.008120 0.000054 0.006407 0.030779 -0.002735 0.008049
# 5 0.001666 0.002294 0.000874 -0.002735 0.020738 0.001808
# 6 -0.006244 -0.005955 0.002333 0.008049 0.001808 0.044348
#
#
# Mechanical properties :
#
#
# Convention : Reuss Voigt Hill
#
# Bulk Modulus (GPa) = 29.26641 64.53785 46.90213
# Shear Modulus (GPa) = 25.33526 41.67303 33.50415
#
# Velocity S-wave (km/s) = 3.08474 3.95625 3.54736
# Velocity P-wave (km/s) = 4.86617 6.71631 5.86466
#
# Compressibility (1/GPa) = 0.03416886
#
# Stress axis : x y z
#
# Youngs Moduli (GPa) = 25.26925 63.70862 145.69955
#
# Poissons Ratio (x) = 0.32746 1.07802
# Poissons Ratio (y) = 0.12988 0.21032
# Poissons Ratio (z) = 0.18697 0.09196
#
# Static dielectric constant tensor:
#      x y z
#    x 0.350550 -2.474010 -0.280540 
#    y -2.474010 -1.071850 -0.339700 
#    z -0.280540 -0.339700 2.007360 
# 
# From -- ./inp_files/194303.got.cif
#   From: 2010.05.17/outbox.cif.g08.bks.cpg/sg2_98_cif.got.tgz:194303.got - 2010.06.03 11:33:40.
