data_PCOD9109728
_publ_section_title
;
Structure prediction by ZEFSAII (Michael W. Deem and Ramdas Pophale) SiO2 
 PCOD9109728
Probable space group: P -1
;
_chemical_formula_sum "Si O2"
_cell_formula_units_Z 14
_cell_length_a 21.559137
_cell_length_b 16.314622
_cell_length_c 12.330930
_cell_angle_alpha 147.314344
_cell_angle_beta 152.488851
_cell_angle_gamma 16.283368
_cell_volume 560.158390
_symmetry_space_group_name_H-M "P -1"
_symmetry_group_IT_number 2
_symmetry_cell_setting 'triclinic'
loop_
_space_group_symop_operation_xyz
x,y,z
-x,-y,-z
loop_
_atom_site_type_symbol
_atom_site_label
_atom_site_fract_x
_atom_site_fract_y
_atom_site_fract_z
Si Si1 0.809724 0.052290 0.721111
Si Si2 0.126312 0.359087 0.209980
Si Si3 0.827658 0.127363 0.211866
Si Si4 0.634119 0.350466 0.407088
Si Si5 0.328707 0.032932 0.948136
Si Si6 0.523226 0.699482 0.303823
Si Si7 0.116113 0.355499 0.636170
O O1 0.623031 0.302405 0.618615
O O2 0.643723 0.162822 0.692581
O O3 0.931863 0.776727 0.563861
O O4 0.000000 0.000000 0.000000
O O5 0.210249 0.157286 0.024852
O O6 0.367081 0.239150 0.463583
O O7 0.021753 0.416344 0.229023
O O8 0.892207 0.682559 0.153248
O O9 0.731703 0.244726 0.316169
O O10 0.759789 0.350380 0.293084
O O11 0.649542 0.180848 0.932577
O O12 0.132941 0.802685 0.333095
O O13 0.598801 0.210918 0.233164
O O14 0.581972 0.892529 0.173469
O O15 0.000000 0.500000 0.500000
#
# Coordination Sequence:
#
# PCOD9109728 Si02
#       7
#     2   2   2   2   2   2   2
#     4  11  25  44  67 100 145 186 232 300 357 421
#     4  11  25  45  76 101 145 193 237 294 357 426
#     4   9  20  35  68 102 134 177 235 290 348 420
#     4  10  21  41  69 103 141 180 235 290 357 426
#     4  11  24  47  73 105 145 190 237 290 360 431
#     4  10  20  41  67 102 137 184 237 290 352 418
#     4  12  28  47  71 104 144 186 246 300 359 428
#
# _framework density 24.992930999999999
#
# number of rings (size 3 to 8) (size 9 to 14) (size 15 to 20)
#    0.000    1.429    2.857    1.286    8.000    1.714 
#    0.000    4.286    0.000    0.000    0.000    0.000 
#    0.000    0.000    0.000    0.000    0.000    0.000 
#
# Total GULP energy -78492.674677 kJ/mol
# GULP energy per Si atom -5606.619620 kJ/mol
# Density = 2.493605 g / cm^3
# Si number density = 24.992931 Si / 1000 Ang^3
#
#
#
# Elastic Constant Matrix: (Units=GPa)
#
#
# Indices 1 2 3 4 5 6 
#
# 1 125.0098 24.0126 33.1955 -8.8234 -21.1236 -13.9366
# 2 24.0126 110.0183 41.6130 -1.5164 -1.8335 18.7574
# 3 33.1955 41.6130 143.9903 -26.3200 -4.9288 10.1119
# 4 -8.8234 -1.5164 -26.3200 29.3755 3.2736 -0.0929
# 5 -21.1236 -1.8335 -4.9288 3.2736 41.9531 3.8384
# 6 -13.9366 18.7574 10.1119 -0.0929 3.8384 33.5650
#
#
#
# Elastic Compliance Matrix: (Units=1/GPa)
#
#
# Indices 1 2 3 4 5 6 
#
# 1 0.010381 -0.002497 -0.001752 0.000957 0.004312 0.005743
# 2 -0.002497 0.011832 -0.002872 -0.002706 -0.000248 -0.006763
# 3 -0.001752 -0.002872 0.009796 0.008130 -0.000307 -0.002016
# 4 0.000957 -0.002706 0.008130 0.041687 -0.001915 -0.000205
# 5 0.004312 -0.000248 -0.000307 -0.001915 0.026199 -0.000980
# 6 0.005743 -0.006763 -0.002016 -0.000205 -0.000980 0.036676
#
#
# Mechanical properties :
#
#
# Convention : Reuss Voigt Hill
#
# Bulk Modulus (GPa) = 56.28649 64.07341 60.17995
# Shear Modulus (GPa) = 31.90063 39.65855 35.77959
#
# Velocity S-wave (km/s) = 3.57653 3.98778 3.78774
# Velocity P-wave (km/s) = 6.29486 6.84802 6.57726
#
# Compressibility (1/GPa) = 0.01776625
#
# Stress axis : x y z
#
# Youngs Moduli (GPa) = 96.33262 84.51401 102.08050
#
# Poissons Ratio (x) = 0.21103 0.17889
# Poissons Ratio (y) = 0.24054 0.29319
# Poissons Ratio (z) = 0.16881 0.24273
#
# Static dielectric constant tensor:
#      x y z
#    x 1.982510 -0.020710 -0.003750 
#    y -0.020710 1.993820 0.012690 
#    z -0.003750 0.012690 1.899710 
# 
# From -- ./inp_files/471964.got.cif
#   From: 2010.05.17/outbox.cif.g08.bks.cpg/sg2_236_cif.got.tgz:471964.got - 2010.06.03 11:33:40.
