data_PCOD9109991
_publ_section_title
;
Structure prediction by ZEFSAII (Michael W. Deem and Ramdas Pophale) SiO2 
 PCOD9109991
Probable space group: P -1
;
_chemical_formula_sum "Si O2"
_cell_formula_units_Z 16
_cell_length_a 12.103488
_cell_length_b 17.260665
_cell_length_c 20.357939
_cell_angle_alpha 160.242293
_cell_angle_beta 142.624439
_cell_angle_gamma 28.019508
_cell_volume 657.673405
_symmetry_space_group_name_H-M "P -1"
_symmetry_group_IT_number 2
_symmetry_cell_setting 'triclinic'
loop_
_space_group_symop_operation_xyz
x,y,z
-x,-y,-z
loop_
_atom_site_type_symbol
_atom_site_label
_atom_site_fract_x
_atom_site_fract_y
_atom_site_fract_z
Si Si1 0.724429 0.282111 0.077300
Si Si2 0.821892 0.720783 0.442553
Si Si3 0.263405 0.157132 0.359818
Si Si4 0.020698 0.430126 0.050026
Si Si5 0.649713 0.680853 0.660962
Si Si6 0.763747 0.914045 0.420452
Si Si7 0.185306 0.853392 0.594619
Si Si8 0.383644 0.348136 0.070186
O O1 0.732530 0.532810 0.254072
O O2 0.537662 0.408174 0.150301
O O3 0.678230 0.114990 0.871734
O O4 0.000000 0.000000 0.000000
O O5 0.722241 0.926788 0.623928
O O6 0.763107 0.874426 0.466928
O O7 0.111119 0.498119 0.411108
O O8 0.000000 0.500000 0.500000
O O9 0.494659 0.129481 0.436642
O O10 0.911605 0.586128 0.192899
O O11 0.797679 0.606413 0.034402
O O12 0.212215 0.467181 0.148362
O O13 0.140673 0.082234 0.813390
O O14 0.404353 0.770404 0.588943
O O15 0.720940 0.457812 0.576852
O O16 0.585930 0.990539 0.897134
O O17 0.929121 0.003834 0.561260
#
# Coordination Sequence:
#
# PCOD9109991 Si02
#       8
#     2   2   2   2   2   2   2   2
#     4  12  23  43  70  97 135 183 225 283 340 403
#     4  11  25  43  69 101 139 180 227 283 340 414
#     4  12  25  43  68  99 135 181 229 283 341 411
#     4  10  22  42  69  98 134 181 222 290 344 402
#     4   9  18  42  65  94 137 170 224 283 325 405
#     4  11  25  45  68 104 139 175 234 285 346 417
#     4   9  21  40  69  96 135 181 217 282 345 401
#     4  10  20  41  68  97 136 173 231 285 331 405
#
# _framework density 24.328185000000001
#
# number of rings (size 3 to 8) (size 9 to 14) (size 15 to 20)
#    0.000    1.500    3.750    0.375    1.750    2.500 
#    2.250   22.500    0.000    0.000    0.000    0.000 
#    0.000    0.000    0.000    0.000    0.000    0.000 
#
# Total GULP energy -89268.876314 kJ/mol
# GULP energy per Si atom -5579.304770 kJ/mol
# Density = 2.427281 g / cm^3
# Si number density = 24.328185 Si / 1000 Ang^3
#
#
#
# Elastic Constant Matrix: (Units=GPa)
#
#
# Indices 1 2 3 4 5 6 
#
# 1 118.0678 49.7840 33.9427 -3.2681 1.2342 -30.9889
# 2 49.7840 119.6569 24.7877 -3.8843 -4.6282 -50.0205
# 3 33.9427 24.7877 103.9319 -18.3196 1.1981 -2.1786
# 4 -3.2681 -3.8843 -18.3196 37.4575 1.2019 6.1365
# 5 1.2342 -4.6282 1.1981 1.2019 50.4029 0.5430
# 6 -30.9889 -50.0205 -2.1786 6.1365 0.5430 62.6571
#
#
#
# Elastic Compliance Matrix: (Units=1/GPa)
#
#
# Indices 1 2 3 4 5 6 
#
# 1 0.011430 -0.002649 -0.003277 -0.001451 -0.000449 0.003571
# 2 -0.002649 0.014233 -0.002641 -0.001749 0.001367 0.010120
# 3 -0.003277 -0.002641 0.012326 0.006125 -0.000559 -0.003896
# 4 -0.001451 -0.001749 0.006125 0.030209 -0.000939 -0.004851
# 5 -0.000449 0.001367 -0.000559 -0.000939 0.020004 0.000769
# 6 0.003571 0.010120 -0.003896 -0.004851 0.000769 0.026138
#
#
# Mechanical properties :
#
#
# Convention : Reuss Voigt Hill
#
# Bulk Modulus (GPa) = 47.94861 62.07617 55.01239
# Shear Modulus (GPa) = 36.12005 45.64632 40.88318
#
# Velocity S-wave (km/s) = 3.85736 4.33630 4.10382
# Velocity P-wave (km/s) = 6.29212 7.11638 6.71691
#
# Compressibility (1/GPa) = 0.02085566
#
# Stress axis : x y z
#
# Youngs Moduli (GPa) = 87.48650 70.25880 81.12743
#
# Poissons Ratio (x) = 0.18608 0.26585
# Poissons Ratio (y) = 0.23171 0.21430
# Poissons Ratio (z) = 0.28669 0.18559
#
# Static dielectric constant tensor:
#      x y z
#    x 1.976540 -0.045530 0.046330 
#    y -0.045530 2.023340 -0.011850 
#    z 0.046330 -0.011850 2.018850 
# 
# From -- ./inp_files/596062.got.cif
#   From: 2010.05.17/outbox.cif.g08.bks.cpg/sg2_299_cif.got.tgz:596062.got - 2010.06.03 11:33:40.
