data_PCOD9109080
_publ_section_title
;
Structure prediction by ZEFSAII (Michael W. Deem and Ramdas Pophale) SiO2 
 PCOD9109080
Probable space group: P -1
;
_chemical_formula_sum "Si O2"
_cell_formula_units_Z 16
_cell_length_a 12.251689
_cell_length_b 8.645362
_cell_length_c 11.914091
_cell_angle_alpha 51.932904
_cell_angle_beta 72.397757
_cell_angle_gamma 49.200956
_cell_volume 741.332048
_symmetry_space_group_name_H-M "P -1"
_symmetry_group_IT_number 2
_symmetry_cell_setting 'triclinic'
loop_
_space_group_symop_operation_xyz
x,y,z
-x,-y,-z
loop_
_atom_site_type_symbol
_atom_site_label
_atom_site_fract_x
_atom_site_fract_y
_atom_site_fract_z
Si Si1 0.261019 0.748422 0.673110
Si Si2 0.844103 0.044167 0.163471
Si Si3 0.672296 0.354487 0.540860
Si Si4 0.846608 0.817698 0.845732
Si Si5 0.517380 0.271215 0.149277
Si Si6 0.037068 0.682168 0.063277
Si Si7 0.617962 0.752847 0.008202
Si Si8 0.531203 0.740900 0.590644
O O1 0.136548 0.948981 0.710077
O O2 0.236061 0.698842 0.576870
O O3 0.374958 0.802956 0.590539
O O4 0.348005 0.487719 0.832571
O O5 0.693599 0.077764 0.192176
O O6 0.956503 0.821854 0.142238
O O7 0.841410 0.274020 0.013418
O O8 0.500000 0.500000 0.500000
O O9 0.651658 0.553136 0.546777
O O10 0.745114 0.089973 0.698372
O O11 0.757833 0.740610 0.969961
O O12 0.923682 0.592402 0.830559
O O13 0.941423 0.808377 0.921497
O O14 0.447765 0.194470 0.119507
O O15 0.429866 0.369888 0.247714
O O16 0.500000 0.500000 0.000000
O O17 0.500000 0.000000 0.000000
O O18 0.500000 0.000000 0.500000
#
# Coordination Sequence:
#
# PCOD9109080 Si02
#       8
#     2   2   2   2   2   2   2   2
#     4  10  21  40  56  88 129 164 203 259 314 380
#     4  10  20  41  62  92 125 167 211 272 309 364
#     4  10  23  41  60  89 135 166 199 259 327 388
#     4  11  23  41  64  97 124 171 216 256 315 383
#     4  11  21  36  61  96 127 155 209 267 325 368
#     4  10  22  41  67  91 126 169 223 260 304 367
#     4  12  22  34  62  97 127 159 205 269 323 373
#     4  10  22  37  55  89 129 168 197 249 324 388
#
# _framework density 21.582771999999999
#
# number of rings (size 3 to 8) (size 9 to 14) (size 15 to 20)
#    0.000    1.500    3.750    2.250    7.000    0.000 
#    0.000    1.250    0.000    0.000    0.000    0.000 
#    0.000    0.000    0.000    0.000    0.000    0.000 
#
# Total GULP energy -89073.301898 kJ/mol
# GULP energy per Si atom -5567.081369 kJ/mol
# Density = 2.153365 g / cm^3
# Si number density = 21.582772 Si / 1000 Ang^3
#
#
#
# Elastic Constant Matrix: (Units=GPa)
#
#
# Indices 1 2 3 4 5 6 
#
# 1 69.3999 19.1201 10.7431 5.1856 -4.4045 7.7983
# 2 19.1201 179.9009 56.3699 31.7605 4.0559 31.3028
# 3 10.7431 56.3699 80.6356 7.0440 4.0026 12.1678
# 4 5.1856 31.7605 7.0440 49.3442 0.8681 3.4879
# 5 -4.4045 4.0559 4.0026 0.8681 23.0634 2.5697
# 6 7.7983 31.3028 12.1678 3.4879 2.5697 27.9921
#
#
#
# Elastic Compliance Matrix: (Units=1/GPa)
#
#
# Indices 1 2 3 4 5 6 
#
# 1 0.015439 -0.000601 -0.001241 -0.000889 0.003672 -0.003316
# 2 -0.000601 0.009282 -0.004870 -0.004686 0.000113 -0.007522
# 3 -0.001241 -0.004870 0.016158 0.001078 -0.002095 -0.001174
# 4 -0.000889 -0.004686 0.001078 0.023077 -0.000647 0.002203
# 5 0.003672 0.000113 -0.002095 -0.000647 0.044905 -0.004280
# 6 -0.003316 -0.007522 -0.001174 0.002203 -0.004280 0.045689
#
#
# Mechanical properties :
#
#
# Convention : Reuss Voigt Hill
#
# Bulk Modulus (GPa) = 36.42267 55.82252 46.12259
# Shear Modulus (GPa) = 28.22850 36.32682 32.27766
#
# Velocity S-wave (km/s) = 3.62044 4.10706 3.87140
# Velocity P-wave (km/s) = 5.86423 6.95781 6.43430
#
# Compressibility (1/GPa) = 0.02745543
#
# Stress axis : x y z
#
# Youngs Moduli (GPa) = 64.77092 107.73499 61.88809
#
# Poissons Ratio (x) = 0.06473 0.07681
# Poissons Ratio (y) = 0.03892 0.30139
# Poissons Ratio (z) = 0.08039 0.52466
#
# Static dielectric constant tensor:
#      x y z
#    x 1.868660 0.008040 0.039060 
#    y 0.008040 1.875020 0.063810 
#    z 0.039060 0.063810 1.817080 
# 
# From -- ./inp_files/418890.got.cif
#   From: 2010.05.17/outbox.cif.g08.bks.cpg/sg2_210_cif.got.tgz:418890.got - 2010.06.03 11:33:40.
