data_PCOD9109971
_publ_section_title
;
Structure prediction by ZEFSAII (Michael W. Deem and Ramdas Pophale) SiO2 
 PCOD9109971
Probable space group: P -1
;
_chemical_formula_sum "Si O2"
_cell_formula_units_Z 14
_cell_length_a 10.933219
_cell_length_b 18.922895
_cell_length_c 13.691630
_cell_angle_alpha 151.829796
_cell_angle_beta 148.672595
_cell_angle_gamma 24.142539
_cell_volume 528.471375
_symmetry_space_group_name_H-M "P -1"
_symmetry_group_IT_number 2
_symmetry_cell_setting 'triclinic'
loop_
_space_group_symop_operation_xyz
x,y,z
-x,-y,-z
loop_
_atom_site_type_symbol
_atom_site_label
_atom_site_fract_x
_atom_site_fract_y
_atom_site_fract_z
Si Si1 0.718226 0.493452 0.217550
Si Si2 0.768336 0.882564 0.460556
Si Si3 0.347882 0.852277 0.011903
Si Si4 0.724561 0.423171 0.826608
Si Si5 0.078381 0.492010 0.303776
Si Si6 0.769736 0.131048 0.412148
Si Si7 0.902438 0.941170 0.094818
O O1 0.499258 0.598600 0.290079
O O2 0.864279 0.570832 0.352899
O O3 0.500000 0.500000 0.000000
O O4 0.979968 0.256515 0.118534
O O5 0.576045 0.882607 0.245076
O O6 0.030658 0.668602 0.429525
O O7 0.865370 0.014526 0.673539
O O8 0.500000 0.000000 0.500000
O O9 0.494193 0.637455 0.883628
O O10 0.335074 0.883680 0.926427
O O11 0.000000 0.000000 0.000000
O O12 0.865234 0.269681 0.646908
O O13 0.937471 0.429288 0.053681
O O14 0.413054 0.310108 0.351523
O O15 0.811063 0.962999 0.170598
O O16 0.000000 0.000000 0.500000
#
# Coordination Sequence:
#
# PCOD9109971 Si02
#       7
#     2   2   2   2   2   2   2
#     4  10  20  41  68  96 131 178 224 281 339 397
#     4  11  22  40  71 107 133 171 226 285 346 405
#     4  11  21  40  68 104 134 170 216 286 342 401
#     4  10  22  43  67  99 138 172 226 287 344 406
#     4  10  24  43  69  96 140 181 225 284 343 399
#     4  12  28  45  64  98 140 187 234 278 332 412
#     4  12  25  43  67  98 139 178 229 279 340 402
#
# _framework density 26.491499999999998
#
# number of rings (size 3 to 8) (size 9 to 14) (size 15 to 20)
#    0.000    1.143    2.857    4.286    0.000    7.429 
#    0.000    2.857    0.000    0.000    0.000    0.000 
#    0.000    0.000    0.000    0.000    0.000    0.000 
#
# Total GULP energy -78007.769287 kJ/mol
# GULP energy per Si atom -5571.983521 kJ/mol
# Density = 2.643120 g / cm^3
# Si number density = 26.491500 Si / 1000 Ang^3
#
#
#
# Elastic Constant Matrix: (Units=GPa)
#
#
# Indices 1 2 3 4 5 6 
#
# 1 47.5589 23.7928 31.0515 -16.9732 -10.9479 22.4887
# 2 23.7928 177.4154 34.8728 -19.2392 -5.0264 29.0116
# 3 31.0515 34.8728 90.4737 -16.6953 -3.8388 -0.0159
# 4 -16.9732 -19.2392 -16.6953 40.5182 15.1047 -12.7290
# 5 -10.9479 -5.0264 -3.8388 15.1047 38.9854 0.5959
# 6 22.4887 29.0116 -0.0159 -12.7290 0.5959 31.0654
#
#
#
# Elastic Compliance Matrix: (Units=1/GPa)
#
#
# Indices 1 2 3 4 5 6 
#
# 1 0.058441 0.004410 -0.021774 -0.003982 0.017119 -0.048396
# 2 0.004410 0.007663 -0.004466 -0.000475 0.002132 -0.010586
# 3 -0.021774 -0.004466 0.021364 0.007866 -0.007991 0.023321
# 4 -0.003982 -0.000475 0.007866 0.037733 -0.015316 0.019086
# 5 0.017119 0.002132 -0.007991 -0.015316 0.036207 -0.021358
# 6 -0.048396 -0.010586 0.023321 0.019086 -0.021358 0.085353
#
#
# Mechanical properties :
#
#
# Convention : Reuss Voigt Hill
#
# Bulk Modulus (GPa) = 22.82772 54.98692 38.90732
# Shear Modulus (GPa) = 16.39213 37.16253 26.77733
#
# Velocity S-wave (km/s) = 2.49021 3.74947 3.18274
# Velocity P-wave (km/s) = 4.11143 6.28858 5.31273
#
# Compressibility (1/GPa) = 0.04380639
#
# Stress axis : x y z
#
# Youngs Moduli (GPa) = 17.11134 130.49684 46.80740
#
# Poissons Ratio (x) = -0.57543 1.01919
# Poissons Ratio (y) = -0.07545 0.20905
# Poissons Ratio (z) = 0.37258 0.58282
#
# Static dielectric constant tensor:
#      x y z
#    x 2.506160 -0.387880 -0.158640 
#    y -0.387880 2.554110 0.233990 
#    z -0.158640 0.233990 2.132250 
# 
# From -- ./inp_files/524107.got.cif
#   From: 2010.05.17/outbox.cif.g08.bks.cpg/sg2_263_cif.got.tgz:524107.got - 2010.06.03 11:33:40.
