data_PCOD9109604
_publ_section_title
;
Structure prediction by ZEFSAII (Michael W. Deem and Ramdas Pophale) SiO2 
 PCOD9109604
Probable space group: P -1
;
_chemical_formula_sum "Si O2"
_cell_formula_units_Z 16
_cell_length_a 20.670244
_cell_length_b 9.198436
_cell_length_c 19.243760
_cell_angle_alpha 33.307827
_cell_angle_beta 23.777466
_cell_angle_gamma 44.861327
_cell_volume 783.773688
_symmetry_space_group_name_H-M "P -1"
_symmetry_group_IT_number 2
_symmetry_cell_setting 'triclinic'
loop_
_space_group_symop_operation_xyz
x,y,z
-x,-y,-z
loop_
_atom_site_type_symbol
_atom_site_label
_atom_site_fract_x
_atom_site_fract_y
_atom_site_fract_z
Si Si1 0.414187 0.376730 0.802171
Si Si2 0.989308 0.881674 0.888631
Si Si3 0.061405 0.406116 0.088437
Si Si4 0.767894 0.582767 0.533346
Si Si5 0.495277 0.178774 0.365156
Si Si6 0.602656 0.723234 0.364240
Si Si7 0.117463 0.874465 0.485128
Si Si8 0.485368 0.125673 0.040453
O O1 0.397983 0.520003 0.835585
O O2 0.571461 0.558071 0.533638
O O3 0.445188 0.079869 0.897318
O O4 0.251142 0.390211 0.915124
O O5 0.793064 0.816180 0.119119
O O6 0.053431 0.712338 0.954304
O O7 0.021965 0.762386 0.829556
O O8 0.077256 0.201424 0.673149
O O9 0.975128 0.275053 0.296136
O O10 0.680845 0.764977 0.498126
O O11 0.827601 0.356636 0.521565
O O12 0.615497 0.420464 0.796504
O O13 0.500000 0.000000 0.500000
O O14 0.542453 0.000115 0.327703
O O15 0.500000 0.500000 0.500000
O O16 0.288517 0.089535 0.255871
O O17 0.000000 0.000000 0.500000
O O18 0.500000 0.000000 0.000000
#
# Coordination Sequence:
#
# PCOD9109604 Si02
#       8
#     2   2   2   2   2   2   2   2
#     4  11  20  42  66  97 128 177 217 271 325 392
#     4  11  25  42  62 101 136 177 215 274 330 403
#     4  11  24  41  68  95 140 171 220 270 341 391
#     4  11  24  43  64  98 135 169 222 272 330 394
#     4  10  22  37  65  98 127 168 216 272 325 382
#     4  11  23  41  65  94 133 173 218 261 334 392
#     4  11  24  43  71 101 128 175 222 277 331 386
#     4  10  20  41  66  91 131 170 215 265 326 385
#
# _framework density 20.414054
#
# number of rings (size 3 to 8) (size 9 to 14) (size 15 to 20)
#    0.000    1.250    3.750    3.750    5.250    0.500 
#    0.000    3.125    0.000    0.000    0.000    0.000 
#    0.000    0.000    0.000    0.000    0.000    0.000 
#
# Total GULP energy -89202.620772 kJ/mol
# GULP energy per Si atom -5575.163798 kJ/mol
# Density = 2.036759 g / cm^3
# Si number density = 20.414054 Si / 1000 Ang^3
#
#
#
# Elastic Constant Matrix: (Units=GPa)
#
#
# Indices 1 2 3 4 5 6 
#
# 1 65.9699 49.3789 39.5425 -4.7580 -6.3460 -7.1131
# 2 49.3789 111.8626 51.0443 -4.2662 -3.8455 -17.1597
# 3 39.5425 51.0443 151.0026 -20.3362 -16.1328 0.8865
# 4 -4.7580 -4.2662 -20.3362 27.6376 1.3949 -8.9425
# 5 -6.3460 -3.8455 -16.1328 1.3949 27.9679 6.4338
# 6 -7.1131 -17.1597 0.8865 -8.9425 6.4338 29.1633
#
#
#
# Elastic Compliance Matrix: (Units=1/GPa)
#
#
# Indices 1 2 3 4 5 6 
#
# 1 0.024032 -0.009173 -0.002854 0.000552 0.002478 0.000174
# 2 -0.009173 0.015617 -0.003135 0.001397 -0.003721 0.008296
# 3 -0.002854 -0.003135 0.009643 0.005132 0.004759 -0.002310
# 4 0.000552 0.001397 0.005132 0.045330 -0.002491 0.015250
# 5 0.002478 -0.003721 0.004759 -0.002491 0.041347 -0.011615
# 6 0.000174 0.008296 -0.002310 0.015250 -0.011615 0.046522
#
#
# Mechanical properties :
#
#
# Convention : Reuss Voigt Hill
#
# Bulk Modulus (GPa) = 52.72243 67.64072 60.18158
# Shear Modulus (GPa) = 22.81648 29.54507 26.18077
#
# Velocity S-wave (km/s) = 3.34681 3.80845 3.58507
# Velocity P-wave (km/s) = 6.38885 7.24882 6.83238
#
# Compressibility (1/GPa) = 0.01896726
#
# Stress axis : x y z
#
# Youngs Moduli (GPa) = 41.61057 64.03089 103.70334
#
# Poissons Ratio (x) = 0.58736 0.29601
# Poissons Ratio (y) = 0.38170 0.32514
# Poissons Ratio (z) = 0.11877 0.20075
#
# Static dielectric constant tensor:
#      x y z
#    x 1.798670 -0.002240 -0.012200 
#    y -0.002240 1.771740 -0.026170 
#    z -0.012200 -0.026170 1.787510 
# 
# From -- ./inp_files/575210.got.cif
#   From: 2010.05.17/outbox.cif.g08.bks.cpg/sg2_288_cif.got.tgz:575210.got - 2010.06.03 11:33:40.
