data_PCOD9109809
_publ_section_title
;
Structure prediction by ZEFSAII (Michael W. Deem and Ramdas Pophale) SiO2 
 PCOD9109809
Probable space group: P -1
;
_chemical_formula_sum "Si O2"
_cell_formula_units_Z 16
_cell_length_a 11.654391
_cell_length_b 11.487758
_cell_length_c 12.581694
_cell_angle_alpha 120.625855
_cell_angle_beta 35.272794
_cell_angle_gamma 94.499389
_cell_volume 614.435333
_symmetry_space_group_name_H-M "P -1"
_symmetry_group_IT_number 2
_symmetry_cell_setting 'triclinic'
loop_
_space_group_symop_operation_xyz
x,y,z
-x,-y,-z
loop_
_atom_site_type_symbol
_atom_site_label
_atom_site_fract_x
_atom_site_fract_y
_atom_site_fract_z
Si Si1 0.137327 0.750185 0.396277
Si Si2 0.974520 0.764844 0.286676
Si Si3 0.244537 0.475731 0.348991
Si Si4 0.329892 0.846037 0.982684
Si Si5 0.691910 0.642023 0.406488
Si Si6 0.552772 0.154856 0.717149
Si Si7 0.346447 0.930702 0.623730
Si Si8 0.023358 0.690791 0.828036
O O1 0.058124 0.736809 0.333004
O O2 0.275840 0.573665 0.280989
O O3 0.342127 0.781597 0.252877
O O4 0.867697 0.937521 0.742588
O O5 0.951119 0.622606 0.201353
O O6 0.162118 0.782620 0.089509
O O7 0.673037 0.961302 0.583475
O O8 0.457804 0.268687 0.135329
O O9 0.000000 0.500000 0.500000
O O10 0.192943 0.590961 0.547277
O O11 0.495746 0.773781 0.714755
O O12 0.524812 0.751341 0.478482
O O13 0.810862 0.442761 0.258824
O O14 0.699780 0.117868 0.476463
O O15 0.238828 0.282404 0.988653
O O16 0.500000 0.000000 0.500000
O O17 0.092980 0.108950 0.961846
#
# Coordination Sequence:
#
# PCOD9109809 Si02
#       8
#     2   2   2   2   2   2   2   2
#     4  11  24  41  65  91 131 177 204 269 333 365
#     4  11  23  42  64  94 134 168 217 268 319 387
#     4  11  25  40  63  98 128 170 218 260 319 392
#     4  10  24  41  60  94 132 161 218 263 310 394
#     4  11  22  41  67  96 124 176 208 262 341 369
#     4  10  22  41  65  95 125 170 219 265 321 378
#     4  10  20  41  67  94 128 164 224 269 304 394
#     4  10  22  39  64  94 127 164 217 263 315 388
#
# _framework density 26.040168000000001
#
# number of rings (size 3 to 8) (size 9 to 14) (size 15 to 20)
#    0.000    1.500    2.500    3.750    5.250    3.500 
#    0.000    5.625    0.000    7.500    0.000    0.000 
#    0.000    0.000    0.000    0.000    0.000    0.000 
#
# Total GULP energy -89598.706535 kJ/mol
# GULP energy per Si atom -5599.919158 kJ/mol
# Density = 2.598090 g / cm^3
# Si number density = 26.040168 Si / 1000 Ang^3
#
#
#
# Elastic Constant Matrix: (Units=GPa)
#
#
# Indices 1 2 3 4 5 6 
#
# 1 104.4785 30.6491 20.5800 13.4840 3.4787 -40.9436
# 2 30.6491 114.9555 28.9419 17.7758 -1.2652 -41.3647
# 3 20.5800 28.9419 88.6423 28.4373 1.6150 -17.2429
# 4 13.4840 17.7758 28.4373 46.7486 -5.1718 -10.0500
# 5 3.4787 -1.2652 1.6150 -5.1718 37.7801 0.6513
# 6 -40.9436 -41.3647 -17.2429 -10.0500 0.6513 58.8645
#
#
#
# Elastic Compliance Matrix: (Units=1/GPa)
#
#
# Indices 1 2 3 4 5 6 
#
# 1 0.013476 0.000065 -0.000860 -0.001649 -0.001581 0.008903
# 2 0.000065 0.012246 -0.001917 -0.001826 0.000102 0.007776
# 3 -0.000860 -0.001917 0.014937 -0.008072 -0.001747 0.001071
# 4 -0.001649 -0.001826 -0.008072 0.027927 0.004260 -0.000074
# 5 -0.001581 0.000102 -0.001747 0.004260 0.027295 -0.001115
# 6 0.008903 0.007776 0.001071 -0.000074 -0.001115 0.028958
#
#
# Mechanical properties :
#
#
# Convention : Reuss Voigt Hill
#
# Bulk Modulus (GPa) = 28.38137 52.04649 40.21393
# Shear Modulus (GPa) = 35.20932 43.87232 39.54082
#
# Velocity S-wave (km/s) = 3.68110 4.10908 3.90096
# Velocity P-wave (km/s) = 5.38424 6.52251 5.98052
#
# Compressibility (1/GPa) = 0.03523438
#
# Stress axis : x y z
#
# Youngs Moduli (GPa) = 74.20484 81.66011 66.94966
#
# Poissons Ratio (x) = -0.00529 0.05759
# Poissons Ratio (y) = -0.00481 0.12833
# Poissons Ratio (z) = 0.06383 0.15652
#
# Static dielectric constant tensor:
#      x y z
#    x 2.010950 0.055550 0.037460 
#    y 0.055550 2.036290 -0.003720 
#    z 0.037460 -0.003720 2.170540 
# 
# From -- ./inp_files/428521.got.cif
#   From: 2010.05.17/outbox.cif.g08.bks.cpg/sg2_215_cif.got.tgz:428521.got - 2010.06.03 11:33:40.
