data_PCOD9109366
_publ_section_title
;
Structure prediction by ZEFSAII (Michael W. Deem and Ramdas Pophale) SiO2 
 PCOD9109366
Probable space group: P -1
;
_chemical_formula_sum "Si O2"
_cell_formula_units_Z 16
_cell_length_a 9.067716
_cell_length_b 14.845834
_cell_length_c 15.530497
_cell_angle_alpha 37.779052
_cell_angle_beta 57.990766
_cell_angle_gamma 86.157973
_cell_volume 798.835631
_symmetry_space_group_name_H-M "P -1"
_symmetry_group_IT_number 2
_symmetry_cell_setting 'triclinic'
loop_
_space_group_symop_operation_xyz
x,y,z
-x,-y,-z
loop_
_atom_site_type_symbol
_atom_site_label
_atom_site_fract_x
_atom_site_fract_y
_atom_site_fract_z
Si Si1 0.023849 0.669145 0.561437
Si Si2 0.371560 0.659186 0.567036
Si Si3 0.562442 0.243704 0.960932
Si Si4 0.966702 0.788951 0.993089
Si Si5 0.481595 0.013295 0.597115
Si Si6 0.834077 0.011145 0.595971
Si Si7 0.238686 0.967011 0.934709
Si Si8 0.777903 0.989859 0.891551
O O1 0.180660 0.632445 0.585123
O O2 0.007527 0.780539 0.558127
O O3 0.783489 0.464693 0.754478
O O4 0.148192 0.825768 0.325742
O O5 0.416719 0.776755 0.551907
O O6 0.612872 0.817324 0.319118
O O7 0.263475 0.438457 0.784866
O O8 0.482865 0.202450 0.917369
O O9 0.333937 0.158118 0.152050
O O10 0.618555 0.104193 0.068508
O O11 0.940619 0.942307 0.856698
O O12 0.205231 0.854076 0.830966
O O13 0.004712 0.815087 0.064954
O O14 0.645971 0.985242 0.612310
O O15 0.500000 0.000000 0.500000
O O16 0.000000 0.000000 0.500000
O O17 0.210493 0.974006 0.038600
#
# Coordination Sequence:
#
# PCOD9109366 Si02
#       8
#     2   2   2   2   2   2   2   2
#     4  10  21  40  64  87 123 161 198 246 302 351
#     4  10  20  41  65  84 122 165 197 241 303 365
#     4  11  21  40  62  90 121 160 202 248 294 360
#     4  11  23  42  61  88 127 160 196 248 306 353
#     4  10  22  39  64  88 119 159 200 244 303 362
#     4  10  21  40  63  90 119 156 201 248 298 358
#     4  11  21  41  64  86 123 164 202 241 303 358
#     4  11  25  37  61  97 122 152 207 257 285 350
#
# _framework density 20.029150999999999
#
# number of rings (size 3 to 8) (size 9 to 14) (size 15 to 20)
#    0.000    1.500    6.250    0.750    3.500    5.000 
#    0.000    0.000    0.000    0.000    0.000    0.000 
#    0.000    0.000    0.000    0.000    0.000    0.000 
#
# Total GULP energy -89273.488041 kJ/mol
# GULP energy per Si atom -5579.593003 kJ/mol
# Density = 1.998356 g / cm^3
# Si number density = 20.029151 Si / 1000 Ang^3
#
#
#
# Elastic Constant Matrix: (Units=GPa)
#
#
# Indices 1 2 3 4 5 6 
#
# 1 53.6254 28.2305 8.9544 5.2672 -0.2200 13.2043
# 2 28.2305 98.4325 53.9173 9.5613 4.4016 23.6724
# 3 8.9544 53.9173 80.3460 -18.1369 -4.7607 4.2826
# 4 5.2672 9.5613 -18.1369 32.3034 9.7911 -3.3586
# 5 -0.2200 4.4016 -4.7607 9.7911 19.8729 5.3077
# 6 13.2043 23.6724 4.2826 -3.3586 5.3077 42.4741
#
#
#
# Elastic Compliance Matrix: (Units=1/GPa)
#
#
# Indices 1 2 3 4 5 6 
#
# 1 0.023157 -0.006190 0.001410 -0.003082 0.004747 -0.004728
# 2 -0.006190 0.032031 -0.025511 -0.025504 0.003514 -0.015811
# 3 0.001410 -0.025511 0.035165 0.029638 -0.004005 0.013078
# 4 -0.003082 -0.025504 0.029638 0.065336 -0.024942 0.020467
# 5 0.004747 0.003514 -0.004005 -0.024942 0.064409 -0.013051
# 6 -0.004728 -0.015811 0.013078 0.020467 -0.013051 0.035757
#
#
# Mechanical properties :
#
#
# Convention : Reuss Voigt Hill
#
# Bulk Modulus (GPa) = 33.58869 46.06758 39.82813
# Shear Modulus (GPa) = 15.32046 28.35019 21.83533
#
# Velocity S-wave (km/s) = 2.76870 3.76632 3.30537
# Velocity P-wave (km/s) = 5.19877 6.47795 5.87329
#
# Compressibility (1/GPa) = 0.02977193
#
# Stress axis : x y z
#
# Youngs Moduli (GPa) = 43.18259 31.21941 28.43761
#
# Poissons Ratio (x) = 0.19324 -0.04011
# Poissons Ratio (y) = 0.26729 0.72548
# Poissons Ratio (z) = -0.06090 0.79645
#
# Static dielectric constant tensor:
#      x y z
#    x 1.752340 -0.001300 0.000610 
#    y -0.001300 1.713880 -0.003230 
#    z 0.000610 -0.003230 1.704570 
# 
# From -- ./inp_files/217434.got.cif
#   From: 2010.05.17/outbox.cif.g08.bks.cpg/sg2_109_cif.got.tgz:217434.got - 2010.06.03 11:33:40.
