data_PCOD9109327
_publ_section_title
;
Structure prediction by ZEFSAII (Michael W. Deem and Ramdas Pophale) SiO2 
 PCOD9109327
Probable space group: P -1
;
_chemical_formula_sum "Si O2"
_cell_formula_units_Z 16
_cell_length_a 12.235956
_cell_length_b 12.586413
_cell_length_c 11.655257
_cell_angle_alpha 47.275326
_cell_angle_beta 118.093472
_cell_angle_gamma 79.899466
_cell_volume 751.090794
_symmetry_space_group_name_H-M "P -1"
_symmetry_group_IT_number 2
_symmetry_cell_setting 'triclinic'
loop_
_space_group_symop_operation_xyz
x,y,z
-x,-y,-z
loop_
_atom_site_type_symbol
_atom_site_label
_atom_site_fract_x
_atom_site_fract_y
_atom_site_fract_z
Si Si1 0.382107 0.297808 0.059866
Si Si2 0.721558 0.817304 0.560010
Si Si3 0.875805 0.406947 0.082161
Si Si4 0.723456 0.336331 0.873537
Si Si5 0.681459 0.650525 0.463177
Si Si6 0.400202 0.427738 0.741332
Si Si7 0.080447 0.347954 0.764370
Si Si8 0.036517 0.083909 0.857200
O O1 0.259468 0.494138 0.947712
O O2 0.567224 0.050246 0.380080
O O3 0.456289 0.323470 0.970237
O O4 0.237321 0.307126 0.930775
O O5 0.794142 0.621065 0.818334
O O6 0.627454 0.827138 0.393298
O O7 0.905157 0.749953 0.666210
O O8 0.851358 0.298010 0.061979
O O9 0.671545 0.506838 0.630585
O O10 0.530757 0.442895 0.753501
O O11 0.844200 0.102289 0.044825
O O12 0.583371 0.711073 0.247301
O O13 0.904411 0.481086 0.667145
O O14 0.175738 0.670841 0.460237
O O15 0.146974 0.128046 0.923305
O O16 0.000000 0.500000 0.500000
O O17 0.000000 0.000000 0.000000
#
# Coordination Sequence:
#
# PCOD9109327 Si02
#       8
#     2   2   2   2   2   2   2   2
#     4  12  24  41  67  99 132 177 221 276 336 389
#     4  10  23  40  69  96 124 179 225 274 336 385
#     4  10  24  45  64  92 136 172 230 279 312 399
#     4  11  24  43  66  93 132 180 219 270 328 397
#     4  10  20  41  64  96 134 164 218 281 326 386
#     4  11  25  40  64 100 134 168 219 276 329 401
#     4  11  21  40  66  99 139 163 210 284 334 385
#     4  11  23  40  67  98 132 178 212 262 339 397
#
# _framework density 21.302351999999999
#
# number of rings (size 3 to 8) (size 9 to 14) (size 15 to 20)
#    0.000    1.250    6.250    0.750    1.750    5.000 
#    0.000    1.250    0.000    0.000    0.000    0.000 
#    0.000    0.000    0.000    0.000    0.000    0.000 
#
# Total GULP energy -89449.079519 kJ/mol
# GULP energy per Si atom -5590.567470 kJ/mol
# Density = 2.125387 g / cm^3
# Si number density = 21.302352 Si / 1000 Ang^3
#
#
#
# Elastic Constant Matrix: (Units=GPa)
#
#
# Indices 1 2 3 4 5 6 
#
# 1 98.8769 9.2513 -6.9945 -4.0667 3.7448 -18.1490
# 2 9.2513 78.7347 -6.9751 -1.4863 -7.8406 -10.2204
# 3 -6.9945 -6.9751 19.1447 -4.7759 2.5881 -2.4752
# 4 -4.0667 -1.4863 -4.7759 19.3052 -3.4877 -0.0904
# 5 3.7448 -7.8406 2.5881 -3.4877 22.7934 -3.3358
# 6 -18.1490 -10.2204 -2.4752 -0.0904 -3.3358 24.0007
#
#
#
# Elastic Compliance Matrix: (Units=1/GPa)
#
#
# Indices 1 2 3 4 5 6 
#
# 1 0.012733 0.000572 0.007424 0.004523 -0.000497 0.010586
# 2 0.000572 0.015038 0.006982 0.004157 0.006155 0.008427
# 3 0.007424 0.006982 0.064040 0.017806 -0.001155 0.015098
# 4 0.004523 0.004157 0.017806 0.059135 0.008957 0.008494
# 5 -0.000497 0.006155 -0.001155 0.008957 0.048884 0.008954
# 6 0.010586 0.008427 0.015098 0.008494 0.008954 0.056092
#
#
# Mechanical properties :
#
#
# Convention : Reuss Voigt Hill
#
# Bulk Modulus (GPa) = 8.21241 20.81330 14.51285
# Shear Modulus (GPa) = 18.75779 26.65147 22.70463
#
# Velocity S-wave (km/s) = 2.97063 3.54093 3.26824
# Velocity P-wave (km/s) = 3.95344 5.14871 4.59015
#
# Compressibility (1/GPa) = 0.12176699
#
# Stress axis : x y z
#
# Youngs Moduli (GPa) = 78.53499 66.50010 15.61512
#
# Poissons Ratio (x) = -0.03801 -0.11593
# Poissons Ratio (y) = -0.04489 -0.10902
# Poissons Ratio (z) = -0.58308 -0.46430
#
# Static dielectric constant tensor:
#      x y z
#    x 1.751170 -0.004300 -0.011380 
#    y -0.004300 1.778020 0.007330 
#    z -0.011380 0.007330 1.783110 
# 
# From -- ./inp_files/427545.got.cif
#   From: 2010.05.17/outbox.cif.g08.bks.cpg/sg2_214_cif.got.tgz:427545.got - 2010.06.03 11:33:40.
