data_PCOD9109766
_publ_section_title
;
Structure prediction by ZEFSAII (Michael W. Deem and Ramdas Pophale) SiO2 
 PCOD9109766
Probable space group: P -1
;
_chemical_formula_sum "Si O2"
_cell_formula_units_Z 13
_cell_length_a 9.264044
_cell_length_b 14.866421
_cell_length_c 14.069162
_cell_angle_alpha 38.521660
_cell_angle_beta 157.147594
_cell_angle_gamma 137.696671
_cell_volume 467.274571
_symmetry_space_group_name_H-M "P -1"
_symmetry_group_IT_number 2
_symmetry_cell_setting 'triclinic'
loop_
_space_group_symop_operation_xyz
x,y,z
-x,-y,-z
loop_
_atom_site_type_symbol
_atom_site_label
_atom_site_fract_x
_atom_site_fract_y
_atom_site_fract_z
Si Si1 0.049439 0.485726 0.245060
Si Si2 0.500000 0.000000 0.500000
Si Si3 0.040890 0.576511 0.361337
Si Si4 0.812075 0.736857 0.627306
Si Si5 0.579374 0.016374 0.923303
Si Si6 0.335632 0.125708 0.098409
Si Si7 0.799589 0.792012 0.777159
O O1 0.500000 0.500000 0.500000
O O2 0.938445 0.467001 0.302511
O O3 0.943172 0.364027 0.203337
O O4 0.905432 0.638637 0.002244
O O5 0.593290 0.081134 0.378290
O O6 0.606648 0.161651 0.488560
O O7 0.466820 0.635648 0.548057
O O8 0.000000 0.500000 0.500000
O O9 0.807482 0.717246 0.099534
O O10 0.632765 0.849350 0.356268
O O11 0.951995 0.811222 0.748103
O O12 0.518605 0.898195 0.901192
O O13 0.026151 0.077754 0.152035
O O14 0.500000 0.000000 0.000000
O O15 0.000000 0.000000 0.000000
#
# Coordination Sequence:
#
# PCOD9109766 Si02
#       7
#     2   1   2   2   2   2   2
#     4  10  20  41  67  90 132 183 214 270 343 406
#     4  12  20  38  74  96 128 178 222 284 338 396
#     4  11  23  41  71 100 135 179 226 282 342 405
#     4  11  23  43  66  95 134 181 221 277 345 405
#     4  12  26  41  69 100 136 178 229 286 340 402
#     4  12  21  44  69  99 137 183 228 278 345 410
#     4  12  22  42  70  96 133 175 230 278 342 402
#
# _framework density 27.820902
#
# number of rings (size 3 to 8) (size 9 to 14) (size 15 to 20)
#    0.000    0.615    9.231    0.462    2.154    0.615 
#    0.000    0.769    0.000    0.000    0.000    0.000 
#    0.000    0.000    0.000    0.000    0.000    0.000 
#
# Total GULP energy -72667.065003 kJ/mol
# GULP energy per Si atom -5589.774231 kJ/mol
# Density = 2.775758 g / cm^3
# Si number density = 27.820902 Si / 1000 Ang^3
#
#
#
# Elastic Constant Matrix: (Units=GPa)
#
#
# Indices 1 2 3 4 5 6 
#
# 1 253.2816 81.8482 79.9060 -16.2652 -41.7512 -67.3940
# 2 81.8482 144.7053 57.2030 -11.2786 -0.5259 -66.9045
# 3 79.9060 57.2030 197.7005 -33.0122 -28.2259 -44.1757
# 4 -16.2652 -11.2786 -33.0122 48.1663 -13.8593 12.4706
# 5 -41.7512 -0.5259 -28.2259 -13.8593 65.1696 7.8749
# 6 -67.3940 -66.9045 -44.1757 12.4706 7.8749 73.7457
#
#
#
# Elastic Compliance Matrix: (Units=1/GPa)
#
#
# Indices 1 2 3 4 5 6 
#
# 1 0.006217 -0.001719 -0.000517 0.001593 0.003704 0.003147
# 2 -0.001719 0.012945 -0.001703 -0.002262 -0.003412 0.009899
# 3 -0.000517 -0.001703 0.007465 0.005371 0.003894 0.001130
# 4 0.001593 -0.002262 0.005371 0.028052 0.009676 -0.003155
# 5 0.003704 -0.003412 0.003894 0.009676 0.021593 -0.001320
# 6 0.003147 0.009899 0.001130 -0.003155 -0.001320 0.026768
#
#
# Mechanical properties :
#
#
# Convention : Reuss Voigt Hill
#
# Bulk Modulus (GPa) = 53.34239 114.84465 84.09352
# Shear Modulus (GPa) = 42.67320 62.53166 52.60243
#
# Velocity S-wave (km/s) = 3.92069 4.74608 4.35300
# Velocity P-wave (km/s) = 6.30166 8.45005 7.45366
#
# Compressibility (1/GPa) = 0.01874682
#
# Stress axis : x y z
#
# Youngs Moduli (GPa) = 160.84367 77.25280 133.95275
#
# Poissons Ratio (x) = 0.13283 0.06930
# Poissons Ratio (y) = 0.27656 0.22817
# Poissons Ratio (z) = 0.08321 0.13159
#
# Static dielectric constant tensor:
#      x y z
#    x 2.259350 0.113190 0.084360 
#    y 0.113190 2.545630 0.125320 
#    z 0.084360 0.125320 2.181480 
# 
# From -- ./inp_files/172004.got.cif
#   From: 2010.05.17/outbox.cif.g08.bks.cpg/sg2_87_cif.got.tgz:172004.got - 2010.06.03 11:33:40.
