data_PCOD9109144
_publ_section_title
;
Structure prediction by ZEFSAII (Michael W. Deem and Ramdas Pophale) SiO2 
 PCOD9109144
Probable space group: P -1
;
_chemical_formula_sum "Si O2"
_cell_formula_units_Z 16
_cell_length_a 14.915899
_cell_length_b 8.426216
_cell_length_c 12.926925
_cell_angle_alpha 95.265408
_cell_angle_beta 150.175946
_cell_angle_gamma 77.738788
_cell_volume 775.175977
_symmetry_space_group_name_H-M "P -1"
_symmetry_group_IT_number 2
_symmetry_cell_setting 'triclinic'
loop_
_space_group_symop_operation_xyz
x,y,z
-x,-y,-z
loop_
_atom_site_type_symbol
_atom_site_label
_atom_site_fract_x
_atom_site_fract_y
_atom_site_fract_z
Si Si1 0.610936 0.994661 0.445603
Si Si2 0.151137 0.261479 0.476490
Si Si3 0.955668 0.451796 0.775620
Si Si4 0.765983 0.471373 0.786337
Si Si5 0.272111 0.167357 0.973531
Si Si6 0.545790 0.800678 0.044834
Si Si7 0.532633 0.230817 0.561546
Si Si8 0.854892 0.121999 0.283848
O O1 0.647514 0.097877 0.586921
O O2 0.783055 0.896358 0.543459
O O3 0.519414 0.859412 0.397146
O O4 0.455988 0.108830 0.223962
O O5 0.318984 0.251371 0.725047
O O6 0.121387 0.425112 0.387683
O O7 0.968436 0.238337 0.351143
O O8 0.101981 0.290963 0.868975
O O9 0.809804 0.410705 0.708114
O O10 0.060541 0.546701 0.965709
O O11 0.637961 0.367163 0.701453
O O12 0.656417 0.663868 0.677171
O O13 0.334936 0.257901 0.942594
O O14 0.209479 0.004928 0.865349
O O15 0.339430 0.774914 0.850763
O O16 0.500000 0.000000 0.000000
O O17 0.000000 0.000000 0.500000
#
# Coordination Sequence:
#
# PCOD9109144 Si02
#       8
#     2   2   2   2   2   2   2   2
#     4  11  21  40  64  97 119 164 214 260 303 373
#     4  12  23  40  66  93 126 164 209 257 312 371
#     4  11  25  41  60  91 127 168 204 261 312 373
#     4  10  22  43  58  87 131 166 202 261 321 366
#     4  11  22  41  64  89 128 164 205 257 313 370
#     4  10  20  41  63  90 128 157 199 264 309 358
#     4  10  22  39  64  89 124 165 211 258 313 372
#     4  11  21  40  67  94 122 163 210 256 313 368
#
# _framework density 20.640476
#
# number of rings (size 3 to 8) (size 9 to 14) (size 15 to 20)
#    0.000    1.250    7.500    0.000    3.500    0.500 
#    0.000    1.875    0.000    0.000    0.000    0.000 
#    0.000    0.000    0.000    0.000    0.000    0.000 
#
# Total GULP energy -89288.499567 kJ/mol
# GULP energy per Si atom -5580.531223 kJ/mol
# Density = 2.059350 g / cm^3
# Si number density = 20.640476 Si / 1000 Ang^3
#
#
#
# Elastic Constant Matrix: (Units=GPa)
#
#
# Indices 1 2 3 4 5 6 
#
# 1 84.4667 18.6729 10.8646 5.1369 2.0019 13.4158
# 2 18.6729 22.9974 -3.6687 -15.7343 0.3162 2.0903
# 3 10.8646 -3.6687 60.4290 -3.1105 -6.5716 23.9039
# 4 5.1369 -15.7343 -3.1105 17.4706 5.3049 -4.2898
# 5 2.0019 0.3162 -6.5716 5.3049 33.7698 -7.4446
# 6 13.4158 2.0903 23.9039 -4.2898 -7.4446 28.5000
#
#
#
# Elastic Compliance Matrix: (Units=1/GPa)
#
#
# Indices 1 2 3 4 5 6 
#
# 1 -1.411559 4.504779 0.528752 4.840129 -0.508744 0.486227
# 2 4.504779-14.241175 -1.671001-15.318090 1.603200 -1.561404
# 3 0.528752 -1.671001 -0.171289 -1.798240 0.188452 -0.204120
# 4 4.840129-15.318090 -1.798240-16.412871 1.716983 -1.668623
# 5 -0.508744 1.603200 0.188452 1.716983 -0.147795 0.183669
# 6 0.486227 -1.561404 -0.204120 -1.668623 0.183669 -0.111256
#
#
# Mechanical properties :
#
#
# Convention : Reuss Voigt Hill
#
# Bulk Modulus (GPa) = -0.10990 24.40342 12.14676
# Shear Modulus (GPa) = -0.11833 25.41636 12.64902
#
# Velocity S-wave (km/s) = -0.23970 3.51292 2.47822
# Velocity P-wave (km/s) = 0.36051 5.32004 3.75319
#
# Compressibility (1/GPa) = -9.09896330
#
# Stress axis : x y z
#
# Youngs Moduli (GPa) = -0.70844 -0.07022 -5.83810
#
# Poissons Ratio (x) = 0.31632 3.08691
# Poissons Ratio (y) = 3.19135 -9.75547
# Poissons Ratio (z) = 0.37459 -0.11734
#
# Static dielectric constant tensor:
#      x y z
#    x 1.796090 -0.018750 0.031680 
#    y -0.018750 1.720100 0.014770 
#    z 0.031680 0.014770 1.766960 
# 
# From -- ./inp_files/202737.got.cif
#   From: 2010.05.17/outbox.cif.g08.bks.cpg/sg2_102_cif.got.tgz:202737.got - 2010.06.03 11:33:40.
