data_PCOD9109434
_publ_section_title
;
Structure prediction by ZEFSAII (Michael W. Deem and Ramdas Pophale) SiO2 
 PCOD9109434
Probable space group: P -1
;
_chemical_formula_sum "Si O2"
_cell_formula_units_Z 15
_cell_length_a 18.169691
_cell_length_b 15.034813
_cell_length_c 6.591208
_cell_angle_alpha 106.667111
_cell_angle_beta 115.996167
_cell_angle_gamma 24.846272
_cell_volume 650.031280
_symmetry_space_group_name_H-M "P -1"
_symmetry_group_IT_number 2
_symmetry_cell_setting 'triclinic'
loop_
_space_group_symop_operation_xyz
x,y,z
-x,-y,-z
loop_
_atom_site_type_symbol
_atom_site_label
_atom_site_fract_x
_atom_site_fract_y
_atom_site_fract_z
Si Si1 0.310016 0.522971 0.567084
Si Si2 0.273625 0.661639 0.217783
Si Si3 0.236968 0.402517 0.560298
Si Si4 0.500000 0.500000 0.000000
Si Si5 0.177461 0.139213 0.477554
Si Si6 0.817444 0.729850 0.803391
Si Si7 0.952418 0.929658 0.682193
Si Si8 0.522114 0.083738 0.020763
O O1 0.335046 0.522927 0.364034
O O2 0.327346 0.396197 0.547378
O O3 0.089603 0.774183 0.548922
O O4 0.448186 0.447572 0.816144
O O5 0.430292 0.539242 0.169810
O O6 0.100252 0.799336 0.959302
O O7 0.184113 0.840650 0.351318
O O8 0.278008 0.261067 0.417900
O O9 0.319615 0.325508 0.838571
O O10 0.003599 0.650323 0.454716
O O11 0.137302 0.240957 0.295134
O O12 0.164429 0.042110 0.380901
O O13 0.377742 0.964395 0.708933
O O14 0.670840 0.929313 0.911218
O O15 0.000000 0.500000 0.000000
O O16 0.500000 0.000000 0.000000
#
# Coordination Sequence:
#
# PCOD9109434 Si02
#       8
#     2   2   2   1   2   2   2   2
#     4  10  22  40  65  93 130 171 216 274 337 391
#     4  10  20  41  65  91 132 168 215 276 331 395
#     4  11  24  44  65 100 131 174 226 271 336 398
#     4  10  22  40  58  94 128 162 214 266 326 394
#     4  11  24  44  67  98 132 175 224 277 334 389
#     4  12  24  42  69  94 134 179 218 278 333 393
#     4   9  22  39  65  95 122 170 226 265 329 404
#     4  12  25  44  64  93 135 176 224 277 325 395
#
# _framework density 23.075814000000001
#
# number of rings (size 3 to 8) (size 9 to 14) (size 15 to 20)
#    0.000    1.333    2.667    2.400    1.867    2.133 
#    2.400    1.333    0.000    0.000    0.000    0.000 
#    0.000    0.000    0.000    0.000    0.000    0.000 
#
# Total GULP energy -83660.425909 kJ/mol
# GULP energy per Si atom -5577.361727 kJ/mol
# Density = 2.302329 g / cm^3
# Si number density = 23.075814 Si / 1000 Ang^3
#
#
#
# Elastic Constant Matrix: (Units=GPa)
#
#
# Indices 1 2 3 4 5 6 
#
# 1 196.8809 16.1026 49.5058 3.4772 -6.0310 17.7893
# 2 16.1026 46.9277 22.4800 -0.9686 -7.2336 -1.5243
# 3 49.5058 22.4800 70.5071 -16.7531 7.0017 -5.9092
# 4 3.4772 -0.9686 -16.7531 30.0942 -9.9501 -7.1898
# 5 -6.0310 -7.2336 7.0017 -9.9501 34.7747 -7.3624
# 6 17.7893 -1.5243 -5.9092 -7.1898 -7.3624 18.4951
#
#
#
# Elastic Compliance Matrix: (Units=1/GPa)
#
#
# Indices 1 2 3 4 5 6 
#
# 1 0.009938 0.000671 -0.011781 -0.013851 -0.004015 -0.020250
# 2 0.000671 0.027131 -0.010457 -0.002662 0.007113 0.000047
# 3 -0.011781 -0.010457 0.035723 0.031241 0.005168 0.036085
# 4 -0.013851 -0.002662 0.031241 0.075593 0.025654 0.062682
# 5 -0.004015 0.007113 0.005168 0.025654 0.042854 0.033131
# 6 -0.020250 0.000047 0.036085 0.062682 0.033131 0.122635
#
#
# Mechanical properties :
#
#
# Convention : Reuss Voigt Hill
#
# Bulk Modulus (GPa) = 33.71680 54.49916 44.10798
# Shear Modulus (GPa) = 13.62791 31.75464 22.69128
#
# Velocity S-wave (km/s) = 2.43280 3.71361 3.13922
# Velocity P-wave (km/s) = 4.74704 6.48510 5.68291
#
# Compressibility (1/GPa) = 0.02965880
#
# Stress axis : x y z
#
# Youngs Moduli (GPa) = 100.62257 36.85790 27.99290
#
# Poissons Ratio (x) = -0.02473 0.32980
# Poissons Ratio (y) = -0.06752 0.29271
# Poissons Ratio (z) = 1.18547 0.38541
#
# Static dielectric constant tensor:
#      x y z
#    x 1.818380 -0.035470 0.015880 
#    y -0.035470 1.903960 -0.013690 
#    z 0.015880 -0.013690 1.883700 
# 
# From -- ./inp_files/46496.got.cif
#   From: 2010.05.17/outbox.cif.g08.bks.cpg/sg2_24_cif.got.tgz:46496.got - 2010.06.03 11:33:40.
