data_PCOD9109568
_publ_section_title
;
Structure prediction by ZEFSAII (Michael W. Deem and Ramdas Pophale) SiO2 
 PCOD9109568
Probable space group: P -1
;
_chemical_formula_sum "Si O2"
_cell_formula_units_Z 16
_cell_length_a 17.000097
_cell_length_b 15.413554
_cell_length_c 15.551907
_cell_angle_alpha 153.373912
_cell_angle_beta 138.625856
_cell_angle_gamma 25.083671
_cell_volume 735.666000
_symmetry_space_group_name_H-M "P -1"
_symmetry_group_IT_number 2
_symmetry_cell_setting 'triclinic'
loop_
_space_group_symop_operation_xyz
x,y,z
-x,-y,-z
loop_
_atom_site_type_symbol
_atom_site_label
_atom_site_fract_x
_atom_site_fract_y
_atom_site_fract_z
Si Si1 0.561730 0.817997 0.017985
Si Si2 0.606412 0.566702 0.651965
Si Si3 0.201676 0.673591 0.567057
Si Si4 0.851371 0.523518 0.258792
Si Si5 0.767471 0.786754 0.767668
Si Si6 0.817360 0.303623 0.894844
Si Si7 0.440243 0.747019 0.387821
Si Si8 0.328097 0.295284 0.560435
O O1 0.502859 0.105342 0.189636
O O2 0.385842 0.960855 0.060132
O O3 0.620625 0.610728 0.801650
O O4 0.739386 0.582972 0.021282
O O5 0.500000 0.500000 0.500000
O O6 0.792464 0.295109 0.501967
O O7 0.143604 0.525039 0.398052
O O8 0.421940 0.419411 0.561377
O O9 0.038861 0.988850 0.768253
O O10 0.852604 0.499342 0.341650
O O11 0.064068 0.286806 0.185035
O O12 0.711480 0.879989 0.426005
O O13 0.785934 0.407548 0.058939
O O14 0.680050 0.822201 0.636673
O O15 0.686864 0.282464 0.749179
O O16 0.609371 0.570421 0.298550
O O17 0.500000 0.000000 0.500000
#
# Coordination Sequence:
#
# PCOD9109568 Si02
#       8
#     2   2   2   2   2   2   2   2
#     4  10  23  40  64  94 124 165 208 257 307 382
#     4  10  21  41  68  91 127 161 204 259 317 364
#     4  10  22  42  65  91 126 170 207 260 319 373
#     4  11  22  38  65  94 124 170 216 260 313 375
#     4  10  20  41  66  88 130 169 210 259 317 373
#     4  12  24  39  65  96 125 169 216 250 316 377
#     4  10  22  43  63  88 132 169 209 266 314 364
#     4   9  19  38  64  90 125 170 211 262 316 361
#
# _framework density 21.749002000000001
#
# number of rings (size 3 to 8) (size 9 to 14) (size 15 to 20)
#    0.000    1.750    1.250    4.125    3.500    1.000 
#    0.000    3.125    0.000    0.000    0.000    0.000 
#    0.000    0.000    0.000    0.000    0.000    0.000 
#
# Total GULP energy -89118.431376 kJ/mol
# GULP energy per Si atom -5569.901961 kJ/mol
# Density = 2.169950 g / cm^3
# Si number density = 21.749002 Si / 1000 Ang^3
#
#
#
# Elastic Constant Matrix: (Units=GPa)
#
#
# Indices 1 2 3 4 5 6 
#
# 1 118.8217 30.8158 44.1114 -13.0506 -33.7979 -5.6328
# 2 30.8158 43.1030 11.7487 -4.3958 -8.7371 -10.1226
# 3 44.1114 11.7487 69.2826 -10.2663 -15.1826 -10.3522
# 4 -13.0506 -4.3958 -10.2663 35.5718 1.1017 -0.8134
# 5 -33.7979 -8.7371 -15.1826 1.1017 27.4725 -6.2490
# 6 -5.6328 -10.1226 -10.3522 -0.8134 -6.2490 25.5952
#
#
#
# Elastic Compliance Matrix: (Units=1/GPa)
#
#
# Indices 1 2 3 4 5 6 
#
# 1 0.017480 -0.006369 -0.005186 0.003676 0.017277 0.003565
# 2 -0.006369 0.031993 0.002606 0.002477 0.006879 0.014063
# 3 -0.005186 0.002606 0.021475 0.004598 0.008593 0.010819
# 4 0.003676 0.002477 0.004598 0.030994 0.008113 0.006614
# 5 0.017277 0.006879 0.008593 0.008113 0.070515 0.027472
# 6 0.003565 0.014063 0.010819 0.006614 0.027472 0.056710
#
#
# Mechanical properties :
#
#
# Convention : Reuss Voigt Hill
#
# Bulk Modulus (GPa) = 18.85043 44.95102 31.90072
# Shear Modulus (GPa) = 18.88590 27.36333 23.12461
#
# Velocity S-wave (km/s) = 2.94999 3.55088 3.26429
# Velocity P-wave (km/s) = 4.50437 6.12573 5.37652
#
# Compressibility (1/GPa) = 0.05304919
#
# Stress axis : x y z
#
# Youngs Moduli (GPa) = 57.20849 31.25658 46.56666
#
# Poissons Ratio (x) = 0.19908 0.24148
# Poissons Ratio (y) = 0.36438 -0.12134
# Poissons Ratio (z) = 0.29667 -0.08145
#
# Static dielectric constant tensor:
#      x y z
#    x 1.866780 -0.019510 -0.071320 
#    y -0.019510 1.849590 0.023190 
#    z -0.071320 0.023190 1.868350 
# 
# From -- ./inp_files/534593.got.cif
#   From: 2010.05.17/outbox.cif.g08.bks.cpg/sg2_268_cif.got.tgz:534593.got - 2010.06.03 11:33:40.
