data_PCOD9109018
_publ_section_title
;
Structure prediction by ZEFSAII (Michael W. Deem and Ramdas Pophale) SiO2 
 PCOD9109018
Probable space group: P -1
;
_chemical_formula_sum "Si O2"
_cell_formula_units_Z 15
_cell_length_a 15.752636
_cell_length_b 7.609022
_cell_length_c 7.155344
_cell_angle_alpha 80.421648
_cell_angle_beta 101.760811
_cell_angle_gamma 50.472248
_cell_volume 595.761175
_symmetry_space_group_name_H-M "P -1"
_symmetry_group_IT_number 2
_symmetry_cell_setting 'triclinic'
loop_
_space_group_symop_operation_xyz
x,y,z
-x,-y,-z
loop_
_atom_site_type_symbol
_atom_site_label
_atom_site_fract_x
_atom_site_fract_y
_atom_site_fract_z
Si Si1 0.126040 0.618050 0.762668
Si Si2 0.307622 0.418713 0.337732
Si Si3 0.456081 0.758155 0.391197
Si Si4 0.224496 0.170796 0.434015
Si Si5 0.623329 0.869979 0.973721
Si Si6 0.000000 0.500000 0.000000
Si Si7 0.933394 0.779631 0.378200
Si Si8 0.119903 0.920298 0.995165
O O1 0.147879 0.781191 0.835324
O O2 0.027971 0.770292 0.528121
O O3 0.255537 0.347117 0.820528
O O4 0.072243 0.565001 0.908086
O O5 0.424782 0.291831 0.532164
O O6 0.224235 0.387392 0.399214
O O7 0.353857 0.275626 0.183041
O O8 0.229196 0.709642 0.213727
O O9 0.500000 0.500000 0.500000
O O10 0.359639 0.940758 0.473474
O O11 0.390413 0.906607 0.143233
O O12 0.192243 0.084359 0.603872
O O13 0.123886 0.274249 0.215514
O O14 0.500000 0.000000 0.000000
O O15 0.000000 0.500000 0.500000
O O16 0.918597 0.829070 0.139441
O O17 0.000000 0.000000 0.000000
#
# Coordination Sequence:
#
# PCOD9109018 Si02
#       8
#     2   2   2   2   2   1   2   2
#     4  10  22  39  64  91 127 165 211 265 320 373
#     4  10  22  43  64  87 128 171 216 255 324 382
#     4  11  24  41  63  95 125 172 215 261 317 383
#     4  10  20  41  65  89 126 166 214 262 320 374
#     4  10  21  40  65  91 123 167 214 256 321 382
#     4  10  16  36  70  88 118 160 212 258 316 370
#     4  11  25  38  62  95 128 162 214 266 324 380
#     4  11  23  41  63  93 126 166 213 263 326 378
#
# _framework density 25.177873000000002
#
# number of rings (size 3 to 8) (size 9 to 14) (size 15 to 20)
#    0.000    1.600    4.000    2.800    1.867    8.533 
#    0.000    1.333    0.000    0.000    0.000    0.000 
#    0.000    0.000    0.000    0.000    0.000    0.000 
#
# Total GULP energy -83647.477580 kJ/mol
# GULP energy per Si atom -5576.498505 kJ/mol
# Density = 2.512057 g / cm^3
# Si number density = 25.177873 Si / 1000 Ang^3
#
#
#
# Elastic Constant Matrix: (Units=GPa)
#
#
# Indices 1 2 3 4 5 6 
#
# 1 103.7980 14.0314 31.0023 -2.1110 -1.4975 -35.6651
# 2 14.0314 40.1235 26.0368 -20.0123 -7.3981 -15.5538
# 3 31.0023 26.0368 133.5784 -17.2283 -8.6993 -19.4102
# 4 -2.1110 -20.0123 -17.2283 48.6137 -1.5028 -0.5321
# 5 -1.4975 -7.3981 -8.6993 -1.5028 49.7765 1.6596
# 6 -35.6651 -15.5538 -19.4102 -0.5321 1.6596 51.1273
#
#
#
# Elastic Compliance Matrix: (Units=1/GPa)
#
#
# Indices 1 2 3 4 5 6 
#
# 1 0.013075 -0.000250 -0.001797 -0.000088 -0.000239 0.008370
# 2 -0.000250 0.040412 -0.003921 0.015519 0.005428 0.010616
# 3 -0.001797 -0.003921 0.009075 0.001564 0.000964 0.000984
# 4 -0.000088 0.015519 0.001564 0.027669 0.003231 0.005437
# 5 -0.000239 0.005428 0.000964 0.003231 0.021115 0.001198
# 6 0.008370 0.010616 0.000984 0.005437 0.001198 0.029018
#
#
# Mechanical properties :
#
#
# Convention : Reuss Voigt Hill
#
# Bulk Modulus (GPa) = 19.75256 46.62677 33.18967
# Shear Modulus (GPa) = 29.55509 43.66547 36.61028
#
# Velocity S-wave (km/s) = 3.42987 4.16899 3.81736
# Velocity P-wave (km/s) = 4.85258 6.46011 5.71317
#
# Compressibility (1/GPa) = 0.05062635
#
# Stress axis : x y z
#
# Youngs Moduli (GPa) = 76.48153 24.74528 110.19212
#
# Poissons Ratio (x) = 0.00619 0.19797
# Poissons Ratio (y) = 0.01912 0.43208
# Poissons Ratio (z) = 0.13741 0.09703
#
# Static dielectric constant tensor:
#      x y z
#    x 2.368800 0.022900 -0.266110 
#    y 0.022900 2.078130 0.023390 
#    z -0.266110 0.023390 2.126750 
# 
# From -- ./inp_files/294494.got.cif
#   From: 2010.05.17/outbox.cif.g08.bks.cpg/sg2_148_cif.got.tgz:294494.got - 2010.06.03 11:33:40.
