data_PCOD9109730
_publ_section_title
;
Structure prediction by ZEFSAII (Michael W. Deem and Ramdas Pophale) SiO2 
 PCOD9109730
Probable space group: P -1
;
_chemical_formula_sum "Si O2"
_cell_formula_units_Z 16
_cell_length_a 13.417966
_cell_length_b 10.069113
_cell_length_c 5.463060
_cell_angle_alpha 108.992111
_cell_angle_beta 107.479849
_cell_angle_gamma 82.382283
_cell_volume 665.194142
_symmetry_space_group_name_H-M "P -1"
_symmetry_group_IT_number 2
_symmetry_cell_setting 'triclinic'
loop_
_space_group_symop_operation_xyz
x,y,z
-x,-y,-z
loop_
_atom_site_type_symbol
_atom_site_label
_atom_site_fract_x
_atom_site_fract_y
_atom_site_fract_z
Si Si1 0.951385 0.068305 0.761851
Si Si2 0.475642 0.650292 0.702573
Si Si3 0.749017 0.928689 0.625626
Si Si4 0.267890 0.535555 0.594374
Si Si5 0.692370 0.736615 0.863534
Si Si6 0.143815 0.337767 0.668224
Si Si7 0.057624 0.627974 0.244332
Si Si8 0.446307 0.954045 0.683064
O O1 0.962712 0.233215 0.844198
O O2 0.829012 0.049520 0.715603
O O3 0.000000 0.000000 0.500000
O O4 0.000000 0.000000 0.000000
O O5 0.500000 0.500000 0.500000
O O6 0.370863 0.624134 0.768327
O O7 0.587563 0.700250 0.919908
O O8 0.443368 0.783900 0.587195
O O9 0.692398 0.885285 0.809446
O O10 0.820494 0.788870 0.555582
O O11 0.664502 0.962876 0.376055
O O12 0.308299 0.389721 0.411052
O O13 0.200666 0.481719 0.739521
O O14 0.178030 0.604813 0.394295
O O15 0.800895 0.714925 0.072766
O O16 0.019900 0.349748 0.568849
O O17 0.000000 0.500000 0.000000
O O18 0.500000 0.000000 0.500000
O O19 0.500000 0.000000 0.000000
#
# Coordination Sequence:
#
# PCOD9109730 Si02
#       8
#     2   2   2   2   2   2   2   2
#     4  12  28  47  73 110 147 195 246 304 370 438
#     4  10  22  46  70 104 147 181 242 296 366 432
#     4  11  24  43  73 102 148 188 248 297 370 443
#     4  10  23  39  64 103 136 185 235 302 357 427
#     4  10  20  41  67 102 139 186 232 294 371 427
#     4  11  22  40  71 100 140 195 237 301 372 434
#     4  12  24  45  71 102 144 188 249 303 368 439
#     4  12  26  48  75 110 144 195 245 300 366 440
#
# _framework density 24.053125000000001
#
# number of rings (size 3 to 8) (size 9 to 14) (size 15 to 20)
#    0.000    1.000    3.750    2.625    1.750    1.500 
#    4.500    0.000    0.000    0.000    0.000    0.000 
#    0.000    0.000    0.000    0.000    0.000    0.000 
#
# Total GULP energy -89196.419172 kJ/mol
# GULP energy per Si atom -5574.776198 kJ/mol
# Density = 2.399838 g / cm^3
# Si number density = 24.053125 Si / 1000 Ang^3
#
#
#
# Elastic Constant Matrix: (Units=GPa)
#
#
# Indices 1 2 3 4 5 6 
#
# 1 138.8590 41.5936 25.4935 0.3872 24.4172 23.5666
# 2 41.5936 175.6806 35.8844 -8.1385 0.5962 20.5932
# 3 25.4935 35.8844 83.6201 -18.8779 7.3579 8.0984
# 4 0.3872 -8.1385 -18.8779 36.4591 0.0384 1.7053
# 5 24.4172 0.5962 7.3579 0.0384 34.1541 4.1756
# 6 23.5666 20.5932 8.0984 1.7053 4.1756 45.1380
#
#
#
# Elastic Compliance Matrix: (Units=1/GPa)
#
#
# Indices 1 2 3 4 5 6 
#
# 1 0.009627 -0.001575 -0.001652 -0.001144 -0.006082 -0.003406
# 2 -0.001575 0.006786 -0.002289 0.000440 0.001750 -0.002042
# 3 -0.001652 -0.002289 0.015414 0.007535 -0.001991 -0.000959
# 4 -0.001144 0.000440 0.007535 0.031538 -0.000593 -0.002092
# 5 -0.006082 0.001750 -0.001991 -0.000593 0.034074 -0.000396
# 6 -0.003406 -0.002042 -0.000959 -0.002092 -0.000396 0.025151
#
#
# Mechanical properties :
#
#
# Convention : Reuss Voigt Hill
#
# Bulk Modulus (GPa) = 48.08915 67.12252 57.60584
# Shear Modulus (GPa) = 35.57307 42.82946 39.20127
#
# Velocity S-wave (km/s) = 3.84987 4.22432 4.04143
# Velocity P-wave (km/s) = 6.30859 7.19442 6.76602
#
# Compressibility (1/GPa) = 0.02079471
#
# Stress axis : x y z
#
# Youngs Moduli (GPa) = 103.87196 147.35488 64.87625
#
# Poissons Ratio (x) = 0.23207 0.10721
# Poissons Ratio (y) = 0.16359 0.14850
# Poissons Ratio (z) = 0.17165 0.33729
#
# Static dielectric constant tensor:
#      x y z
#    x 2.170690 0.006170 -0.113460 
#    y 0.006170 1.993450 0.074130 
#    z -0.113460 0.074130 2.034710 
# 
# From -- ./inp_files/90811.got.cif
#   From: 2010.05.17/outbox.cif.g08.bks.cpg/sg2_46_cif.got.tgz:90811.got - 2010.06.03 11:33:40.
