data_PCOD9109602
_publ_section_title
;
Structure prediction by ZEFSAII (Michael W. Deem and Ramdas Pophale) SiO2 
 PCOD9109602
Probable space group: P -1
;
_chemical_formula_sum "Si O2"
_cell_formula_units_Z 16
_cell_length_a 7.162873
_cell_length_b 14.587806
_cell_length_c 15.630463
_cell_angle_alpha 44.998654
_cell_angle_beta 88.370290
_cell_angle_gamma 122.757523
_cell_volume 701.782089
_symmetry_space_group_name_H-M "P -1"
_symmetry_group_IT_number 2
_symmetry_cell_setting 'triclinic'
loop_
_space_group_symop_operation_xyz
x,y,z
-x,-y,-z
loop_
_atom_site_type_symbol
_atom_site_label
_atom_site_fract_x
_atom_site_fract_y
_atom_site_fract_z
Si Si1 0.204257 0.071292 0.869320
Si Si2 0.253200 0.912851 0.431696
Si Si3 0.281601 0.646324 0.582351
Si Si4 0.152589 0.752976 0.024926
Si Si5 0.719047 0.496067 0.505070
Si Si6 0.180944 0.963684 0.225285
Si Si7 0.109794 0.938203 0.597003
Si Si8 0.970678 0.325722 0.110333
O O1 0.227209 0.931346 0.948741
O O2 0.013295 0.032081 0.820288
O O3 0.549874 0.318313 0.697262
O O4 0.000000 0.000000 0.000000
O O5 0.132959 0.706368 0.543647
O O6 0.136658 0.949891 0.337626
O O7 0.208398 0.905237 0.536784
O O8 0.613169 0.112075 0.277198
O O9 0.297238 0.594384 0.522344
O O10 0.613886 0.852344 0.486613
O O11 0.072392 0.444647 0.778708
O O12 0.464730 0.846677 0.934917
O O13 0.979508 0.680408 0.985086
O O14 0.500000 0.500000 0.500000
O O15 0.044883 0.746528 0.345699
O O16 0.901874 0.722254 0.799083
O O17 0.000000 0.000000 0.500000
O O18 0.000000 0.500000 0.000000
#
# Coordination Sequence:
#
# PCOD9109602 Si02
#       8
#     2   2   2   2   2   2   2   2
#     4  11  24  42  63  96 135 171 219 281 331 392
#     4  10  22  40  65  91 128 171 223 270 325 416
#     4  11  23  44  66  95 131 181 218 276 344 397
#     4  11  23  41  67  95 137 172 219 284 333 399
#     4  10  22  40  67  92 134 171 220 271 333 402
#     4  10  24  42  67  98 129 179 226 268 340 404
#     4  11  24  40  66  98 132 175 229 277 341 415
#     4  10  20  41  66  91 130 173 220 278 340 391
#
# _framework density 22.799099999999999
#
# number of rings (size 3 to 8) (size 9 to 14) (size 15 to 20)
#    0.000    1.500    0.000    6.750    5.250    5.000 
#    6.750    1.250    0.000    0.000    0.000    0.000 
#    0.000    0.000    0.000    0.000    0.000    0.000 
#
# Total GULP energy -89207.683661 kJ/mol
# GULP energy per Si atom -5575.480229 kJ/mol
# Density = 2.274721 g / cm^3
# Si number density = 22.799100 Si / 1000 Ang^3
#
#
#
# Elastic Constant Matrix: (Units=GPa)
#
#
# Indices 1 2 3 4 5 6 
#
# 1 55.2633 -12.1689 18.6234 -3.8253 12.6857 3.4067
# 2 -12.1689 52.9361 16.1532 2.1320 -14.6146 -5.2076
# 3 18.6234 16.1532 153.9981 0.2405 13.8865 -10.1093
# 4 -3.8253 2.1320 0.2405 38.8039 -10.9113 6.3827
# 5 12.6857 -14.6146 13.8865 -10.9113 34.3096 7.8747
# 6 3.4067 -5.2076 -10.1093 6.3827 7.8747 42.0328
#
#
#
# Elastic Compliance Matrix: (Units=1/GPa)
#
#
# Indices 1 2 3 4 5 6 
#
# 1 0.021075 0.004321 -0.002686 0.000821 -0.004345 -0.001129
# 2 0.004321 0.024082 -0.004127 0.002446 0.011304 -0.000848
# 3 -0.002686 -0.004127 0.007923 -0.002056 -0.005295 0.002916
# 4 0.000821 0.002446 -0.002056 0.030587 0.012981 -0.007334
# 5 -0.004345 0.011304 -0.005295 0.012981 0.044077 -0.009750
# 6 -0.001129 -0.000848 0.002916 -0.007334 -0.009750 0.027419
#
#
# Mechanical properties :
#
#
# Convention : Reuss Voigt Hill
#
# Bulk Modulus (GPa) = 20.79162 34.15699 27.47430
# Shear Modulus (GPa) = 28.38002 39.00192 33.69097
#
# Velocity S-wave (km/s) = 3.53198 4.14052 3.84830
# Velocity P-wave (km/s) = 5.07666 6.15409 5.64116
#
# Compressibility (1/GPa) = 0.04809630
#
# Stress axis : x y z
#
# Youngs Moduli (GPa) = 47.44872 41.52462 126.20844
#
# Poissons Ratio (x) = -0.17941 0.33894
# Poissons Ratio (y) = -0.20501 0.52090
# Poissons Ratio (z) = 0.12743 0.17139
#
# Static dielectric constant tensor:
#      x y z
#    x 2.002950 0.073370 0.065070 
#    y 0.073370 1.925990 0.011430 
#    z 0.065070 0.011430 1.877340 
# 
# From -- ./inp_files/504004.got.cif
#   From: 2010.05.17/outbox.cif.g08.bks.cpg/sg2_253_cif.got.tgz:504004.got - 2010.06.03 11:33:40.
