data_PCOD9109247
_publ_section_title
;
Structure prediction by ZEFSAII (Michael W. Deem and Ramdas Pophale) SiO2 
 PCOD9109247
Probable space group: P -1
;
_chemical_formula_sum "Si O2"
_cell_formula_units_Z 16
_cell_length_a 13.004646
_cell_length_b 10.420882
_cell_length_c 8.327009
_cell_angle_alpha 123.168114
_cell_angle_beta 106.135361
_cell_angle_gamma 116.780599
_cell_volume 600.769192
_symmetry_space_group_name_H-M "P -1"
_symmetry_group_IT_number 2
_symmetry_cell_setting 'triclinic'
loop_
_space_group_symop_operation_xyz
x,y,z
-x,-y,-z
loop_
_atom_site_type_symbol
_atom_site_label
_atom_site_fract_x
_atom_site_fract_y
_atom_site_fract_z
Si Si1 0.611758 0.113548 0.468057
Si Si2 0.072988 0.049894 0.301139
Si Si3 0.846395 0.480125 0.073396
Si Si4 0.676619 0.037947 0.894220
Si Si5 0.456401 0.560026 0.377739
Si Si6 0.762645 0.738228 0.181441
Si Si7 0.180995 0.789661 0.590655
Si Si8 0.146710 0.382564 0.295876
O O1 0.670815 0.028146 0.343249
O O2 0.500000 0.000000 0.500000
O O3 0.497920 0.063671 0.243938
O O4 0.783931 0.359058 0.787268
O O5 0.201815 0.144365 0.555892
O O6 0.132244 0.256170 0.359278
O O7 0.913287 0.924530 0.250967
O O8 0.012106 0.841602 0.025540
O O9 0.767253 0.561663 0.108138
O O10 0.028248 0.687286 0.357115
O O11 0.784109 0.279043 0.021996
O O12 0.615283 0.833976 0.617065
O O13 0.764235 0.084929 0.128517
O O14 0.500000 0.500000 0.500000
O O15 0.300015 0.486065 0.328531
O O16 0.398340 0.413450 0.093679
O O17 0.158455 0.578318 0.468094
#
# Coordination Sequence:
#
# PCOD9109247 Si02
#       8
#     2   2   2   2   2   2   2   2
#     4  10  21  39  60  88 128 172 202 255 328 375
#     4   9  20  37  67  87 121 169 204 266 321 369
#     4  11  23  39  66  99 128 166 213 267 322 381
#     4  11  23  41  65  95 135 171 210 260 330 383
#     4  11  24  42  62  86 126 176 215 261 314 391
#     4  10  20  41  64  89 128 164 216 261 322 379
#     4  12  23  39  67  98 131 164 217 271 316 387
#     4  10  21  40  62  91 128 162 217 263 321 374
#
# _framework density 26.632522999999999
#
# number of rings (size 3 to 8) (size 9 to 14) (size 15 to 20)
#    0.000    1.500    2.500    2.625    0.000    6.000 
#    0.000    1.875    0.000    0.000    0.000    0.000 
#    0.000    0.000    0.000    0.000    0.000    0.000 
#
# Total GULP energy -89309.861395 kJ/mol
# GULP energy per Si atom -5581.866337 kJ/mol
# Density = 2.657191 g / cm^3
# Si number density = 26.632523 Si / 1000 Ang^3
#
#
#
# Elastic Constant Matrix: (Units=GPa)
#
#
# Indices 1 2 3 4 5 6 
#
# 1 38.7072 21.5952 42.6105 -3.6111 1.7239 -9.7710
# 2 21.5952 114.7841 45.4172 -4.3660 -13.4834 -6.2204
# 3 42.6105 45.4172 197.1130 -38.1786 10.0576 5.2702
# 4 -3.6111 -4.3660 -38.1786 56.1132 -9.6867 0.3479
# 5 1.7239 -13.4834 10.0576 -9.6867 45.1109 -2.9062
# 6 -9.7710 -6.2204 5.2702 0.3479 -2.9062 39.8687
#
#
#
# Elastic Compliance Matrix: (Units=1/GPa)
#
#
# Indices 1 2 3 4 5 6 
#
# 1 0.039796 -0.003724 -0.008728 -0.003879 -0.000858 0.010297
# 2 -0.003724 0.010680 -0.001894 -0.000044 0.003830 0.001284
# 3 -0.008728 -0.001894 0.008507 0.004874 -0.001321 -0.003698
# 4 -0.003879 -0.000044 0.004874 0.021510 0.003569 -0.001529
# 5 -0.000858 0.003830 -0.001321 0.003569 0.024555 0.002321
# 6 0.010297 0.001284 -0.003698 -0.001529 0.002321 0.028478
#
#
# Mechanical properties :
#
#
# Convention : Reuss Voigt Hill
#
# Bulk Modulus (GPa) = 33.01303 63.31668 48.16486
# Shear Modulus (GPa) = 29.01692 44.28397 36.65044
#
# Velocity S-wave (km/s) = 3.30438 4.08214 3.71368
# Velocity P-wave (km/s) = 5.19435 6.78560 6.04258
#
# Compressibility (1/GPa) = 0.03029107
#
# Stress axis : x y z
#
# Youngs Moduli (GPa) = 25.12812 93.63439 117.55701
#
# Poissons Ratio (x) = 0.34871 1.02598
# Poissons Ratio (y) = 0.09358 0.22265
# Poissons Ratio (z) = 0.21931 0.17734
#
# Static dielectric constant tensor:
#      x y z
#    x 2.236780 -0.033710 -0.030180 
#    y -0.033710 2.216240 0.103250 
#    z -0.030180 0.103250 2.135380 
# 
# From -- ./inp_files/308340.got.cif
#   From: 2010.05.17/outbox.cif.g08.bks.cpg/sg2_155_cif.got.tgz:308340.got - 2010.06.03 11:33:40.
