data_PCOD9109580
_publ_section_title
;
Structure prediction by ZEFSAII (Michael W. Deem and Ramdas Pophale) SiO2 
 PCOD9109580
Probable space group: P -1
;
_chemical_formula_sum "Si O2"
_cell_formula_units_Z 16
_cell_length_a 16.012414
_cell_length_b 8.972542
_cell_length_c 12.737324
_cell_angle_alpha 72.507412
_cell_angle_beta 26.365374
_cell_angle_gamma 73.361607
_cell_volume 774.482708
_symmetry_space_group_name_H-M "P -1"
_symmetry_group_IT_number 2
_symmetry_cell_setting 'triclinic'
loop_
_space_group_symop_operation_xyz
x,y,z
-x,-y,-z
loop_
_atom_site_type_symbol
_atom_site_label
_atom_site_fract_x
_atom_site_fract_y
_atom_site_fract_z
Si Si1 0.399413 0.666519 0.552530
Si Si2 0.367059 0.049609 0.842004
Si Si3 0.691154 0.285587 0.129450
Si Si4 0.972367 0.300830 0.635876
Si Si5 0.395518 0.568099 0.352154
Si Si6 0.434360 0.893408 0.191123
Si Si7 0.718837 0.467588 0.735570
Si Si8 0.019576 0.958809 0.609699
O O1 0.500000 0.500000 0.500000
O O2 0.548351 0.804231 0.344976
O O3 0.275552 0.711851 0.783802
O O4 0.313058 0.635724 0.541051
O O5 0.511803 0.020122 0.781333
O O6 0.346835 0.890166 0.832301
O O7 0.169815 0.098661 0.111474
O O8 0.520253 0.410558 0.269180
O O9 0.865035 0.345034 0.854057
O O10 0.812319 0.317081 0.721640
O O11 0.045212 0.124864 0.600204
O O12 0.150593 0.401527 0.392430
O O13 0.518207 0.714807 0.142729
O O14 0.264877 0.532941 0.408112
O O15 0.213686 0.866808 0.431596
O O16 0.500000 0.000000 0.000000
O O17 0.500000 0.500000 0.000000
O O18 0.000000 0.000000 0.500000
#
# Coordination Sequence:
#
# PCOD9109580 Si02
#       8
#     2   2   2   2   2   2   2   2
#     4   9  20  41  67  90 120 164 211 257 305 365
#     4  10  22  39  66  92 118 169 202 254 316 359
#     4  10  20  41  66  90 121 160 213 257 310 362
#     4  10  24  36  59  94 121 165 203 256 303 367
#     4  10  22  38  62  90 122 165 207 247 311 366
#     4  11  23  36  59  88 129 164 202 248 304 375
#     4  11  22  37  59  89 130 159 201 248 311 368
#     4  11  22  37  58  89 130 162 204 245 307 376
#
# _framework density 20.658950000000001
#
# number of rings (size 3 to 8) (size 9 to 14) (size 15 to 20)
#    0.000    1.750    2.500    1.125    5.250    0.000 
#    9.000    0.625    8.250    6.750    0.000    0.000 
#    0.000    0.000    0.000    0.000    0.000    0.000 
#
# Total GULP energy -89162.776895 kJ/mol
# GULP energy per Si atom -5572.673556 kJ/mol
# Density = 2.061193 g / cm^3
# Si number density = 20.658950 Si / 1000 Ang^3
#
#
#
# Elastic Constant Matrix: (Units=GPa)
#
#
# Indices 1 2 3 4 5 6 
#
# 1 116.6137 19.3038 49.9172 9.7704 17.4091 2.9444
# 2 19.3038 79.9465 22.5619 -1.7439 0.6287 -4.6578
# 3 49.9172 22.5619 92.2761 9.5398 6.2742 -2.6764
# 4 9.7704 -1.7439 9.5398 20.7252 -0.0600 10.5010
# 5 17.4091 0.6287 6.2742 -0.0600 39.0518 -1.8063
# 6 2.9444 -4.6578 -2.6764 10.5010 -1.8063 26.2349
#
#
#
# Elastic Compliance Matrix: (Units=1/GPa)
#
#
# Indices 1 2 3 4 5 6 
#
# 1 0.012189 -0.001436 -0.005721 -0.002471 -0.004566 -0.001532
# 2 -0.001436 0.013794 -0.002873 0.002453 0.000948 0.001400
# 3 -0.005721 -0.002873 0.015463 -0.006947 0.000311 0.004511
# 4 -0.002471 0.002453 -0.006947 0.066211 0.001057 -0.026425
# 5 -0.004566 0.000948 0.000311 0.001057 0.027681 0.002195
# 6 -0.001532 0.001400 0.004511 -0.026425 0.002195 0.049726
#
#
# Mechanical properties :
#
#
# Convention : Reuss Voigt Hill
#
# Bulk Modulus (GPa) = 46.76316 52.48911 49.62614
# Shear Modulus (GPa) = 23.55676 30.33927 26.94802
#
# Velocity S-wave (km/s) = 3.38045 3.83636 3.61560
# Velocity P-wave (km/s) = 6.15805 6.71462 6.44235
#
# Compressibility (1/GPa) = 0.02138435
#
# Stress axis : x y z
#
# Youngs Moduli (GPa) = 82.03793 72.49732 64.67233
#
# Poissons Ratio (x) = 0.10410 0.37002
# Poissons Ratio (y) = 0.11779 0.18583
# Poissons Ratio (z) = 0.46937 0.20831
#
# Static dielectric constant tensor:
#      x y z
#    x 1.781740 -0.016500 0.026640 
#    y -0.016500 1.852790 0.022430 
#    z 0.026640 0.022430 1.768910 
# 
# From -- ./inp_files/306241.got.cif
#   From: 2010.05.17/outbox.cif.g08.bks.cpg/sg2_154_cif.got.tgz:306241.got - 2010.06.03 11:33:40.
