data_PCOD9109642
_publ_section_title
;
Structure prediction by ZEFSAII (Michael W. Deem and Ramdas Pophale) SiO2 
 PCOD9109642
Probable space group: P -1
;
_chemical_formula_sum "Si O2"
_cell_formula_units_Z 16
_cell_length_a 12.496860
_cell_length_b 20.482336
_cell_length_c 13.201352
_cell_angle_alpha 147.253807
_cell_angle_beta 33.056504
_cell_angle_gamma 156.334564
_cell_volume 696.999019
_symmetry_space_group_name_H-M "P -1"
_symmetry_group_IT_number 2
_symmetry_cell_setting 'triclinic'
loop_
_space_group_symop_operation_xyz
x,y,z
-x,-y,-z
loop_
_atom_site_type_symbol
_atom_site_label
_atom_site_fract_x
_atom_site_fract_y
_atom_site_fract_z
Si Si1 0.107726 0.986785 0.246361
Si Si2 0.525994 0.839221 0.299742
Si Si3 0.120848 0.675488 0.583355
Si Si4 0.052354 0.692047 0.171016
Si Si5 0.930279 0.800963 0.592260
Si Si6 0.648564 0.935217 0.648998
Si Si7 0.758218 0.687839 0.995599
Si Si8 0.558480 0.319951 0.048474
O O1 0.138988 0.113963 0.313291
O O2 0.368454 0.087050 0.245888
O O3 0.835327 0.904801 0.421923
O O4 0.011462 0.825718 0.053049
O O5 0.236646 0.724327 0.441062
O O6 0.653431 0.772646 0.158681
O O7 0.512948 0.803795 0.145923
O O8 0.753168 0.041442 0.411332
O O9 0.385078 0.822277 0.637042
O O10 0.000000 0.500000 0.500000
O O11 0.886617 0.673187 0.780854
O O12 0.929318 0.684369 0.367753
O O13 0.800596 0.520130 0.085174
O O14 0.181176 0.866715 0.246396
O O15 0.290733 0.697287 0.009158
O O16 0.703158 0.719050 0.753348
O O17 0.500000 0.500000 0.000000
#
# Coordination Sequence:
#
# PCOD9109642 Si02
#       8
#     2   2   2   2   2   2   2   2
#     4   9  20  38  66  95 127 161 212 262 323 392
#     4  11  24  43  62  96 126 171 217 264 319 387
#     4  12  23  42  64  94 136 164 211 268 323 394
#     4  10  23  43  64  91 133 166 220 271 315 381
#     4  10  21  44  66  93 131 166 218 267 319 379
#     4  10  20  41  66  94 128 173 205 268 330 382
#     4  11  22  39  63  92 129 165 207 263 322 385
#     4  11  25  42  66  93 130 171 224 265 315 377
#
# _framework density 22.955556000000001
#
# number of rings (size 3 to 8) (size 9 to 14) (size 15 to 20)
#    0.000    1.500    5.000    0.750    5.250    2.000 
#    6.750    0.000    0.000    0.000    0.000    0.000 
#    0.000    0.000    0.000    0.000    0.000    0.000 
#
# Total GULP energy -89427.731586 kJ/mol
# GULP energy per Si atom -5589.233224 kJ/mol
# Density = 2.290331 g / cm^3
# Si number density = 22.955556 Si / 1000 Ang^3
#
#
#
# Elastic Constant Matrix: (Units=GPa)
#
#
# Indices 1 2 3 4 5 6 
#
# 1 35.1371 0.8453 -19.1386 0.6128 12.6915 -0.5161
# 2 0.8453 44.7814 9.9736 -0.0586 -1.6425 -0.4407
# 3 -19.1386 9.9736 99.4533 -17.2628 -6.4513 2.0731
# 4 0.6128 -0.0586 -17.2628 44.5956 -0.1049 -2.2260
# 5 12.6915 -1.6425 -6.4513 -0.1049 22.6263 7.1064
# 6 -0.5161 -0.4407 2.0731 -2.2260 7.1064 16.6283
#
#
#
# Elastic Compliance Matrix: (Units=1/GPa)
#
#
# Indices 1 2 3 4 5 6 
#
# 1 0.041471 -0.003120 0.006878 0.002600 -0.025103 0.011423
# 2 -0.003120 0.023134 -0.002921 -0.001072 0.002726 -0.000428
# 3 0.006878 -0.002921 0.012483 0.004700 -0.000278 -0.000672
# 4 0.002600 -0.001072 0.004700 0.024363 -0.001086 0.003192
# 5 -0.025103 0.002726 -0.000278 -0.001086 0.067740 -0.029768
# 6 0.011423 -0.000428 -0.000672 0.003192 -0.029768 0.073714
#
#
# Mechanical properties :
#
#
# Convention : Reuss Voigt Hill
#
# Bulk Modulus (GPa) = 12.69607 18.08139 15.38873
# Shear Modulus (GPa) = 18.69264 29.28281 23.98773
#
# Velocity S-wave (km/s) = 2.85669 3.57547 3.23610
# Velocity P-wave (km/s) = 4.05260 4.99391 4.54768
#
# Compressibility (1/GPa) = 0.07876452
#
# Stress axis : x y z
#
# Youngs Moduli (GPa) = 24.11317 43.22561 80.10744
#
# Poissons Ratio (x) = 0.13485 -0.55100
# Poissons Ratio (y) = 0.07522 0.23397
# Poissons Ratio (z) = -0.16586 0.12625
#
# Static dielectric constant tensor:
#      x y z
#    x 1.897580 0.013290 0.024560 
#    y 0.013290 1.847460 -0.026150 
#    z 0.024560 -0.026150 1.874360 
# 
# From -- ./inp_files/455286.got.cif
#   From: 2010.05.17/outbox.cif.g08.bks.cpg/sg2_228_cif.got.tgz:455286.got - 2010.06.03 11:33:40.
