data_PCOD9109470
_publ_section_title
;
Structure prediction by ZEFSAII (Michael W. Deem and Ramdas Pophale) SiO2 
 PCOD9109470
Probable space group: P -1
;
_chemical_formula_sum "Si O2"
_cell_formula_units_Z 16
_cell_length_a 20.864634
_cell_length_b 11.468103
_cell_length_c 8.980107
_cell_angle_alpha 70.062555
_cell_angle_beta 39.849307
_cell_angle_gamma 39.814101
_cell_volume 701.132433
_symmetry_space_group_name_H-M "P -1"
_symmetry_group_IT_number 2
_symmetry_cell_setting 'triclinic'
loop_
_space_group_symop_operation_xyz
x,y,z
-x,-y,-z
loop_
_atom_site_type_symbol
_atom_site_label
_atom_site_fract_x
_atom_site_fract_y
_atom_site_fract_z
Si Si1 0.155412 0.997553 0.359196
Si Si2 0.395319 0.555941 0.015476
Si Si3 0.035397 0.582388 0.799930
Si Si4 0.759738 0.531626 0.763068
Si Si5 0.935823 0.273785 0.055429
Si Si6 0.644598 0.012814 0.158493
Si Si7 0.666451 0.703179 0.176636
Si Si8 0.244292 0.803473 0.612504
O O1 0.210253 0.830061 0.221268
O O2 0.172884 0.924717 0.524961
O O3 0.954866 0.264547 0.577494
O O4 0.314613 0.933837 0.069755
O O5 0.348886 0.460368 0.136336
O O6 0.500000 0.500000 0.000000
O O7 0.536165 0.429181 0.684003
O O8 0.177067 0.423436 0.479034
O O9 0.109174 0.617430 0.754645
O O10 0.833970 0.825641 0.993965
O O11 0.000000 0.500000 0.000000
O O12 0.653562 0.679595 0.037729
O O13 0.869556 0.447139 0.981187
O O14 0.829013 0.259189 0.210409
O O15 0.147031 0.006432 0.801131
O O16 0.635888 0.881786 0.170343
O O17 0.475405 0.208996 0.488646
#
# Coordination Sequence:
#
# PCOD9109470 Si02
#       8
#     2   2   2   2   2   2   2   2
#     4  10  20  41  65  94 126 169 211 257 317 377
#     4  10  21  39  62  93 131 160 209 259 318 366
#     4  11  23  42  65  92 126 170 211 259 321 374
#     4  11  24  40  68  94 126 170 215 261 311 388
#     4  11  22  41  66  90 135 165 212 260 318 376
#     4  10  24  41  66  91 130 170 205 271 318 372
#     4  11  23  45  64  94 129 165 220 258 319 375
#     4  10  22  39  64  97 123 172 208 262 314 374
#
# _framework density 22.820226000000002
#
# number of rings (size 3 to 8) (size 9 to 14) (size 15 to 20)
#    0.000    1.500    2.500    2.625    1.750    5.000 
#    0.000    1.875    0.000    0.000    0.000    0.000 
#    0.000    0.000    0.000    0.000    0.000    0.000 
#
# Total GULP energy -89300.036984 kJ/mol
# GULP energy per Si atom -5581.252311 kJ/mol
# Density = 2.276829 g / cm^3
# Si number density = 22.820226 Si / 1000 Ang^3
#
#
#
# Elastic Constant Matrix: (Units=GPa)
#
#
# Indices 1 2 3 4 5 6 
#
# 1 84.4891 16.5133 39.4749 -1.2450 13.3180 12.2617
# 2 16.5133 71.7368 20.0282 -6.0675 12.6577 13.6998
# 3 39.4749 20.0282 106.1630 0.9547 16.2828 19.6185
# 4 -1.2450 -6.0675 0.9547 26.3822 3.2051 -2.2286
# 5 13.3180 12.6577 16.2828 3.2051 29.4937 5.0264
# 6 12.2617 13.6998 19.6185 -2.2286 5.0264 23.5517
#
#
#
# Elastic Compliance Matrix: (Units=1/GPa)
#
#
# Indices 1 2 3 4 5 6 
#
# 1 0.015045 -0.001018 -0.004348 0.000833 -0.003573 -0.002777
# 2 -0.001018 0.017090 -0.000665 0.003986 -0.005703 -0.007263
# 3 -0.004348 -0.000665 0.013129 -0.001041 -0.003588 -0.007619
# 4 0.000833 0.003986 -0.001041 0.039952 -0.006410 0.003264
# 5 -0.003573 -0.005703 -0.003588 -0.006410 0.040841 -0.001156
# 6 -0.002777 -0.007263 -0.007619 0.003264 -0.001156 0.055033
#
#
# Mechanical properties :
#
#
# Convention : Reuss Voigt Hill
#
# Bulk Modulus (GPa) = 30.11780 46.04684 38.08232
# Shear Modulus (GPa) = 24.48333 28.31035 26.39684
#
# Velocity S-wave (km/s) = 3.27904 3.52601 3.40476
# Velocity P-wave (km/s) = 5.25001 6.06621 5.67281
#
# Compressibility (1/GPa) = 0.03320296
#
# Stress axis : x y z
#
# Youngs Moduli (GPa) = 66.46710 58.51288 76.16510
#
# Poissons Ratio (x) = 0.05956 0.33120
# Poissons Ratio (y) = 0.06766 0.05061
# Poissons Ratio (z) = 0.28903 0.03888
#
# Static dielectric constant tensor:
#      x y z
#    x 1.846470 -0.006940 0.031040 
#    y -0.006940 1.912550 0.018760 
#    z 0.031040 0.018760 1.975390 
# 
# From -- ./inp_files/245683.got.cif
#   From: 2010.05.17/outbox.cif.g08.bks.cpg/sg2_123_cif.got.tgz:245683.got - 2010.06.03 11:33:40.
