data_PCOD9109368
_publ_section_title
;
Structure prediction by ZEFSAII (Michael W. Deem and Ramdas Pophale) SiO2 
 PCOD9109368
Probable space group: P -1
;
_chemical_formula_sum "Si O2"
_cell_formula_units_Z 16
_cell_length_a 7.729002
_cell_length_b 11.567158
_cell_length_c 10.539023
_cell_angle_alpha 112.486845
_cell_angle_beta 55.090016
_cell_angle_gamma 124.331164
_cell_volume 635.575801
_symmetry_space_group_name_H-M "P -1"
_symmetry_group_IT_number 2
_symmetry_cell_setting 'triclinic'
loop_
_space_group_symop_operation_xyz
x,y,z
-x,-y,-z
loop_
_atom_site_type_symbol
_atom_site_label
_atom_site_fract_x
_atom_site_fract_y
_atom_site_fract_z
Si Si1 0.252436 0.366826 0.558342
Si Si2 0.630595 0.183836 0.660558
Si Si3 0.063735 0.879880 0.287518
Si Si4 0.145556 0.723048 0.946657
Si Si5 0.235015 0.984831 0.878719
Si Si6 0.018210 0.298632 0.352552
Si Si7 0.119177 0.530590 0.203631
Si Si8 0.664871 0.839947 0.853984
O O1 0.500000 0.500000 0.500000
O O2 0.160665 0.339041 0.442110
O O3 0.077948 0.418643 0.719954
O O4 0.201229 0.221775 0.590290
O O5 0.776956 0.126555 0.664478
O O6 0.364368 0.064345 0.731222
O O7 0.752602 0.219031 0.487215
O O8 0.658965 0.325702 0.782326
O O9 0.173492 0.041684 0.266602
O O10 0.086235 0.800367 0.118666
O O11 0.923103 0.575995 0.939838
O O12 0.402111 0.729462 0.871170
O O13 0.202358 0.829408 0.847847
O O14 0.384216 0.075620 0.975759
O O15 0.000000 0.000000 0.000000
O O16 0.166367 0.225696 0.196227
O O17 0.050858 0.430875 0.312660
#
# Coordination Sequence:
#
# PCOD9109368 Si02
#       8
#     2   2   2   2   2   2   2   2
#     4  10  21  39  62  87 120 161 207 249 297 360
#     4  10  20  41  65  85 124 160 200 253 299 359
#     4   9  19  38  63  89 117 159 204 252 303 347
#     4  11  20  39  65  91 123 156 202 255 296 363
#     4  11  22  41  62  89 123 162 204 247 307 355
#     4  10  22  40  61  89 124 160 197 249 306 357
#     4  10  22  40  61  89 124 160 197 249 306 357
#     4  11  20  39  65  91 123 156 202 255 296 363
#
# _framework density 25.174022999999998
#
# number of rings (size 3 to 8) (size 9 to 14) (size 15 to 20)
#    0.000    2.000    2.500    3.750    0.000    4.000 
#   13.500    2.500    0.000    0.000    0.000    0.000 
#    0.000    0.000    0.000    0.000    0.000    0.000 
#
# Total GULP energy -89285.102840 kJ/mol
# GULP energy per Si atom -5580.318928 kJ/mol
# Density = 2.511673 g / cm^3
# Si number density = 25.174023 Si / 1000 Ang^3
#
#
#
# Elastic Constant Matrix: (Units=GPa)
#
#
# Indices 1 2 3 4 5 6 
#
# 1 44.3131 12.7989 5.3909 -11.8371 -0.7011 -2.4151
# 2 12.7989 111.7844 28.8123 -16.3776 2.3754 -1.2535
# 3 5.3909 28.8123 47.5850 -5.2358 8.7902 7.6216
# 4 -11.8371 -16.3776 -5.2358 60.7394 1.3506 7.4996
# 5 -0.7011 2.3754 8.7902 1.3506 29.2781 -7.5889
# 6 -2.4151 -1.2535 7.6216 7.4996 -7.5889 37.0994
#
#
#
# Elastic Compliance Matrix: (Units=1/GPa)
#
#
# Indices 1 2 3 4 5 6 
#
# 1 0.024443 -0.001790 -0.001740 0.003928 0.001431 0.001387
# 2 -0.001790 0.011184 -0.006890 0.001843 0.001448 0.001601
# 3 -0.001740 -0.006890 0.028904 0.001610 -0.010505 -0.008758
# 4 0.003928 0.001843 0.001610 0.018445 -0.002492 -0.004251
# 5 0.001431 0.001448 -0.010505 -0.002492 0.040199 0.011027
# 6 0.001387 0.001601 -0.008758 -0.004251 0.011027 0.032013
#
#
# Mechanical properties :
#
#
# Convention : Reuss Voigt Hill
#
# Bulk Modulus (GPa) = 22.88745 33.07631 27.98188
# Shear Modulus (GPa) = 26.23415 35.86874 31.05145
#
# Velocity S-wave (km/s) = 3.23168 3.77879 3.51589
# Velocity P-wave (km/s) = 4.79963 5.67508 5.25562
#
# Compressibility (1/GPa) = 0.04369206
#
# Stress axis : x y z
#
# Youngs Moduli (GPa) = 40.91206 89.41515 34.59671
#
# Poissons Ratio (x) = 0.16001 0.06019
# Poissons Ratio (y) = 0.07321 0.23837
# Poissons Ratio (z) = 0.07118 0.61607
#
# Static dielectric constant tensor:
#      x y z
#    x 2.035890 0.094070 0.032160 
#    y 0.094070 2.159710 0.105400 
#    z 0.032160 0.105400 2.167620 
# 
# From -- ./inp_files/390660.got.cif
#   From: 2010.05.17/outbox.cif.g08.bks.cpg/sg2_196_cif.got.tgz:390660.got - 2010.06.03 11:33:40.
