data_PCOD9109883
_publ_section_title
;
Structure prediction by ZEFSAII (Michael W. Deem and Ramdas Pophale) SiO2 
 PCOD9109883
Probable space group: P -1
;
_chemical_formula_sum "Si O2"
_cell_formula_units_Z 14
_cell_length_a 9.094701
_cell_length_b 19.650826
_cell_length_c 8.968534
_cell_angle_alpha 29.765324
_cell_angle_beta 127.736314
_cell_angle_gamma 123.030966
_cell_volume 628.901306
_symmetry_space_group_name_H-M "P -1"
_symmetry_group_IT_number 2
_symmetry_cell_setting 'triclinic'
loop_
_space_group_symop_operation_xyz
x,y,z
-x,-y,-z
loop_
_atom_site_type_symbol
_atom_site_label
_atom_site_fract_x
_atom_site_fract_y
_atom_site_fract_z
Si Si1 0.201184 0.507460 0.694157
Si Si2 0.645831 0.587347 0.323823
Si Si3 0.117961 0.848975 0.676503
Si Si4 0.354998 0.803645 0.196358
Si Si5 0.357747 0.095020 0.317415
Si Si6 0.705669 0.893869 0.398491
Si Si7 0.980574 0.429866 0.965430
O O1 0.349032 0.444120 0.791646
O O2 0.264020 0.663828 0.466096
O O3 0.000000 0.500000 0.500000
O O4 0.163836 0.434656 0.966796
O O5 0.500000 0.500000 0.500000
O O6 0.837267 0.526768 0.611371
O O7 0.638308 0.750080 0.033366
O O8 0.917207 0.849609 0.630253
O O9 0.168250 0.001671 0.361913
O O10 0.279637 0.809239 0.968714
O O11 0.099918 0.726000 0.781899
O O12 0.573849 0.814269 0.349707
O O13 0.285708 0.946390 0.948184
O O14 0.385950 0.108581 0.488625
O O15 0.500000 0.000000 0.500000
O O16 0.000000 0.500000 0.000000
#
# Coordination Sequence:
#
# PCOD9109883 Si02
#       7
#     2   2   2   2   2   2   2
#     4  10  21  39  74  94 135 186 235 273 364 406
#     4  11  24  43  71  99 138 186 230 286 353 411
#     4  11  22  45  73  97 142 183 232 289 356 415
#     4  10  20  41  68 102 140 177 233 295 337 424
#     4  11  24  41  69 100 143 186 229 288 357 419
#     4  10  24  39  72 104 135 182 245 276 356 420
#     4  11  25  45  68 105 138 179 237 289 349 427
#
# _framework density 22.261044999999999
#
# number of rings (size 3 to 8) (size 9 to 14) (size 15 to 20)
#    0.000    1.429    2.857    3.429    8.000    3.429 
#    2.571    2.857    0.000    0.000    0.000    0.000 
#    0.000    0.000    0.000    0.000    0.000    0.000 
#
# Total GULP energy -78088.119916 kJ/mol
# GULP energy per Si atom -5577.722851 kJ/mol
# Density = 2.221038 g / cm^3
# Si number density = 22.261045 Si / 1000 Ang^3
#
#
#
# Elastic Constant Matrix: (Units=GPa)
#
#
# Indices 1 2 3 4 5 6 
#
# 1 133.0780 55.6879 44.7379 -0.6878 -11.6414 -11.6254
# 2 55.6879 155.2142 50.9346 -30.0139 -13.9298 4.8444
# 3 44.7379 50.9346 106.7023 -46.7106 -3.5473 1.3729
# 4 -0.6878 -30.0139 -46.7106 47.8754 7.1889 -7.4527
# 5 -11.6414 -13.9298 -3.5473 7.1889 31.3797 -4.7519
# 6 -11.6254 4.8444 1.3729 -7.4527 -4.7519 25.7199
#
#
#
# Elastic Compliance Matrix: (Units=1/GPa)
#
#
# Indices 1 2 3 4 5 6 
#
# 1 0.012277 -0.003450 -0.007447 -0.009254 0.005035 0.004846
# 2 -0.003450 0.008975 -0.000937 0.004186 0.001377 -0.001732
# 3 -0.007447 -0.000937 0.022474 0.022229 -0.005576 0.001022
# 4 -0.009254 0.004186 0.022229 0.047339 -0.009014 0.005894
# 5 0.005035 0.001377 -0.005576 -0.009014 0.036765 0.006495
# 6 0.004846 -0.001732 0.001022 0.005894 0.006495 0.044250
#
#
# Mechanical properties :
#
#
# Convention : Reuss Voigt Hill
#
# Bulk Modulus (GPa) = 49.85270 77.52390 63.68830
# Shear Modulus (GPa) = 24.69931 37.23728 30.96830
#
# Velocity S-wave (km/s) = 3.33458 4.09437 3.73385
# Velocity P-wave (km/s) = 6.10484 7.56653 6.87464
#
# Compressibility (1/GPa) = 0.02005909
#
# Stress axis : x y z
#
# Youngs Moduli (GPa) = 81.45009 111.41832 44.49553
#
# Poissons Ratio (x) = 0.38439 0.33135
# Poissons Ratio (y) = 0.28100 0.04170
# Poissons Ratio (z) = 0.60654 0.10441
#
# Static dielectric constant tensor:
#      x y z
#    x 1.932470 -0.015390 -0.027030 
#    y -0.015390 1.834390 0.021480 
#    z -0.027030 0.021480 1.906840 
# 
# From -- ./inp_files/221598.got.cif
#   From: 2010.05.17/outbox.cif.g08.bks.cpg/sg2_111_cif.got.tgz:221598.got - 2010.06.03 11:33:40.
