data_PCOD9109545
_publ_section_title
;
Structure prediction by ZEFSAII (Michael W. Deem and Ramdas Pophale) SiO2 
 PCOD9109545
Probable space group: P -1
;
_chemical_formula_sum "Si O2"
_cell_formula_units_Z 16
_cell_length_a 17.228214
_cell_length_b 9.397376
_cell_length_c 11.519597
_cell_angle_alpha 52.171573
_cell_angle_beta 109.388530
_cell_angle_gamma 144.184891
_cell_volume 804.955641
_symmetry_space_group_name_H-M "P -1"
_symmetry_group_IT_number 2
_symmetry_cell_setting 'triclinic'
loop_
_space_group_symop_operation_xyz
x,y,z
-x,-y,-z
loop_
_atom_site_type_symbol
_atom_site_label
_atom_site_fract_x
_atom_site_fract_y
_atom_site_fract_z
Si Si1 0.870578 0.940863 0.597641
Si Si2 0.606491 0.530256 0.555972
Si Si3 0.085122 0.903378 0.188045
Si Si4 0.647432 0.311425 0.481393
Si Si5 0.290293 0.716831 0.130732
Si Si6 0.207376 0.417233 0.818231
Si Si7 0.840271 0.376435 0.680562
Si Si8 0.581495 0.094286 0.136154
O O1 0.754879 0.859925 0.517466
O O2 0.799557 0.618466 0.703840
O O3 0.878881 0.981127 0.719305
O O4 0.021819 0.253709 0.460585
O O5 0.500000 0.500000 0.500000
O O6 0.629725 0.441198 0.500920
O O7 0.521118 0.259598 0.742773
O O8 0.119368 0.753325 0.271218
O O9 0.922102 0.672147 0.202333
O O10 0.168571 0.175223 0.999538
O O11 0.754092 0.558160 0.307352
O O12 0.714764 0.256718 0.607670
O O13 0.500000 0.000000 0.500000
O O14 0.210016 0.724286 0.159976
O O15 0.459160 0.025688 0.091149
O O16 0.299304 0.714838 0.998002
O O17 0.342274 0.746206 0.784138
#
# Coordination Sequence:
#
# PCOD9109545 Si02
#       8
#     2   2   2   2   2   2   2   2
#     4  11  22  42  65  94 126 171 213 265 317 389
#     4  11  26  41  67  99 126 168 215 264 326 383
#     4  11  26  40  67  93 128 176 215 266 319 384
#     4  12  24  42  68  94 133 168 209 270 324 382
#     4  10  21  40  66  91 120 167 214 261 331 376
#     4  11  23  44  63  93 132 171 215 259 330 379
#     4  12  24  41  66  98 126 168 222 270 318 376
#     4  10  20  41  66  84 126 169 205 266 319 387
#
# _framework density 19.876873
#
# number of rings (size 3 to 8) (size 9 to 14) (size 15 to 20)
#    0.000    1.000    6.250    0.750    3.500    1.000 
#    0.000    3.125    0.000    0.000    0.000    0.000 
#    0.000    0.000    0.000    0.000    0.000    0.000 
#
# Total GULP energy -89149.813548 kJ/mol
# GULP energy per Si atom -5571.863347 kJ/mol
# Density = 1.983163 g / cm^3
# Si number density = 19.876873 Si / 1000 Ang^3
#
#
#
# Elastic Constant Matrix: (Units=GPa)
#
#
# Indices 1 2 3 4 5 6 
#
# 1 112.6375 41.3377 48.4280 9.1272 -7.3722 7.5844
# 2 41.3377 93.9213 16.0995 9.0243 0.8406 10.8085
# 3 48.4280 16.0995 102.4678 6.4234 -33.1615 -0.2844
# 4 9.1272 9.0243 6.4234 29.7663 0.1647 -3.4860
# 5 -7.3722 0.8406 -33.1615 0.1647 28.8918 8.0641
# 6 7.5844 10.8085 -0.2844 -3.4860 8.0641 20.1884
#
#
#
# Elastic Compliance Matrix: (Units=1/GPa)
#
#
# Indices 1 2 3 4 5 6 
#
# 1 0.013367 -0.004373 -0.006776 -0.001466 -0.003810 -0.001507
# 2 -0.004373 0.013604 0.000401 -0.003646 0.000808 -0.006587
# 3 -0.006776 0.000401 0.021096 -0.003654 0.024688 -0.007865
# 4 -0.001466 -0.003646 -0.003654 0.037404 -0.008061 0.012130
# 5 -0.003810 0.000808 0.024688 -0.008061 0.069793 -0.027924
# 6 -0.001507 -0.006587 -0.007865 0.012130 -0.027924 0.066764
#
#
# Mechanical properties :
#
#
# Convention : Reuss Voigt Hill
#
# Bulk Modulus (GPa) = 37.63428 57.86189 47.74808
# Shear Modulus (GPa) = 19.81136 29.31340 24.56238
#
# Velocity S-wave (km/s) = 3.16049 3.84441 3.51910
# Velocity P-wave (km/s) = 5.68270 6.99138 6.37073
#
# Compressibility (1/GPa) = 0.02657152
#
# Stress axis : x y z
#
# Youngs Moduli (GPa) = 74.81019 73.50516 47.40341
#
# Poissons Ratio (x) = 0.32147 0.32119
# Poissons Ratio (y) = 0.32718 -0.01902
# Poissons Ratio (z) = 0.50689 -0.02950
#
# Static dielectric constant tensor:
#      x y z
#    x 1.888930 0.101870 0.056950 
#    y 0.101870 1.738530 0.030620 
#    z 0.056950 0.030620 1.751910 
# 
# From -- ./inp_files/262757.got.cif
#   From: 2010.05.17/outbox.cif.g08.bks.cpg/sg2_132_cif.got.tgz:262757.got - 2010.06.03 11:33:40.
