data_PCOD9109753
_publ_section_title
;
Structure prediction by ZEFSAII (Michael W. Deem and Ramdas Pophale) SiO2 
 PCOD9109753
Probable space group: P -1
;
_chemical_formula_sum "Si O2"
_cell_formula_units_Z 16
_cell_length_a 16.465317
_cell_length_b 8.608901
_cell_length_c 8.993592
_cell_angle_alpha 123.487454
_cell_angle_beta 133.836843
_cell_angle_gamma 47.137944
_cell_volume 666.143639
_symmetry_space_group_name_H-M "P -1"
_symmetry_group_IT_number 2
_symmetry_cell_setting 'triclinic'
loop_
_space_group_symop_operation_xyz
x,y,z
-x,-y,-z
loop_
_atom_site_type_symbol
_atom_site_label
_atom_site_fract_x
_atom_site_fract_y
_atom_site_fract_z
Si Si1 0.713611 0.165285 0.892113
Si Si2 0.738009 0.162239 0.569277
Si Si3 0.003241 0.529777 0.272330
Si Si4 0.679609 0.795968 0.802224
Si Si5 0.930734 0.313905 0.846020
Si Si6 0.280765 0.207865 0.817139
Si Si7 0.756293 0.467867 0.279969
Si Si8 0.573276 0.565742 0.380866
O O1 0.739195 0.147821 0.740305
O O2 0.566333 0.360470 0.822646
O O3 0.713189 0.962194 0.855651
O O4 0.798750 0.243682 0.133073
O O5 0.872035 0.157265 0.692544
O O6 0.623488 0.385246 0.475848
O O7 0.716039 0.984602 0.370052
O O8 0.998392 0.685155 0.214053
O O9 0.125562 0.496236 0.502423
O O10 0.870429 0.638776 0.250374
O O11 0.013149 0.319571 0.093978
O O12 0.803538 0.554529 0.820562
O O13 0.570453 0.771834 0.562974
O O14 0.648704 0.851806 0.965668
O O15 0.322922 0.342913 0.838086
O O16 0.676567 0.484573 0.335280
#
# Coordination Sequence:
#
# PCOD9109753 Si02
#       8
#     2   2   2   2   2   2   2   2
#     4  12  25  41  67  93 124 171 210 257 314 370
#     4  11  23  43  63  96 128 162 212 257 309 373
#     4  10  20  41  67  89 128 166 204 251 322 362
#     4  10  21  42  64  93 127 160 211 260 309 367
#     4   9  20  41  67  91 128 164 201 259 313 371
#     4  11  25  40  66  96 128 166 206 256 311 379
#     4  12  23  43  64  94 128 164 211 260 308 370
#     4  11  23  45  66  90 127 165 210 264 315 361
#
# _framework density 24.018844999999999
#
# number of rings (size 3 to 8) (size 9 to 14) (size 15 to 20)
#    0.000    1.250    2.500    5.250    0.000    0.500 
#    4.500    3.125    0.000    0.000    0.000    0.000 
#    0.000    0.000    0.000    0.000    0.000    0.000 
#
# Total GULP energy -89583.512723 kJ/mol
# GULP energy per Si atom -5598.969545 kJ/mol
# Density = 2.396418 g / cm^3
# Si number density = 24.018845 Si / 1000 Ang^3
#
#
#
# Elastic Constant Matrix: (Units=GPa)
#
#
# Indices 1 2 3 4 5 6 
#
# 1 55.3287 21.4008 33.5717 4.1706 -23.8811 18.4576
# 2 21.4008 74.9374 35.1083 8.2848 -6.1586 30.4545
# 3 33.5717 35.1083 108.3747 20.7537 -19.1681 9.3920
# 4 4.1706 8.2848 20.7537 37.8749 0.2344 13.3248
# 5 -23.8811 -6.1586 -19.1681 0.2344 49.3875 -5.2757
# 6 18.4576 30.4545 9.3920 13.3248 -5.2757 35.6316
#
#
#
# Elastic Compliance Matrix: (Units=1/GPa)
#
#
# Indices 1 2 3 4 5 6 
#
# 1 0.032290 0.001757 -0.008474 0.006571 0.010711 -0.016866
# 2 0.001757 0.025273 -0.008382 0.007043 -0.001764 -0.023197
# 3 -0.008474 -0.008382 0.015894 -0.009980 0.002295 0.011436
# 4 0.006571 0.007043 -0.009980 0.036994 -0.002232 -0.020958
# 5 0.010711 -0.001764 0.002295 -0.002232 0.026115 0.000055
# 6 -0.016866 -0.023197 0.011436 -0.020958 0.000055 0.061459
#
#
# Mechanical properties :
#
#
# Convention : Reuss Voigt Hill
#
# Bulk Modulus (GPa) = 23.11672 46.53359 34.82515
# Shear Modulus (GPa) = 20.60640 34.48280 27.54460
#
# Velocity S-wave (km/s) = 2.93222 3.79312 3.39010
# Velocity P-wave (km/s) = 4.59447 6.21285 5.46391
#
# Compressibility (1/GPa) = 0.04325874
#
# Stress axis : x y z
#
# Youngs Moduli (GPa) = 30.96896 39.56748 62.91866
#
# Poissons Ratio (x) = -0.06950 0.53317
# Poissons Ratio (y) = -0.05440 0.52737
# Poissons Ratio (z) = 0.26243 0.33165
#
# Static dielectric constant tensor:
#      x y z
#    x 1.889650 -0.032410 0.031850 
#    y -0.032410 1.945080 -0.042060 
#    z 0.031850 -0.042060 1.955280 
# 
# From -- ./inp_files/215599.got.cif
#   From: 2010.05.17/outbox.cif.g08.bks.cpg/sg2_108_cif.got.tgz:215599.got - 2010.06.03 11:33:40.
