data_PCOD9109356
_publ_section_title
;
Structure prediction by ZEFSAII (Michael W. Deem and Ramdas Pophale) SiO2 
 PCOD9109356
Probable space group: P -1
;
_chemical_formula_sum "Si O2"
_cell_formula_units_Z 14
_cell_length_a 13.106278
_cell_length_b 12.532104
_cell_length_c 7.329715
_cell_angle_alpha 67.520585
_cell_angle_beta 118.976627
_cell_angle_gamma 150.492805
_cell_volume 516.573703
_symmetry_space_group_name_H-M "P -1"
_symmetry_group_IT_number 2
_symmetry_cell_setting 'triclinic'
loop_
_space_group_symop_operation_xyz
x,y,z
-x,-y,-z
loop_
_atom_site_type_symbol
_atom_site_label
_atom_site_fract_x
_atom_site_fract_y
_atom_site_fract_z
Si Si1 0.748102 0.558396 0.159472
Si Si2 0.680314 0.722263 0.240424
Si Si3 0.298094 0.681463 0.178678
Si Si4 0.196723 0.000250 0.100879
Si Si5 0.429730 0.862712 0.775363
Si Si6 0.298737 0.133820 0.490727
Si Si7 0.022086 0.666769 0.582065
O O1 0.725685 0.639250 0.241291
O O2 0.809718 0.499527 0.376398
O O3 0.551161 0.424121 0.941491
O O4 0.969950 0.750887 0.110783
O O5 0.712920 0.766517 0.452833
O O6 0.836777 0.947848 0.134631
O O7 0.462157 0.719642 0.366434
O O8 0.402026 0.890571 0.194522
O O9 0.333963 0.718924 0.967691
O O10 0.933699 0.540869 0.778989
O O11 0.399918 0.083578 0.202816
O O12 0.255561 0.125718 0.248199
O O13 0.214106 0.752974 0.597049
O O14 0.136167 0.889196 0.559453
#
# Coordination Sequence:
#
# PCOD9109356 Si02
#       7
#     2   2   2   2   2   2   2
#     4  10  25  44  71 102 133 181 234 275 347 405
#     4  11  23  48  69 100 140 178 228 288 334 407
#     4  10  20  41  65 102 138 181 226 277 340 404
#     4  11  23  44  71 102 138 178 227 284 340 404
#     4  10  22  40  69 101 141 179 227 280 338 407
#     4  10  23  41  69 101 137 177 228 279 345 402
#     4  10  22  41  69 106 135 179 234 276 341 407
#
# _framework density 27.101648999999998
#
# number of rings (size 3 to 8) (size 9 to 14) (size 15 to 20)
#    0.000    1.714    1.429    1.714    0.000    9.714 
#    0.000   10.714    0.000    0.000    0.000    0.000 
#    0.000    0.000    0.000    0.000    0.000    0.000 
#
# Total GULP energy -78358.366241 kJ/mol
# GULP energy per Si atom -5597.026160 kJ/mol
# Density = 2.703996 g / cm^3
# Si number density = 27.101649 Si / 1000 Ang^3
#
#
#
# Elastic Constant Matrix: (Units=GPa)
#
#
# Indices 1 2 3 4 5 6 
#
# 1 133.7232 50.0210 41.5058 29.6021 1.6413 13.2594
# 2 50.0210 106.7348 8.2155 -6.6703 12.9163 29.2125
# 3 41.5058 8.2155 87.8681 16.9789 5.7155 21.1470
# 4 29.6021 -6.6703 16.9789 35.8822 12.7557 1.6113
# 5 1.6413 12.9163 5.7155 12.7557 40.1345 0.6704
# 6 13.2594 29.2125 21.1470 1.6113 0.6704 41.0424
#
#
#
# Elastic Compliance Matrix: (Units=1/GPa)
#
#
# Indices 1 2 3 4 5 6 
#
# 1 0.015995 -0.010660 -0.005410 -0.015896 0.008504 0.005693
# 2 -0.010660 0.019993 0.004189 0.015100 -0.011171 -0.013355
# 3 -0.005410 0.004189 0.016206 -0.000941 -0.002977 -0.009499
# 4 -0.015896 0.015100 -0.000941 0.051803 -0.020425 -0.006827
# 5 0.008504 -0.011171 -0.002977 -0.020425 0.034963 0.006968
# 6 0.005693 -0.013355 -0.009499 -0.006827 0.006968 0.037080
#
#
# Mechanical properties :
#
#
# Convention : Reuss Voigt Hill
#
# Bulk Modulus (GPa) = 35.17207 58.64564 46.90885
# Shear Modulus (GPa) = 23.89146 38.65074 31.27110
#
# Velocity S-wave (km/s) = 2.97231 3.78052 3.40051
# Velocity P-wave (km/s) = 4.97851 6.38299 5.72399
#
# Compressibility (1/GPa) = 0.02843165
#
# Stress axis : x y z
#
# Youngs Moduli (GPa) = 62.51942 50.01711 61.70449
#
# Poissons Ratio (x) = 0.53319 0.33385
# Poissons Ratio (y) = 0.66647 -0.25850
# Poissons Ratio (z) = 0.33826 -0.20954
#
# Static dielectric constant tensor:
#      x y z
#    x 2.140290 -0.077920 -0.031840 
#    y -0.077920 2.198960 0.029350 
#    z -0.031840 0.029350 2.093590 
# 
# From -- ./inp_files/309497.got.cif
#   From: 2010.05.17/outbox.cif.g08.bks.cpg/sg2_155_cif.got.tgz:309497.got - 2010.06.03 11:33:40.
