data_PCOD9109683
_publ_section_title
;
Structure prediction by ZEFSAII (Michael W. Deem and Ramdas Pophale) SiO2 
 PCOD9109683
Probable space group: P -1
;
_chemical_formula_sum "Si O2"
_cell_formula_units_Z 16
_cell_length_a 21.191394
_cell_length_b 8.602836
_cell_length_c 6.149048
_cell_angle_alpha 115.840847
_cell_angle_beta 122.702245
_cell_angle_gamma 52.851060
_cell_volume 741.780883
_symmetry_space_group_name_H-M "P -1"
_symmetry_group_IT_number 2
_symmetry_cell_setting 'triclinic'
loop_
_space_group_symop_operation_xyz
x,y,z
-x,-y,-z
loop_
_atom_site_type_symbol
_atom_site_label
_atom_site_fract_x
_atom_site_fract_y
_atom_site_fract_z
Si Si1 0.689000 0.442783 0.954956
Si Si2 0.820980 0.828134 0.913813
Si Si3 0.910744 0.041737 0.458022
Si Si4 0.472716 0.906802 0.095535
Si Si5 0.783608 0.508007 0.513850
Si Si6 0.812295 0.088276 0.682136
Si Si7 0.612476 0.686567 0.566876
Si Si8 0.675285 0.158470 0.103013
O O1 0.772208 0.269536 0.883698
O O2 0.616381 0.559708 0.710171
O O3 0.659141 0.333268 0.009934
O O4 0.724998 0.574065 0.224337
O O5 0.837549 0.609042 0.766469
O O6 0.816709 0.908915 0.714206
O O7 0.728488 0.959230 0.937138
O O8 0.881889 0.893362 0.199059
O O9 0.844781 0.275900 0.448958
O O10 0.901759 0.024898 0.690721
O O11 0.000000 0.000000 0.500000
O O12 0.551300 0.735021 0.272557
O O13 0.404295 0.828238 0.902035
O O14 0.421522 0.095414 0.270662
O O15 0.500000 0.000000 0.000000
O O16 0.709499 0.571907 0.594525
O O17 0.742940 0.145945 0.398662
#
# Coordination Sequence:
#
# PCOD9109683 Si02
#       8
#     2   2   2   2   2   2   2   2
#     4  11  21  40  68  96 128 181 235 275 340 407
#     4  10  23  41  69 101 131 181 230 275 344 411
#     4  11  24  45  70 103 142 173 223 288 343 409
#     4  11  25  41  62 101 142 177 233 297 343 390
#     4  12  22  43  70  99 135 186 228 276 344 419
#     4  10  20  41  66  96 133 174 224 282 342 405
#     4  11  24  40  63  97 134 184 231 283 345 402
#     4  10  21  41  65  95 133 177 230 288 336 402
#
# _framework density 21.569710000000001
#
# number of rings (size 3 to 8) (size 9 to 14) (size 15 to 20)
#    0.000    1.250    6.250    0.750    3.500    2.500 
#    0.000    5.000    0.000    0.000    0.000    0.000 
#    0.000    0.000    0.000    0.000    0.000    0.000 
#
# Total GULP energy -89073.225450 kJ/mol
# GULP energy per Si atom -5567.076591 kJ/mol
# Density = 2.152062 g / cm^3
# Si number density = 21.569710 Si / 1000 Ang^3
#
#
#
# Elastic Constant Matrix: (Units=GPa)
#
#
# Indices 1 2 3 4 5 6 
#
# 1 154.9245 23.9427 48.7572 4.5311 0.5349 -3.3315
# 2 23.9427 43.1556 32.1404 18.2516 -2.0278 -7.2335
# 3 48.7572 32.1404 75.7241 12.4752 -8.7899 16.0767
# 4 4.5311 18.2516 12.4752 31.6479 7.6623 -2.4283
# 5 0.5349 -2.0278 -8.7899 7.6623 30.9969 -0.3630
# 6 -3.3315 -7.2335 16.0767 -2.4283 -0.3630 24.7505
#
#
#
# Elastic Compliance Matrix: (Units=1/GPa)
#
#
# Indices 1 2 3 4 5 6 
#
# 1 0.009158 0.001778 -0.009134 0.002643 -0.003193 0.007898
# 2 0.001778 0.059209 -0.030470 -0.019797 0.000510 0.035400
# 3 -0.009134 -0.030470 0.041592 -0.002851 0.010227 -0.037280
# 4 0.002643 -0.019797 -0.002851 0.047166 -0.013799 0.000847
# 5 -0.003193 0.000510 0.010227 -0.013799 0.038571 -0.007712
# 6 0.007898 0.035400 -0.037280 0.000847 -0.007712 0.075998
#
#
# Mechanical properties :
#
#
# Convention : Reuss Voigt Hill
#
# Bulk Modulus (GPa) = 29.15011 53.72051 41.43531
# Shear Modulus (GPa) = 13.93607 28.74331 21.33969
#
# Velocity S-wave (km/s) = 2.54460 3.65441 3.14878
# Velocity P-wave (km/s) = 4.70925 6.53956 5.69837
#
# Compressibility (1/GPa) = 0.03430519
#
# Stress axis : x y z
#
# Youngs Moduli (GPa) = 109.19122 16.88937 24.04336
#
# Poissons Ratio (x) = -0.03002 0.21961
# Poissons Ratio (y) = -0.19409 0.73260
# Poissons Ratio (z) = 0.99736 0.51462
#
# Static dielectric constant tensor:
#      x y z
#    x 1.827090 0.013310 -0.011000 
#    y 0.013310 1.831670 -0.001000 
#    z -0.011000 -0.001000 1.850370 
# 
# From -- ./inp_files/116367.got.cif
#   From: 2010.05.17/outbox.cif.g08.bks.cpg/sg2_59_cif.got.tgz:116367.got - 2010.06.03 11:33:40.
