data_PCOD9109725
_publ_section_title
;
Structure prediction by ZEFSAII (Michael W. Deem and Ramdas Pophale) SiO2 
 PCOD9109725
Probable space group: P -1
;
_chemical_formula_sum "Si O2"
_cell_formula_units_Z 16
_cell_length_a 8.293003
_cell_length_b 24.946587
_cell_length_c 12.779548
_cell_angle_alpha 161.755318
_cell_angle_beta 57.570977
_cell_angle_gamma 119.369031
_cell_volume 696.867027
_symmetry_space_group_name_H-M "P -1"
_symmetry_group_IT_number 2
_symmetry_cell_setting 'triclinic'
loop_
_space_group_symop_operation_xyz
x,y,z
-x,-y,-z
loop_
_atom_site_type_symbol
_atom_site_label
_atom_site_fract_x
_atom_site_fract_y
_atom_site_fract_z
Si Si1 0.853440 0.352150 0.264649
Si Si2 0.455891 0.203322 0.867411
Si Si3 0.548035 0.910942 0.563813
Si Si4 0.825908 0.123522 0.241531
Si Si5 0.886308 0.239901 0.813653
Si Si6 0.154873 0.954119 0.139711
Si Si7 0.567937 0.690080 0.707843
Si Si8 0.040920 0.453594 0.780432
O O1 0.626492 0.404915 0.421265
O O2 0.000000 0.500000 0.500000
O O3 0.909143 0.247848 0.945116
O O4 0.856997 0.224842 0.127006
O O5 0.383684 0.197029 0.762283
O O6 0.663363 0.278396 0.937352
O O7 0.500000 0.000000 0.500000
O O8 0.354447 0.298508 0.178324
O O9 0.352998 0.852662 0.574027
O O10 0.715496 0.923311 0.611760
O O11 0.496176 0.111045 0.924649
O O12 0.908514 0.303476 0.520562
O O13 0.769506 0.053938 0.019141
O O14 0.000000 0.000000 0.000000
O O15 0.991734 0.384269 0.983552
O O16 0.946842 0.053906 0.401213
O O17 0.740648 0.621771 0.449019
O O18 0.000000 0.500000 0.000000
#
# Coordination Sequence:
#
# PCOD9109725 Si02
#       8
#     2   2   2   2   2   2   2   2
#     4  10  22  45  67  97 136 174 225 277 349 393
#     4   9  19  38  66  96 127 166 227 271 331 392
#     4  10  20  41  67 102 128 172 224 279 337 393
#     4  12  23  42  71  95 127 181 228 274 331 396
#     4  11  24  43  61 100 136 179 221 273 334 403
#     4  11  24  42  68  98 137 174 220 280 336 404
#     4   9  21  40  68  97 133 175 223 282 326 394
#     4  12  25  43  65 100 137 174 230 276 327 395
#
# _framework density 22.959906
#
# number of rings (size 3 to 8) (size 9 to 14) (size 15 to 20)
#    0.000    1.500    1.250    4.500    1.750    2.000 
#    9.000    0.625    0.000    0.000    0.000    0.000 
#    0.000    0.000    0.000    0.000    0.000    0.000 
#
# Total GULP energy -89487.958004 kJ/mol
# GULP energy per Si atom -5592.997375 kJ/mol
# Density = 2.290765 g / cm^3
# Si number density = 22.959906 Si / 1000 Ang^3
#
#
#
# Elastic Constant Matrix: (Units=GPa)
#
#
# Indices 1 2 3 4 5 6 
#
# 1 77.8326 35.4552 26.9040 -10.0439 17.2903 4.5883
# 2 35.4552 116.6710 30.3622 -8.8178 7.1107 -1.7238
# 3 26.9040 30.3622 69.4459 -16.7451 8.6609 0.5226
# 4 -10.0439 -8.8178 -16.7451 60.6528 0.3878 5.4469
# 5 17.2903 7.1107 8.6609 0.3878 38.7051 -0.6193
# 6 4.5883 -1.7238 0.5226 5.4469 -0.6193 45.8774
#
#
#
# Elastic Compliance Matrix: (Units=1/GPa)
#
#
# Indices 1 2 3 4 5 6 
#
# 1 0.017731 -0.003877 -0.004003 0.001500 -0.006362 -0.002137
# 2 -0.003877 0.010558 -0.003202 -0.000070 0.000523 0.000836
# 3 -0.004003 -0.003202 0.018557 0.004046 -0.001823 -0.000436
# 4 0.001500 -0.000070 0.004046 0.018066 -0.001781 -0.002368
# 5 -0.006362 0.000523 -0.001823 -0.001781 0.029029 0.001280
# 6 -0.002137 0.000836 -0.000436 -0.002368 0.001280 0.022346
#
#
# Mechanical properties :
#
#
# Convention : Reuss Voigt Hill
#
# Bulk Modulus (GPa) = 40.51690 49.93248 45.22469
# Shear Modulus (GPa) = 34.08846 40.46227 37.27537
#
# Velocity S-wave (km/s) = 3.85735 4.20253 4.03364
# Velocity P-wave (km/s) = 6.12569 6.73374 6.43690
#
# Compressibility (1/GPa) = 0.02468106
#
# Stress axis : x y z
#
# Youngs Moduli (GPa) = 56.39950 94.71624 53.88905
#
# Poissons Ratio (x) = 0.36721 0.21571
# Poissons Ratio (y) = 0.21866 0.17257
# Poissons Ratio (z) = 0.22576 0.30331
#
# Static dielectric constant tensor:
#      x y z
#    x 1.923930 -0.023810 -0.016300 
#    y -0.023810 1.862470 0.013270 
#    z -0.016300 0.013270 2.031000 
# 
# From -- ./inp_files/406934.got.cif
#   From: 2010.05.17/outbox.cif.g08.bks.cpg/sg2_204_cif.got.tgz:406934.got - 2010.06.03 11:33:40.
