data_PCOD9109866
_publ_section_title
;
Structure prediction by ZEFSAII (Michael W. Deem and Ramdas Pophale) SiO2 
 PCOD9109866
Probable space group: P -1
;
_chemical_formula_sum "Si O2"
_cell_formula_units_Z 15
_cell_length_a 9.470929
_cell_length_b 19.877083
_cell_length_c 19.330028
_cell_angle_alpha 21.357602
_cell_angle_beta 144.074029
_cell_angle_gamma 148.718782
_cell_volume 686.284791
_symmetry_space_group_name_H-M "P -1"
_symmetry_group_IT_number 2
_symmetry_cell_setting 'triclinic'
loop_
_space_group_symop_operation_xyz
x,y,z
-x,-y,-z
loop_
_atom_site_type_symbol
_atom_site_label
_atom_site_fract_x
_atom_site_fract_y
_atom_site_fract_z
Si Si1 0.496668 0.463201 0.682871
Si Si2 0.850309 0.643461 0.169868
Si Si3 0.143899 0.184691 0.600156
Si Si4 0.000000 0.500000 0.500000
Si Si5 0.223384 0.591192 0.776760
Si Si6 0.674702 0.933532 0.082024
Si Si7 0.251296 0.451450 0.153771
Si Si8 0.175190 0.240624 0.190110
O O1 0.571432 0.634021 0.488738
O O2 0.510726 0.261780 0.852533
O O3 0.697020 0.572440 0.722348
O O4 0.194610 0.397943 0.650757
O O5 0.887145 0.491068 0.384201
O O6 0.862215 0.568244 0.169178
O O7 0.552788 0.627602 0.079003
O O8 0.107126 0.871318 0.061582
O O9 0.162546 0.140704 0.729714
O O10 0.935770 0.275515 0.415970
O O11 0.062130 0.973449 0.727467
O O12 0.545145 0.737129 0.753121
O O13 0.167370 0.446861 0.960126
O O14 0.500000 0.000000 0.000000
O O15 0.192037 0.261385 0.259664
O O16 0.000000 0.500000 0.000000
#
# Coordination Sequence:
#
# PCOD9109866 Si02
#       8
#     2   2   2   1   2   2   2   2
#     4  11  25  43  65  96 138 178 224 280 334 401
#     4  10  21  42  69  98 132 178 221 279 343 395
#     4  12  23  40  69 101 130 175 221 282 341 393
#     4  10  22  44  62  90 136 176 220 274 326 410
#     4  10  20  41  67  99 139 165 224 283 332 400
#     4  12  25  42  69 104 133 175 231 284 345 401
#     4  10  23  42  65  93 136 179 220 273 332 405
#     4  10  22  40  67  98 132 178 221 276 335 397
#
# _framework density 21.856816999999999
#
# number of rings (size 3 to 8) (size 9 to 14) (size 15 to 20)
#    0.000    1.333    1.333    4.000    1.867    2.667 
#    4.800    0.000    2.933    0.000    0.000    0.000 
#    0.000    0.000    0.000    0.000    0.000    0.000 
#
# Total GULP energy -83556.782537 kJ/mol
# GULP energy per Si atom -5570.452169 kJ/mol
# Density = 2.180707 g / cm^3
# Si number density = 21.856817 Si / 1000 Ang^3
#
#
#
# Elastic Constant Matrix: (Units=GPa)
#
#
# Indices 1 2 3 4 5 6 
#
# 1 72.3366 12.8363 13.2653 2.6518 22.5119 -2.5963
# 2 12.8363 73.6622 12.3170 1.4241 -0.1272 -7.6978
# 3 13.2653 12.3170 61.1348 20.0679 20.5594 3.8873
# 4 2.6518 1.4241 20.0679 42.3753 2.9689 -2.1304
# 5 22.5119 -0.1272 20.5594 2.9689 22.3166 7.6563
# 6 -2.5963 -7.6978 3.8873 -2.1304 7.6563 35.2926
#
#
#
# Elastic Compliance Matrix: (Units=1/GPa)
#
#
# Indices 1 2 3 4 5 6 
#
# 1 0.023818 -0.004600 0.006908 -0.001980 -0.032529 0.006925
# 2 -0.004600 0.015566 -0.006126 0.002093 0.009476 0.001802
# 3 0.006908 -0.006126 0.032196 -0.012829 -0.035860 0.002631
# 4 -0.001980 0.002093 -0.012829 0.029137 0.009461 0.001430
# 5 -0.032529 0.009476 -0.035860 0.009461 0.116702 -0.021123
# 6 0.006925 0.001802 0.002631 0.001430 -0.021123 0.033616
#
#
# Mechanical properties :
#
#
# Convention : Reuss Voigt Hill
#
# Bulk Modulus (GPa) = 15.63881 31.55231 23.59556
# Shear Modulus (GPa) = 17.85801 31.24458 24.55129
#
# Velocity S-wave (km/s) = 2.86150 3.78499 3.35517
# Velocity P-wave (km/s) = 4.25303 5.79386 5.08218
#
# Compressibility (1/GPa) = 0.06394349
#
# Stress axis : x y z
#
# Youngs Moduli (GPa) = 41.98434 64.24415 31.05950
#
# Poissons Ratio (x) = 0.29551 -0.21455
# Poissons Ratio (y) = 0.19312 0.19028
# Poissons Ratio (z) = -0.29001 0.39357
#
# Static dielectric constant tensor:
#      x y z
#    x 1.841090 0.013190 -0.023260 
#    y 0.013190 1.792520 -0.006250 
#    z -0.023260 -0.006250 1.739170 
# 
# From -- ./inp_files/411160.got.cif
#   From: 2010.05.17/outbox.cif.g08.bks.cpg/sg2_206_cif.got.tgz:411160.got - 2010.06.03 11:33:40.
