data_PCOD9109009
_publ_section_title
;
Structure prediction by ZEFSAII (Michael W. Deem and Ramdas Pophale) SiO2 
 PCOD9109009
Probable space group: P -1
;
_chemical_formula_sum "Si O2"
_cell_formula_units_Z 14
_cell_length_a 5.722169
_cell_length_b 12.110037
_cell_length_c 15.597945
_cell_angle_alpha 41.963330
_cell_angle_beta 89.348653
_cell_angle_gamma 110.376321
_cell_volume 611.290333
_symmetry_space_group_name_H-M "P -1"
_symmetry_group_IT_number 2
_symmetry_cell_setting 'triclinic'
loop_
_space_group_symop_operation_xyz
x,y,z
-x,-y,-z
loop_
_atom_site_type_symbol
_atom_site_label
_atom_site_fract_x
_atom_site_fract_y
_atom_site_fract_z
Si Si1 0.396575 0.443968 0.773676
Si Si2 0.300055 0.056907 0.077753
Si Si3 0.250291 0.800047 0.374597
Si Si4 0.657576 0.429507 0.633393
Si Si5 0.420511 0.908497 0.648541
Si Si6 0.159549 0.200548 0.329087
Si Si7 0.836653 0.254310 0.879093
O O1 0.673873 0.619352 0.710760
O O2 0.421488 0.452522 0.663692
O O3 0.122306 0.448313 0.787884
O O4 0.295431 0.246839 0.944333
O O5 0.205490 0.945522 0.231469
O O6 0.144626 0.898229 0.094513
O O7 0.626918 0.134935 0.024115
O O8 0.946247 0.628601 0.503331
O O9 0.380748 0.705007 0.368930
O O10 0.447118 0.916774 0.384536
O O11 0.679165 0.320439 0.779354
O O12 0.595005 0.803642 0.720241
O O13 0.086411 0.794206 0.721349
O O14 0.500000 0.000000 0.500000
O O15 0.000000 0.000000 0.500000
#
# Coordination Sequence:
#
# PCOD9109009 Si02
#       7
#     2   2   2   2   2   2   2
#     4  11  21  37  67  91 125 167 218 261 318 400
#     4   9  20  38  57  92 128 167 201 263 330 394
#     4  10  20  41  61  91 133 160 212 272 332 381
#     4   9  20  37  61  97 124 163 206 270 333 385
#     4  10  22  42  64  89 125 172 219 268 318 382
#     4  10  23  39  66  93 121 169 228 268 314 373
#     4   9  19  36  62  89 127 165 210 252 324 401
#
# _framework density 22.902373000000001
#
# number of rings (size 3 to 8) (size 9 to 14) (size 15 to 20)
#    0.000    2.286    0.000    3.000    8.000    0.000 
#    7.714    5.000    0.000    0.000    0.000    0.000 
#    0.000    0.000    0.000    0.000    0.000    0.000 
#
# Total GULP energy -78010.801320 kJ/mol
# GULP energy per Si atom -5572.200094 kJ/mol
# Density = 2.285025 g / cm^3
# Si number density = 22.902373 Si / 1000 Ang^3
#
#
#
# Elastic Constant Matrix: (Units=GPa)
#
#
# Indices 1 2 3 4 5 6 
#
# 1 92.8459 20.7874 1.3116 0.4304 -24.3657 9.4473
# 2 20.7874 80.5559 2.9384 1.5271 -14.1819 -10.6157
# 3 1.3116 2.9384 78.4975 -1.7746 -5.6129 -3.5765
# 4 0.4304 1.5271 -1.7746 17.6502 4.9575 1.5930
# 5 -24.3657 -14.1819 -5.6129 4.9575 32.9720 -4.3842
# 6 9.4473 -10.6157 -3.5765 1.5930 -4.3842 19.5563
#
#
#
# Elastic Compliance Matrix: (Units=1/GPa)
#
#
# Indices 1 2 3 4 5 6 
#
# 1 0.014417 -0.002975 0.000167 -0.001985 0.008850 -0.006403
# 2 -0.002975 0.016102 0.000410 -0.004367 0.007075 0.012194
# 3 0.000167 0.000410 0.013079 0.000168 0.002923 0.003175
# 4 -0.001985 -0.004367 0.000168 0.061860 -0.013885 -0.009533
# 5 0.008850 0.007075 0.002923 -0.013885 0.043972 0.011089
# 6 -0.006403 0.012194 0.003175 -0.009533 0.011089 0.064690
#
#
# Mechanical properties :
#
#
# Convention : Reuss Voigt Hill
#
# Bulk Modulus (GPa) = 25.77218 33.55266 29.66242
# Shear Modulus (GPa) = 21.56564 29.15982 25.36273
#
# Velocity S-wave (km/s) = 3.07193 3.57210 3.33141
# Velocity P-wave (km/s) = 4.88466 5.62985 5.27044
#
# Compressibility (1/GPa) = 0.03880153
#
# Stress axis : x y z
#
# Youngs Moduli (GPa) = 69.36017 62.10495 76.46074
#
# Poissons Ratio (x) = 0.18474 -0.01274
# Poissons Ratio (y) = 0.20632 -0.03133
# Poissons Ratio (z) = -0.01156 -0.02545
#
# Static dielectric constant tensor:
#      x y z
#    x 2.178760 -0.143110 0.026070 
#    y -0.143110 1.902430 -0.038270 
#    z 0.026070 -0.038270 1.790450 
# 
# From -- ./inp_files/38800.got.cif
#   From: 2010.05.17/outbox.cif.g08.bks.cpg/sg2_20_cif.got.tgz:38800.got - 2010.06.03 11:33:40.
