data_PCOD9109325
_publ_section_title
;
Structure prediction by ZEFSAII (Michael W. Deem and Ramdas Pophale) SiO2 
 PCOD9109325
Probable space group: P -1
;
_chemical_formula_sum "Si O2"
_cell_formula_units_Z 16
_cell_length_a 22.283906
_cell_length_b 27.908623
_cell_length_c 9.630292
_cell_angle_alpha 153.656064
_cell_angle_beta 35.062600
_cell_angle_gamma 163.330268
_cell_volume 723.851193
_symmetry_space_group_name_H-M "P -1"
_symmetry_group_IT_number 2
_symmetry_cell_setting 'triclinic'
loop_
_space_group_symop_operation_xyz
x,y,z
-x,-y,-z
loop_
_atom_site_type_symbol
_atom_site_label
_atom_site_fract_x
_atom_site_fract_y
_atom_site_fract_z
Si Si1 0.883010 0.635157 0.381713
Si Si2 0.540617 0.463962 0.462056
Si Si3 0.665804 0.409790 0.492101
Si Si4 0.286966 0.307713 0.805089
Si Si5 0.687821 0.969220 0.214898
Si Si6 0.903653 0.534573 0.613462
Si Si7 0.823036 0.024290 0.789542
Si Si8 0.264546 0.689412 0.365099
O O1 0.784402 0.657785 0.565597
O O2 0.716354 0.444942 0.325281
O O3 0.873922 0.534757 0.023139
O O4 0.111668 0.845583 0.576363
O O5 0.500000 0.500000 0.500000
O O6 0.388313 0.375101 0.639220
O O7 0.450008 0.261935 0.082129
O O8 0.401838 0.171608 0.383413
O O9 0.775803 0.424285 0.423562
O O10 0.778082 0.627473 0.884938
O O11 0.138117 0.069499 0.512096
O O12 0.500000 0.500000 0.000000
O O13 0.514213 0.908321 0.406191
O O14 0.767494 0.022876 0.044780
O O15 0.129942 0.673302 0.539038
O O16 0.754013 0.347131 0.529851
O O17 0.983789 0.729232 0.002268
#
# Coordination Sequence:
#
# PCOD9109325 Si02
#       8
#     2   2   2   2   2   2   2   2
#     4  11  21  42  64  91 126 166 210 255 311 376
#     4  10  21  38  59  92 133 166 204 256 312 369
#     4  11  21  39  65  96 125 163 215 259 306 371
#     4   9  18  37  61  89 130 159 199 264 295 359
#     4  10  21  42  64  88 128 167 209 260 305 378
#     4  11  25  42  67  92 122 166 212 263 326 367
#     4  10  20  41  64  96 122 163 216 254 307 376
#     4  10  25  46  60  93 132 157 206 276 318 369
#
# _framework density 22.10399
#
# number of rings (size 3 to 8) (size 9 to 14) (size 15 to 20)
#    0.000    1.750    6.250    0.000    3.500    4.000 
#    2.250    2.500    0.000    0.000    0.000    0.000 
#    0.000    0.000    0.000    0.000    0.000    0.000 
#
# Total GULP energy -89302.646827 kJ/mol
# GULP energy per Si atom -5581.415427 kJ/mol
# Density = 2.205368 g / cm^3
# Si number density = 22.103990 Si / 1000 Ang^3
#
#
#
# Elastic Constant Matrix: (Units=GPa)
#
#
# Indices 1 2 3 4 5 6 
#
# 1 150.0625 15.3787 18.6505 -4.0728 4.3754 20.7709
# 2 15.3787 48.0727 6.1332 3.0594 3.7697 31.2954
# 3 18.6505 6.1332 31.1938 -4.1476 7.1253 4.2051
# 4 -4.0728 3.0594 -4.1476 28.9540 5.4879 2.1432
# 5 4.3754 3.7697 7.1253 5.4879 23.6331 5.3152
# 6 20.7709 31.2954 4.2051 2.1432 5.3152 29.7478
#
#
#
# Elastic Compliance Matrix: (Units=1/GPa)
#
#
# Indices 1 2 3 4 5 6 
#
# 1 0.008120 0.004111 -0.004587 0.000523 0.001264 -0.009610
# 2 0.004111 0.069987 -0.008433 -0.004019 0.008775 -0.076585
# 3 -0.004587 -0.008433 0.039431 0.007814 -0.013382 0.008329
# 4 0.000523 -0.004019 0.007814 0.038113 -0.011111 0.001998
# 5 0.001264 0.008775 -0.013382 -0.011111 0.051014 -0.016537
# 6 -0.009610 -0.076585 0.008329 0.001998 -0.016537 0.122528
#
#
# Mechanical properties :
#
#
# Convention : Reuss Voigt Hill
#
# Bulk Modulus (GPa) = 10.02809 34.40597 22.21703
# Shear Modulus (GPa) = 13.14920 29.07808 21.11364
#
# Velocity S-wave (km/s) = 2.44166 3.63093 3.09398
# Velocity P-wave (km/s) = 3.53491 5.75999 4.77876
#
# Compressibility (1/GPa) = 0.09971993
#
# Stress axis : x y z
#
# Youngs Moduli (GPa) = 123.15055 14.28840 25.36064
#
# Poissons Ratio (x) = -0.05874 0.11633
# Poissons Ratio (y) = -0.50630 0.21387
# Poissons Ratio (z) = 0.56489 0.12050
#
# Static dielectric constant tensor:
#      x y z
#    x 1.797220 -0.039290 0.050950 
#    y -0.039290 1.692780 0.108620 
#    z 0.050950 0.108620 1.772240 
# 
# From -- ./inp_files/350260.got.cif
#   From: 2010.05.17/outbox.cif.g08.bks.cpg/sg2_176_cif.got.tgz:350260.got - 2010.06.03 11:33:40.
