data_PCOD9109587
_publ_section_title
;
Structure prediction by ZEFSAII (Michael W. Deem and Ramdas Pophale) SiO2 
 PCOD9109587
Probable space group: P -1
;
_chemical_formula_sum "Si O2"
_cell_formula_units_Z 16
_cell_length_a 5.737873
_cell_length_b 17.164136
_cell_length_c 8.714543
_cell_angle_alpha 73.423003
_cell_angle_beta 74.080062
_cell_angle_gamma 110.131780
_cell_volume 703.056476
_symmetry_space_group_name_H-M "P -1"
_symmetry_group_IT_number 2
_symmetry_cell_setting 'triclinic'
loop_
_space_group_symop_operation_xyz
x,y,z
-x,-y,-z
loop_
_atom_site_type_symbol
_atom_site_label
_atom_site_fract_x
_atom_site_fract_y
_atom_site_fract_z
Si Si1 0.678304 0.884262 0.523544
Si Si2 0.095302 0.778046 0.786794
Si Si3 0.541872 0.840901 0.156449
Si Si4 0.091735 0.208467 0.653442
Si Si5 0.694453 0.595940 0.335521
Si Si6 0.090782 0.066714 0.220258
Si Si7 0.411199 0.400358 0.010195
Si Si8 0.254165 0.684389 0.072051
O O1 0.356251 0.823170 0.604786
O O2 0.830814 0.821241 0.506133
O O3 0.734678 0.923579 0.663934
O O4 0.814426 0.973602 0.342410
O O5 0.982010 0.849409 0.804872
O O6 0.180966 0.752449 0.949247
O O7 0.871984 0.678059 0.831017
O O8 0.749383 0.833946 0.246104
O O9 0.462519 0.749941 0.120841
O O10 0.238874 0.831497 0.253193
O O11 0.726845 0.924950 0.964947
O O12 0.237918 0.315027 0.619700
O O13 0.500000 0.500000 0.500000
O O14 0.598868 0.599544 0.175201
O O15 0.995811 0.607094 0.245909
O O16 0.625873 0.363960 0.034108
O O17 0.500000 0.500000 0.000000
#
# Coordination Sequence:
#
# PCOD9109587 Si02
#       8
#     2   2   2   2   2   2   2   2
#     4  11  26  41  66 105 136 174 233 293 345 410
#     4  11  21  42  69  93 138 179 226 289 341 410
#     4  11  21  46  71  93 138 187 231 277 344 427
#     4  11  26  45  69 101 141 188 228 286 358 410
#     4  10  23  41  63  93 133 176 225 286 349 410
#     4  11  23  43  71  98 133 182 233 284 347 410
#     4  11  23  40  66  98 125 176 233 279 340 414
#     4  10  20  41  66  90 127 180 226 273 344 407
#
# _framework density 22.757773
#
# number of rings (size 3 to 8) (size 9 to 14) (size 15 to 20)
#    0.000    1.250    3.750    1.875    1.750    6.500 
#    2.250    0.000    0.000    0.000    0.000    0.000 
#    0.000    0.000    0.000    0.000    0.000    0.000 
#
# Total GULP energy -89272.635683 kJ/mol
# GULP energy per Si atom -5579.539730 kJ/mol
# Density = 2.270597 g / cm^3
# Si number density = 22.757773 Si / 1000 Ang^3
#
#
#
# Elastic Constant Matrix: (Units=GPa)
#
#
# Indices 1 2 3 4 5 6 
#
# 1 96.9719 30.7491 48.8698 -17.8547 -22.4949 -1.8312
# 2 30.7491 90.0702 38.6341 -17.5158 -17.2341 7.5910
# 3 48.8698 38.6341 109.3839 -37.1279 -33.0590 25.6529
# 4 -17.8547 -17.5158 -37.1279 38.3611 12.8535 -13.2530
# 5 -22.4949 -17.2341 -33.0590 12.8535 49.5005 -1.6838
# 6 -1.8312 7.5910 25.6529 -13.2530 -1.6838 11.9518
#
#
#
# Elastic Compliance Matrix: (Units=1/GPa)
#
#
# Indices 1 2 3 4 5 6 
#
# 1 0.027784 -0.003013 -0.027703 0.015854 -0.008250 0.082049
# 2 -0.003013 0.013751 -0.001456 0.001312 0.001958 -0.004339
# 3 -0.027703 -0.001456 0.056493 -0.014084 0.023634 -0.136861
# 4 0.015854 0.001312 -0.014084 0.057140 -0.013408 0.093297
# 5 -0.008250 0.001958 0.023634 -0.013408 0.034247 -0.063277
# 6 0.082049 -0.004339 -0.136861 0.093297 -0.063277 0.487289
#
#
# Mechanical properties :
#
#
# Convention : Reuss Voigt Hill
#
# Bulk Modulus (GPa) = 29.68902 59.21465 44.45184
# Shear Modulus (GPa) = 6.64650 31.84090 19.24370
#
# Velocity S-wave (km/s) = 1.71081 3.74454 2.91105
# Velocity P-wave (km/s) = 4.12025 6.69115 5.55644
#
# Compressibility (1/GPa) = 0.03368249
#
# Stress axis : x y z
#
# Youngs Moduli (GPa) = 35.99258 72.72201 17.70143
#
# Poissons Ratio (x) = 0.21909 0.49039
# Poissons Ratio (y) = 0.10843 0.02578
# Poissons Ratio (z) = 0.99712 0.10590
#
# Static dielectric constant tensor:
#      x y z
#    x 1.936340 0.039650 0.024260 
#    y 0.039650 1.830900 0.066540 
#    z 0.024260 0.066540 1.943600 
# 
# From -- ./inp_files/39512.got.cif
#   From: 2010.05.17/outbox.cif.g08.bks.cpg/sg2_20_cif.got.tgz:39512.got - 2010.06.03 11:33:40.
