data_PCOD9109724
_publ_section_title
;
Structure prediction by ZEFSAII (Michael W. Deem and Ramdas Pophale) SiO2 
 PCOD9109724
Probable space group: P -1
;
_chemical_formula_sum "Si O2"
_cell_formula_units_Z 15
_cell_length_a 5.582098
_cell_length_b 10.820149
_cell_length_c 11.882159
_cell_angle_alpha 103.396033
_cell_angle_beta 120.125541
_cell_angle_gamma 102.447270
_cell_volume 554.904963
_symmetry_space_group_name_H-M "P -1"
_symmetry_group_IT_number 2
_symmetry_cell_setting 'triclinic'
loop_
_space_group_symop_operation_xyz
x,y,z
-x,-y,-z
loop_
_atom_site_type_symbol
_atom_site_label
_atom_site_fract_x
_atom_site_fract_y
_atom_site_fract_z
Si Si1 0.389070 0.205234 0.499429
Si Si2 0.300810 0.564998 0.739921
Si Si3 0.948319 0.767217 0.357203
Si Si4 0.271656 0.038832 0.218789
Si Si5 0.000000 0.500000 0.000000
Si Si6 0.440718 0.816282 0.144145
Si Si7 0.604336 0.832470 0.956866
Si Si8 0.271960 0.476696 0.312516
O O1 0.155910 0.178943 0.542267
O O2 0.239416 0.123128 0.335310
O O3 0.533809 0.371524 0.564540
O O4 0.698899 0.177578 0.571901
O O5 0.186681 0.401527 0.704632
O O6 0.526723 0.667304 0.906229
O O7 0.491921 0.588747 0.677535
O O8 0.003504 0.596480 0.683846
O O9 0.760678 0.803612 0.224413
O O10 0.445946 0.137455 0.177325
O O11 0.440841 0.935784 0.250763
O O12 0.944096 0.932925 0.080232
O O13 0.803635 0.333184 0.914866
O O14 0.882137 0.513016 0.842183
O O15 0.402671 0.853749 0.013574
#
# Coordination Sequence:
#
# PCOD9109724 Si02
#       8
#     2   2   2   2   1   2   2   2
#     4  10  23  47  67 104 150 186 236 288 362 440
#     4  10  20  41  67 101 137 172 230 299 345 412
#     4  10  24  42  73 110 141 178 233 304 375 421
#     4  11  28  47  69  97 147 201 244 284 348 437
#     4  12  20  40  68 110 140 176 226 310 362 414
#     4  12  25  43  74 104 144 184 239 305 361 427
#     4  11  26  47  70 102 139 198 248 292 347 429
#     4  10  21  38  66 105 140 170 226 288 362 416
#
# _framework density 27.031654
#
# number of rings (size 3 to 8) (size 9 to 14) (size 15 to 20)
#    0.000    1.333    4.000    1.200    3.733    4.267 
#    0.000    5.333    0.000    0.000    0.000    0.000 
#    0.000    0.000    0.000    0.000    0.000    0.000 
#
# Total GULP energy -83712.615572 kJ/mol
# GULP energy per Si atom -5580.841038 kJ/mol
# Density = 2.697013 g / cm^3
# Si number density = 27.031654 Si / 1000 Ang^3
#
#
#
# Elastic Constant Matrix: (Units=GPa)
#
#
# Indices 1 2 3 4 5 6 
#
# 1 186.2275 46.1128 48.2181 12.1091 -31.7391 5.0850
# 2 46.1128 85.1655 40.9330 12.0633 -13.7388 20.2374
# 3 48.2181 40.9330 146.5406 18.2585 -28.3335 0.2624
# 4 12.1091 12.0633 18.2585 40.2436 1.1674 -5.5555
# 5 -31.7391 -13.7388 -28.3335 1.1674 53.4801 0.7855
# 6 5.0850 20.2374 0.2624 -5.5555 0.7855 32.4006
#
#
#
# Elastic Compliance Matrix: (Units=1/GPa)
#
#
# Indices 1 2 3 4 5 6 
#
# 1 0.006814 -0.002840 -0.000779 -0.000862 0.002913 0.000492
# 2 -0.002840 0.018733 -0.003340 -0.004966 0.001644 -0.012119
# 3 -0.000779 -0.003340 0.009029 -0.002744 0.003500 0.001580
# 4 -0.000862 -0.004966 -0.002744 0.029110 -0.004000 0.008348
# 5 0.002913 0.001644 0.003500 -0.004000 0.022832 -0.002752
# 6 0.000492 -0.012119 0.001580 0.008348 -0.002752 0.039841
#
#
# Mechanical properties :
#
#
# Convention : Reuss Voigt Hill
#
# Bulk Modulus (GPa) = 48.40574 76.49570 62.45072
# Shear Modulus (GPa) = 33.97579 44.06949 39.02264
#
# Velocity S-wave (km/s) = 3.54911 4.04207 3.80358
# Velocity P-wave (km/s) = 5.89414 7.08127 6.51480
#
# Compressibility (1/GPa) = 0.02065871
#
# Stress axis : x y z
#
# Youngs Moduli (GPa) = 146.76173 53.38081 110.75244
#
# Poissons Ratio (x) = 0.15159 0.08627
# Poissons Ratio (y) = 0.41678 0.36991
# Poissons Ratio (z) = 0.11432 0.17829
#
# Static dielectric constant tensor:
#      x y z
#    x 2.160770 -0.049650 -0.015630 
#    y -0.049650 2.115030 -0.048010 
#    z -0.015630 -0.048010 2.126410 
# 
# From -- ./inp_files/365322.got.cif
#   From: 2010.05.17/outbox.cif.g08.bks.cpg/sg2_183_cif.got.tgz:365322.got - 2010.06.03 11:33:40.
