data_PCOD9109246
_publ_section_title
;
Structure prediction by ZEFSAII (Michael W. Deem and Ramdas Pophale) SiO2 
 PCOD9109246
Probable space group: P -1
;
_chemical_formula_sum "Si O2"
_cell_formula_units_Z 14
_cell_length_a 11.784158
_cell_length_b 11.756446
_cell_length_c 14.441730
_cell_angle_alpha 135.427779
_cell_angle_beta 150.833178
_cell_angle_gamma 52.673688
_cell_volume 683.595673
_symmetry_space_group_name_H-M "P -1"
_symmetry_group_IT_number 2
_symmetry_cell_setting 'triclinic'
loop_
_space_group_symop_operation_xyz
x,y,z
-x,-y,-z
loop_
_atom_site_type_symbol
_atom_site_label
_atom_site_fract_x
_atom_site_fract_y
_atom_site_fract_z
Si Si1 0.990249 0.693737 0.089289
Si Si2 0.507792 0.162079 0.158214
Si Si3 0.116154 0.571608 0.475207
Si Si4 0.671097 0.528909 0.248231
Si Si5 0.078395 0.273446 0.156621
Si Si6 0.566222 0.118149 0.393144
Si Si7 0.368764 0.766879 0.080351
O O1 0.203240 0.790824 0.348827
O O2 0.000000 0.500000 0.000000
O O3 0.737303 0.750670 0.974685
O O4 0.998895 0.738397 0.011987
O O5 0.720293 0.274166 0.337196
O O6 0.557256 0.129465 0.282234
O O7 0.500000 0.000000 0.000000
O O8 0.236240 0.467668 0.580610
O O9 0.093596 0.462640 0.305252
O O10 0.867100 0.603276 0.360593
O O11 0.454342 0.637921 0.141846
O O12 0.634103 0.342542 0.078677
O O13 0.332708 0.204104 0.309195
O O14 0.889857 0.194397 0.048076
O O15 0.529764 0.928686 0.283483
#
# Coordination Sequence:
#
# PCOD9109246 Si02
#       7
#     2   2   2   2   2   2   2
#     4  11  25  43  64  94 127 169 216 252 304 385
#     4  11  25  42  65  95 128 164 208 262 316 368
#     4  10  20  41  64  89 127 164 208 255 318 362
#     4   9  21  38  65  93 122 163 205 262 307 376
#     4  10  23  41  64  92 121 169 206 257 313 370
#     4  11  24  43  62  93 129 161 206 262 310 370
#     4  10  21  40  62  94 125 159 212 253 315 371
#
# _framework density 20.479942999999999
#
# number of rings (size 3 to 8) (size 9 to 14) (size 15 to 20)
#    0.000    1.714    0.000    3.000    6.000    3.429 
#   10.286    0.000    0.000    0.000    0.000    0.000 
#    0.000    0.000    0.000    0.000    0.000    0.000 
#
# Total GULP energy -78211.842418 kJ/mol
# GULP energy per Si atom -5586.560173 kJ/mol
# Density = 2.043333 g / cm^3
# Si number density = 20.479943 Si / 1000 Ang^3
#
#
#
# Elastic Constant Matrix: (Units=GPa)
#
#
# Indices 1 2 3 4 5 6 
#
# 1 31.5499 6.7955 24.2703 30.0666 -11.4622 -4.1326
# 2 6.7955 60.5901 39.0789 25.5788 -7.4583 -2.7213
# 3 24.2703 39.0789 161.3629 31.9271 0.5557 1.2354
# 4 30.0666 25.5788 31.9271 30.0562 21.7318 -5.3230
# 5 -11.4622 -7.4583 0.5557 21.7318 19.0789 10.6389
# 6 -4.1326 -2.7213 1.2354 -5.3230 10.6389 12.2478
#
#
#
# Elastic Compliance Matrix: (Units=1/GPa)
#
#
# Indices 1 2 3 4 5 6 
#
# 1 0.019302 -0.006566 -0.004081 0.013177 -0.023470 0.031579
# 2 -0.006566 0.017457 -0.004211 0.004607 -0.008779 0.011716
# 3 -0.004081 -0.004211 0.008243 -0.001928 0.000151 -0.004113
# 4 0.013177 0.004607 -0.001928 -0.005588 0.027800 -0.020913
# 5 -0.023470 -0.008779 0.000151 0.027800 0.003852 -0.001148
# 6 0.031579 0.011716 -0.004113 -0.020913 -0.001148 0.087228
#
#
# Mechanical properties :
#
#
# Convention : Reuss Voigt Hill
#
# Bulk Modulus (GPa) = 65.42035 43.75469 54.58752
# Shear Modulus (GPa) = 30.24679 24.50046 27.37362
#
# Velocity S-wave (km/s) = 3.84721 3.46253 3.65993
# Velocity P-wave (km/s) = 7.19359 6.11527 6.67623
#
# Compressibility (1/GPa) = 0.01528576
#
# Stress axis : x y z
#
# Youngs Moduli (GPa) = 51.80833 57.28202 121.31028
#
# Poissons Ratio (x) = 0.37612 0.49508
# Poissons Ratio (y) = 0.34018 0.51088
# Poissons Ratio (z) = 0.21143 0.24124
#
# Static dielectric constant tensor:
#      x y z
#    x 1.720620 -0.010980 0.010770 
#    y -0.010980 1.713550 -0.014410 
#    z 0.010770 -0.014410 1.739960 
# 
# From -- ./inp_files/419248.got.cif
#   From: 2010.05.17/outbox.cif.g08.bks.cpg/sg2_210_cif.got.tgz:419248.got - 2010.06.03 11:33:40.
