data_PCOD9109678
_publ_section_title
;
Structure prediction by ZEFSAII (Michael W. Deem and Ramdas Pophale) SiO2 
 PCOD9109678
Probable space group: P -1
;
_chemical_formula_sum "Si O2"
_cell_formula_units_Z 16
_cell_length_a 11.719991
_cell_length_b 8.405035
_cell_length_c 16.359969
_cell_angle_alpha 136.024960
_cell_angle_beta 140.302592
_cell_angle_gamma 55.160764
_cell_volume 714.172515
_symmetry_space_group_name_H-M "P -1"
_symmetry_group_IT_number 2
_symmetry_cell_setting 'triclinic'
loop_
_space_group_symop_operation_xyz
x,y,z
-x,-y,-z
loop_
_atom_site_type_symbol
_atom_site_label
_atom_site_fract_x
_atom_site_fract_y
_atom_site_fract_z
Si Si1 0.050478 0.884288 0.400053
Si Si2 0.173838 0.332585 0.049725
Si Si3 0.821019 0.859342 0.841501
Si Si4 0.492529 0.757293 0.199840
Si Si5 0.567825 0.487599 0.285311
Si Si6 0.672156 0.470419 0.526712
Si Si7 0.301490 0.300828 0.870287
Si Si8 0.797503 0.068020 0.205920
O O1 0.912409 0.678930 0.234183
O O2 0.239161 0.763211 0.473886
O O3 0.984238 0.057323 0.356003
O O4 0.000000 0.000000 0.500000
O O5 0.191431 0.291741 0.139959
O O6 0.357824 0.431790 0.154825
O O7 0.000000 0.500000 0.000000
O O8 0.163975 0.082783 0.908849
O O9 0.799235 0.683778 0.690486
O O10 0.652055 0.037068 0.810179
O O11 0.000000 0.000000 0.000000
O O12 0.568626 0.721490 0.319718
O O13 0.638724 0.764720 0.211944
O O14 0.392251 0.524786 0.034237
O O15 0.633819 0.466499 0.407408
O O16 0.696384 0.312487 0.238403
O O17 0.500000 0.500000 0.500000
O O18 0.336256 0.081497 0.866872
#
# Coordination Sequence:
#
# PCOD9109678 Si02
#       8
#     2   2   2   2   2   2   2   2
#     4  10  20  41  66  96 129 168 226 274 336 390
#     4  12  24  42  69 102 133 176 232 282 331 407
#     4  12  27  45  67  96 144 182 222 276 360 402
#     4  11  23  40  63  98 137 176 219 280 343 407
#     4  12  23  42  68 103 131 178 238 278 332 408
#     4  12  25  44  72 101 135 182 230 284 338 408
#     4   9  21  38  66  91 133 173 219 273 344 392
#     4  10  22  40  70 100 128 173 235 281 321 408
#
# _framework density 22.403549999999999
#
# number of rings (size 3 to 8) (size 9 to 14) (size 15 to 20)
#    0.750    0.250    3.750    3.375    5.250    0.500 
#    0.000    1.875    0.000    0.000    0.000    0.000 
#    0.000    0.000    0.000    0.000    0.000    0.000 
#
# Total GULP energy -89310.283288 kJ/mol
# GULP energy per Si atom -5581.892705 kJ/mol
# Density = 2.235256 g / cm^3
# Si number density = 22.403550 Si / 1000 Ang^3
#
#
#
# Elastic Constant Matrix: (Units=GPa)
#
#
# Indices 1 2 3 4 5 6 
#
# 1 54.4034 26.7602 11.7504 -14.9368 -5.6357 -16.1575
# 2 26.7602 138.0321 23.6458 -35.9955 0.5843 -29.1513
# 3 11.7504 23.6458 88.4156 -10.4429 -9.8849 -12.3147
# 4 -14.9368 -35.9955 -10.4429 39.2770 1.7993 3.9684
# 5 -5.6357 0.5843 -9.8849 1.7993 32.0637 -1.4810
# 6 -16.1575 -29.1513 -12.3147 3.9684 -1.4810 39.8844
#
#
#
# Elastic Compliance Matrix: (Units=1/GPa)
#
#
# Indices 1 2 3 4 5 6 
#
# 1 0.023741 -0.000983 -0.000473 0.006988 0.004032 0.008208
# 2 -0.000983 0.011421 -0.001007 0.009191 -0.000898 0.006691
# 3 -0.000473 -0.001007 0.012701 0.001797 0.003887 0.002960
# 4 0.006988 0.009191 0.001797 0.036370 -0.000127 0.006480
# 5 0.004032 -0.000898 0.003887 -0.000127 0.033277 0.003425
# 6 0.008208 0.006691 0.002960 0.006480 0.003425 0.033684
#
#
# Mechanical properties :
#
#
# Convention : Reuss Voigt Hill
#
# Bulk Modulus (GPa) = 23.28944 45.01818 34.15381
# Shear Modulus (GPa) = 29.33728 36.82467 33.08097
#
# Velocity S-wave (km/s) = 3.62262 4.05865 3.84682
# Velocity P-wave (km/s) = 5.28354 6.48856 5.91681
#
# Compressibility (1/GPa) = 0.04293791
#
# Stress axis : x y z
#
# Youngs Moduli (GPa) = 42.12174 87.55555 78.73144
#
# Poissons Ratio (x) = 0.08607 0.03724
# Poissons Ratio (y) = 0.04141 0.07927
# Poissons Ratio (z) = 0.01992 0.08815
#
# Static dielectric constant tensor:
#      x y z
#    x 1.845440 -0.014810 0.050950 
#    y -0.014810 1.895440 -0.019330 
#    z 0.050950 -0.019330 1.924620 
# 
# From -- ./inp_files/516308.got.cif
#   From: 2010.05.17/outbox.cif.g08.bks.cpg/sg2_259_cif.got.tgz:516308.got - 2010.06.03 11:33:40.
