data_PCOD9109656
_publ_section_title
;
Structure prediction by ZEFSAII (Michael W. Deem and Ramdas Pophale) SiO2 
 PCOD9109656
Probable space group: P -1
;
_chemical_formula_sum "Si O2"
_cell_formula_units_Z 16
_cell_length_a 10.763235
_cell_length_b 26.705878
_cell_length_c 5.100242
_cell_angle_alpha 114.014111
_cell_angle_beta 123.095759
_cell_angle_gamma 28.627859
_cell_volume 578.809281
_symmetry_space_group_name_H-M "P -1"
_symmetry_group_IT_number 2
_symmetry_cell_setting 'triclinic'
loop_
_space_group_symop_operation_xyz
x,y,z
-x,-y,-z
loop_
_atom_site_type_symbol
_atom_site_label
_atom_site_fract_x
_atom_site_fract_y
_atom_site_fract_z
Si Si1 0.631633 0.578515 0.850591
Si Si2 0.684947 0.778216 0.781859
Si Si3 0.695850 0.341674 0.855602
Si Si4 0.718308 0.092554 0.037357
Si Si5 0.045562 0.129866 0.856437
Si Si6 0.484940 0.264663 0.810424
Si Si7 0.796906 0.413789 0.819666
Si Si8 0.490576 0.067111 0.418592
O O1 0.573129 0.585420 0.492956
O O2 0.839270 0.465537 0.958735
O O3 0.360157 0.650930 0.886893
O O4 0.670995 0.630241 0.055955
O O5 0.729060 0.707256 0.534516
O O6 0.701683 0.826710 0.733280
O O7 0.343050 0.884836 0.679583
O O8 0.887349 0.712378 0.132750
O O9 0.753185 0.388043 0.970164
O O10 0.903878 0.227155 0.754432
O O11 0.588074 0.192047 0.005068
O O12 0.584286 0.074543 0.784737
O O13 0.000000 0.000000 0.000000
O O14 0.774312 0.188686 0.816794
O O15 0.235243 0.036597 0.665616
O O16 0.278332 0.082462 0.225928
O O17 0.500000 0.500000 0.500000
#
# Coordination Sequence:
#
# PCOD9109656 Si02
#       8
#     2   2   2   2   2   2   2   2
#     4  10  23  40  69  99 130 182 231 284 346 412
#     4  11  23  44  65  95 141 175 234 283 344 425
#     4  10  21  41  68 100 136 175 228 286 349 414
#     4  11  24  41  67  94 137 185 226 277 352 419
#     4  10  20  41  66  94 138 170 228 290 346 414
#     4  10  24  41  63  94 133 180 225 280 350 409
#     4  10  22  44  68 100 132 182 229 291 357 407
#     4  10  22  40  62 102 127 178 229 281 351 412
#
# _framework density 27.642959999999999
#
# number of rings (size 3 to 8) (size 9 to 14) (size 15 to 20)
#    0.000    1.750    1.250    1.875    5.250    6.500 
#    9.000    2.500    0.000    0.000    0.000    0.000 
#    0.000    0.000    0.000    0.000    0.000    0.000 
#
# Total GULP energy -89187.138878 kJ/mol
# GULP energy per Si atom -5574.196180 kJ/mol
# Density = 2.758004 g / cm^3
# Si number density = 27.642960 Si / 1000 Ang^3
#
#
#
# Elastic Constant Matrix: (Units=GPa)
#
#
# Indices 1 2 3 4 5 6 
#
# 1 116.5771 14.1849 22.9864 14.6860 25.3076 28.7100
# 2 14.1849 135.4381 9.7854 15.7385 9.0720 30.8015
# 3 22.9864 9.7854 61.7561 16.3930 11.0591 5.6942
# 4 14.6860 15.7385 16.3930 45.5940 11.8100 6.9533
# 5 25.3076 9.0720 11.0591 11.8100 32.7388 7.6105
# 6 28.7100 30.8015 5.6942 6.9533 7.6105 44.5926
#
#
#
# Elastic Compliance Matrix: (Units=1/GPa)
#
#
# Indices 1 2 3 4 5 6 
#
# 1 0.012310 0.001027 -0.002711 -0.000437 -0.007097 -0.007009
# 2 0.001027 0.009065 -0.000520 -0.002066 -0.000901 -0.006380
# 3 -0.002711 -0.000520 0.019051 -0.005290 -0.002502 0.000924
# 4 -0.000437 -0.002066 -0.005290 0.026524 -0.006730 -0.000603
# 5 -0.007097 -0.000901 -0.002502 -0.006730 0.039600 -0.000198
# 6 -0.007009 -0.006380 0.000924 -0.000603 -0.000198 0.031354
#
#
# Mechanical properties :
#
#
# Convention : Reuss Voigt Hill
#
# Bulk Modulus (GPa) = 27.76519 45.29831 36.53175
# Shear Modulus (GPa) = 32.40040 42.37270 37.38655
#
# Velocity S-wave (km/s) = 3.42731 3.91942 3.68160
# Velocity P-wave (km/s) = 5.07228 6.07495 5.59611
#
# Compressibility (1/GPa) = 0.03601632
#
# Stress axis : x y z
#
# Youngs Moduli (GPa) = 81.23759 110.31492 52.48981
#
# Poissons Ratio (x) = -0.11328 0.14231
# Poissons Ratio (y) = -0.08342 0.02732
# Poissons Ratio (z) = 0.22025 0.05741
#
# Static dielectric constant tensor:
#      x y z
#    x 2.332060 -0.217050 0.082580 
#    y -0.217050 2.364210 -0.085880 
#    z 0.082580 -0.085880 2.281280 
# 
# From -- ./inp_files/85098.got.cif
#   From: 2010.05.17/outbox.cif.g08.bks.cpg/sg2_43_cif.got.tgz:85098.got - 2010.06.03 11:33:40.
