data_PCOD9109523
_publ_section_title
;
Structure prediction by ZEFSAII (Michael W. Deem and Ramdas Pophale) SiO2 
 PCOD9109523
Probable space group: P -1
;
_chemical_formula_sum "Si O2"
_cell_formula_units_Z 14
_cell_length_a 11.806390
_cell_length_b 10.506969
_cell_length_c 6.878830
_cell_angle_alpha 109.431677
_cell_angle_beta 115.792351
_cell_angle_gamma 104.254174
_cell_volume 643.158589
_symmetry_space_group_name_H-M "P -1"
_symmetry_group_IT_number 2
_symmetry_cell_setting 'triclinic'
loop_
_space_group_symop_operation_xyz
x,y,z
-x,-y,-z
loop_
_atom_site_type_symbol
_atom_site_label
_atom_site_fract_x
_atom_site_fract_y
_atom_site_fract_z
Si Si1 0.168598 0.066897 0.094205
Si Si2 0.119371 0.434492 0.480820
Si Si3 0.643634 0.767949 0.305560
Si Si4 0.856747 0.674273 0.946518
Si Si5 0.341241 0.984736 0.870176
Si Si6 0.665781 0.470061 0.010330
Si Si7 0.920856 0.304571 0.591787
O O1 0.256151 0.139797 0.394333
O O2 0.174404 0.184087 0.988980
O O3 0.256557 0.988955 0.008727
O O4 0.000000 0.000000 0.000000
O O5 0.169558 0.360854 0.316172
O O6 0.057693 0.526486 0.353021
O O7 0.017337 0.301181 0.481000
O O8 0.243101 0.556250 0.767560
O O9 0.652132 0.883537 0.202315
O O10 0.481453 0.673694 0.206886
O O11 0.663818 0.625067 0.164046
O O12 0.753662 0.524476 0.907904
O O13 0.009770 0.713317 0.167633
O O14 0.236868 0.822964 0.613684
O O15 0.500000 0.000000 0.000000
#
# Coordination Sequence:
#
# PCOD9109523 Si02
#       7
#     2   2   2   2   2   2   2
#     4  12  26  43  71 101 134 178 226 275 329 402
#     4  10  20  41  65  99 130 170 222 281 329 388
#     4  11  24  43  65  98 135 172 225 277 333 392
#     4  11  21  39  68 100 126 171 228 276 330 390
#     4  12  27  46  66  97 139 182 218 272 344 401
#     4  10  22  39  66  97 131 169 221 282 332 387
#     4  10  23  39  65  95 136 175 219 270 335 400
#
# _framework density 21.767572000000001
#
# number of rings (size 3 to 8) (size 9 to 14) (size 15 to 20)
#    0.000    1.143    2.857    3.000    2.000    4.571 
#    0.000    1.429    0.000    0.000    0.000    0.000 
#    0.000    0.000    0.000    0.000    0.000    0.000 
#
# Total GULP energy -77936.712403 kJ/mol
# GULP energy per Si atom -5566.908029 kJ/mol
# Density = 2.171803 g / cm^3
# Si number density = 21.767572 Si / 1000 Ang^3
#
#
#
# Elastic Constant Matrix: (Units=GPa)
#
#
# Indices 1 2 3 4 5 6 
#
# 1 101.2833 17.7403 57.4656 7.2782 17.7992 19.0407
# 2 17.7403 67.6430 38.9559 -4.2263 12.4523 6.7772
# 3 57.4656 38.9559 128.2022 3.4382 24.1910 24.6369
# 4 7.2782 -4.2263 3.4382 34.5097 8.0641 16.9638
# 5 17.7992 12.4523 24.1910 8.0641 35.0574 5.3138
# 6 19.0407 6.7772 24.6369 16.9638 5.3138 31.3565
#
#
#
# Elastic Compliance Matrix: (Units=1/GPa)
#
#
# Indices 1 2 3 4 5 6 
#
# 1 0.013969 0.000218 -0.004880 0.000494 -0.003247 -0.004412
# 2 0.000218 0.018750 -0.004632 0.004948 -0.004336 -0.002488
# 3 -0.004880 -0.004632 0.013886 0.004461 -0.005200 -0.008478
# 4 0.000494 0.004948 0.004461 0.045137 -0.011320 -0.027375
# 5 -0.003247 -0.004336 -0.005200 -0.011320 0.036864 0.006871
# 6 -0.004412 -0.002488 -0.008478 -0.027375 0.006871 0.055415
#
#
# Mechanical properties :
#
#
# Convention : Reuss Voigt Hill
#
# Bulk Modulus (GPa) = 35.69312 58.38356 47.03834
# Shear Modulus (GPa) = 23.59079 32.38249 27.98664
#
# Velocity S-wave (km/s) = 3.29562 3.86119 3.58956
# Velocity P-wave (km/s) = 5.56008 6.83798 6.23187
#
# Compressibility (1/GPa) = 0.02801661
#
# Stress axis : x y z
#
# Youngs Moduli (GPa) = 71.58940 53.33246 72.01558
#
# Poissons Ratio (x) = -0.01161 0.35145
# Poissons Ratio (y) = -0.01559 0.33355
# Poissons Ratio (z) = 0.34937 0.24702
#
# Static dielectric constant tensor:
#      x y z
#    x 1.995550 -0.053250 -0.033800 
#    y -0.053250 1.806030 0.021240 
#    z -0.033800 0.021240 1.776300 
# 
# From -- ./inp_files/71530.got.cif
#   From: 2010.05.17/outbox.cif.g08.bks.cpg/sg2_36_cif.got.tgz:71530.got - 2010.06.03 11:33:40.
