data_PCOD9109127
_publ_section_title
;
Structure prediction by ZEFSAII (Michael W. Deem and Ramdas Pophale) SiO2 
 PCOD9109127
Probable space group: P -1
;
_chemical_formula_sum "Si O2"
_cell_formula_units_Z 16
_cell_length_a 14.798719
_cell_length_b 9.612683
_cell_length_c 20.636856
_cell_angle_alpha 45.768832
_cell_angle_beta 20.191257
_cell_angle_gamma 43.922373
_cell_volume 700.040362
_symmetry_space_group_name_H-M "P -1"
_symmetry_group_IT_number 2
_symmetry_cell_setting 'triclinic'
loop_
_space_group_symop_operation_xyz
x,y,z
-x,-y,-z
loop_
_atom_site_type_symbol
_atom_site_label
_atom_site_fract_x
_atom_site_fract_y
_atom_site_fract_z
Si Si1 0.594227 0.096127 0.052345
Si Si2 0.487205 0.931310 0.637560
Si Si3 0.106690 0.762027 0.865348
Si Si4 0.532641 0.332282 0.146722
Si Si5 0.930806 0.284415 0.662428
Si Si6 0.183906 0.447904 0.028813
Si Si7 0.327494 0.906532 0.198562
Si Si8 0.674595 0.333710 0.388024
O O1 0.530696 0.249926 0.103779
O O2 0.335823 0.037937 0.213715
O O3 0.740612 0.199516 0.866770
O O4 0.819523 0.894892 0.989073
O O5 0.275012 0.911733 0.732008
O O6 0.396717 0.856314 0.790816
O O7 0.776218 0.767843 0.485106
O O8 0.551373 0.143542 0.533046
O O9 0.276476 0.638537 0.731017
O O10 0.077228 0.619969 0.991088
O O11 0.238003 0.485390 0.308964
O O12 0.750328 0.454726 0.980196
O O13 0.930826 0.145444 0.643449
O O14 0.977742 0.310886 0.218902
O O15 0.469959 0.313816 0.854036
O O16 0.500000 0.000000 0.000000
O O17 0.500000 0.500000 0.500000
#
# Coordination Sequence:
#
# PCOD9109127 Si02
#       8
#     2   2   2   2   2   2   2   2
#     4  11  21  37  66  91 125 160 216 254 304 371
#     4  11  24  43  62  92 133 165 195 260 324 367
#     4  11  24  41  65  90 127 171 203 248 319 377
#     4  10  24  38  67  96 119 163 215 260 300 365
#     4  10  20  41  63  88 124 166 211 253 313 364
#     4  10  22  41  61  90 124 167 209 250 304 377
#     4   9  18  36  62  86 116 167 206 249 305 360
#     4  12  25  38  60  93 128 160 204 253 309 371
#
# _framework density 22.855826
#
# number of rings (size 3 to 8) (size 9 to 14) (size 15 to 20)
#    0.000    1.500    2.500    2.250    3.500    1.000 
#    0.000    1.875    0.000    0.000    0.000    0.000 
#    0.000    0.000    0.000    0.000    0.000    0.000 
#
# Total GULP energy -89325.304081 kJ/mol
# GULP energy per Si atom -5582.831505 kJ/mol
# Density = 2.280380 g / cm^3
# Si number density = 22.855826 Si / 1000 Ang^3
#
#
#
# Elastic Constant Matrix: (Units=GPa)
#
#
# Indices 1 2 3 4 5 6 
#
# 1 112.7861 38.4290 13.1536 -2.8782 -16.0144 41.1710
# 2 38.4290 86.3059 7.8596 -10.3401 1.4362 18.5045
# 3 13.1536 7.8596 32.0909 -10.8344 -22.4515 17.9098
# 4 -2.8782 -10.3401 -10.8344 30.5297 8.2022 -5.8017
# 5 -16.0144 1.4362 -22.4515 8.2022 23.6452 -4.5472
# 6 41.1710 18.5045 17.9098 -5.8017 -4.5472 56.8855
#
#
#
# Elastic Compliance Matrix: (Units=1/GPa)
#
#
# Indices 1 2 3 4 5 6 
#
# 1 0.023356 -0.010793 0.040559 -0.005457 0.052547 -0.022518
# 2 -0.010793 0.018406 -0.026015 0.006604 -0.033886 0.007980
# 3 0.040559 -0.026015 0.210890 -0.001606 0.216359 -0.070157
# 4 -0.005457 0.006604 -0.001606 0.039804 -0.018489 0.004888
# 5 0.052547 -0.033886 0.216359 -0.018489 0.277397 -0.074838
# 6 -0.022518 0.007980 -0.070157 0.004888 -0.074838 0.047886
#
#
# Mechanical properties :
#
#
# Convention : Reuss Voigt Hill
#
# Bulk Modulus (GPa) = 3.84390 38.89637 21.37014
# Shear Modulus (GPa) = 7.17406 33.66145 20.41776
#
# Velocity S-wave (km/s) = 1.77360 3.84184 2.99210
# Velocity P-wave (km/s) = 2.42480 6.06092 4.61597
#
# Compressibility (1/GPa) = 0.26015259
#
# Stress axis : x y z
#
# Youngs Moduli (GPa) = 42.81629 54.33044 4.74180
#
# Poissons Ratio (x) = 0.58640 -0.19232
# Poissons Ratio (y) = 0.46212 0.12336
# Poissons Ratio (z) = -1.73657 1.41342
#
# Static dielectric constant tensor:
#      x y z
#    x 1.869030 -0.008380 0.008040 
#    y -0.008380 1.890950 -0.021910 
#    z 0.008040 -0.021910 1.879330 
# 
# From -- ./inp_files/206277.got.cif
#   From: 2010.05.17/outbox.cif.g08.bks.cpg/sg2_104_cif.got.tgz:206277.got - 2010.06.03 11:33:40.
