data_PCOD9109385
_publ_section_title
;
Structure prediction by ZEFSAII (Michael W. Deem and Ramdas Pophale) SiO2 
 PCOD9109385
Probable space group: P -1
;
_chemical_formula_sum "Si O2"
_cell_formula_units_Z 16
_cell_length_a 15.057118
_cell_length_b 9.143304
_cell_length_c 10.809867
_cell_angle_alpha 67.656257
_cell_angle_beta 148.882065
_cell_angle_gamma 112.968525
_cell_volume 704.805760
_symmetry_space_group_name_H-M "P -1"
_symmetry_group_IT_number 2
_symmetry_cell_setting 'triclinic'
loop_
_space_group_symop_operation_xyz
x,y,z
-x,-y,-z
loop_
_atom_site_type_symbol
_atom_site_label
_atom_site_fract_x
_atom_site_fract_y
_atom_site_fract_z
Si Si1 0.165682 0.489963 0.879725
Si Si2 0.354897 0.097187 0.646123
Si Si3 0.225327 0.144927 0.752462
Si Si4 0.219305 0.876267 0.213999
Si Si5 0.416485 0.783559 0.703532
Si Si6 0.798540 0.500110 0.354107
Si Si7 0.170725 0.216224 0.152796
Si Si8 0.246334 0.829876 0.973658
O O1 0.259747 0.524242 0.849747
O O2 0.972197 0.425345 0.620849
O O3 0.234628 0.365777 0.094282
O O4 0.165281 0.653304 0.899716
O O5 0.290667 0.128453 0.695870
O O6 0.266293 0.194488 0.403791
O O7 0.562075 0.143300 0.867062
O O8 0.319152 0.908497 0.628726
O O9 0.152722 0.311871 0.623815
O O10 0.387725 0.178284 0.031139
O O11 0.141563 0.969322 0.753836
O O12 0.371457 0.828194 0.497007
O O13 0.259823 0.848765 0.129976
O O14 0.194235 0.058343 0.153896
O O15 0.032674 0.780531 0.060871
O O16 0.347978 0.600029 0.706823
#
# Coordination Sequence:
#
# PCOD9109385 Si02
#       8
#     2   2   2   2   2   2   2   2
#     4  11  24  40  61  89 130 159 203 256 304 362
#     4  10  23  41  66  91 124 162 203 252 309 362
#     4  11  23  40  64  92 122 163 207 251 306 363
#     4  10  22  40  66  92 121 165 205 247 309 362
#     4  10  20  41  65  88 123 160 202 255 300 365
#     4  11  23  39  62  93 120 164 207 252 305 359
#     4  10  22  42  63  91 125 163 205 249 302 370
#     4  11  24  41  61  94 126 162 201 255 306 363
#
# _framework density 22.701291000000001
#
# number of rings (size 3 to 8) (size 9 to 14) (size 15 to 20)
#    0.000    1.500    1.250    4.125    1.750    8.000 
#    0.000    0.000    0.000    0.000    0.000    0.000 
#    0.000    0.000    0.000    0.000    0.000    0.000 
#
# Total GULP energy -89451.551106 kJ/mol
# GULP energy per Si atom -5590.721944 kJ/mol
# Density = 2.264962 g / cm^3
# Si number density = 22.701291 Si / 1000 Ang^3
#
#
#
# Elastic Constant Matrix: (Units=GPa)
#
#
# Indices 1 2 3 4 5 6 
#
# 1 58.2389 -0.9415 24.8786 -2.9759 -31.6782 -10.6242
# 2 -0.9415 83.1666 28.0489 -18.1870 -20.5656 10.6002
# 3 24.8786 28.0489 114.5555 -16.0312 -26.1390 -10.0503
# 4 -2.9759 -18.1870 -16.0312 29.5791 0.5794 -3.7752
# 5 -31.6782 -20.5656 -26.1390 0.5794 41.2356 5.4208
# 6 -10.6242 10.6002 -10.0503 -3.7752 5.4208 21.4317
#
#
#
# Elastic Compliance Matrix: (Units=1/GPa)
#
#
# Indices 1 2 3 4 5 6 
#
# 1 0.036374 0.009707 -0.001388 0.009081 0.030942 0.006352
# 2 0.009707 0.020804 -0.002537 0.010891 0.017270 -0.009117
# 3 -0.001388 -0.002537 0.011941 0.005455 0.004369 0.006022
# 4 0.009081 0.010891 0.005455 0.044846 0.014458 0.005916
# 5 0.030942 0.017270 0.004369 0.014458 0.059688 -0.003705
# 6 0.006352 -0.009117 0.006022 0.005916 -0.003705 0.059121
#
#
# Mechanical properties :
#
#
# Convention : Reuss Voigt Hill
#
# Bulk Modulus (GPa) = 12.39418 39.99258 26.19338
# Shear Modulus (GPa) = 20.15287 32.04762 26.10025
#
# Velocity S-wave (km/s) = 2.98273 3.76135 3.39444
# Velocity P-wave (km/s) = 4.16339 6.04308 5.18905
#
# Compressibility (1/GPa) = 0.08068301
#
# Stress axis : x y z
#
# Youngs Moduli (GPa) = 27.49237 48.06772 83.74708
#
# Poissons Ratio (x) = -0.46661 0.11624
# Poissons Ratio (y) = -0.26688 0.21247
# Poissons Ratio (z) = 0.03816 0.12195
#
# Static dielectric constant tensor:
#      x y z
#    x 1.858040 0.015400 0.047070 
#    y 0.015400 1.852510 -0.013050 
#    z 0.047070 -0.013050 1.836140 
# 
# From -- ./inp_files/205074.got.cif
#   From: 2010.05.17/outbox.cif.g08.bks.cpg/sg2_103_cif.got.tgz:205074.got - 2010.06.03 11:33:40.
