data_PCOD9109211
_publ_section_title
;
Structure prediction by ZEFSAII (Michael W. Deem and Ramdas Pophale) SiO2 
 PCOD9109211
Probable space group: P -1
;
_chemical_formula_sum "Si O2"
_cell_formula_units_Z 16
_cell_length_a 18.430478
_cell_length_b 8.492520
_cell_length_c 9.383694
_cell_angle_alpha 83.306135
_cell_angle_beta 145.110253
_cell_angle_gamma 118.078874
_cell_volume 626.686732
_symmetry_space_group_name_H-M "P -1"
_symmetry_group_IT_number 2
_symmetry_cell_setting 'triclinic'
loop_
_space_group_symop_operation_xyz
x,y,z
-x,-y,-z
loop_
_atom_site_type_symbol
_atom_site_label
_atom_site_fract_x
_atom_site_fract_y
_atom_site_fract_z
Si Si1 0.438522 0.050933 0.526086
Si Si2 0.100888 0.602846 0.505223
Si Si3 0.122426 0.289819 0.421020
Si Si4 0.223085 0.082240 0.974016
Si Si5 0.423375 0.526675 0.236665
Si Si6 0.967061 0.297629 0.890474
Si Si7 0.572433 0.925762 0.943682
Si Si8 0.664238 0.806057 0.347088
O O1 0.292347 0.043540 0.230900
O O2 0.586918 0.295632 0.775967
O O3 0.500000 0.000000 0.500000
O O4 0.421373 0.908036 0.639073
O O5 0.154478 0.485404 0.524602
O O6 0.990818 0.614635 0.212631
O O7 0.272301 0.835985 0.787832
O O8 0.000000 0.500000 0.500000
O O9 0.252009 0.253839 0.614953
O O10 0.069405 0.276027 0.170735
O O11 0.971633 0.105672 0.298599
O O12 0.251265 0.291506 0.973576
O O13 0.343166 0.108175 0.042567
O O14 0.500000 0.500000 0.500000
O O15 0.556789 0.627718 0.312832
O O16 0.801945 0.043072 0.614118
O O17 0.000000 0.500000 0.000000
O O18 0.537040 0.797502 0.040810
#
# Coordination Sequence:
#
# PCOD9109211 Si02
#       8
#     2   2   2   2   2   2   2   2
#     4   9  20  41  65  93 124 178 230 279 329 399
#     4  10  20  41  64 101 140 177 225 285 346 407
#     4  11  22  42  71 104 139 180 222 285 351 414
#     4  10  21  42  69  99 134 176 232 277 339 415
#     4  10  22  43  63  93 133 177 231 276 333 416
#     4   9  20  38  60  93 131 176 221 276 332 401
#     4  10  22  42  63  99 136 176 228 287 337 406
#     4  11  24  42  66 100 143 178 226 286 353 405
#
# _framework density 25.531096000000002
#
# number of rings (size 3 to 8) (size 9 to 14) (size 15 to 20)
#    0.000    2.000    1.250    1.875    0.000    2.500 
#    9.000   13.750    0.000    0.000    0.000    0.000 
#    0.000    0.000    0.000    0.000    0.000    0.000 
#
# Total GULP energy -89234.642837 kJ/mol
# GULP energy per Si atom -5577.165177 kJ/mol
# Density = 2.547299 g / cm^3
# Si number density = 25.531096 Si / 1000 Ang^3
#
#
#
# Elastic Constant Matrix: (Units=GPa)
#
#
# Indices 1 2 3 4 5 6 
#
# 1 96.6579 25.9180 26.6785 -14.7611 -9.0286 5.5558
# 2 25.9180 99.8393 34.6208 -15.3519 2.8372 13.7391
# 3 26.6785 34.6208 81.6250 -27.2915 -18.1006 14.6792
# 4 -14.7611 -15.3519 -27.2915 42.7878 11.4228 -13.5727
# 5 -9.0286 2.8372 -18.1006 11.4228 33.2073 -6.7972
# 6 5.5558 13.7391 14.6792 -13.5727 -6.7972 50.6144
#
#
#
# Elastic Compliance Matrix: (Units=1/GPa)
#
#
# Indices 1 2 3 4 5 6 
#
# 1 0.011917 -0.002250 -0.002079 0.001676 0.001846 0.000603
# 2 -0.002250 0.013056 -0.005160 0.001389 -0.005460 -0.002161
# 3 -0.002079 -0.005160 0.019520 0.007507 0.007733 -0.000981
# 4 0.001676 0.001389 0.007507 0.032390 -0.005651 0.005189
# 5 0.001846 -0.005460 0.007733 -0.005651 0.037772 0.002594
# 6 0.000603 -0.002161 -0.000981 0.005189 0.002594 0.022302
#
#
# Mechanical properties :
#
#
# Convention : Reuss Voigt Hill
#
# Bulk Modulus (GPa) = 39.19378 50.28408 44.73893
# Shear Modulus (GPa) = 30.40634 38.04891 34.22763
#
# Velocity S-wave (km/s) = 3.45476 3.86462 3.66543
# Velocity P-wave (km/s) = 5.59451 6.29696 5.95610
#
# Compressibility (1/GPa) = 0.02551425
#
# Stress axis : x y z
#
# Youngs Moduli (GPa) = 83.91549 76.59559 51.22917
#
# Poissons Ratio (x) = 0.17236 0.10651
# Poissons Ratio (y) = 0.18883 0.26432
# Poissons Ratio (z) = 0.17448 0.39520
#
# Static dielectric constant tensor:
#      x y z
#    x 2.054260 0.011020 -0.067960 
#    y 0.011020 2.053090 0.025960 
#    z -0.067960 0.025960 2.192820 
# 
# From -- ./inp_files/328964.got.cif
#   From: 2010.05.17/outbox.cif.g08.bks.cpg/sg2_165_cif.got.tgz:328964.got - 2010.06.03 11:33:40.
