data_PCOD9109930
_publ_section_title
;
Structure prediction by ZEFSAII (Michael W. Deem and Ramdas Pophale) SiO2 
 PCOD9109930
Probable space group: P -1
;
_chemical_formula_sum "Si O2"
_cell_formula_units_Z 14
_cell_length_a 14.004918
_cell_length_b 7.550400
_cell_length_c 7.425225
_cell_angle_alpha 102.724259
_cell_angle_beta 81.174598
_cell_angle_gamma 132.336978
_cell_volume 566.122594
_symmetry_space_group_name_H-M "P -1"
_symmetry_group_IT_number 2
_symmetry_cell_setting 'triclinic'
loop_
_space_group_symop_operation_xyz
x,y,z
-x,-y,-z
loop_
_atom_site_type_symbol
_atom_site_label
_atom_site_fract_x
_atom_site_fract_y
_atom_site_fract_z
Si Si1 0.956917 0.900770 0.287404
Si Si2 0.386349 0.761891 0.126785
Si Si3 0.343466 0.085104 0.809350
Si Si4 0.122612 0.430604 0.308265
Si Si5 0.664483 0.552666 0.231626
Si Si6 0.917721 0.458417 0.251501
Si Si7 0.457853 0.131255 0.431371
O O1 0.808728 0.770515 0.295485
O O2 0.959054 0.692464 0.187290
O O3 0.000000 0.000000 0.500000
O O4 0.045093 0.152562 0.215128
O O5 0.526295 0.846975 0.139858
O O6 0.269261 0.565668 0.248418
O O7 0.398775 0.988082 0.228648
O O8 0.341876 0.645575 0.918095
O O9 0.360553 0.322115 0.881515
O O10 0.357741 0.094126 0.588046
O O11 0.207820 0.817027 0.832781
O O12 0.118453 0.497812 0.531700
O O13 0.044508 0.492886 0.244073
O O14 0.572526 0.405569 0.396922
O O15 0.500000 0.000000 0.500000
#
# Coordination Sequence:
#
# PCOD9109930 Si02
#       7
#     2   2   2   2   2   2   2
#     4  10  22  37  67  93 128 175 225 267 325 395
#     4  11  24  41  67  96 140 172 217 279 342 391
#     4  11  22  42  68  98 130 179 224 275 325 404
#     4  10  21  41  65  94 131 173 220 275 328 387
#     4  12  24  42  64 102 135 175 217 280 343 391
#     4  10  20  41  68  93 128 170 231 274 319 386
#     4  10  22  40  65  92 125 173 228 269 320 396
#
# _framework density 24.729623
#
# number of rings (size 3 to 8) (size 9 to 14) (size 15 to 20)
#    0.000    1.429    2.857    3.000    6.000    0.571 
#    2.571    0.714    0.000    0.000    0.000    0.000 
#    0.000    0.000    0.000    0.000    0.000    0.000 
#
# Total GULP energy -78112.922082 kJ/mol
# GULP energy per Si atom -5579.494434 kJ/mol
# Density = 2.467334 g / cm^3
# Si number density = 24.729623 Si / 1000 Ang^3
#
#
#
# Elastic Constant Matrix: (Units=GPa)
#
#
# Indices 1 2 3 4 5 6 
#
# 1 81.7509 46.5316 -2.6142 0.5668 6.4776 0.3401
# 2 46.5316 188.3832 1.8304 8.8971 2.5773 -0.5511
# 3 -2.6142 1.8304 71.6887 3.6609 -4.3895 12.3484
# 4 0.5668 8.8971 3.6609 16.6729 2.8552 11.6306
# 5 6.4776 2.5773 -4.3895 2.8552 11.8598 7.3062
# 6 0.3401 -0.5511 12.3484 11.6306 7.3062 45.9382
#
#
#
# Elastic Compliance Matrix: (Units=1/GPa)
#
#
# Indices 1 2 3 4 5 6 
#
# 1 0.014980 -0.003702 -0.000097 0.002529 -0.008368 0.000561
# 2 -0.003702 0.006412 -0.000217 -0.004147 0.000887 0.001072
# 3 -0.000097 -0.000217 0.015515 -0.001149 0.009435 -0.005382
# 4 0.002529 -0.004147 -0.001149 0.076138 -0.008324 -0.017712
# 5 -0.008368 0.000887 0.009435 -0.008324 0.104667 -0.017003
# 6 0.000561 0.001072 -0.005382 -0.017712 -0.017003 0.030412
#
#
# Mechanical properties :
#
#
# Convention : Reuss Voigt Hill
#
# Bulk Modulus (GPa) = 34.63576 48.14649 41.39112
# Shear Modulus (GPa) = 18.81246 34.63252 26.72249
#
# Velocity S-wave (km/s) = 2.76112 3.74631 3.29079
# Velocity P-wave (km/s) = 4.91947 6.18260 5.58685
#
# Compressibility (1/GPa) = 0.02887190
#
# Stress axis : x y z
#
# Youngs Moduli (GPa) = 66.75687 155.96128 64.45545
#
# Poissons Ratio (x) = 0.57744 0.00628
# Poissons Ratio (y) = 0.24716 0.01400
# Poissons Ratio (z) = 0.00650 0.03388
#
# Static dielectric constant tensor:
#      x y z
#    x 1.144050 0.532550 0.065060 
#    y 0.532550 1.588720 -0.054130 
#    z 0.065060 -0.054130 2.046920 
# 
# From -- ./inp_files/296063.got.cif
#   From: 2010.05.17/outbox.cif.g08.bks.cpg/sg2_149_cif.got.tgz:296063.got - 2010.06.03 11:33:40.
