data_PCOD9109608
_publ_section_title
;
Structure prediction by ZEFSAII (Michael W. Deem and Ramdas Pophale) SiO2 
 PCOD9109608
Probable space group: P -1
;
_chemical_formula_sum "Si O2"
_cell_formula_units_Z 16
_cell_length_a 7.986334
_cell_length_b 8.986155
_cell_length_c 11.809180
_cell_angle_alpha 100.489261
_cell_angle_beta 64.620642
_cell_angle_gamma 108.319025
_cell_volume 725.796903
_symmetry_space_group_name_H-M "P -1"
_symmetry_group_IT_number 2
_symmetry_cell_setting 'triclinic'
loop_
_space_group_symop_operation_xyz
x,y,z
-x,-y,-z
loop_
_atom_site_type_symbol
_atom_site_label
_atom_site_fract_x
_atom_site_fract_y
_atom_site_fract_z
Si Si1 0.685674 0.084305 0.885094
Si Si2 0.622971 0.306676 0.498809
Si Si3 0.788536 0.615177 0.365442
Si Si4 0.549081 0.269314 0.766478
Si Si5 0.267880 0.472794 0.889571
Si Si6 0.969763 0.047343 0.641596
Si Si7 0.111785 0.752157 0.953047
Si Si8 0.258193 0.948911 0.716411
O O1 0.644751 0.227116 0.845814
O O2 0.758133 0.989498 0.750282
O O3 0.858599 0.132019 0.932193
O O4 0.500000 0.000000 0.000000
O O5 0.766754 0.461118 0.425336
O O6 0.408329 0.330545 0.554550
O O7 0.665579 0.299358 0.618990
O O8 0.630049 0.153967 0.403750
O O9 0.795893 0.568508 0.226938
O O10 0.964904 0.763770 0.355080
O O11 0.457303 0.413230 0.838672
O O12 0.385172 0.110183 0.757191
O O13 0.266541 0.653011 0.921791
O O14 0.098063 0.367900 0.001259
O O15 0.111689 0.990581 0.676397
O O16 0.000000 0.000000 0.500000
O O17 0.157840 0.842640 0.835434
#
# Coordination Sequence:
#
# PCOD9109608 Si02
#       8
#     2   2   2   2   2   2   2   2
#     4  12  26  43  64 100 140 173 217 280 330 383
#     4  10  21  38  67 100 119 171 226 269 325 393
#     4  10  20  41  66  91 134 166 217 273 328 389
#     4  11  23  40  65  94 134 171 220 272 326 394
#     4  10  21  43  65  94 125 174 218 270 327 396
#     4  12  27  45  67 100 138 174 220 279 332 392
#     4  11  23  40  70  93 128 169 223 270 328 397
#     4  12  22  39  70  96 128 175 224 265 332 400
#
# _framework density 22.044733000000001
#
# number of rings (size 3 to 8) (size 9 to 14) (size 15 to 20)
#    0.000    1.000    6.250    1.125    3.500    1.500 
#    0.000    5.000    0.000    0.000    0.000    0.000 
#    0.000    0.000    0.000    0.000    0.000    0.000 
#
# Total GULP energy -89409.631762 kJ/mol
# GULP energy per Si atom -5588.101985 kJ/mol
# Density = 2.199456 g / cm^3
# Si number density = 22.044733 Si / 1000 Ang^3
#
#
#
# Elastic Constant Matrix: (Units=GPa)
#
#
# Indices 1 2 3 4 5 6 
#
# 1 49.8014 11.5723 27.3860 -8.2482 12.0817 -10.1298
# 2 11.5723 76.0948 40.2832 -24.2952 -1.3115 -11.3091
# 3 27.3860 40.2832 134.4263 -14.3029 -1.4843 -9.8937
# 4 -8.2482 -24.2952 -14.3029 49.9361 -6.1811 -1.0036
# 5 12.0817 -1.3115 -1.4843 -6.1811 29.3712 -3.9852
# 6 -10.1298 -11.3091 -9.8937 -1.0036 -3.9852 17.6971
#
#
#
# Elastic Compliance Matrix: (Units=1/GPa)
#
#
# Indices 1 2 3 4 5 6 
#
# 1 0.027653 0.000750 -0.004829 0.002612 -0.009458 0.011626
# 2 0.000750 0.020226 -0.004242 0.009503 0.004068 0.012437
# 3 -0.004829 -0.004242 0.009789 0.000253 0.002420 0.000557
# 4 0.002612 0.009503 0.000253 0.026146 0.006305 0.010611
# 5 -0.009458 0.004068 0.002420 0.006305 0.040661 0.008052
# 6 0.011626 0.012437 0.000557 0.010611 0.008052 0.073835
#
#
# Mechanical properties :
#
#
# Convention : Reuss Voigt Hill
#
# Bulk Modulus (GPa) = 24.37583 46.53395 35.45489
# Shear Modulus (GPa) = 21.86957 31.47297 26.67127
#
# Velocity S-wave (km/s) = 3.15311 3.78257 3.48209
# Velocity P-wave (km/s) = 4.93331 6.34286 5.68196
#
# Compressibility (1/GPa) = 0.04102424
#
# Stress axis : x y z
#
# Youngs Moduli (GPa) = 36.16234 49.44189 102.15807
#
# Poissons Ratio (x) = -0.03708 0.49334
# Poissons Ratio (y) = -0.02712 0.43340
# Poissons Ratio (z) = 0.17463 0.20975
#
# Static dielectric constant tensor:
#      x y z
#    x 1.823780 -0.018350 -0.042300 
#    y -0.018350 1.823730 0.037050 
#    z -0.042300 0.037050 1.844220 
# 
# From -- ./inp_files/239783.got.cif
#   From: 2010.05.17/outbox.cif.g08.bks.cpg/sg2_120_cif.got.tgz:239783.got - 2010.06.03 11:33:40.
