data_PCOD9109284
_publ_section_title
;
Structure prediction by ZEFSAII (Michael W. Deem and Ramdas Pophale) SiO2 
 PCOD9109284
Probable space group: P -1
;
_chemical_formula_sum "Si O2"
_cell_formula_units_Z 16
_cell_length_a 9.154854
_cell_length_b 10.520733
_cell_length_c 11.734403
_cell_angle_alpha 51.466019
_cell_angle_beta 124.062909
_cell_angle_gamma 112.143054
_cell_volume 731.719352
_symmetry_space_group_name_H-M "P -1"
_symmetry_group_IT_number 2
_symmetry_cell_setting 'triclinic'
loop_
_space_group_symop_operation_xyz
x,y,z
-x,-y,-z
loop_
_atom_site_type_symbol
_atom_site_label
_atom_site_fract_x
_atom_site_fract_y
_atom_site_fract_z
Si Si1 0.730387 0.922283 0.738559
Si Si2 0.147586 0.750675 0.749472
Si Si3 0.628617 0.967850 0.407319
Si Si4 0.209086 0.497249 0.718008
Si Si5 0.573961 0.380038 0.882445
Si Si6 0.135828 0.356798 0.154486
Si Si7 0.866396 0.276874 0.656354
Si Si8 0.545240 0.317068 0.651626
O O1 0.661955 0.922628 0.577934
O O2 0.841352 0.760695 0.878484
O O3 0.551681 0.929366 0.729685
O O4 0.845818 0.087286 0.719844
O O5 0.162092 0.609126 0.741382
O O6 0.955243 0.742633 0.726351
O O7 0.209184 0.920002 0.627005
O O8 0.291503 0.716754 0.928725
O O9 0.581357 0.811506 0.398157
O O10 0.399996 0.423720 0.849693
O O11 0.209023 0.614933 0.540680
O O12 0.060965 0.353536 0.718168
O O13 0.677893 0.549015 0.798761
O O14 0.529615 0.291944 0.793693
O O15 0.000000 0.500000 0.000000
O O16 0.742067 0.296331 0.700838
O O17 0.500000 0.500000 0.500000
#
# Coordination Sequence:
#
# PCOD9109284 Si02
#       8
#     2   2   2   2   2   2   2   2
#     4  10  20  41  64  92 129 165 217 261 324 375
#     4  11  23  41  61  95 128 164 220 263 319 385
#     4  10  22  37  66  95 125 168 213 268 317 378
#     4  11  21  39  62  95 128 165 215 259 324 374
#     4  11  23  40  65  87 128 177 209 260 323 389
#     4  10  23  40  63  90 127 172 211 261 317 384
#     4  10  22  38  64  95 128 161 213 274 310 378
#     4  11  21  39  62  93 127 170 211 260 325 378
#
# _framework density 21.866308
#
# number of rings (size 3 to 8) (size 9 to 14) (size 15 to 20)
#    0.000    1.500    2.500    2.625    1.750    3.000 
#    0.000    1.250    0.000   10.500    0.000    0.000 
#    0.000    0.000    0.000    0.000    0.000    0.000 
#
# Total GULP energy -89475.966921 kJ/mol
# GULP energy per Si atom -5592.247933 kJ/mol
# Density = 2.181654 g / cm^3
# Si number density = 21.866308 Si / 1000 Ang^3
#
#
#
# Elastic Constant Matrix: (Units=GPa)
#
#
# Indices 1 2 3 4 5 6 
#
# 1 74.2233 38.7217 -8.7110 -0.8394 14.0989 -0.9934
# 2 38.7217 139.2362 5.1970 -7.2643 9.3442 -5.5070
# 3 -8.7110 5.1970 34.8754 0.8285 5.5613 -4.9359
# 4 -0.8394 -7.2643 0.8285 26.4672 -3.4516 0.9725
# 5 14.0989 9.3442 5.5613 -3.4516 31.1722 -2.6663
# 6 -0.9934 -5.5070 -4.9359 0.9725 -2.6663 40.4570
#
#
#
# Elastic Compliance Matrix: (Units=1/GPa)
#
#
# Indices 1 2 3 4 5 6 
#
# 1 0.018363 -0.004906 0.006697 -0.002053 -0.008248 0.000106
# 2 -0.004906 0.008768 -0.002543 0.002352 0.000367 0.000730
# 3 0.006697 -0.002543 0.032548 -0.002681 -0.008086 0.003321
# 4 -0.002053 0.002352 -0.002681 0.039120 0.004977 -0.000670
# 5 -0.008248 0.000367 -0.008086 0.004977 0.037799 0.001232
# 6 0.000106 0.000730 0.003321 -0.000670 0.001232 0.025322
#
#
# Mechanical properties :
#
#
# Convention : Reuss Voigt Hill
#
# Bulk Modulus (GPa) = 17.18958 35.41670 26.30314
# Shear Modulus (GPa) = 27.34953 33.82775 30.58864
#
# Velocity S-wave (km/s) = 3.54045 3.93749 3.74424
# Velocity P-wave (km/s) = 4.95896 6.07486 5.54505
#
# Compressibility (1/GPa) = 0.05817478
#
# Stress axis : x y z
#
# Youngs Moduli (GPa) = 54.45659 114.04693 30.72357
#
# Poissons Ratio (x) = 0.55954 -0.20575
# Poissons Ratio (y) = 0.26718 0.07813
# Poissons Ratio (z) = -0.36468 0.29004
#
# Static dielectric constant tensor:
#      x y z
#    x 1.791600 -0.015630 0.009000 
#    y -0.015630 1.782840 -0.036400 
#    z 0.009000 -0.036400 1.863890 
# 
# From -- ./inp_files/184946.got.cif
#   From: 2010.05.17/outbox.cif.g08.bks.cpg/sg2_93_cif.got.tgz:184946.got - 2010.06.03 11:33:40.
