data_PCOD9109577
_publ_section_title
;
Structure prediction by ZEFSAII (Michael W. Deem and Ramdas Pophale) SiO2 
 PCOD9109577
Probable space group: P -1
;
_chemical_formula_sum "Si O2"
_cell_formula_units_Z 16
_cell_length_a 19.391879
_cell_length_b 10.973727
_cell_length_c 7.475118
_cell_angle_alpha 56.823681
_cell_angle_beta 40.815993
_cell_angle_gamma 36.706742
_cell_volume 614.218482
_symmetry_space_group_name_H-M "P -1"
_symmetry_group_IT_number 2
_symmetry_cell_setting 'triclinic'
loop_
_space_group_symop_operation_xyz
x,y,z
-x,-y,-z
loop_
_atom_site_type_symbol
_atom_site_label
_atom_site_fract_x
_atom_site_fract_y
_atom_site_fract_z
Si Si1 0.626497 0.794338 0.025529
Si Si2 0.128352 0.699969 0.677060
Si Si3 0.163743 0.969213 0.538755
Si Si4 0.616476 0.442173 0.965478
Si Si5 0.551354 0.286584 0.605224
Si Si6 0.816197 0.693529 0.057983
Si Si7 0.212232 0.993295 0.007961
Si Si8 0.938521 0.430605 0.553727
O O1 0.763590 0.611141 0.777097
O O2 0.540027 0.737757 0.314746
O O3 0.702107 0.814607 0.017320
O O4 0.500000 0.000000 0.000000
O O5 0.157822 0.799523 0.683386
O O6 0.235318 0.635256 0.352406
O O7 0.164808 0.497710 0.811661
O O8 0.953716 0.883333 0.828719
O O9 0.277123 0.908556 0.518881
O O10 0.217196 0.957600 0.241408
O O11 0.008914 0.209609 0.659664
O O12 0.674683 0.235148 0.111661
O O13 0.500000 0.500000 0.000000
O O14 0.531048 0.641475 0.093357
O O15 0.500000 0.500000 0.500000
O O16 0.758415 0.862705 0.185994
O O17 0.979525 0.604416 0.762902
O O18 0.000000 0.500000 0.500000
#
# Coordination Sequence:
#
# PCOD9109577 Si02
#       8
#     2   2   2   2   2   2   2   2
#     4  11  24  42  67  91 133 180 213 263 336 399
#     4  11  22  40  67  97 126 167 222 279 322 387
#     4  10  20  41  66  89 130 169 217 271 323 391
#     4  11  23  42  68  92 132 177 217 267 340 382
#     4  12  25  43  65  97 135 171 221 275 320 391
#     4  10  22  43  63  97 133 164 224 281 315 389
#     4  10  21  40  68  90 129 173 215 271 326 389
#     4   9  20  40  64  86 125 175 213 254 332 388
#
# _framework density 26.049363
#
# number of rings (size 3 to 8) (size 9 to 14) (size 15 to 20)
#    0.000    1.500    2.500    4.875    5.250    0.000 
#    6.750    3.750    0.000    0.000    0.000    0.000 
#    0.000    0.000    0.000    0.000    0.000    0.000 
#
# Total GULP energy -89481.774036 kJ/mol
# GULP energy per Si atom -5592.610877 kJ/mol
# Density = 2.599007 g / cm^3
# Si number density = 26.049363 Si / 1000 Ang^3
#
#
#
# Elastic Constant Matrix: (Units=GPa)
#
#
# Indices 1 2 3 4 5 6 
#
# 1 84.5958 16.1234 -3.0102 12.0036 -30.7264 -7.2540
# 2 16.1234 192.3053 44.0115 11.6110 -24.0584 -0.9900
# 3 -3.0102 44.0115 65.4380 -8.1395 -33.0853 3.5832
# 4 12.0036 11.6110 -8.1395 45.5251 4.0422 -6.0897
# 5 -30.7264 -24.0584 -33.0853 4.0422 37.6606 3.4907
# 6 -7.2540 -0.9900 3.5832 -6.0897 3.4907 49.5854
#
#
#
# Elastic Compliance Matrix: (Units=1/GPa)
#
#
# Indices 1 2 3 4 5 6 
#
# 1 0.032376 -0.002281 0.027491 -0.007725 0.050103 -0.001772
# 2 -0.002281 0.006572 -0.006297 -0.001902 -0.003012 0.000231
# 3 0.027491 -0.006297 0.054748 -0.002507 0.067246 -0.005102
# 4 -0.007725 -0.001902 -0.002507 0.025580 -0.012749 0.003052
# 5 0.050103 -0.003012 0.067246 -0.012749 0.126700 -0.008075
# 6 -0.001772 0.000231 -0.005102 0.003052 -0.008075 0.021225
#
#
# Mechanical properties :
#
#
# Convention : Reuss Voigt Hill
#
# Bulk Modulus (GPa) = 7.60321 50.73207 29.16764
# Shear Modulus (GPa) = 18.30062 45.56850 31.93456
#
# Velocity S-wave (km/s) = 2.65342 4.18702 3.50512
# Velocity P-wave (km/s) = 3.50893 6.54923 5.25381
#
# Compressibility (1/GPa) = 0.13152344
#
# Stress axis : x y z
#
# Youngs Moduli (GPa) = 30.88690 152.16880 18.26541
#
# Poissons Ratio (x) = 0.34707 -0.50214
# Poissons Ratio (y) = 0.07045 0.11501
# Poissons Ratio (z) = -0.84912 0.95818
#
# Static dielectric constant tensor:
#      x y z
#    x 2.044580 0.036880 0.120670 
#    y 0.036880 2.069080 -0.044300 
#    z 0.120670 -0.044300 2.309630 
# 
# From -- ./inp_files/208778.got.cif
#   From: 2010.05.17/outbox.cif.g08.bks.cpg/sg2_105_cif.got.tgz:208778.got - 2010.06.03 11:33:40.
