data_PCOD9109687
_publ_section_title
;
Structure prediction by ZEFSAII (Michael W. Deem and Ramdas Pophale) SiO2 
 PCOD9109687
Probable space group: P -1
;
_chemical_formula_sum "Si O2"
_cell_formula_units_Z 16
_cell_length_a 12.991948
_cell_length_b 13.728512
_cell_length_c 9.697561
_cell_angle_alpha 46.940154
_cell_angle_beta 46.792356
_cell_angle_gamma 33.220750
_cell_volume 663.971725
_symmetry_space_group_name_H-M "P -1"
_symmetry_group_IT_number 2
_symmetry_cell_setting 'triclinic'
loop_
_space_group_symop_operation_xyz
x,y,z
-x,-y,-z
loop_
_atom_site_type_symbol
_atom_site_label
_atom_site_fract_x
_atom_site_fract_y
_atom_site_fract_z
Si Si1 0.342463 0.790247 0.660163
Si Si2 0.370239 0.063492 0.420772
Si Si3 0.110882 0.603450 0.795099
Si Si4 0.037357 0.781192 0.974308
Si Si5 0.670635 0.805301 0.949781
Si Si6 0.782974 0.119059 0.014768
Si Si7 0.051722 0.614278 0.387799
Si Si8 0.303315 0.584900 0.394352
O O1 0.130442 0.861986 0.765274
O O2 0.473628 0.601421 0.639443
O O3 0.395010 0.907531 0.466771
O O4 0.362707 0.778301 0.821340
O O5 0.385850 0.164339 0.190093
O O6 0.149723 0.195077 0.553245
O O7 0.500000 0.000000 0.500000
O O8 0.068103 0.664110 0.933572
O O9 0.209310 0.652314 0.564579
O O10 0.890586 0.725240 0.822523
O O11 0.267028 0.378776 0.865115
O O12 0.127416 0.649967 0.153371
O O13 0.818178 0.959655 0.052321
O O14 0.500000 0.000000 0.000000
O O15 0.733080 0.263409 0.811521
O O16 0.000000 0.000000 0.000000
O O17 0.200770 0.529941 0.457788
O O18 0.000000 0.500000 0.500000
#
# Coordination Sequence:
#
# PCOD9109687 Si02
#       8
#     2   2   2   2   2   2   2   2
#     4  11  23  42  71 103 142 180 244 302 358 431
#     4  12  25  45  73 105 134 181 245 300 360 427
#     4  11  27  47  71 106 151 195 240 294 373 442
#     4  11  24  44  67 101 145 186 235 298 362 429
#     4  11  26  49  72 103 149 195 241 298 365 440
#     4  10  20  41  66  96 135 178 233 293 352 416
#     4  12  23  40  68 101 137 179 239 297 352 419
#     4  12  23  44  69 100 140 192 234 300 362 431
#
# _framework density 24.097411000000001
#
# number of rings (size 3 to 8) (size 9 to 14) (size 15 to 20)
#    0.000    0.750    5.000    3.375    3.500    1.000 
#    2.250    0.000    0.000    0.000    0.000    0.000 
#    0.000    0.000    0.000    0.000    0.000    0.000 
#
# Total GULP energy -89279.261054 kJ/mol
# GULP energy per Si atom -5579.953816 kJ/mol
# Density = 2.404256 g / cm^3
# Si number density = 24.097411 Si / 1000 Ang^3
#
#
#
# Elastic Constant Matrix: (Units=GPa)
#
#
# Indices 1 2 3 4 5 6 
#
# 1 53.9659 10.1552 0.1011 -1.6307 16.2321 -7.8689
# 2 10.1552 88.0147 13.4526 2.2997 8.5574 7.8491
# 3 0.1011 13.4526 104.4897 5.5545 21.1218 -3.0292
# 4 -1.6307 2.2997 5.5545 37.8374 9.6696 -0.8328
# 5 16.2321 8.5574 21.1218 9.6696 33.6832 0.5127
# 6 -7.8689 7.8491 -3.0292 -0.8328 0.5127 33.4928
#
#
#
# Elastic Compliance Matrix: (Units=1/GPa)
#
#
# Indices 1 2 3 4 5 6 
#
# 1 0.024596 -0.002657 0.003236 0.004644 -0.014648 0.007034
# 2 -0.002657 0.012307 -0.001521 -0.000546 -0.000680 -0.003649
# 3 0.003236 -0.001521 0.011541 0.000806 -0.008677 0.002314
# 4 0.004644 -0.000546 0.000806 0.029425 -0.011086 0.002193
# 5 -0.014648 -0.000680 -0.008677 -0.011086 0.045620 -0.005041
# 6 0.007034 -0.003649 0.002314 0.002193 -0.005041 0.032706
#
#
# Mechanical properties :
#
#
# Convention : Reuss Voigt Hill
#
# Bulk Modulus (GPa) = 21.47781 32.65424 27.06603
# Shear Modulus (GPa) = 28.80211 35.85345 32.32778
#
# Velocity S-wave (km/s) = 3.46097 3.86146 3.66669
# Velocity P-wave (km/s) = 4.99033 5.78459 5.40207
#
# Compressibility (1/GPa) = 0.04655968
#
# Stress axis : x y z
#
# Youngs Moduli (GPa) = 40.65733 81.25711 86.64595
#
# Poissons Ratio (x) = 0.21590 -0.28040
# Poissons Ratio (y) = 0.10803 0.13180
# Poissons Ratio (z) = -0.13157 0.12360
#
# Static dielectric constant tensor:
#      x y z
#    x 2.064600 0.081320 -0.050790 
#    y 0.081320 2.014690 -0.029570 
#    z -0.050790 -0.029570 1.931950 
# 
# From -- ./inp_files/314595.got.cif
#   From: 2010.05.17/outbox.cif.g08.bks.cpg/sg2_158_cif.got.tgz:314595.got - 2010.06.03 11:33:40.
