data_PCOD9109899
_publ_section_title
;
Structure prediction by ZEFSAII (Michael W. Deem and Ramdas Pophale) SiO2 
 PCOD9109899
Probable space group: P -1
;
_chemical_formula_sum "Si O2"
_cell_formula_units_Z 16
_cell_length_a 11.153667
_cell_length_b 7.573769
_cell_length_c 14.967294
_cell_angle_alpha 34.977386
_cell_angle_beta 93.964746
_cell_angle_gamma 79.275737
_cell_volume 654.701381
_symmetry_space_group_name_H-M "P -1"
_symmetry_group_IT_number 2
_symmetry_cell_setting 'triclinic'
loop_
_space_group_symop_operation_xyz
x,y,z
-x,-y,-z
loop_
_atom_site_type_symbol
_atom_site_label
_atom_site_fract_x
_atom_site_fract_y
_atom_site_fract_z
Si Si1 0.280224 0.568060 0.983351
Si Si2 0.808783 0.544944 0.261990
Si Si3 0.019744 0.286946 0.680795
Si Si4 0.405747 0.335690 0.454801
Si Si5 0.364603 0.700119 0.120044
Si Si6 0.644188 0.317987 0.243326
Si Si7 0.869908 0.849894 0.836141
Si Si8 0.311182 0.716880 0.480741
O O1 0.367693 0.607715 0.892650
O O2 0.151640 0.931157 0.826866
O O3 0.341540 0.518683 0.105377
O O4 0.242704 0.256393 0.087441
O O5 0.948828 0.514368 0.318698
O O6 0.784888 0.295598 0.294571
O O7 0.730510 0.508580 0.361106
O O8 0.734342 0.910662 0.060504
O O9 0.000000 0.500000 0.500000
O O10 0.906724 0.152514 0.745908
O O11 0.344532 0.548731 0.274451
O O12 0.358194 0.539086 0.460645
O O13 0.564312 0.224662 0.502158
O O14 0.370220 0.019580 0.592868
O O15 0.519490 0.622586 0.156106
O O16 0.821669 0.950582 0.689476
O O17 0.000000 0.500000 0.000000
#
# Coordination Sequence:
#
# PCOD9109899 Si02
#       8
#     2   2   2   2   2   2   2   2
#     4  10  24  40  66  94 127 170 215 264 324 383
#     4  11  24  40  65  95 131 175 208 269 323 386
#     4  10  20  41  68  88 123 169 216 268 326 368
#     4  11  25  39  67 102 133 173 210 265 325 400
#     4  11  23  41  64  97 135 172 212 260 326 391
#     4  12  24  41  62  97 136 169 215 257 326 390
#     4  10  22  41  72  94 122 175 226 270 319 378
#     4  11  23  42  68  95 137 171 215 259 338 386
#
# _framework density 24.438623
#
# number of rings (size 3 to 8) (size 9 to 14) (size 15 to 20)
#    0.000    1.250    2.500    3.375    3.500    1.000 
#    0.000    1.250    5.500    0.000    0.000    0.000 
#    0.000    0.000    0.000    0.000    0.000    0.000 
#
# Total GULP energy -89467.193624 kJ/mol
# GULP energy per Si atom -5591.699602 kJ/mol
# Density = 2.438300 g / cm^3
# Si number density = 24.438623 Si / 1000 Ang^3
#
#
#
# Elastic Constant Matrix: (Units=GPa)
#
#
# Indices 1 2 3 4 5 6 
#
# 1 91.1641 37.6088 54.3296 3.4548 -8.2592 45.5837
# 2 37.6088 87.2653 57.9737 20.3706 -12.6499 31.8993
# 3 54.3296 57.9737 213.3687 20.9576 -11.4710 26.8094
# 4 3.4548 20.3706 20.9576 43.1084 2.7087 -6.5376
# 5 -8.2592 -12.6499 -11.4710 2.7087 45.5959 0.3499
# 6 45.5837 31.8993 26.8094 -6.5376 0.3499 50.4546
#
#
#
# Elastic Compliance Matrix: (Units=1/GPa)
#
#
# Indices 1 2 3 4 5 6 
#
# 1 0.023119 0.001178 -0.002957 -0.004367 0.004189 -0.020655
# 2 0.001178 0.022062 -0.002900 -0.011794 0.006421 -0.015044
# 3 -0.002957 -0.002900 0.006243 -0.001292 0.000299 0.001019
# 4 -0.004367 -0.011794 -0.001292 0.032636 -0.006453 0.016363
# 5 0.004189 0.006421 0.000299 -0.006453 0.025000 -0.009012
# 6 -0.020655 -0.015044 0.001019 0.016363 -0.009012 0.049634
#
#
# Mechanical properties :
#
#
# Convention : Reuss Voigt Hill
#
# Bulk Modulus (GPa) = 23.77319 76.84693 50.31006
# Shear Modulus (GPa) = 27.46166 43.95750 35.70958
#
# Velocity S-wave (km/s) = 3.35580 4.24570 3.82670
# Velocity P-wave (km/s) = 4.97635 7.45303 6.33687
#
# Compressibility (1/GPa) = 0.04206419
#
# Stress axis : x y z
#
# Youngs Moduli (GPa) = 43.25534 45.32755 160.18707
#
# Poissons Ratio (x) = -0.05341 0.47372
# Poissons Ratio (y) = -0.05097 0.46460
# Poissons Ratio (z) = 0.12792 0.13147
#
# Static dielectric constant tensor:
#      x y z
#    x 1.978620 0.026730 0.054780 
#    y 0.026730 1.994090 -0.023840 
#    z 0.054780 -0.023840 1.917040 
# 
# From -- ./inp_files/221722.got.cif
#   From: 2010.05.17/outbox.cif.g08.bks.cpg/sg2_111_cif.got.tgz:221722.got - 2010.06.03 11:33:40.
