data_PCOD9109478
_publ_section_title
;
Structure prediction by ZEFSAII (Michael W. Deem and Ramdas Pophale) SiO2 
 PCOD9109478
Probable space group: P -1
;
_chemical_formula_sum "Si O2"
_cell_formula_units_Z 10
_cell_length_a 7.191728
_cell_length_b 11.531587
_cell_length_c 11.824925
_cell_angle_alpha 32.688383
_cell_angle_beta 127.280376
_cell_angle_gamma 128.919730
_cell_volume 405.089528
_symmetry_space_group_name_H-M "P -1"
_symmetry_group_IT_number 2
_symmetry_cell_setting 'triclinic'
loop_
_space_group_symop_operation_xyz
x,y,z
-x,-y,-z
loop_
_atom_site_type_symbol
_atom_site_label
_atom_site_fract_x
_atom_site_fract_y
_atom_site_fract_z
Si Si1 0.118847 0.811156 0.478427
Si Si2 0.318905 0.520276 0.314689
Si Si3 0.560889 0.893509 0.936332
Si Si4 0.005076 0.264429 0.744190
Si Si5 0.360972 0.130400 0.481565
O O1 0.386878 0.798541 0.554011
O O2 0.952974 0.579328 0.657046
O O3 0.001474 0.862115 0.276174
O O4 0.150371 0.010179 0.416303
O O5 0.500000 0.500000 0.500000
O O6 0.404109 0.761156 0.089566
O O7 0.334565 0.338484 0.373187
O O8 0.748614 0.747081 0.097438
O O9 0.395013 0.938432 0.737677
O O10 0.758042 0.137418 0.820531
O O11 0.000000 0.500000 0.500000
#
# Coordination Sequence:
#
# PCOD9109478 Si02
#       5
#     2   2   2   2   2
#     4  10  22  43  67  91 131 176 210 267 335 373
#     4  12  24  41  66  99 131 170 218 272 321 381
#     4  10  21  38  64  96 125 169 222 258 325 385
#     4  10  20  41  65  94 132 169 213 270 317 392
#     4  10  24  45  64  92 136 171 215 271 318 391
#
# _framework density 24.685903
#
# number of rings (size 3 to 8) (size 9 to 14) (size 15 to 20)
#    0.000    1.600    2.000    3.000    0.000    1.600 
#    0.000   20.000    0.000    0.000    0.000    0.000 
#    0.000    0.000    0.000    0.000    0.000    0.000 
#
# Total GULP energy -55895.343350 kJ/mol
# GULP energy per Si atom -5589.534335 kJ/mol
# Density = 2.462972 g / cm^3
# Si number density = 24.685903 Si / 1000 Ang^3
#
#
#
# Elastic Constant Matrix: (Units=GPa)
#
#
# Indices 1 2 3 4 5 6 
#
# 1 116.9831 20.8974 53.7656 -12.6323 -45.3015 10.7507
# 2 20.8974 114.9931 43.8245 -3.8117 -21.2886 -11.2146
# 3 53.7656 43.8245 161.8448 -25.9491 -39.9108 8.1789
# 4 -12.6323 -3.8117 -25.9491 35.8843 12.8844 -11.2742
# 5 -45.3015 -21.2886 -39.9108 12.8844 58.3226 -13.2675
# 6 10.7507 -11.2146 8.1789 -11.2742 -13.2675 41.0532
#
#
#
# Elastic Compliance Matrix: (Units=1/GPa)
#
#
# Indices 1 2 3 4 5 6 
#
# 1 0.012833 0.000048 -0.002207 -0.000182 0.008465 -0.000222
# 2 0.000048 0.010616 -0.002339 -0.000400 0.003387 0.004338
# 3 -0.002207 -0.002339 0.008898 0.004565 0.002570 0.000251
# 4 -0.000182 -0.000400 0.004565 0.034530 -0.003082 0.007516
# 5 0.008465 0.003387 0.002570 -0.003082 0.028920 0.006697
# 6 -0.000222 0.004338 0.000251 0.007516 0.006697 0.029780
#
#
# Mechanical properties :
#
#
# Convention : Reuss Voigt Hill
#
# Bulk Modulus (GPa) = 42.82221 70.08846 56.45534
# Shear Modulus (GPa) = 35.12359 45.40758 40.26559
#
# Velocity S-wave (km/s) = 3.77612 4.29349 4.04309
# Velocity P-wave (km/s) = 6.03296 7.28234 6.68689
#
# Compressibility (1/GPa) = 0.02335237
#
# Stress axis : x y z
#
# Youngs Moduli (GPa) = 77.92686 94.20173 112.38337
#
# Poissons Ratio (x) = -0.00456 0.24800
# Poissons Ratio (y) = -0.00377 0.26282
# Poissons Ratio (z) = 0.17196 0.22030
#
# Static dielectric constant tensor:
#      x y z
#    x 2.027740 -0.067820 -0.012660 
#    y -0.067820 2.090800 -0.045120 
#    z -0.012660 -0.045120 1.896810 
# 
# From -- ./inp_files/383955.got.cif
#   From: 2010.05.17/outbox.cif.g08.bks.cpg/sg2_192_cif.got.tgz:383955.got - 2010.06.03 11:33:40.
