data_PCOD9109506
_publ_section_title
;
Structure prediction by ZEFSAII (Michael W. Deem and Ramdas Pophale) SiO2 
 PCOD9109506
Probable space group: P -1
;
_chemical_formula_sum "Si O2"
_cell_formula_units_Z 16
_cell_length_a 11.613942
_cell_length_b 20.066611
_cell_length_c 8.542890
_cell_angle_alpha 135.443143
_cell_angle_beta 126.976495
_cell_angle_gamma 32.392256
_cell_volume 748.325049
_symmetry_space_group_name_H-M "P -1"
_symmetry_group_IT_number 2
_symmetry_cell_setting 'triclinic'
loop_
_space_group_symop_operation_xyz
x,y,z
-x,-y,-z
loop_
_atom_site_type_symbol
_atom_site_label
_atom_site_fract_x
_atom_site_fract_y
_atom_site_fract_z
Si Si1 0.895452 0.628244 0.244839
Si Si2 0.993293 0.263956 0.664587
Si Si3 0.153327 0.601394 0.686150
Si Si4 0.003228 0.159676 0.822958
Si Si5 0.509487 0.559548 0.830694
Si Si6 0.166998 0.838841 0.804826
Si Si7 0.688902 0.159301 0.404452
Si Si8 0.678267 0.612689 0.301951
O O1 0.734747 0.652150 0.268849
O O2 0.837448 0.742950 0.273992
O O3 0.048793 0.606899 0.458208
O O4 0.000000 0.500000 0.000000
O O5 0.039081 0.209898 0.787793
O O6 0.748722 0.426780 0.735810
O O7 0.977125 0.178573 0.402360
O O8 0.394825 0.514585 0.690386
O O9 0.136309 0.532454 0.695247
O O10 0.058518 0.745241 0.920563
O O11 0.825257 0.170452 0.635271
O O12 0.203377 0.995646 0.749816
O O13 0.348137 0.705344 0.843755
O O14 0.547555 0.590484 0.079306
O O15 0.290366 0.819576 0.722309
O O16 0.000000 0.000000 0.000000
O O17 0.457488 0.270246 0.479482
#
# Coordination Sequence:
#
# PCOD9109506 Si02
#       8
#     2   2   2   2   2   2   2   2
#     4  12  26  43  63  96 141 178 216 272 336 394
#     4  11  23  40  65  95 133 170 222 270 332 384
#     4  12  22  41  69  97 130 170 224 277 332 385
#     4  10  20  41  65  97 127 170 213 280 324 390
#     4  12  22  40  70 103 128 166 228 283 325 387
#     4  11  24  40  66 102 136 169 214 276 340 387
#     4  10  23  38  65  98 134 166 218 267 335 387
#     4  12  25  41  65 100 132 175 222 271 326 397
#
# _framework density 21.381081999999999
#
# number of rings (size 3 to 8) (size 9 to 14) (size 15 to 20)
#    0.000    0.750    5.000    3.375    5.250    0.000 
#    0.000    1.250    0.000    0.000    0.000    0.000 
#    0.000    0.000    0.000    0.000    0.000    0.000 
#
# Total GULP energy -89352.467058 kJ/mol
# GULP energy per Si atom -5584.529191 kJ/mol
# Density = 2.133242 g / cm^3
# Si number density = 21.381082 Si / 1000 Ang^3
#
#
#
# Elastic Constant Matrix: (Units=GPa)
#
#
# Indices 1 2 3 4 5 6 
#
# 1 103.6917 24.0483 38.4653 24.3349 1.7226 12.9095
# 2 24.0483 49.1028 35.5496 17.5352 -4.0309 25.6122
# 3 38.4653 35.5496 129.6474 15.5056 -20.7138 12.9193
# 4 24.3349 17.5352 15.5056 39.3129 -4.4575 0.9349
# 5 1.7226 -4.0309 -20.7138 -4.4575 29.8199 0.9756
# 6 12.9095 25.6122 12.9193 0.9349 0.9756 25.7828
#
#
#
# Elastic Compliance Matrix: (Units=1/GPa)
#
#
# Indices 1 2 3 4 5 6 
#
# 1 0.013209 0.001781 -0.003469 -0.007899 -0.003909 -0.006211
# 2 0.001781 0.069905 -0.010002 -0.026750 0.000506 -0.064372
# 3 -0.003469 -0.010002 0.011790 0.002653 0.007258 0.005394
# 4 -0.007899 -0.026750 0.002653 0.041000 0.003910 0.027564
# 5 -0.003909 0.000506 0.007258 0.003910 0.039580 -0.003822
# 6 -0.006211 -0.064372 0.005394 0.027564 -0.003822 0.102284
#
#
# Mechanical properties :
#
#
# Convention : Reuss Voigt Hill
#
# Bulk Modulus (GPa) = 13.98083 53.17427 33.57755
# Shear Modulus (GPa) = 15.38519 31.27503 23.33011
#
# Velocity S-wave (km/s) = 2.68539 3.82873 3.30685
# Velocity P-wave (km/s) = 4.02097 6.66853 5.50625
#
# Compressibility (1/GPa) = 0.07152649
#
# Stress axis : x y z
#
# Youngs Moduli (GPa) = 75.70322 14.30508 84.82017
#
# Poissons Ratio (x) = -0.02548 0.29420
# Poissons Ratio (y) = -0.13486 0.84836
# Poissons Ratio (z) = 0.26258 0.14308
#
# Static dielectric constant tensor:
#      x y z
#    x 1.834690 -0.003040 -0.007610 
#    y -0.003040 1.799250 0.007260 
#    z -0.007610 0.007260 1.771210 
# 
# From -- ./inp_files/158694.got.cif
#   From: 2010.05.17/outbox.cif.g08.bks.cpg/sg2_80_cif.got.tgz:158694.got - 2010.06.03 11:33:40.
