data_PCOD9109982
_publ_section_title
;
Structure prediction by ZEFSAII (Michael W. Deem and Ramdas Pophale) SiO2 
 PCOD9109982
Probable space group: P -1
;
_chemical_formula_sum "Si O2"
_cell_formula_units_Z 14
_cell_length_a 8.294817
_cell_length_b 5.079844
_cell_length_c 23.276267
_cell_angle_alpha 104.370948
_cell_angle_beta 146.906894
_cell_angle_gamma 81.364715
_cell_volume 515.643231
_symmetry_space_group_name_H-M "P -1"
_symmetry_group_IT_number 2
_symmetry_cell_setting 'triclinic'
loop_
_space_group_symop_operation_xyz
x,y,z
-x,-y,-z
loop_
_atom_site_type_symbol
_atom_site_label
_atom_site_fract_x
_atom_site_fract_y
_atom_site_fract_z
Si Si1 0.511873 0.018169 0.810085
Si Si2 0.000000 0.500000 0.000000
Si Si3 0.839274 0.560219 0.083341
Si Si4 0.170681 0.886914 0.872819
Si Si5 0.657080 0.778625 0.442242
Si Si6 0.500000 0.500000 0.500000
Si Si7 0.364457 0.807618 0.635542
Si Si8 0.828271 0.477938 0.259295
O O1 0.254339 0.215743 0.757339
O O2 0.511526 0.991215 0.740095
O O3 0.438915 0.712424 0.797493
O O4 0.794504 0.200790 0.928439
O O5 0.870080 0.597350 0.027663
O O6 0.977738 0.291724 0.129523
O O7 0.965080 0.836737 0.167383
O O8 0.500000 0.500000 0.000000
O O9 0.157165 0.684892 0.804532
O O10 0.500000 0.000000 0.000000
O O11 0.530806 0.708661 0.463483
O O12 0.563498 0.503242 0.362824
O O13 0.015184 0.801775 0.546254
O O14 0.579641 0.056851 0.403685
O O15 0.866390 0.522043 0.615533
#
# Coordination Sequence:
#
# PCOD9109982 Si02
#       8
#     2   1   2   2   2   1   2   2
#     4  12  26  47  72 111 148 198 249 313 370 461
#     4  12  28  46  80 112 150 202 256 304 392 458
#     4  10  22  42  68 102 143 186 240 306 362 440
#     4  10  20  41  68  96 141 187 233 299 366 423
#     4  10  23  42  70 101 138 192 245 302 367 450
#     4  12  28  46  74 112 146 198 254 306 386 456
#     4  10  22  44  69  98 146 191 236 309 374 434
#     4  12  27  46  74 110 153 196 249 313 378 451
#
# _framework density 27.150556000000002
#
# number of rings (size 3 to 8) (size 9 to 14) (size 15 to 20)
#    0.000    1.143    1.429    5.143    4.000    6.857 
#    0.000    0.000    0.000    0.000    0.000    0.000 
#    0.000    0.000    0.000    0.000    0.000    0.000 
#
# Total GULP energy -77953.034276 kJ/mol
# GULP energy per Si atom -5568.073877 kJ/mol
# Density = 2.708876 g / cm^3
# Si number density = 27.150556 Si / 1000 Ang^3
#
#
#
# Elastic Constant Matrix: (Units=GPa)
#
#
# Indices 1 2 3 4 5 6 
#
# 1 109.9639 13.9257 2.6761 3.3128 -1.4685 25.7282
# 2 13.9257 140.2281 -5.2686 21.2272 -10.6543 0.3505
# 3 2.6761 -5.2686 98.6793 11.1155 11.6273 -15.6515
# 4 3.3128 21.2272 11.1155 18.4991 1.4763 -6.8159
# 5 -1.4685 -10.6543 11.6273 1.4763 46.6374 10.2829
# 6 25.7282 0.3505 -15.6515 -6.8159 10.2829 55.1507
#
#
#
# Elastic Compliance Matrix: (Units=1/GPa)
#
#
# Indices 1 2 3 4 5 6 
#
# 1 0.010722 -0.000482 -0.001165 -0.003061 0.001954 -0.006072
# 2 -0.000482 0.009242 0.001353 -0.012041 0.002447 -0.001394
# 3 -0.001165 0.001353 0.011995 -0.006923 -0.003315 0.003702
# 4 -0.003061 -0.012041 -0.006923 0.076765 -0.005779 0.010104
# 5 0.001954 0.002447 -0.003315 -0.005779 0.024655 -0.007179
# 6 -0.006072 -0.001394 0.003702 0.010104 -0.007179 0.024611
#
#
# Mechanical properties :
#
#
# Convention : Reuss Voigt Hill
#
# Bulk Modulus (GPa) = 31.87478 41.28197 36.57838
# Shear Modulus (GPa) = 29.57954 46.55998 38.06976
#
# Velocity S-wave (km/s) = 3.30428 4.14560 3.74862
# Velocity P-wave (km/s) = 5.13062 6.17678 5.67784
#
# Compressibility (1/GPa) = 0.03137277
#
# Stress axis : x y z
#
# Youngs Moduli (GPa) = 93.26419 108.20084 83.36613
#
# Poissons Ratio (x) = 0.05212 0.09713
# Poissons Ratio (y) = 0.04492 -0.11282
# Poissons Ratio (z) = 0.10866 -0.14643
#
# Static dielectric constant tensor:
#      x y z
#    x 2.115460 -0.061990 0.102300 
#    y -0.061990 2.249940 -0.265510 
#    z 0.102300 -0.265510 2.348390 
# 
# From -- ./inp_files/605689.got.cif
#   From: 2010.05.17/outbox.cif.g08.bks.cpg/sg2_303_cif.got.tgz:605689.got - 2010.06.03 11:33:40.
