data_PCOD9109455
_publ_section_title
;
Structure prediction by ZEFSAII (Michael W. Deem and Ramdas Pophale) SiO2 
 PCOD9109455
Probable space group: P -1
;
_chemical_formula_sum "Si O2"
_cell_formula_units_Z 16
_cell_length_a 8.586735
_cell_length_b 16.674697
_cell_length_c 7.573266
_cell_angle_alpha 113.690005
_cell_angle_beta 127.845290
_cell_angle_gamma 96.993507
_cell_volume 674.821128
_symmetry_space_group_name_H-M "P -1"
_symmetry_group_IT_number 2
_symmetry_cell_setting 'triclinic'
loop_
_space_group_symop_operation_xyz
x,y,z
-x,-y,-z
loop_
_atom_site_type_symbol
_atom_site_label
_atom_site_fract_x
_atom_site_fract_y
_atom_site_fract_z
Si Si1 0.108982 0.026480 0.296816
Si Si2 0.964292 0.569065 0.397882
Si Si3 0.459087 0.674973 0.843162
Si Si4 0.484729 0.228304 0.658840
Si Si5 0.070584 0.705845 0.157935
Si Si6 0.356920 0.482007 0.174809
Si Si7 0.205404 0.313432 0.374978
Si Si8 0.046266 0.145086 0.675604
O O1 0.375557 0.110094 0.523948
O O2 0.025871 0.084937 0.427255
O O3 0.065291 0.932718 0.308182
O O4 0.000000 0.000000 0.000000
O O5 0.751913 0.503380 0.064846
O O6 0.888861 0.639748 0.506524
O O7 0.000000 0.500000 0.500000
O O8 0.215742 0.632876 0.539942
O O9 0.423092 0.706866 0.041485
O O10 0.530625 0.588974 0.833216
O O11 0.683726 0.777177 0.023192
O O12 0.280172 0.241870 0.455279
O O13 0.679049 0.269789 0.684785
O O14 0.876841 0.587756 0.941477
O O15 0.051007 0.778659 0.351279
O O16 0.986703 0.736020 0.948958
O O17 0.563290 0.592052 0.467792
#
# Coordination Sequence:
#
# PCOD9109455 Si02
#       8
#     2   2   2   2   2   2   2   2
#     4  10  21  43  74  96 128 168 208 272 336 390
#     4  12  22  37  65  92 124 177 229 267 320 378
#     4  10  20  41  65  92 132 175 214 273 323 377
#     4  11  23  40  66  95 129 171 219 264 327 396
#     4  11  25  42  62  95 132 173 215 266 326 384
#     4  11  24  39  61  92 134 170 221 275 315 377
#     4  12  23  39  63  92 130 177 222 265 320 386
#     4   9  22  43  67  98 132 165 215 270 326 396
#
# _framework density 23.709986000000001
#
# number of rings (size 3 to 8) (size 9 to 14) (size 15 to 20)
#    0.000    1.250    3.750    2.250    0.000    4.000 
#    0.000    0.625    0.000    0.000    0.000    0.000 
#    0.000    0.000    0.000    0.000    0.000    0.000 
#
# Total GULP energy -89472.364956 kJ/mol
# GULP energy per Si atom -5592.022810 kJ/mol
# Density = 2.365602 g / cm^3
# Si number density = 23.709986 Si / 1000 Ang^3
#
#
#
# Elastic Constant Matrix: (Units=GPa)
#
#
# Indices 1 2 3 4 5 6 
#
# 1 103.8775 39.1567 16.4608 3.9536 22.3548 10.4281
# 2 39.1567 99.5650 30.9412 12.6726 11.5800 15.1915
# 3 16.4608 30.9412 90.0097 -2.5637 -4.7899 -3.1852
# 4 3.9536 12.6726 -2.5637 41.5741 5.7952 8.8420
# 5 22.3548 11.5800 -4.7899 5.7952 39.9801 -0.5945
# 6 10.4281 15.1915 -3.1852 8.8420 -0.5945 38.8308
#
#
#
# Elastic Compliance Matrix: (Units=1/GPa)
#
#
# Indices 1 2 3 4 5 6 
#
# 1 0.012834 -0.003583 -0.001518 0.001231 -0.006537 -0.002550
# 2 -0.003583 0.014184 -0.004581 -0.003032 -0.002279 -0.004307
# 3 -0.001518 -0.004581 0.013299 0.001200 0.003641 0.003073
# 4 0.001231 -0.003032 0.001200 0.026528 -0.003589 -0.005142
# 5 -0.006537 -0.002279 0.003641 -0.003589 0.030347 0.004227
# 6 -0.002550 -0.004307 0.003073 -0.005142 0.004227 0.029610
#
#
# Mechanical properties :
#
#
# Convention : Reuss Voigt Hill
#
# Bulk Modulus (GPa) = 47.72568 51.84105 49.78336
# Shear Modulus (GPa) = 32.64768 37.86989 35.25879
#
# Velocity S-wave (km/s) = 3.71477 4.00085 3.86046
# Velocity P-wave (km/s) = 6.21063 6.57682 6.39635
#
# Compressibility (1/GPa) = 0.02095308
#
# Stress axis : x y z
#
# Youngs Moduli (GPa) = 77.92007 70.50028 75.19398
#
# Poissons Ratio (x) = 0.25259 0.11417
# Poissons Ratio (y) = 0.27917 0.34444
# Poissons Ratio (z) = 0.11831 0.32294
#
# Static dielectric constant tensor:
#      x y z
#    x 1.988900 0.041040 -0.049470 
#    y 0.041040 1.918280 0.021630 
#    z -0.049470 0.021630 1.912090 
# 
# From -- ./inp_files/206173.got.cif
#   From: 2010.05.17/outbox.cif.g08.bks.cpg/sg2_104_cif.got.tgz:206173.got - 2010.06.03 11:33:40.
