data_PCOD9109621
_publ_section_title
;
Structure prediction by ZEFSAII (Michael W. Deem and Ramdas Pophale) SiO2 
 PCOD9109621
Probable space group: P -1
;
_chemical_formula_sum "Si O2"
_cell_formula_units_Z 14
_cell_length_a 11.204894
_cell_length_b 9.994273
_cell_length_c 8.985979
_cell_angle_alpha 145.325295
_cell_angle_beta 78.400019
_cell_angle_gamma 99.453136
_cell_volume 560.802375
_symmetry_space_group_name_H-M "P -1"
_symmetry_group_IT_number 2
_symmetry_cell_setting 'triclinic'
loop_
_space_group_symop_operation_xyz
x,y,z
-x,-y,-z
loop_
_atom_site_type_symbol
_atom_site_label
_atom_site_fract_x
_atom_site_fract_y
_atom_site_fract_z
Si Si1 0.054308 0.588165 0.405474
Si Si2 0.645830 0.474830 0.042576
Si Si3 0.151051 0.594591 0.870632
Si Si4 0.323391 0.301304 0.332899
Si Si5 0.895657 0.955589 0.865917
Si Si6 0.449698 0.050406 0.328957
Si Si7 0.340108 0.652067 0.408955
O O1 0.193751 0.651054 0.448062
O O2 0.000000 0.500000 0.500000
O O3 0.993329 0.423957 0.145923
O O4 0.976070 0.819086 0.600344
O O5 0.627091 0.467300 0.864617
O O6 0.590693 0.218561 0.876340
O O7 0.789540 0.443594 0.019812
O O8 0.604902 0.729394 0.354152
O O9 0.237467 0.433765 0.596303
O O10 0.174068 0.848257 0.028018
O O11 0.216763 0.177507 0.150600
O O12 0.409096 0.129196 0.245995
O O13 0.386590 0.489816 0.384502
O O14 0.000000 0.000000 0.000000
O O15 0.593114 0.098379 0.362999
#
# Coordination Sequence:
#
# PCOD9109621 Si02
#       7
#     2   2   2   2   2   2   2
#     4  11  21  39  61  97 136 168 222 281 335 395
#     4  11  26  48  71  97 141 182 221 283 343 403
#     4  10  20  41  66  92 138 177 217 277 346 395
#     4  10  21  41  68  99 131 173 230 281 332 398
#     4  11  17  34  64  91 129 173 215 272 339 387
#     4  11  25  50  69  98 140 183 224 280 338 406
#     4  12  23  44  68 102 132 180 230 278 339 405
#
# _framework density 24.964230000000001
#
# number of rings (size 3 to 8) (size 9 to 14) (size 15 to 20)
#    0.000    1.143    5.714    1.286    0.000    0.571 
#   15.429    2.857    0.000    0.000    0.000    0.000 
#    0.000    0.000    0.000    0.000    0.000    0.000 
#
# Total GULP energy -78009.552542 kJ/mol
# GULP energy per Si atom -5572.110896 kJ/mol
# Density = 2.490741 g / cm^3
# Si number density = 24.964230 Si / 1000 Ang^3
#
#
#
# Elastic Constant Matrix: (Units=GPa)
#
#
# Indices 1 2 3 4 5 6 
#
# 1 135.1750 34.9743 33.4314 4.2333 9.3034 2.4553
# 2 34.9743 76.7055 22.6511 1.3332 -2.9665 -5.0630
# 3 33.4314 22.6511 62.8559 13.6356 -8.6702 7.2477
# 4 4.2333 1.3332 13.6356 29.9140 -6.5093 7.2027
# 5 9.3034 -2.9665 -8.6702 -6.5093 40.7585 -0.1631
# 6 2.4553 -5.0630 7.2477 7.2027 -0.1631 40.1210
#
#
#
# Elastic Compliance Matrix: (Units=1/GPa)
#
#
# Indices 1 2 3 4 5 6 
#
# 1 0.009538 -0.003202 -0.004377 0.000121 -0.003323 -0.000232
# 2 -0.003202 0.016044 -0.004541 0.001388 0.001166 0.002796
# 3 -0.004377 -0.004541 0.022485 -0.007805 0.004193 -0.002949
# 4 0.000121 0.001388 -0.007805 0.039233 0.004657 -0.005447
# 5 -0.003323 0.001166 0.004193 0.004657 0.027009 -0.001133
# 6 -0.000232 0.002796 -0.002949 -0.005447 -0.001133 0.026798
#
#
# Mechanical properties :
#
#
# Convention : Reuss Voigt Hill
#
# Bulk Modulus (GPa) = 41.97032 50.76112 46.36572
# Shear Modulus (GPa) = 28.85350 34.40401 31.62876
#
# Velocity S-wave (km/s) = 3.40339 3.71635 3.56330
# Velocity P-wave (km/s) = 5.68267 6.22838 5.96177
#
# Compressibility (1/GPa) = 0.02382636
#
# Stress axis : x y z
#
# Youngs Moduli (GPa) = 104.84416 62.33043 44.47333
#
# Poissons Ratio (x) = 0.19961 0.19465
# Poissons Ratio (y) = 0.33575 0.20196
# Poissons Ratio (z) = 0.45888 0.28305
#
# Static dielectric constant tensor:
#      x y z
#    x 2.143620 0.092110 0.214040 
#    y 0.092110 1.994870 0.118500 
#    z 0.214040 0.118500 2.480020 
# 
# From -- ./inp_files/246241.got.cif
#   From: 2010.05.17/outbox.cif.g08.bks.cpg/sg2_124_cif.got.tgz:246241.got - 2010.06.03 11:33:40.
