data_PCOD9109405
_publ_section_title
;
Structure prediction by ZEFSAII (Michael W. Deem and Ramdas Pophale) SiO2 
 PCOD9109405
Probable space group: P -1
;
_chemical_formula_sum "Si O2"
_cell_formula_units_Z 16
_cell_length_a 8.678489
_cell_length_b 14.651628
_cell_length_c 14.590975
_cell_angle_alpha 29.350728
_cell_angle_beta 95.131065
_cell_angle_gamma 76.823915
_cell_volume 705.882025
_symmetry_space_group_name_H-M "P -1"
_symmetry_group_IT_number 2
_symmetry_cell_setting 'triclinic'
loop_
_space_group_symop_operation_xyz
x,y,z
-x,-y,-z
loop_
_atom_site_type_symbol
_atom_site_label
_atom_site_fract_x
_atom_site_fract_y
_atom_site_fract_z
Si Si1 0.402641 0.295024 0.414184
Si Si2 0.062725 0.375752 0.209905
Si Si3 0.361478 0.854841 0.610970
Si Si4 0.007943 0.962754 0.924266
Si Si5 0.142065 0.460713 0.411419
Si Si6 0.359721 0.413273 0.975780
Si Si7 0.217720 0.527423 0.563943
Si Si8 0.580402 0.277327 0.927342
O O1 0.209604 0.401314 0.248203
O O2 0.583412 0.106847 0.520461
O O3 0.331769 0.258313 0.537988
O O4 0.434432 0.487212 0.269652
O O5 0.854152 0.501597 0.138847
O O6 0.182928 0.095876 0.439499
O O7 0.000000 0.500000 0.000000
O O8 0.328611 0.659119 0.770562
O O9 0.550564 0.726908 0.801118
O O10 0.038602 0.718913 0.131440
O O11 0.200562 0.914999 0.931769
O O12 0.000000 0.000000 0.000000
O O13 0.823094 0.219331 0.651996
O O14 0.218330 0.468471 0.508717
O O15 0.970164 0.439950 0.433022
O O16 0.521825 0.253186 0.046226
O O17 0.418378 0.330494 0.799698
#
# Coordination Sequence:
#
# PCOD9109405 Si02
#       8
#     2   2   2   2   2   2   2   2
#     4  10  21  39  58  90 125 157 206 256 305 371
#     4  12  23  39  62  88 122 163 204 257 317 363
#     4  10  22  42  61  86 125 161 206 260 311 368
#     4   9  20  39  61  90 125 164 203 251 310 368
#     4   9  20  39  64  92 127 159 210 256 304 380
#     4  10  22  40  62  88 122 164 207 254 309 375
#     4  10  20  41  65  89 128 168 198 259 315 359
#     4  10  22  40  62  93 124 159 210 250 306 373
#
# _framework density 22.666677
#
# number of rings (size 3 to 8) (size 9 to 14) (size 15 to 20)
#    0.000    2.000    1.250    1.500    0.000    6.500 
#    9.000    9.375    0.000    0.000    0.000    0.000 
#    0.000    0.000    0.000    0.000    0.000    0.000 
#
# Total GULP energy -89320.995523 kJ/mol
# GULP energy per Si atom -5582.562220 kJ/mol
# Density = 2.261509 g / cm^3
# Si number density = 22.666677 Si / 1000 Ang^3
#
#
#
# Elastic Constant Matrix: (Units=GPa)
#
#
# Indices 1 2 3 4 5 6 
#
# 1 62.4698 36.3249 2.5833 -5.1599 0.9561 -12.2394
# 2 36.3249 102.4342 24.1499 4.9020 -1.7100 -25.9659
# 3 2.5833 24.1499 59.1351 -15.5761 -4.2517 0.7851
# 4 -5.1599 4.9020 -15.5761 19.3004 2.0103 -4.0715
# 5 0.9561 -1.7100 -4.2517 2.0103 25.2570 -2.2302
# 6 -12.2394 -25.9659 0.7851 -4.0715 -2.2302 51.2088
#
#
#
# Elastic Compliance Matrix: (Units=1/GPa)
#
#
# Indices 1 2 3 4 5 6 
#
# 1 0.023206 -0.010267 0.006975 0.014879 -0.001464 0.001353
# 2 -0.010267 0.018203 -0.010939 -0.015128 0.001496 0.005806
# 3 0.006975 -0.010939 0.028282 0.026873 0.001431 -0.002115
# 4 0.014879 -0.015128 0.026873 0.082067 -0.003432 0.001849
# 5 -0.001464 0.001496 0.001431 -0.003432 0.040429 0.001875
# 6 0.001353 0.005806 -0.002115 0.001849 0.001875 0.023056
#
#
# Mechanical properties :
#
#
# Convention : Reuss Voigt Hill
#
# Bulk Modulus (GPa) = 24.25531 38.90616 31.58073
# Shear Modulus (GPa) = 19.42120 29.88530 24.65325
#
# Velocity S-wave (km/s) = 2.93032 3.63501 3.30152
# Velocity P-wave (km/s) = 4.70884 5.90080 5.33819
#
# Compressibility (1/GPa) = 0.04122808
#
# Stress axis : x y z
#
# Youngs Moduli (GPa) = 43.09257 54.93567 35.35761
#
# Poissons Ratio (x) = 0.56404 -0.24662
# Poissons Ratio (y) = 0.44244 0.38679
# Poissons Ratio (z) = -0.30057 0.60097
#
# Static dielectric constant tensor:
#      x y z
#    x 1.855400 -0.035800 -0.049660 
#    y -0.035800 1.855460 -0.053270 
#    z -0.049660 -0.053270 1.880440 
# 
# From -- ./inp_files/338143.got.cif
#   From: 2010.05.17/outbox.cif.g08.bks.cpg/sg2_170_cif.got.tgz:338143.got - 2010.06.03 11:33:40.
