data_PCOD9109414
_publ_section_title
;
Structure prediction by ZEFSAII (Michael W. Deem and Ramdas Pophale) SiO2 
 PCOD9109414
Probable space group: P -1
;
_chemical_formula_sum "Si O2"
_cell_formula_units_Z 14
_cell_length_a 9.662809
_cell_length_b 9.279564
_cell_length_c 25.327298
_cell_angle_alpha 137.617368
_cell_angle_beta 156.046090
_cell_angle_gamma 46.372221
_cell_volume 620.598744
_symmetry_space_group_name_H-M "P -1"
_symmetry_group_IT_number 2
_symmetry_cell_setting 'triclinic'
loop_
_space_group_symop_operation_xyz
x,y,z
-x,-y,-z
loop_
_atom_site_type_symbol
_atom_site_label
_atom_site_fract_x
_atom_site_fract_y
_atom_site_fract_z
Si Si1 0.255799 0.062744 0.819893
Si Si2 0.762898 0.344041 0.650281
Si Si3 0.737003 0.301662 0.909271
Si Si4 0.959138 0.928002 0.406360
Si Si5 0.933684 0.739569 0.559133
Si Si6 0.826098 0.326543 0.066595
Si Si7 0.240089 0.208458 0.962460
O O1 0.647722 0.124034 0.973857
O O2 0.069769 0.151296 0.831735
O O3 0.062447 0.196768 0.742710
O O4 0.200397 0.823161 0.717899
O O5 0.424349 0.262003 0.535697
O O6 0.798905 0.277772 0.583946
O O7 0.865950 0.580142 0.767677
O O8 0.906669 0.288400 0.022950
O O9 0.987865 0.239356 0.931877
O O10 0.423103 0.149028 0.756022
O O11 0.612425 0.555004 0.928435
O O12 0.050778 0.118860 0.450251
O O13 0.000000 0.000000 0.500000
O O14 0.000000 0.500000 0.500000
O O15 0.500000 0.500000 0.000000
O O16 0.500000 0.000000 0.000000
#
# Coordination Sequence:
#
# PCOD9109414 Si02
#       7
#     2   2   2   2   2   2   2
#     4  10  19  41  65  87 128 166 219 262 321 402
#     4  10  20  39  68  89 121 175 215 262 329 391
#     4  11  22  42  66  93 130 171 218 266 333 392
#     4  11  23  40  66  93 124 174 225 263 333 399
#     4  11  25  42  61  97 133 173 224 270 326 398
#     4  10  16  38  68  89 114 163 223 264 310 394
#     4  11  25  40  64 100 134 167 214 278 335 385
#
# _framework density 22.558859999999999
#
# number of rings (size 3 to 8) (size 9 to 14) (size 15 to 20)
#    0.000    1.429    7.143    1.714    4.000    2.286 
#    5.143    2.143    0.000    0.000    0.000    0.000 
#    0.000    0.000    0.000    0.000    0.000    0.000 
#
# Total GULP energy -78091.735004 kJ/mol
# GULP energy per Si atom -5577.981072 kJ/mol
# Density = 2.250751 g / cm^3
# Si number density = 22.558860 Si / 1000 Ang^3
#
#
#
# Elastic Constant Matrix: (Units=GPa)
#
#
# Indices 1 2 3 4 5 6 
#
# 1 170.7515 29.5951 89.1806 21.5279 -11.8335 -45.4437
# 2 29.5951 67.7240 41.5149 29.2817 0.1220 -15.1580
# 3 89.1806 41.5149 170.0275 47.9510 5.7783 -16.5277
# 4 21.5279 29.2817 47.9510 28.9239 -9.7706 -9.1220
# 5 -11.8335 0.1220 5.7783 -9.7706 47.2423 11.2598
# 6 -45.4437 -15.1580 -16.5277 -9.1220 11.2598 27.0977
#
#
#
# Elastic Compliance Matrix: (Units=1/GPa)
#
#
# Indices 1 2 3 4 5 6 
#
# 1 0.015890 -0.002162 -0.009856 0.014984 0.002728 0.023337
# 2 -0.002162 0.032922 0.007149 -0.045011 -0.013056 0.009424
# 3 -0.009856 0.007149 0.019934 -0.039519 -0.010921 -0.009138
# 4 0.014984 -0.045011 -0.039519 0.150565 0.037204 0.011073
# 5 0.002728 -0.013056 -0.010921 0.037204 0.033484 -0.010779
# 6 0.023337 0.009424 -0.009138 0.011073 -0.010779 0.083945
#
#
# Mechanical properties :
#
#
# Convention : Reuss Voigt Hill
#
# Bulk Modulus (GPa) = 16.94711 81.00935 48.97823
# Shear Modulus (GPa) = 13.65571 37.20026 25.42798
#
# Velocity S-wave (km/s) = 2.46303 4.06523 3.36100
# Velocity P-wave (km/s) = 3.95188 7.61728 6.06796
#
# Compressibility (1/GPa) = 0.05900712
#
# Stress axis : x y z
#
# Youngs Moduli (GPa) = 62.93282 30.37477 50.16627
#
# Poissons Ratio (x) = 0.06567 0.49446
# Poissons Ratio (y) = 0.13606 -0.35865
# Poissons Ratio (z) = 0.62030 -0.21715
#
# Static dielectric constant tensor:
#      x y z
#    x 1.975910 -0.009530 0.005040 
#    y -0.009530 1.964240 0.043220 
#    z 0.005040 0.043220 1.984030 
# 
# From -- ./inp_files/617070.got.cif
#   From: 2010.05.17/outbox.cif.g08.bks.cpg/sg2_309_cif.got.tgz:617070.got - 2010.06.03 11:33:40.
