data_PCOD9109994
_publ_section_title
;
Structure prediction by ZEFSAII (Michael W. Deem and Ramdas Pophale) SiO2 
 PCOD9109994
Probable space group: P -1
;
_chemical_formula_sum "Si O2"
_cell_formula_units_Z 13
_cell_length_a 9.021881
_cell_length_b 12.309700
_cell_length_c 8.386913
_cell_angle_alpha 144.936192
_cell_angle_beta 68.685656
_cell_angle_gamma 99.828678
_cell_volume 484.295142
_symmetry_space_group_name_H-M "P -1"
_symmetry_group_IT_number 2
_symmetry_cell_setting 'triclinic'
loop_
_space_group_symop_operation_xyz
x,y,z
-x,-y,-z
loop_
_atom_site_type_symbol
_atom_site_label
_atom_site_fract_x
_atom_site_fract_y
_atom_site_fract_z
Si Si1 0.831742 0.074510 0.557629
Si Si2 0.584459 0.834289 0.505212
Si Si3 0.202294 0.512858 0.808598
Si Si4 0.760673 0.925882 0.070777
Si Si5 0.969192 0.389400 0.541026
Si Si6 0.500000 0.500000 0.500000
Si Si7 0.379029 0.412956 0.116457
O O1 0.681459 0.993975 0.596575
O O2 0.835606 0.007581 0.293494
O O3 0.804569 0.304640 0.858049
O O4 0.000000 0.000000 0.500000
O O5 0.710116 0.697542 0.409472
O O6 0.405283 0.933408 0.765346
O O7 0.553014 0.697585 0.206287
O O8 0.023156 0.504939 0.806049
O O9 0.301573 0.542615 0.645258
O O10 0.905814 0.821306 0.771988
O O11 0.685348 0.756041 0.971205
O O12 0.000000 0.500000 0.500000
O O13 0.776684 0.412939 0.650281
O O14 0.491455 0.479897 0.283372
#
# Coordination Sequence:
#
# PCOD9109994 Si02
#       7
#     2   2   2   2   2   1   2
#     4  11  24  41  72 103 135 182 235 279 342 421
#     4  11  25  45  70 100 145 178 228 294 338 412
#     4  12  25  43  73 103 134 184 235 275 352 412
#     4  10  20  42  64  98 141 183 221 284 353 396
#     4  10  20  41  68  97 139 181 219 285 354 403
#     4  12  22  38  70 102 126 180 238 264 334 426
#     4  10  21  40  68  99 136 184 226 282 349 403
#
# _framework density 26.843133999999999
#
# number of rings (size 3 to 8) (size 9 to 14) (size 15 to 20)
#    0.000    1.231    3.077    6.462    0.000    5.538 
#    0.000    0.000    0.000    3.692    0.000    0.000 
#    0.000    0.000    0.000    0.000    0.000    0.000 
#
# Total GULP energy -72614.062252 kJ/mol
# GULP energy per Si atom -5585.697096 kJ/mol
# Density = 2.678204 g / cm^3
# Si number density = 26.843134 Si / 1000 Ang^3
#
#
#
# Elastic Constant Matrix: (Units=GPa)
#
#
# Indices 1 2 3 4 5 6 
#
# 1 179.5704 27.4038 67.8876 4.6403 4.3032 -23.1301
# 2 27.4038 67.5608 16.4763 16.8725 9.9256 1.3859
# 3 67.8876 16.4763 133.4173 6.2623 4.9353 -15.8063
# 4 4.6403 16.8725 6.2623 27.7944 -10.6473 -1.4585
# 5 4.3032 9.9256 4.9353 -10.6473 64.1638 -4.2973
# 6 -23.1301 1.3859 -15.8063 -1.4585 -4.2973 52.1437
#
#
#
# Elastic Compliance Matrix: (Units=1/GPa)
#
#
# Indices 1 2 3 4 5 6 
#
# 1 0.007495 -0.002761 -0.003270 0.001521 0.000596 0.002498
# 2 -0.002761 0.020428 -0.000588 -0.014040 -0.005446 -0.002787
# 3 -0.003270 -0.000588 0.009477 -0.001375 -0.000556 0.001354
# 4 0.001521 -0.014040 -0.001375 0.048710 0.010450 0.002855
# 5 0.000596 -0.005446 -0.000556 0.010450 0.018301 0.002041
# 6 0.002498 -0.002787 0.001354 0.002855 0.002041 0.021018
#
#
# Mechanical properties :
#
#
# Convention : Reuss Voigt Hill
#
# Bulk Modulus (GPa) = 41.38586 67.12043 54.25315
# Shear Modulus (GPa) = 34.07810 46.73911 40.40860
#
# Velocity S-wave (km/s) = 3.56691 4.17729 3.88411
# Velocity P-wave (km/s) = 5.69341 6.95164 6.35375
#
# Compressibility (1/GPa) = 0.02416284
#
# Stress axis : x y z
#
# Youngs Moduli (GPa) = 133.42781 48.95148 105.51614
#
# Poissons Ratio (x) = 0.13516 0.34504
# Poissons Ratio (y) = 0.36841 0.06200
# Poissons Ratio (z) = 0.43631 0.02876
#
# Static dielectric constant tensor:
#      x y z
#    x 2.130730 0.049670 -0.042310 
#    y 0.049670 2.193710 -0.017660 
#    z -0.042310 -0.017660 2.162430 
# 
# From -- ./inp_files/204919.got.cif
#   From: 2010.05.17/outbox.cif.g08.bks.cpg/sg2_103_cif.got.tgz:204919.got - 2010.06.03 11:33:40.
