data_PCOD9109051
_publ_section_title
;
Structure prediction by ZEFSAII (Michael W. Deem and Ramdas Pophale) SiO2 
 PCOD9109051
Probable space group: P -1
;
_chemical_formula_sum "Si O2"
_cell_formula_units_Z 16
_cell_length_a 12.234430
_cell_length_b 8.856123
_cell_length_c 16.093520
_cell_angle_alpha 134.733773
_cell_angle_beta 135.918178
_cell_angle_gamma 35.746485
_cell_volume 676.657551
_symmetry_space_group_name_H-M "P -1"
_symmetry_group_IT_number 2
_symmetry_cell_setting 'triclinic'
loop_
_space_group_symop_operation_xyz
x,y,z
-x,-y,-z
loop_
_atom_site_type_symbol
_atom_site_label
_atom_site_fract_x
_atom_site_fract_y
_atom_site_fract_z
Si Si1 0.132699 0.919020 0.912235
Si Si2 0.092065 0.143526 0.574729
Si Si3 0.708055 0.425749 0.282944
Si Si4 0.770292 0.744612 0.988093
Si Si5 0.731983 0.217043 0.891503
Si Si6 0.641256 0.077180 0.212164
Si Si7 0.692084 0.938585 0.501473
Si Si8 0.749826 0.779669 0.651408
O O1 0.134610 0.757999 0.774154
O O2 0.235227 0.737312 0.979214
O O3 0.908562 0.168911 0.914095
O O4 0.258187 0.012460 0.984183
O O5 0.166890 0.070907 0.492428
O O6 0.930694 0.466268 0.621374
O O7 0.277452 0.039360 0.697275
O O8 0.000000 0.000000 0.500000
O O9 0.490290 0.569133 0.178926
O O10 0.717981 0.246670 0.292373
O O11 0.726784 0.654779 0.404873
O O12 0.598059 0.733950 0.856426
O O13 0.000000 0.500000 0.000000
O O14 0.728798 0.839788 0.098700
O O15 0.773159 0.927589 0.795963
O O16 0.720659 0.952104 0.619863
O O17 0.461111 0.167390 0.438866
#
# Coordination Sequence:
#
# PCOD9109051 Si02
#       8
#     2   2   2   2   2   2   2   2
#     4  10  21  35  58  94 119 163 210 253 320 369
#     4  12  26  42  66  98 134 170 215 272 330 394
#     4  10  20  41  62  88 124 165 206 264 311 375
#     4  10  22  40  62  87 133 176 207 261 321 383
#     4  10  21  36  61  92 122 156 214 264 306 377
#     4  10  24  40  61  96 128 168 219 256 322 392
#     4  10  23  43  70  93 125 169 221 271 325 382
#     4  10  23  43  66  95 125 171 219 269 324 381
#
# _framework density 23.645636
#
# number of rings (size 3 to 8) (size 9 to 14) (size 15 to 20)
#    0.000    1.750    0.000    3.000    5.250    2.500 
#    6.750    1.250    0.000    0.000    0.000    0.000 
#    0.000    0.000    0.000    0.000    0.000    0.000 
#
# Total GULP energy -89546.063319 kJ/mol
# GULP energy per Si atom -5596.628957 kJ/mol
# Density = 2.359182 g / cm^3
# Si number density = 23.645636 Si / 1000 Ang^3
#
#
#
# Elastic Constant Matrix: (Units=GPa)
#
#
# Indices 1 2 3 4 5 6 
#
# 1 96.0611 27.9994 22.7765 1.2572 3.4500 -17.3014
# 2 27.9994 76.1636 7.8571 -14.5615 -4.5359 -11.5407
# 3 22.7765 7.8571 50.0867 -15.9942 1.9334 1.2280
# 4 1.2572 -14.5615 -15.9942 26.6499 -5.8465 3.8399
# 5 3.4500 -4.5359 1.9334 -5.8465 35.8940 -1.7227
# 6 -17.3014 -11.5407 1.2280 3.8399 -1.7227 28.6302
#
#
#
# Elastic Compliance Matrix: (Units=1/GPa)
#
#
# Indices 1 2 3 4 5 6 
#
# 1 0.016864 -0.006291 -0.010915 -0.012936 -0.003472 0.009649
# 2 -0.006291 0.018178 0.004086 0.013507 0.004970 0.001838
# 3 -0.010915 0.004086 0.032077 0.024072 0.003310 -0.009354
# 4 -0.012936 0.013507 0.024072 0.064126 0.011556 -0.011310
# 5 -0.003472 0.004970 0.003310 0.011556 0.030528 0.000050
# 6 0.009649 0.001838 -0.009354 -0.011310 0.000050 0.043421
#
#
# Mechanical properties :
#
#
# Convention : Reuss Voigt Hill
#
# Bulk Modulus (GPa) = 24.46405 37.73080 31.09743
# Shear Modulus (GPa) = 20.40318 29.14672 24.77495
#
# Velocity S-wave (km/s) = 2.94066 3.51472 3.24042
# Velocity P-wave (km/s) = 4.67959 5.69758 5.21349
#
# Compressibility (1/GPa) = 0.04087631
#
# Stress axis : x y z
#
# Youngs Moduli (GPa) = 59.29902 55.01234 31.17544
#
# Poissons Ratio (x) = 0.34610 0.34028
# Poissons Ratio (y) = 0.37307 -0.12737
# Poissons Ratio (z) = 0.64725 -0.22476
#
# Static dielectric constant tensor:
#      x y z
#    x 1.887270 -0.010700 0.015740 
#    y -0.010700 1.876970 0.020870 
#    z 0.015740 0.020870 1.910730 
# 
# From -- ./inp_files/516280.got.cif
#   From: 2010.05.17/outbox.cif.g08.bks.cpg/sg2_259_cif.got.tgz:516280.got - 2010.06.03 11:33:40.
