data_PCOD9109734
_publ_section_title
;
Structure prediction by ZEFSAII (Michael W. Deem and Ramdas Pophale) SiO2 
 PCOD9109734
Probable space group: P -1
;
_chemical_formula_sum "Si O2"
_cell_formula_units_Z 16
_cell_length_a 12.572917
_cell_length_b 18.333717
_cell_length_c 9.318324
_cell_angle_alpha 108.056735
_cell_angle_beta 145.244771
_cell_angle_gamma 46.218023
_cell_volume 687.904054
_symmetry_space_group_name_H-M "P -1"
_symmetry_group_IT_number 2
_symmetry_cell_setting 'triclinic'
loop_
_space_group_symop_operation_xyz
x,y,z
-x,-y,-z
loop_
_atom_site_type_symbol
_atom_site_label
_atom_site_fract_x
_atom_site_fract_y
_atom_site_fract_z
Si Si1 0.023883 0.791391 0.474773
Si Si2 0.673251 0.616949 0.968175
Si Si3 0.786689 0.411772 0.877287
Si Si4 0.388298 0.920705 0.790786
Si Si5 0.031052 0.748056 0.767445
Si Si6 0.615189 0.738915 0.711418
Si Si7 0.455738 0.217690 0.849613
Si Si8 0.852121 0.130033 0.962928
O O1 0.298315 0.722617 0.628616
O O2 0.168742 0.712953 0.737635
O O3 0.814425 0.936258 0.357844
O O4 0.763116 0.817719 0.149226
O O5 0.814002 0.485894 0.030373
O O6 0.749698 0.638205 0.921465
O O7 0.730581 0.653706 0.190785
O O8 0.500000 0.500000 0.500000
O O9 0.759006 0.358785 0.940491
O O10 0.115159 0.299162 0.085988
O O11 0.363639 0.874731 0.599823
O O12 0.338228 0.891906 0.865219
O O13 0.753237 0.779333 0.451618
O O14 0.930258 0.866803 0.778696
O O15 0.419177 0.760402 0.386624
O O16 0.671296 0.179895 0.942397
O O17 0.000000 0.000000 0.000000
#
# Coordination Sequence:
#
# PCOD9109734 Si02
#       8
#     2   2   2   2   2   2   2   2
#     4  10  20  41  67 104 133 176 238 282 352 416
#     4  11  24  42  73  97 141 189 239 294 341 413
#     4  12  26  47  70 101 142 190 242 296 352 408
#     4   9  21  39  70  97 140 181 225 289 348 430
#     4  11  24  46  67 101 140 181 237 288 348 417
#     4  11  24  44  66 102 141 183 234 290 355 419
#     4  10  23  45  66 105 142 181 236 285 347 425
#     4  12  25  43  71 106 146 185 225 289 364 427
#
# _framework density 23.259056999999999
#
# number of rings (size 3 to 8) (size 9 to 14) (size 15 to 20)
#    0.000    1.250    2.500    2.625    1.750    2.500 
#    4.500    0.000    0.000    0.000    0.000    0.000 
#    0.000    0.000    0.000    0.000    0.000    0.000 
#
# Total GULP energy -89423.006554 kJ/mol
# GULP energy per Si atom -5588.937910 kJ/mol
# Density = 2.320612 g / cm^3
# Si number density = 23.259057 Si / 1000 Ang^3
#
#
#
# Elastic Constant Matrix: (Units=GPa)
#
#
# Indices 1 2 3 4 5 6 
#
# 1 92.0889 35.4756 31.3049 14.5659 -26.3250 -1.8864
# 2 35.4756 136.0229 18.5224 19.7437 -17.5412 11.1788
# 3 31.3049 18.5224 76.0527 26.4076 -18.3186 -5.4662
# 4 14.5659 19.7437 26.4076 33.5361 4.3440 5.1126
# 5 -26.3250 -17.5412 -18.3186 4.3440 39.1433 2.4951
# 6 -1.8864 11.1788 -5.4662 5.1126 2.4951 33.9945
#
#
#
# Elastic Compliance Matrix: (Units=1/GPa)
#
#
# Indices 1 2 3 4 5 6 
#
# 1 0.015870 -0.001930 -0.001540 -0.006019 0.009662 0.001464
# 2 -0.001930 0.009282 0.001521 -0.006038 0.004392 -0.002329
# 3 -0.001540 0.001521 0.024827 -0.022392 0.013380 0.005792
# 4 -0.006019 -0.006038 -0.022392 0.057979 -0.023095 -0.008974
# 5 0.009662 0.004392 0.013380 -0.023095 0.042737 0.001580
# 6 0.001464 -0.002329 0.005792 -0.008974 0.001580 0.032429
#
#
# Mechanical properties :
#
#
# Convention : Reuss Voigt Hill
#
# Bulk Modulus (GPa) = 21.70144 52.75223 37.22684
# Shear Modulus (GPa) = 24.70569 35.92557 30.31563
#
# Velocity S-wave (km/s) = 3.26267 3.93438 3.61417
# Velocity P-wave (km/s) = 4.85221 6.58549 5.78414
#
# Compressibility (1/GPa) = 0.04607989
#
# Stress axis : x y z
#
# Youngs Moduli (GPa) = 63.01147 107.73401 40.27948
#
# Poissons Ratio (x) = 0.20792 0.06203
# Poissons Ratio (y) = 0.12161 -0.06125
# Poissons Ratio (z) = 0.09704 -0.16382
#
# Static dielectric constant tensor:
#      x y z
#    x 1.858480 0.029650 -0.023680 
#    y 0.029650 1.892520 0.002730 
#    z -0.023680 0.002730 1.911560 
# 
# From -- ./inp_files/279575.got.cif
#   From: 2010.05.17/outbox.cif.g08.bks.cpg/sg2_140_cif.got.tgz:279575.got - 2010.06.03 11:33:40.
