data_PCOD9109101
_publ_section_title
;
Structure prediction by ZEFSAII (Michael W. Deem and Ramdas Pophale) SiO2 
 PCOD9109101
Probable space group: P -1
;
_chemical_formula_sum "Si O2"
_cell_formula_units_Z 16
_cell_length_a 8.342225
_cell_length_b 6.627648
_cell_length_c 15.427617
_cell_angle_alpha 58.271530
_cell_angle_beta 76.162606
_cell_angle_gamma 85.968820
_cell_volume 702.857790
_symmetry_space_group_name_H-M "P -1"
_symmetry_group_IT_number 2
_symmetry_cell_setting 'triclinic'
loop_
_space_group_symop_operation_xyz
x,y,z
-x,-y,-z
loop_
_atom_site_type_symbol
_atom_site_label
_atom_site_fract_x
_atom_site_fract_y
_atom_site_fract_z
Si Si1 0.711485 0.183214 0.396817
Si Si2 0.336461 0.289554 0.737660
Si Si3 0.058620 0.047549 0.384342
Si Si4 0.252476 0.489472 0.207784
Si Si5 0.976943 0.173088 0.733738
Si Si6 0.478889 0.780358 0.427526
Si Si7 0.131196 0.354752 0.067256
Si Si8 0.589129 0.772042 0.072947
O O1 0.635130 0.425013 0.322316
O O2 0.685887 0.176899 0.506333
O O3 0.900259 0.192497 0.340809
O O4 0.616129 0.950624 0.421266
O O5 0.484463 0.184236 0.686910
O O6 0.317717 0.175647 0.860069
O O7 0.166397 0.252029 0.714017
O O8 0.217859 0.225873 0.310123
O O9 0.056037 0.835261 0.363465
O O10 0.000000 0.000000 0.500000
O O11 0.148160 0.660360 0.241182
O O12 0.186122 0.486872 0.118743
O O13 0.442436 0.577786 0.159168
O O14 0.940387 0.907713 0.835786
O O15 0.500000 0.500000 0.500000
O O16 0.287602 0.318597 0.993684
O O17 0.000000 0.500000 0.000000
O O18 0.500000 0.000000 0.000000
#
# Coordination Sequence:
#
# PCOD9109101 Si02
#       8
#     2   2   2   2   2   2   2   2
#     4  10  20  41  62  99 136 181 241 284 348 427
#     4  11  23  41  70  97 137 186 237 292 347 432
#     4  11  25  42  69 104 142 187 232 296 359 422
#     4  11  25  48  68 100 147 183 240 290 363 428
#     4  11  23  45  71 104 138 187 245 285 351 440
#     4   9  20  37  65  95 133 177 232 293 343 409
#     4  11  26  46  76 103 136 192 241 294 355 431
#     4  12  27  47  70 108 147 185 233 304 370 411
#
# _framework density 22.764205
#
# number of rings (size 3 to 8) (size 9 to 14) (size 15 to 20)
#    0.000    1.250    3.750    1.125    3.500    5.500 
#    2.250    0.000    0.000    0.000    0.000    0.000 
#    0.000    0.000    0.000    0.000    0.000    0.000 
#
# Total GULP energy -89461.798904 kJ/mol
# GULP energy per Si atom -5591.362431 kJ/mol
# Density = 2.271239 g / cm^3
# Si number density = 22.764205 Si / 1000 Ang^3
#
#
#
# Elastic Constant Matrix: (Units=GPa)
#
#
# Indices 1 2 3 4 5 6 
#
# 1 75.4563 41.3718 40.7018 6.5045 -22.2020 -6.0742
# 2 41.3718 136.0211 58.0943 28.1216 -3.8285 -2.9301
# 3 40.7018 58.0943 134.5130 34.8612 -4.2069 -1.8961
# 4 6.5045 28.1216 34.8612 51.9757 -0.1150 -17.9507
# 5 -22.2020 -3.8285 -4.2069 -0.1150 45.5801 4.4297
# 6 -6.0742 -2.9301 -1.8961 -17.9507 4.4297 41.8059
#
#
#
# Elastic Compliance Matrix: (Units=1/GPa)
#
#
# Indices 1 2 3 4 5 6 
#
# 1 0.021339 -0.004902 -0.005234 0.004753 0.009163 0.003589
# 2 -0.004902 0.010517 -0.002005 -0.004347 -0.001528 -0.001771
# 3 -0.005234 -0.002005 0.011673 -0.007247 -0.001334 -0.003342
# 4 0.004753 -0.004347 -0.007247 0.030379 0.000085 0.013092
# 5 0.009163 -0.001528 -0.001334 0.000085 0.026305 -0.001587
# 6 0.003589 -0.001771 -0.003342 0.013092 -0.001587 0.029956
#
#
# Mechanical properties :
#
#
# Convention : Reuss Voigt Hill
#
# Bulk Modulus (GPa) = 51.95817 69.59181 60.77499
# Shear Modulus (GPa) = 31.08142 41.59382 36.33762
#
# Velocity S-wave (km/s) = 3.69909 4.27917 3.99966
# Velocity P-wave (km/s) = 6.41237 7.41971 6.93435
#
# Compressibility (1/GPa) = 0.01924625
#
# Stress axis : x y z
#
# Youngs Moduli (GPa) = 46.86215 95.08742 85.66613
#
# Poissons Ratio (x) = 0.46614 0.44840
# Poissons Ratio (y) = 0.22973 0.17175
# Poissons Ratio (z) = 0.24529 0.19064
#
# Static dielectric constant tensor:
#      x y z
#    x 1.859430 0.016890 0.030080 
#    y 0.016890 1.842900 0.018570 
#    z 0.030080 0.018570 1.871860 
# 
# From -- ./inp_files/97744.got.cif
#   From: 2010.05.17/outbox.cif.g08.bks.cpg/sg2_49_cif.got.tgz:97744.got - 2010.06.03 11:33:40.
