data_PCOD9109261
_publ_section_title
;
Structure prediction by ZEFSAII (Michael W. Deem and Ramdas Pophale) SiO2 
 PCOD9109261
Probable space group: P -1
;
_chemical_formula_sum "Si O2"
_cell_formula_units_Z 16
_cell_length_a 9.223868
_cell_length_b 24.977707
_cell_length_c 12.257866
_cell_angle_alpha 33.701787
_cell_angle_beta 121.747314
_cell_angle_gamma 144.016835
_cell_volume 821.756808
_symmetry_space_group_name_H-M "P -1"
_symmetry_group_IT_number 2
_symmetry_cell_setting 'triclinic'
loop_
_space_group_symop_operation_xyz
x,y,z
-x,-y,-z
loop_
_atom_site_type_symbol
_atom_site_label
_atom_site_fract_x
_atom_site_fract_y
_atom_site_fract_z
Si Si1 0.671728 0.207657 0.727251
Si Si2 0.055804 0.540692 0.227676
Si Si3 0.161040 0.069445 0.332974
Si Si4 0.569883 0.136312 0.047388
Si Si5 0.217670 0.912080 0.480846
Si Si6 0.816486 0.086494 0.098135
Si Si7 0.272508 0.454594 0.055830
Si Si8 0.286445 0.596174 0.005539
O O1 0.879419 0.387750 0.488103
O O2 0.510433 0.143641 0.887557
O O3 0.454522 0.096339 0.732535
O O4 0.833570 0.178186 0.858271
O O5 0.254274 0.702149 0.097613
O O6 0.226380 0.557671 0.174743
O O7 0.844291 0.513417 0.122612
O O8 0.068331 0.126358 0.139771
O O9 0.101728 0.950214 0.439399
O O10 0.487336 0.219609 0.227851
O O11 0.000000 0.000000 0.500000
O O12 0.753272 0.120871 0.123896
O O13 0.312929 0.991882 0.264687
O O14 0.986519 0.727307 0.705360
O O15 0.500000 0.000000 0.500000
O O16 0.388425 0.552428 0.047446
O O17 0.500000 0.500000 0.000000
O O18 0.000000 0.500000 0.000000
#
# Coordination Sequence:
#
# PCOD9109261 Si02
#       8
#     2   2   2   2   2   2   2   2
#     4   9  22  41  68  89 125 175 216 254 321 374
#     4  11  21  40  66  87 128 170 214 253 315 392
#     4  12  24  39  66  96 127 163 210 267 320 371
#     4  10  20  41  64  91 120 171 219 248 317 379
#     4  12  22  40  64  94 128 163 206 264 317 384
#     4   9  23  40  64  93 124 165 222 255 313 376
#     4  11  25  37  59  98 131 161 204 264 326 372
#     4  10  23  40  58  94 128 163 207 251 325 381
#
# _framework density 19.470479999999998
#
# number of rings (size 3 to 8) (size 9 to 14) (size 15 to 20)
#    0.750    0.750    2.500    2.625    8.750    0.000 
#    0.000    1.250    2.750    0.000    0.000    0.000 
#    0.000    0.000    0.000    0.000    0.000    0.000 
#
# Total GULP energy -89224.951489 kJ/mol
# GULP energy per Si atom -5576.559468 kJ/mol
# Density = 1.942616 g / cm^3
# Si number density = 19.470480 Si / 1000 Ang^3
#
#
#
# Elastic Constant Matrix: (Units=GPa)
#
#
# Indices 1 2 3 4 5 6 
#
# 1 92.6087 10.9143 7.8206 13.3147 -0.9186 -19.3012
# 2 10.9143 47.3041 6.8493 0.0583 5.7133 -10.5707
# 3 7.8206 6.8493 103.8829 6.2117 -7.2527 -1.0008
# 4 13.3147 0.0583 6.2117 14.3576 -9.1375 -4.7785
# 5 -0.9186 5.7133 -7.2527 -9.1375 29.3858 0.7786
# 6 -19.3012 -10.5707 -1.0008 -4.7785 0.7786 32.4535
#
#
#
# Elastic Compliance Matrix: (Units=1/GPa)
#
#
# Indices 1 2 3 4 5 6 
#
# 1 0.014127 -0.001389 -0.000377 -0.013239 -0.003659 0.006076
# 2 -0.001389 0.023933 -0.001823 0.001225 -0.004957 0.007213
# 3 -0.000377 -0.001823 0.010085 -0.003147 0.001880 -0.001016
# 4 -0.013239 0.001225 -0.003147 0.105541 0.031198 0.007220
# 5 -0.003659 -0.004957 0.001880 0.031198 0.045050 -0.000220
# 6 0.006076 0.007213 -0.001016 0.007220 -0.000220 0.037814
#
#
# Mechanical properties :
#
#
# Convention : Reuss Voigt Hill
#
# Bulk Modulus (GPa) = 24.41042 32.77381 28.59212
# Shear Modulus (GPa) = 19.42623 29.78678 24.60651
#
# Velocity S-wave (km/s) = 3.16211 3.91556 3.55883
# Velocity P-wave (km/s) = 5.08884 6.10830 5.62172
#
# Compressibility (1/GPa) = 0.04096611
#
# Stress axis : x y z
#
# Youngs Moduli (GPa) = 70.78566 41.78303 99.16207
#
# Poissons Ratio (x) = 0.05803 0.03741
# Poissons Ratio (y) = 0.09830 0.18080
# Poissons Ratio (z) = 0.02671 0.07618
#
# Static dielectric constant tensor:
#      x y z
#    x -0.329150 1.280040 -2.197340 
#    y 1.280040 0.886900 1.403670 
#    z -2.197340 1.403670 -0.684870 
# 
# From -- ./inp_files/406614.got.cif
#   From: 2010.05.17/outbox.cif.g08.bks.cpg/sg2_204_cif.got.tgz:406614.got - 2010.06.03 11:33:40.
