data_PCOD9109013
_publ_section_title
;
Structure prediction by ZEFSAII (Michael W. Deem and Ramdas Pophale) SiO2 
 PCOD9109013
Probable space group: P -1
;
_chemical_formula_sum "Si O2"
_cell_formula_units_Z 14
_cell_length_a 12.258416
_cell_length_b 7.369791
_cell_length_c 9.297812
_cell_angle_alpha 105.806391
_cell_angle_beta 123.000793
_cell_angle_gamma 98.675130
_cell_volume 629.514625
_symmetry_space_group_name_H-M "P -1"
_symmetry_group_IT_number 2
_symmetry_cell_setting 'triclinic'
loop_
_space_group_symop_operation_xyz
x,y,z
-x,-y,-z
loop_
_atom_site_type_symbol
_atom_site_label
_atom_site_fract_x
_atom_site_fract_y
_atom_site_fract_z
Si Si1 0.649442 0.280018 0.569006
Si Si2 0.167584 0.187203 0.492068
Si Si3 0.669322 0.901125 0.677519
Si Si4 0.838271 0.217706 0.446010
Si Si5 0.914083 0.984203 0.081652
Si Si6 0.155577 0.538037 0.748364
Si Si7 0.134361 0.459334 0.025027
O O1 0.488321 0.244629 0.432458
O O2 0.723302 0.254129 0.471385
O O3 0.663094 0.107126 0.648282
O O4 0.748972 0.488714 0.757175
O O5 0.266543 0.187493 0.428006
O O6 0.209816 0.387177 0.663270
O O7 0.155399 0.995810 0.544816
O O8 0.017603 0.149124 0.299499
O O9 0.765101 0.957677 0.901250
O O10 0.801655 0.255062 0.265623
O O11 0.988389 0.402414 0.613592
O O12 0.907166 0.772913 0.098309
O O13 0.000000 0.000000 0.000000
O O14 0.198362 0.579889 0.952822
O O15 0.000000 0.500000 0.000000
#
# Coordination Sequence:
#
# PCOD9109013 Si02
#       7
#     2   2   2   2   2   2   2
#     4  10  21  41  64  87 125 158 213 250 302 374
#     4  10  20  41  61  92 127 156 209 255 304 376
#     4   9  21  40  65  89 118 169 201 254 312 358
#     4  10  21  37  62  90 120 164 200 254 309 361
#     4  10  21  35  60  93 118 156 203 256 307 352
#     4  11  23  36  61  94 125 163 198 256 320 353
#     4  12  22  39  59  94 122 157 208 258 299 370
#
# _framework density 22.239356000000001
#
# number of rings (size 3 to 8) (size 9 to 14) (size 15 to 20)
#    0.000    1.714    2.857    2.143    4.000    2.857 
#    0.000    0.714    0.000    3.429    0.000    0.000 
#    0.000    0.000    0.000    0.000    0.000    0.000 
#
# Total GULP energy -78197.289212 kJ/mol
# GULP energy per Si atom -5585.520658 kJ/mol
# Density = 2.218874 g / cm^3
# Si number density = 22.239356 Si / 1000 Ang^3
#
#
#
# Elastic Constant Matrix: (Units=GPa)
#
#
# Indices 1 2 3 4 5 6 
#
# 1 109.0026 27.4071 49.4365 -0.4682 -1.4369 -4.4612
# 2 27.4071 81.1454 25.4005 -28.7929 -10.8330 5.5162
# 3 49.4365 25.4005 91.9937 -17.1788 -6.9645 -6.2500
# 4 -0.4682 -28.7929 -17.1788 40.4262 3.1678 -7.8836
# 5 -1.4369 -10.8330 -6.9645 3.1678 36.9651 0.5111
# 6 -4.4612 5.5162 -6.2500 -7.8836 0.5111 23.6566
#
#
#
# Elastic Compliance Matrix: (Units=1/GPa)
#
#
# Indices 1 2 3 4 5 6 
#
# 1 0.013629 -0.004733 -0.007336 -0.006259 -0.001699 -0.000313
# 2 -0.004733 0.019233 -0.000080 0.013047 0.004335 -0.001144
# 3 -0.007336 -0.000080 0.016871 0.007975 0.002108 0.005705
# 4 -0.006259 0.013047 0.007975 0.039362 0.001558 0.010968
# 5 -0.001699 0.004335 0.002108 0.001558 0.028533 -0.000872
# 6 -0.000313 -0.001144 0.005705 0.010968 -0.000872 0.047660
#
#
# Mechanical properties :
#
#
# Convention : Reuss Voigt Hill
#
# Bulk Modulus (GPa) = 39.31602 54.06999 46.69300
# Shear Modulus (GPa) = 25.24418 32.20274 28.72346
#
# Velocity S-wave (km/s) = 3.37280 3.80940 3.59773
# Velocity P-wave (km/s) = 5.73451 6.61167 6.18865
#
# Compressibility (1/GPa) = 0.02543492
#
# Stress axis : x y z
#
# Youngs Moduli (GPa) = 73.37185 51.99314 59.27338
#
# Poissons Ratio (x) = 0.24610 0.43483
# Poissons Ratio (y) = 0.34729 0.00475
# Poissons Ratio (z) = 0.53825 0.00416
#
# Static dielectric constant tensor:
#      x y z
#    x 1.811320 -0.034740 -0.011530 
#    y -0.034740 1.801450 -0.007620 
#    z -0.011530 -0.007620 1.845220 
# 
# From -- ./inp_files/245134.got.cif
#   From: 2010.05.17/outbox.cif.g08.bks.cpg/sg2_123_cif.got.tgz:245134.got - 2010.06.03 11:33:40.
