data_PCOD9109611
_publ_section_title
;
Structure prediction by ZEFSAII (Michael W. Deem and Ramdas Pophale) SiO2 
 PCOD9109611
Probable space group: P -1
;
_chemical_formula_sum "Si O2"
_cell_formula_units_Z 12
_cell_length_a 9.160501
_cell_length_b 12.797598
_cell_length_c 12.822307
_cell_angle_alpha 144.542333
_cell_angle_beta 33.273560
_cell_angle_gamma 132.652697
_cell_volume 478.384645
_symmetry_space_group_name_H-M "P -1"
_symmetry_group_IT_number 2
_symmetry_cell_setting 'triclinic'
loop_
_space_group_symop_operation_xyz
x,y,z
-x,-y,-z
loop_
_atom_site_type_symbol
_atom_site_label
_atom_site_fract_x
_atom_site_fract_y
_atom_site_fract_z
Si Si1 0.291116 0.652527 0.215932
Si Si2 0.262877 0.508662 0.564744
Si Si3 0.381189 0.644581 0.933586
Si Si4 0.839706 0.762709 0.259625
Si Si5 0.649527 0.090855 0.230273
Si Si6 0.109767 0.965227 0.732747
O O1 0.219879 0.794623 0.463615
O O2 0.008641 0.562768 0.284831
O O3 0.500000 0.500000 0.000000
O O4 0.404871 0.729060 0.102173
O O5 0.500000 0.500000 0.500000
O O6 0.355675 0.381150 0.311441
O O7 0.232633 0.709437 0.701864
O O8 0.284388 0.436045 0.833794
O O9 0.146124 0.744891 0.094177
O O10 0.664823 0.868577 0.537358
O O11 0.824909 0.867009 0.244332
O O12 0.746392 0.031389 0.238714
O O13 0.796523 0.976045 0.959588
#
# Coordination Sequence:
#
# PCOD9109611 Si02
#       6
#     2   2   2   2   2   2
#     4  12  26  42  64  98 133 168 214 272 329 379
#     4  11  23  44  70  93 127 175 222 263 315 389
#     4  10  22  40  67  93 124 171 218 261 317 387
#     4  10  20  41  66  92 125 171 218 261 318 390
#     4  10  22  40  64  93 129 175 219 260 322 390
#     4  11  24  38  61  95 132 170 214 271 325 381
#
# _framework density 25.084420999999999
#
# number of rings (size 3 to 8) (size 9 to 14) (size 15 to 20)
#    0.000    1.333    0.000    7.500    0.000    7.333 
#    0.000    5.833    0.000    0.000    0.000    0.000 
#    0.000    0.000    0.000    0.000    0.000    0.000 
#
# Total GULP energy -67237.736894 kJ/mol
# GULP energy per Si atom -5603.144741 kJ/mol
# Density = 2.502733 g / cm^3
# Si number density = 25.084421 Si / 1000 Ang^3
#
#
#
# Elastic Constant Matrix: (Units=GPa)
#
#
# Indices 1 2 3 4 5 6 
#
# 1 70.4489 28.3491 39.2867 13.2932 3.9704 -12.3507
# 2 28.3491 81.4382 45.6454 -3.8586 -2.4381 -19.2119
# 3 39.2867 45.6454 246.6659 -21.6950 17.4299 -2.5151
# 4 13.2932 -3.8586 -21.6950 57.9464 -3.0186 -1.4242
# 5 3.9704 -2.4381 17.4299 -3.0186 47.8381 0.0428
# 6 -12.3507 -19.2119 -2.5151 -1.4242 0.0428 31.2329
#
#
#
# Elastic Compliance Matrix: (Units=1/GPa)
#
#
# Indices 1 2 3 4 5 6 
#
# 1 0.019402 -0.004558 -0.002614 -0.005690 -0.001253 0.004400
# 2 -0.004558 0.017449 -0.002428 0.001632 0.002248 0.008807
# 3 -0.002614 -0.002428 0.005215 0.002255 -0.001663 -0.002002
# 4 -0.005690 0.001632 0.002255 0.019562 0.000968 -0.000174
# 5 -0.001253 0.002248 -0.001663 0.000968 0.021789 0.000767
# 6 0.004400 0.008807 -0.002002 -0.000174 0.000767 0.039005
#
#
# Mechanical properties :
#
#
# Convention : Reuss Voigt Hill
#
# Bulk Modulus (GPa) = 43.73309 69.45726 56.59517
# Shear Modulus (GPa) = 33.50210 46.42160 39.96185
#
# Velocity S-wave (km/s) = 3.65852 4.30654 3.99569
# Velocity P-wave (km/s) = 5.94294 7.24417 6.62557
#
# Compressibility (1/GPa) = 0.02286598
#
# Stress axis : x y z
#
# Youngs Moduli (GPa) = 51.54030 57.30896 191.74921
#
# Poissons Ratio (x) = 0.26122 0.50119
# Poissons Ratio (y) = 0.23492 0.46566
# Poissons Ratio (z) = 0.13472 0.13917
#
# Static dielectric constant tensor:
#      x y z
#    x 1.965790 0.055570 0.025780 
#    y 0.055570 1.988390 0.017020 
#    z 0.025780 0.017020 2.002030 
# 
# From -- ./inp_files/382490.got.cif
#   From: 2010.05.17/outbox.cif.g08.bks.cpg/sg2_192_cif.got.tgz:382490.got - 2010.06.03 11:33:40.
