data_PCOD9109486
_publ_section_title
;
Structure prediction by ZEFSAII (Michael W. Deem and Ramdas Pophale) SiO2 
 PCOD9109486
Probable space group: P -1
;
_chemical_formula_sum "Si O2"
_cell_formula_units_Z 14
_cell_length_a 11.243004
_cell_length_b 12.380745
_cell_length_c 8.979938
_cell_angle_alpha 38.914462
_cell_angle_beta 120.656950
_cell_angle_gamma 129.041760
_cell_volume 609.341613
_symmetry_space_group_name_H-M "P -1"
_symmetry_group_IT_number 2
_symmetry_cell_setting 'triclinic'
loop_
_space_group_symop_operation_xyz
x,y,z
-x,-y,-z
loop_
_atom_site_type_symbol
_atom_site_label
_atom_site_fract_x
_atom_site_fract_y
_atom_site_fract_z
Si Si1 0.731506 0.949115 0.931774
Si Si2 0.457836 0.488965 0.658186
Si Si3 0.335645 0.928375 0.548075
Si Si4 0.069047 0.609856 0.647351
Si Si5 0.778962 0.324664 0.655251
Si Si6 0.250682 0.174297 0.426232
Si Si7 0.963017 0.937645 0.307891
O O1 0.742784 0.001465 0.709934
O O2 0.686543 0.097024 0.834616
O O3 0.616778 0.730597 0.108300
O O4 0.894056 0.987308 0.064949
O O5 0.500000 0.500000 0.500000
O O6 0.332523 0.573269 0.509014
O O7 0.611697 0.616452 0.710864
O O8 0.328373 0.036231 0.575303
O O9 0.500000 0.000000 0.500000
O O10 0.229000 0.702707 0.741923
O O11 0.139107 0.628049 0.505986
O O12 0.921715 0.406205 0.774600
O O13 0.994242 0.753060 0.493434
O O14 0.174087 0.128538 0.587799
O O15 0.106182 0.112284 0.288292
#
# Coordination Sequence:
#
# PCOD9109486 Si02
#       7
#     2   2   2   2   2   2   2
#     4  11  23  41  68  97 125 173 223 253 320 396
#     4  12  23  43  66  95 132 167 216 271 320 382
#     4  10  22  41  62  96 134 166 214 271 317 378
#     4   9  18  38  62  86 130 165 201 267 310 371
#     4  10  21  37  62  97 123 165 215 261 315 370
#     4  10  21  38  66  89 133 172 201 274 324 362
#     4  10  20  41  65  95 124 172 218 254 324 382
#
# _framework density 22.975618000000001
#
# number of rings (size 3 to 8) (size 9 to 14) (size 15 to 20)
#    0.000    1.714    2.857    1.714    0.000    6.286 
#    5.143    0.000    0.000    3.429    0.000    0.000 
#    0.000    0.000    0.000    0.000    0.000    0.000 
#
# Total GULP energy -78036.849708 kJ/mol
# GULP energy per Si atom -5574.060693 kJ/mol
# Density = 2.292332 g / cm^3
# Si number density = 22.975618 Si / 1000 Ang^3
#
#
#
# Elastic Constant Matrix: (Units=GPa)
#
#
# Indices 1 2 3 4 5 6 
#
# 1 161.5926 55.9929 22.4313 -14.3653 0.7628 -16.1282
# 2 55.9929 154.3856 31.9598 -40.7454 3.6401 17.9187
# 3 22.4313 31.9598 30.2535 -16.3247 0.1683 2.0521
# 4 -14.3653 -40.7454 -16.3247 46.4932 -1.8916 -1.4490
# 5 0.7628 3.6401 0.1683 -1.8916 15.6732 1.2622
# 6 -16.1282 17.9187 2.0521 -1.4490 1.2622 46.0955
#
#
#
# Elastic Compliance Matrix: (Units=1/GPa)
#
#
# Indices 1 2 3 4 5 6 
#
# 1 0.008030 -0.002936 -0.003840 -0.001319 -0.000156 0.004085
# 2 -0.002936 0.011026 -0.005576 0.006600 -0.001173 -0.004826
# 3 -0.003840 -0.005576 0.047630 0.010714 0.002346 -0.001024
# 4 -0.001319 0.006600 0.010714 0.030660 0.002326 -0.002604
# 5 -0.000156 -0.001173 0.002346 0.002326 0.064451 -0.001395
# 6 0.004085 -0.004826 -0.001024 -0.002604 -0.001395 0.025001
#
#
# Mechanical properties :
#
#
# Convention : Reuss Voigt Hill
#
# Bulk Modulus (GPa) = 23.82030 62.99996 43.41013
# Shear Modulus (GPa) = 22.17339 37.37557 29.77448
#
# Velocity S-wave (km/s) = 3.10995 4.03767 3.60379
# Velocity P-wave (km/s) = 4.82554 7.01548 6.02091
#
# Compressibility (1/GPa) = 0.04198099
#
# Stress axis : x y z
#
# Youngs Moduli (GPa) = 124.53408 90.69540 20.99539
#
# Poissons Ratio (x) = 0.26627 0.08063
# Poissons Ratio (y) = 0.36562 0.11707
# Poissons Ratio (z) = 0.47825 0.50571
#
# Static dielectric constant tensor:
#      x y z
#    x 1.937490 0.076160 0.032640 
#    y 0.076160 1.970270 -0.019310 
#    z 0.032640 -0.019310 1.889520 
# 
# From -- ./inp_files/261321.got.cif
#   From: 2010.05.17/outbox.cif.g08.bks.cpg/sg2_131_cif.got.tgz:261321.got - 2010.06.03 11:33:40.
