data_PCOD9109694
_publ_section_title
;
Structure prediction by ZEFSAII (Michael W. Deem and Ramdas Pophale) SiO2 
 PCOD9109694
Probable space group: P -1
;
_chemical_formula_sum "Si O2"
_cell_formula_units_Z 12
_cell_length_a 10.000142
_cell_length_b 13.812868
_cell_length_c 7.789776
_cell_angle_alpha 114.852925
_cell_angle_beta 58.549457
_cell_angle_gamma 151.179902
_cell_volume 440.719412
_symmetry_space_group_name_H-M "P -1"
_symmetry_group_IT_number 2
_symmetry_cell_setting 'triclinic'
loop_
_space_group_symop_operation_xyz
x,y,z
-x,-y,-z
loop_
_atom_site_type_symbol
_atom_site_label
_atom_site_fract_x
_atom_site_fract_y
_atom_site_fract_z
Si Si1 0.809010 0.343319 0.318705
Si Si2 0.096696 0.741073 0.121464
Si Si3 0.382953 0.327339 0.292687
Si Si4 0.111483 0.957607 0.046819
Si Si5 0.469515 0.365042 0.644051
Si Si6 0.640443 0.196594 0.670118
O O1 0.774016 0.274885 0.103925
O O2 0.626734 0.344691 0.484995
O O3 0.713244 0.207862 0.434019
O O4 0.150266 0.576722 0.277646
O O5 0.231432 0.804798 0.266964
O O6 0.740939 0.520141 0.195056
O O7 0.163788 0.890603 0.094511
O O8 0.231969 0.139288 0.169876
O O9 0.294635 0.281437 0.518083
O O10 0.328187 0.412714 0.312841
O O11 0.305301 0.036807 0.812744
O O12 0.756787 0.764282 0.143031
#
# Coordination Sequence:
#
# PCOD9109694 Si02
#       6
#     2   2   2   2   2   2
#     4  11  23  43  70  98 133 176 222 273 332 394
#     4  11  22  43  73  96 134 176 216 281 332 386
#     4  10  20  41  66  97 136 173 223 270 330 403
#     4  11  23  40  68 100 130 177 224 268 337 397
#     4  10  22  39  66  96 135 177 216 277 332 386
#     4  11  23  41  70  99 132 174 226 268 333 398
#
# _framework density 27.228207999999999
#
# number of rings (size 3 to 8) (size 9 to 14) (size 15 to 20)
#    0.000    1.333    3.333    2.500    0.000    1.333 
#    3.000    0.833    0.000    0.000    0.000    0.000 
#    0.000    0.000    0.000    0.000    0.000    0.000 
#
# Total GULP energy -67263.999489 kJ/mol
# GULP energy per Si atom -5605.333291 kJ/mol
# Density = 2.716623 g / cm^3
# Si number density = 27.228208 Si / 1000 Ang^3
#
#
#
# Elastic Constant Matrix: (Units=GPa)
#
#
# Indices 1 2 3 4 5 6 
#
# 1 122.8201 34.5810 43.8203 -3.4232 -5.4701 -32.2580
# 2 34.5810 104.2858 52.1916 -1.9548 -9.9621 -19.1480
# 3 43.8203 52.1916 149.6822 -19.3362 -16.1309 -8.0369
# 4 -3.4232 -1.9548 -19.3362 61.6756 -4.0246 -9.6473
# 5 -5.4701 -9.9621 -16.1309 -4.0246 52.0503 -1.2427
# 6 -32.2580 -19.1480 -8.0369 -9.6473 -1.2427 41.2972
#
#
#
# Elastic Compliance Matrix: (Units=1/GPa)
#
#
# Indices 1 2 3 4 5 6 
#
# 1 0.011528 -0.001034 -0.002345 0.001219 0.000581 0.008372
# 2 -0.001034 0.012749 -0.003780 -0.000070 0.001259 0.004390
# 3 -0.002345 -0.003780 0.009179 0.002584 0.002048 -0.001133
# 4 0.001219 -0.000070 0.002584 0.018147 0.002456 0.005736
# 5 0.000581 0.001259 0.002048 0.002456 0.020401 0.002624
# 6 0.008372 0.004390 -0.001133 0.005736 0.002624 0.033988
#
#
# Mechanical properties :
#
#
# Convention : Reuss Voigt Hill
#
# Bulk Modulus (GPa) = 52.25107 70.88600 61.56853
# Shear Modulus (GPa) = 39.46662 47.41762 43.44212
#
# Velocity S-wave (km/s) = 3.81133 4.17764 3.99868
# Velocity P-wave (km/s) = 6.21289 7.02572 6.63177
#
# Compressibility (1/GPa) = 0.01913836
#
# Stress axis : x y z
#
# Youngs Moduli (GPa) = 86.74305 78.43971 108.94357
#
# Poissons Ratio (x) = 0.08109 0.25546
# Poissons Ratio (y) = 0.08967 0.41183
# Poissons Ratio (z) = 0.20340 0.29652
#
# Static dielectric constant tensor:
#      x y z
#    x 2.214290 -0.030500 -0.008660 
#    y -0.030500 2.119180 -0.049730 
#    z -0.008660 -0.049730 2.080370 
# 
# From -- ./inp_files/273997.got.cif
#   From: 2010.05.17/outbox.cif.g08.bks.cpg/sg2_137_cif.got.tgz:273997.got - 2010.06.03 11:33:40.
