data_PCOD9109920
_publ_section_title
;
Structure prediction by ZEFSAII (Michael W. Deem and Ramdas Pophale) SiO2 
 PCOD9109920
Probable space group: P -1
;
_chemical_formula_sum "Si O2"
_cell_formula_units_Z 16
_cell_length_a 7.541052
_cell_length_b 16.807038
_cell_length_c 8.528926
_cell_angle_alpha 52.799661
_cell_angle_beta 113.400695
_cell_angle_gamma 121.676058
_cell_volume 727.682965
_symmetry_space_group_name_H-M "P -1"
_symmetry_group_IT_number 2
_symmetry_cell_setting 'triclinic'
loop_
_space_group_symop_operation_xyz
x,y,z
-x,-y,-z
loop_
_atom_site_type_symbol
_atom_site_label
_atom_site_fract_x
_atom_site_fract_y
_atom_site_fract_z
Si Si1 0.283357 0.162540 0.396299
Si Si2 0.044954 0.406456 0.225886
Si Si3 0.783902 0.477876 0.537000
Si Si4 0.584232 0.084620 0.785207
Si Si5 0.541722 0.589644 0.776320
Si Si6 0.395854 0.082351 0.217198
Si Si7 0.134068 0.811717 0.697291
Si Si8 0.680195 0.243561 0.887216
O O1 0.390826 0.099662 0.614807
O O2 0.439157 0.291151 0.304578
O O3 0.276528 0.116486 0.271970
O O4 0.058441 0.150000 0.406340
O O5 0.141136 0.438600 0.393399
O O6 0.225061 0.386562 0.221107
O O7 0.869154 0.284722 0.305127
O O8 0.000000 0.500000 0.000000
O O9 0.615723 0.465237 0.357123
O O10 0.693805 0.362802 0.729198
O O11 0.000000 0.500000 0.500000
O O12 0.705364 0.196193 0.784837
O O13 0.699428 0.033761 0.764856
O O14 0.500000 0.000000 0.000000
O O15 0.500000 0.500000 0.000000
O O16 0.630566 0.097523 0.341530
O O17 0.468343 0.170725 0.994117
O O18 0.138463 0.761204 0.931306
#
# Coordination Sequence:
#
# PCOD9109920 Si02
#       8
#     2   2   2   2   2   2   2   2
#     4  11  22  40  66  92 127 166 218 258 323 388
#     4  11  21  40  61  86 128 166 213 264 322 376
#     4  12  24  38  62  91 129 173 215 267 321 381
#     4  10  20  41  68  92 124 171 210 267 329 376
#     4  11  26  39  61  93 126 172 218 263 315 389
#     4   9  21  39  70  87 124 165 210 263 326 372
#     4   9  22  38  62  93 126 162 208 264 317 382
#     4   9  20  41  61  87 130 164 206 270 320 371
#
# _framework density 21.9876
#
# number of rings (size 3 to 8) (size 9 to 14) (size 15 to 20)
#    0.750    1.000    2.500    1.500    7.000    0.500 
#    0.000    0.625    5.500    0.000    0.000    0.000 
#    0.000    0.000    0.000    0.000    0.000    0.000 
#
# Total GULP energy -89131.192723 kJ/mol
# GULP energy per Si atom -5570.699545 kJ/mol
# Density = 2.193755 g / cm^3
# Si number density = 21.987600 Si / 1000 Ang^3
#
#
#
# Elastic Constant Matrix: (Units=GPa)
#
#
# Indices 1 2 3 4 5 6 
#
# 1 60.1531 16.6502 5.2888 -5.2778 3.6887 -15.2136
# 2 16.6502 138.6184 5.7281 15.7456 -1.4528 -16.5214
# 3 5.2888 5.7281 88.0730 -0.5347 5.8870 -3.9501
# 4 -5.2778 15.7456 -0.5347 28.8827 -0.3271 1.2118
# 5 3.6887 -1.4528 5.8870 -0.3271 28.3368 5.2475
# 6 -15.2136 -16.5214 -3.9501 1.2118 5.2475 32.1181
#
#
#
# Elastic Compliance Matrix: (Units=1/GPa)
#
#
# Indices 1 2 3 4 5 6 
#
# 1 0.020092 -0.001845 -0.000370 0.004242 -0.004262 0.009059
# 2 -0.001845 0.008462 -0.000308 -0.005108 0.000006 0.003633
# 3 -0.000370 -0.000308 0.011644 0.000222 -0.002667 0.001526
# 4 0.004242 -0.005108 0.000222 0.038271 -0.000043 -0.002028
# 5 -0.004262 0.000006 -0.002667 -0.000043 0.037981 -0.008547
# 6 0.009059 0.003633 0.001526 -0.002028 -0.008547 0.038955
#
#
# Mechanical properties :
#
#
# Convention : Reuss Voigt Hill
#
# Bulk Modulus (GPa) = 28.44706 38.01986 33.23346
# Shear Modulus (GPa) = 29.04122 35.14601 32.09361
#
# Velocity S-wave (km/s) = 3.63822 4.00240 3.82465
# Velocity P-wave (km/s) = 5.53306 6.21996 5.88654
#
# Compressibility (1/GPa) = 0.03515302
#
# Stress axis : x y z
#
# Youngs Moduli (GPa) = 49.77083 118.18076 85.87753
#
# Poissons Ratio (x) = 0.21803 0.03174
# Poissons Ratio (y) = 0.09182 0.02646
# Poissons Ratio (z) = 0.01840 0.03641
#
# Static dielectric constant tensor:
#      x y z
#    x 1.771550 0.144900 0.020980 
#    y 0.144900 2.091850 -0.025750 
#    z 0.020980 -0.025750 1.819990 
# 
# From -- ./inp_files/200352.got.cif
#   From: 2010.05.17/outbox.cif.g08.bks.cpg/sg2_101_cif.got.tgz:200352.got - 2010.06.03 11:33:40.
