data_PCOD9109890
_publ_section_title
;
Structure prediction by ZEFSAII (Michael W. Deem and Ramdas Pophale) SiO2 
 PCOD9109890
Probable space group: P -1
;
_chemical_formula_sum "Si O2"
_cell_formula_units_Z 15
_cell_length_a 11.051313
_cell_length_b 7.494179
_cell_length_c 11.622928
_cell_angle_alpha 38.070147
_cell_angle_beta 117.682378
_cell_angle_gamma 111.769863
_cell_volume 525.608503
_symmetry_space_group_name_H-M "P -1"
_symmetry_group_IT_number 2
_symmetry_cell_setting 'triclinic'
loop_
_space_group_symop_operation_xyz
x,y,z
-x,-y,-z
loop_
_atom_site_type_symbol
_atom_site_label
_atom_site_fract_x
_atom_site_fract_y
_atom_site_fract_z
Si Si1 0.403141 0.726290 0.621313
Si Si2 0.773627 0.626606 0.518755
Si Si3 0.929661 0.804393 0.287200
Si Si4 0.758234 0.975584 0.915605
Si Si5 0.682869 0.172082 0.232091
Si Si6 0.000000 0.000000 0.500000
Si Si7 0.377901 0.684469 0.127249
Si Si8 0.188930 0.173108 0.235044
O O1 0.388812 0.652483 0.787154
O O2 0.477863 0.474908 0.713369
O O3 0.259389 0.874648 0.457495
O O4 0.500000 0.000000 0.500000
O O5 0.800489 0.758659 0.336309
O O6 0.760383 0.289334 0.696432
O O7 0.748933 0.554718 0.805788
O O8 0.655181 0.825668 0.417137
O O9 0.000000 0.500000 0.500000
O O10 0.029963 0.073220 0.232672
O O11 0.882135 0.871296 0.104207
O O12 0.647989 0.060349 0.922969
O O13 0.765080 0.782454 0.900730
O O14 0.847784 0.164596 0.325271
O O15 0.630972 0.236143 0.050685
O O16 0.918534 0.699416 0.605303
#
# Coordination Sequence:
#
# PCOD9109890 Si02
#       8
#     2   2   2   2   2   1   2   2
#     4  10  22  43  67  98 136 185 240 286 338 406
#     4  10  21  38  63  99 139 178 221 280 338 422
#     4  12  25  43  65 104 145 180 229 283 357 424
#     4  12  25  45  68 102 143 176 232 285 348 423
#     4  10  20  41  68 104 140 175 235 288 343 415
#     4   8  20  32  64 102 126 180 218 274 348 412
#     4  11  25  43  70 101 133 188 239 284 347 407
#     4  11  26  42  69 100 139 188 225 297 345 409
#
# _framework density 28.538349
#
# number of rings (size 3 to 8) (size 9 to 14) (size 15 to 20)
#    0.800    0.533    2.667    3.200    3.733    2.133 
#    0.000    0.000    0.000    5.600    0.000    0.000 
#    0.000    0.000    0.000    0.000    0.000    0.000 
#
# Total GULP energy -83545.570040 kJ/mol
# GULP energy per Si atom -5569.704669 kJ/mol
# Density = 2.847339 g / cm^3
# Si number density = 28.538349 Si / 1000 Ang^3
#
#
#
# Elastic Constant Matrix: (Units=GPa)
#
#
# Indices 1 2 3 4 5 6 
#
# 1 127.1460 34.0140 31.8713 9.3801 -8.4969 -7.8419
# 2 34.0140 101.0864 10.0900 -5.1555 -1.2614 -10.2957
# 3 31.8713 10.0900 121.4293 12.4599 -9.8061 -13.8996
# 4 9.3801 -5.1555 12.4599 42.7575 -19.7447 -2.5163
# 5 -8.4969 -1.2614 -9.8061 -19.7447 44.6435 1.5319
# 6 -7.8419 -10.2957 -13.8996 -2.5163 1.5319 52.7202
#
#
#
# Elastic Compliance Matrix: (Units=1/GPa)
#
#
# Indices 1 2 3 4 5 6 
#
# 1 0.009325 -0.002994 -0.001971 -0.001563 0.000559 0.000192
# 2 -0.002994 0.011236 -0.000136 0.002512 0.000766 0.001811
# 3 -0.001971 -0.000136 0.009242 -0.001795 0.000788 0.002008
# 4 -0.001563 0.002512 -0.001795 0.030546 0.012859 0.000869
# 5 0.000559 0.000766 0.000788 0.012859 0.028380 0.000230
# 6 0.000192 0.001811 0.002008 0.000869 0.000230 0.019914
#
#
# Mechanical properties :
#
#
# Convention : Reuss Voigt Hill
#
# Bulk Modulus (GPa) = 51.02358 55.73470 53.37914
# Shear Modulus (GPa) = 39.87935 46.27000 43.07468
#
# Velocity S-wave (km/s) = 3.74223 4.03094 3.88926
# Velocity P-wave (km/s) = 6.04898 6.42159 6.23807
#
# Compressibility (1/GPa) = 0.01959878
#
# Stress axis : x y z
#
# Youngs Moduli (GPa) = 107.24417 89.00257 108.20600
#
# Poissons Ratio (x) = 0.26647 0.21329
# Poissons Ratio (y) = 0.32109 0.01476
# Poissons Ratio (z) = 0.21139 0.01214
#
# Static dielectric constant tensor:
#      x y z
#    x 2.540190 -0.368530 -0.221640 
#    y -0.368530 2.850360 0.287260 
#    z -0.221640 0.287260 2.427060 
# 
# From -- ./inp_files/422839.got.cif
#   From: 2010.05.17/outbox.cif.g08.bks.cpg/sg2_212_cif.got.tgz:422839.got - 2010.06.03 11:33:40.
