data_PCOD9109596
_publ_section_title
;
Structure prediction by ZEFSAII (Michael W. Deem and Ramdas Pophale) SiO2 
 PCOD9109596
Probable space group: P -1
;
_chemical_formula_sum "Si O2"
_cell_formula_units_Z 16
_cell_length_a 7.860475
_cell_length_b 8.517931
_cell_length_c 14.875961
_cell_angle_alpha 130.988881
_cell_angle_beta 95.682036
_cell_angle_gamma 99.958832
_cell_volume 709.628993
_symmetry_space_group_name_H-M "P -1"
_symmetry_group_IT_number 2
_symmetry_cell_setting 'triclinic'
loop_
_space_group_symop_operation_xyz
x,y,z
-x,-y,-z
loop_
_atom_site_type_symbol
_atom_site_label
_atom_site_fract_x
_atom_site_fract_y
_atom_site_fract_z
Si Si1 0.745988 0.923243 0.018690
Si Si2 0.687847 0.885961 0.191857
Si Si3 0.701139 0.164485 0.570996
Si Si4 0.436727 0.592515 0.208267
Si Si5 0.895235 0.163470 0.945701
Si Si6 0.916858 0.295745 0.479968
Si Si7 0.976066 0.677250 0.165482
Si Si8 0.175741 0.241769 0.622692
O O1 0.649374 0.664604 0.904699
O O2 0.952685 0.952132 0.069468
O O3 0.662669 0.979065 0.128159
O O4 0.749552 0.054220 0.975205
O O5 0.510504 0.747271 0.184002
O O6 0.795320 0.708090 0.122119
O O7 0.816276 0.081569 0.333725
O O8 0.704558 0.310236 0.712757
O O9 0.761844 0.323373 0.548918
O O10 0.500000 0.000000 0.500000
O O11 0.810859 0.997454 0.489990
O O12 0.618679 0.626602 0.289866
O O13 0.964963 0.424546 0.066483
O O14 0.873976 0.167562 0.836844
O O15 0.000000 0.500000 0.500000
O O16 0.089913 0.306380 0.554621
O O17 0.943652 0.737611 0.289081
#
# Coordination Sequence:
#
# PCOD9109596 Si02
#       8
#     2   2   2   2   2   2   2   2
#     4  10  21  36  63  94 131 167 202 273 321 385
#     4  10  21  40  60  91 128 169 220 253 322 395
#     4  10  20  41  66  91 124 171 219 262 315 384
#     4  10  21  39  68  92 132 171 217 263 328 386
#     4   9  20  35  59  93 127 165 216 259 321 385
#     4  12  25  39  67  95 126 173 219 274 321 378
#     4   9  18  36  60  86 126 160 210 264 311 389
#     4  10  22  40  66  91 126 172 218 264 318 393
#
# _framework density 22.546993000000001
#
# number of rings (size 3 to 8) (size 9 to 14) (size 15 to 20)
#    0.000    2.000    3.750    0.750    3.500    2.000 
#    0.000    5.000   11.000    0.000    0.000    0.000 
#    0.000    0.000    0.000    0.000    0.000    0.000 
#
# Total GULP energy -89078.206230 kJ/mol
# GULP energy per Si atom -5567.387889 kJ/mol
# Density = 2.249568 g / cm^3
# Si number density = 22.546993 Si / 1000 Ang^3
#
#
#
# Elastic Constant Matrix: (Units=GPa)
#
#
# Indices 1 2 3 4 5 6 
#
# 1 75.0675 36.3924 18.0899 -21.7892 -9.6690 9.5377
# 2 36.3924 189.6493 53.1117 -35.7327 -11.5437 31.5053
# 3 18.0899 53.1117 104.3021 -27.7119 -8.6752 8.9547
# 4 -21.7892 -35.7327 -27.7119 28.4014 10.5849 -0.0674
# 5 -9.6690 -11.5437 -8.6752 10.5849 35.0098 -7.0047
# 6 9.5377 31.5053 8.9547 -0.0674 -7.0047 28.6910
#
#
#
# Elastic Compliance Matrix: (Units=1/GPa)
#
#
# Indices 1 2 3 4 5 6 
#
# 1 0.018293 0.000179 0.001517 0.015994 -0.000727 -0.006891
# 2 0.000179 0.009387 -0.000909 0.012115 -0.002897 -0.010763
# 3 0.001517 -0.000909 0.013728 0.013975 -0.001531 -0.004131
# 4 0.015994 0.012115 0.013975 0.083293 -0.018785 -0.027372
# 5 -0.000727 -0.002897 -0.001531 -0.018785 0.035198 0.012450
# 6 -0.006891 -0.010763 -0.004131 -0.027372 0.012450 0.053228
#
#
# Mechanical properties :
#
#
# Convention : Reuss Voigt Hill
#
# Bulk Modulus (GPa) = 23.26600 64.91188 44.08894
# Shear Modulus (GPa) = 22.13538 35.84877 28.99208
#
# Velocity S-wave (km/s) = 3.13668 3.99175 3.58977
# Velocity P-wave (km/s) = 4.84351 7.07796 6.06454
#
# Compressibility (1/GPa) = 0.04298118
#
# Stress axis : x y z
#
# Youngs Moduli (GPa) = 54.66423 106.52561 72.84478
#
# Poissons Ratio (x) = -0.01906 -0.11049
# Poissons Ratio (y) = -0.00978 0.06625
# Poissons Ratio (z) = -0.08291 0.09688
#
# Static dielectric constant tensor:
#      x y z
#    x 1.916980 -0.008210 0.019510 
#    y -0.008210 2.112660 -0.068680 
#    z 0.019510 -0.068680 1.841290 
# 
# From -- ./inp_files/493884.got.cif
#   From: 2010.05.17/outbox.cif.g08.bks.cpg/sg2_247_cif.got.tgz:493884.got - 2010.06.03 11:33:40.
