data_PCOD9109064
_publ_section_title
;
Structure prediction by ZEFSAII (Michael W. Deem and Ramdas Pophale) SiO2 
 PCOD9109064
Probable space group: P -1
;
_chemical_formula_sum "Si O2"
_cell_formula_units_Z 16
_cell_length_a 10.593966
_cell_length_b 17.501698
_cell_length_c 8.940820
_cell_angle_alpha 42.837263
_cell_angle_beta 83.134098
_cell_angle_gamma 116.062955
_cell_volume 699.267392
_symmetry_space_group_name_H-M "P -1"
_symmetry_group_IT_number 2
_symmetry_cell_setting 'triclinic'
loop_
_space_group_symop_operation_xyz
x,y,z
-x,-y,-z
loop_
_atom_site_type_symbol
_atom_site_label
_atom_site_fract_x
_atom_site_fract_y
_atom_site_fract_z
Si Si1 0.068516 0.665993 0.322247
Si Si2 0.460747 0.707190 0.364794
Si Si3 0.828371 0.354016 0.350516
Si Si4 0.371025 0.542318 0.314238
Si Si5 0.983947 0.991279 0.275935
Si Si6 0.739567 0.744570 0.413891
Si Si7 0.729667 0.942614 0.621446
Si Si8 0.530130 0.982331 0.768756
O O1 0.098162 0.673838 0.484986
O O2 0.000000 0.500000 0.500000
O O3 0.868734 0.602647 0.425041
O O4 0.293308 0.847251 0.965940
O O5 0.246820 0.584150 0.647946
O O6 0.450127 0.605401 0.383286
O O7 0.614399 0.773201 0.374093
O O8 0.517224 0.864450 0.051829
O O9 0.641498 0.162669 0.571309
O O10 0.000000 0.500000 0.000000
O O11 0.397454 0.453713 0.332651
O O12 0.504705 0.732131 0.946422
O O13 0.836482 0.803533 0.478398
O O14 0.859881 0.996584 0.382144
O O15 0.141082 0.031421 0.301397
O O16 0.097250 0.129336 0.924118
O O17 0.674860 0.032150 0.546145
#
# Coordination Sequence:
#
# PCOD9109064 Si02
#       8
#     2   2   2   2   2   2   2   2
#     4  11  20  42  67  89 121 170 213 248 308 386
#     4  10  20  41  62  89 130 167 207 253 316 370
#     4  11  25  41  64  96 126 157 209 270 313 363
#     4  11  22  38  68  92 124 166 212 255 308 369
#     4  10  23  38  59  88 128 162 209 251 310 367
#     4  11  23  39  63  93 123 164 216 256 298 372
#     4  10  21  42  59  89 129 164 203 254 317 371
#     4  10  21  41  70  85 123 172 208 249 318 380
#
# _framework density 22.881091000000001
#
# number of rings (size 3 to 8) (size 9 to 14) (size 15 to 20)
#    0.000    1.500    6.250    1.875    1.750    4.500 
#    2.250    0.625    0.000    0.000    0.000    0.000 
#    0.000    0.000    0.000    0.000    0.000    0.000 
#
# Total GULP energy -89278.306548 kJ/mol
# GULP energy per Si atom -5579.894159 kJ/mol
# Density = 2.282901 g / cm^3
# Si number density = 22.881091 Si / 1000 Ang^3
#
#
#
# Elastic Constant Matrix: (Units=GPa)
#
#
# Indices 1 2 3 4 5 6 
#
# 1 65.4592 12.5640 14.1778 2.2586 -23.0578 7.3219
# 2 12.5640 92.3587 34.9321 -1.0256 -6.8075 6.2730
# 3 14.1778 34.9321 45.5608 6.1272 -22.5386 8.6526
# 4 2.2586 -1.0256 6.1272 40.7910 -9.2080 -12.1357
# 5 -23.0578 -6.8075 -22.5386 -9.2080 30.1811 -3.6716
# 6 7.3219 6.2730 8.6526 -12.1357 -3.6716 23.5924
#
#
#
# Elastic Compliance Matrix: (Units=1/GPa)
#
#
# Indices 1 2 3 4 5 6 
#
# 1 0.022548 -0.003985 0.007547 0.000972 0.021672 -0.004833
# 2 -0.003985 0.017500 -0.019041 0.001355 -0.012624 0.002300
# 3 0.007547 -0.019041 0.058243 -0.004498 0.041837 -0.014443
# 4 0.000972 0.001355 -0.004498 0.033365 0.010271 0.019749
# 5 0.021672 -0.012624 0.041837 0.010271 0.081122 -0.000805
# 6 -0.004833 0.002300 -0.014443 0.019749 -0.000805 0.058605
#
#
# Mechanical properties :
#
#
# Convention : Reuss Voigt Hill
#
# Bulk Modulus (GPa) = 14.85160 36.30295 25.57728
# Shear Modulus (GPa) = 15.39480 28.35989 21.87735
#
# Velocity S-wave (km/s) = 2.59669 3.52440 3.09549
# Velocity P-wave (km/s) = 3.93640 5.69756 4.89681
#
# Compressibility (1/GPa) = 0.06733280
#
# Stress axis : x y z
#
# Youngs Moduli (GPa) = 44.34990 57.14429 17.16940
#
# Poissons Ratio (x) = 0.22774 -0.12958
# Poissons Ratio (y) = 0.17675 0.32692
# Poissons Ratio (z) = -0.33472 1.08808
#
# Static dielectric constant tensor:
#      x y z
#    x 1.901650 -0.021970 0.005280 
#    y -0.021970 1.899350 0.002460 
#    z 0.005280 0.002460 1.879120 
# 
# From -- ./inp_files/277461.got.cif
#   From: 2010.05.17/outbox.cif.g08.bks.cpg/sg2_139_cif.got.tgz:277461.got - 2010.06.03 11:33:40.
