data_PCOD9109896
_publ_section_title
;
Structure prediction by ZEFSAII (Michael W. Deem and Ramdas Pophale) SiO2 
 PCOD9109896
Probable space group: P -1
;
_chemical_formula_sum "Si O2"
_cell_formula_units_Z 13
_cell_length_a 7.947665
_cell_length_b 15.770844
_cell_length_c 8.039659
_cell_angle_alpha 45.203515
_cell_angle_beta 128.520594
_cell_angle_gamma 131.709383
_cell_volume 510.774842
_symmetry_space_group_name_H-M "P -1"
_symmetry_group_IT_number 2
_symmetry_cell_setting 'triclinic'
loop_
_space_group_symop_operation_xyz
x,y,z
-x,-y,-z
loop_
_atom_site_type_symbol
_atom_site_label
_atom_site_fract_x
_atom_site_fract_y
_atom_site_fract_z
Si Si1 0.410212 0.888987 0.455258
Si Si2 0.800616 0.838989 0.555729
Si Si3 0.000000 0.500000 0.500000
Si Si4 0.512703 0.534498 0.763992
Si Si5 0.827853 0.235142 0.951054
Si Si6 0.361181 0.691567 0.960583
Si Si7 0.304036 0.083913 0.933027
O O1 0.629142 0.885527 0.491304
O O2 0.301724 0.750423 0.674460
O O3 0.500000 0.000000 0.500000
O O4 0.252840 0.942334 0.172525
O O5 0.660039 0.687697 0.628795
O O6 0.872720 0.908134 0.324991
O O7 0.008941 0.838576 0.800231
O O8 0.252764 0.506486 0.584339
O O9 0.086355 0.659132 0.286035
O O10 0.500000 0.500000 0.000000
O O11 0.617449 0.442818 0.868100
O O12 0.828261 0.317955 0.003844
O O13 0.556324 0.134021 0.921831
O O14 0.611634 0.803149 0.028516
#
# Coordination Sequence:
#
# PCOD9109896 Si02
#       7
#     2   2   1   2   2   2   2
#     4  10  20  41  68  85 130 168 208 262 311 360
#     4  12  22  40  66  94 122 171 208 258 317 372
#     4  12  22  40  60  96 124 168 202 256 318 370
#     4  12  22  40  65  91 130 163 208 257 314 374
#     4  10  23  38  63  96 124 164 210 255 316 368
#     4   9  21  43  62  94 126 166 203 263 310 363
#     4   9  22  41  62  90 126 165 208 257 307 371
#
# _framework density 25.451526999999999
#
# number of rings (size 3 to 8) (size 9 to 14) (size 15 to 20)
#    0.923    0.615    4.615    0.462    0.000    3.692 
#    2.769    0.769    3.385    0.000    0.000    0.000 
#    0.000    0.000    0.000    0.000    0.000    0.000 
#
# Total GULP energy -72475.312799 kJ/mol
# GULP energy per Si atom -5575.024061 kJ/mol
# Density = 2.539360 g / cm^3
# Si number density = 25.451527 Si / 1000 Ang^3
#
#
#
# Elastic Constant Matrix: (Units=GPa)
#
#
# Indices 1 2 3 4 5 6 
#
# 1 44.4299 41.2807 11.9388 -4.2826 6.8212 -19.0585
# 2 41.2807 96.3967 46.8453 -38.5032 2.1915 -12.3688
# 3 11.9388 46.8453 155.6700 -22.9876 -9.0343 -15.3047
# 4 -4.2826 -38.5032 -22.9876 38.0313 -5.1475 0.0275
# 5 6.8212 2.1915 -9.0343 -5.1475 33.7349 -12.5761
# 6 -19.0585 -12.3688 -15.3047 0.0275 -12.5761 46.6455
#
#
#
# Elastic Compliance Matrix: (Units=1/GPa)
#
#
# Indices 1 2 3 4 5 6 
#
# 1 0.061513 -0.038370 0.003030 -0.031295 -0.008844 0.013587
# 2 -0.038370 0.043628 -0.004362 0.038348 0.008376 -0.003305
# 3 0.003030 -0.004362 0.008282 0.001401 0.003497 0.003741
# 4 -0.031295 0.038348 0.001401 0.064429 0.014702 0.001768
# 5 -0.008844 0.008376 0.003497 0.014702 0.037768 0.009929
# 6 0.013587 -0.003305 0.003741 0.001768 0.009929 0.030017
#
#
# Mechanical properties :
#
#
# Convention : Reuss Voigt Hill
#
# Bulk Modulus (GPa) = 29.39575 55.18072 42.28823
# Shear Modulus (GPa) = 14.86408 36.77780 25.82094
#
# Velocity S-wave (km/s) = 2.41926 3.80546 3.18860
# Velocity P-wave (km/s) = 4.40211 6.40597 5.49613
#
# Compressibility (1/GPa) = 0.03401852
#
# Stress axis : x y z
#
# Youngs Moduli (GPa) = 16.25664 22.92108 120.74710
#
# Poissons Ratio (x) = 0.87949 -0.36590
# Poissons Ratio (y) = 0.62378 0.52671
# Poissons Ratio (z) = -0.04926 0.09998
#
# Static dielectric constant tensor:
#      x y z
#    x 1.970620 -0.025400 -0.053470 
#    y -0.025400 2.074150 0.076750 
#    z -0.053470 0.076750 2.076960 
# 
# From -- ./inp_files/162595.got.cif
#   From: 2010.05.17/outbox.cif.g08.bks.cpg/sg2_82_cif.got.tgz:162595.got - 2010.06.03 11:33:40.
