data_PCOD9109060
_publ_section_title
;
Structure prediction by ZEFSAII (Michael W. Deem and Ramdas Pophale) SiO2 
 PCOD9109060
Probable space group: P -1
;
_chemical_formula_sum "Si O2"
_cell_formula_units_Z 14
_cell_length_a 15.272198
_cell_length_b 6.694710
_cell_length_c 14.203576
_cell_angle_alpha 52.489824
_cell_angle_beta 32.854539
_cell_angle_gamma 47.694701
_cell_volume 579.229368
_symmetry_space_group_name_H-M "P -1"
_symmetry_group_IT_number 2
_symmetry_cell_setting 'triclinic'
loop_
_space_group_symop_operation_xyz
x,y,z
-x,-y,-z
loop_
_atom_site_type_symbol
_atom_site_label
_atom_site_fract_x
_atom_site_fract_y
_atom_site_fract_z
Si Si1 0.745708 0.587691 0.913185
Si Si2 0.164727 0.915194 0.305677
Si Si3 0.014910 0.293745 0.898936
Si Si4 0.234990 0.491960 0.767125
Si Si5 0.133455 0.961190 0.589698
Si Si6 0.506952 0.247877 0.738943
Si Si7 0.307193 0.354920 0.266012
O O1 0.718400 0.517849 0.851873
O O2 0.729507 0.896811 0.826720
O O3 0.936835 0.418498 0.832400
O O4 0.608511 0.592172 0.115904
O O5 0.287518 0.603230 0.279335
O O6 0.000000 0.000000 0.500000
O O7 0.056597 0.005538 0.280042
O O8 0.882739 0.488327 0.039809
O O9 0.192441 0.316392 0.772258
O O10 0.000000 0.000000 0.000000
O O11 0.179220 0.799941 0.691859
O O12 0.423040 0.370763 0.679673
O O13 0.294644 0.770647 0.433266
O O14 0.159067 0.244320 0.468811
O O15 0.528251 0.929638 0.805889
#
# Coordination Sequence:
#
# PCOD9109060 Si02
#       7
#     2   2   2   2   2   2   2
#     4  11  22  40  63  91 128 162 210 253 313 364
#     4  12  23  39  63  95 123 164 211 257 308 364
#     4  10  23  37  63  92 122 162 209 260 301 367
#     4  10  20  41  62  89 125 166 206 251 313 360
#     4  10  21  39  64  89 127 163 205 255 308 364
#     4   9  22  40  63  92 128 171 198 255 314 372
#     4  10  24  38  65  93 126 164 205 255 309 371
#
# _framework density 24.170044000000001
#
# number of rings (size 3 to 8) (size 9 to 14) (size 15 to 20)
#    0.857    0.857    2.857    1.286    2.000    0.571 
#    0.000    5.714    0.000    5.143    0.000    0.000 
#    0.000    0.000    0.000    0.000    0.000    0.000 
#
# Total GULP energy -78072.601452 kJ/mol
# GULP energy per Si atom -5576.614389 kJ/mol
# Density = 2.411503 g / cm^3
# Si number density = 24.170044 Si / 1000 Ang^3
#
#
#
# Elastic Constant Matrix: (Units=GPa)
#
#
# Indices 1 2 3 4 5 6 
#
# 1 122.9235 44.8584 14.1241 4.1159 15.0152 -20.6943
# 2 44.8584 95.9688 7.2330 -4.2365 7.1456 3.3736
# 3 14.1241 7.2330 63.3125 -0.1786 12.5557 3.8712
# 4 4.1159 -4.2365 -0.1786 27.2588 -4.5777 1.9812
# 5 15.0152 7.1456 12.5557 -4.5777 39.8738 -6.6636
# 6 -20.6943 3.3736 3.8712 1.9812 -6.6636 28.8739
#
#
#
# Elastic Compliance Matrix: (Units=1/GPa)
#
#
# Indices 1 2 3 4 5 6 
#
# 1 0.012673 -0.006140 -0.002414 -0.003894 -0.001688 0.010002
# 2 -0.006140 0.013710 0.000404 0.003370 -0.000973 -0.006512
# 3 -0.002414 0.000404 0.017744 -0.000011 -0.005665 -0.005463
# 4 -0.003894 0.003370 -0.000011 0.038907 0.004529 -0.004808
# 5 -0.001688 -0.000973 -0.005665 0.004529 0.029211 0.006094
# 6 0.010002 -0.006512 -0.005463 -0.004808 0.006094 0.045032
#
#
# Mechanical properties :
#
#
# Convention : Reuss Voigt Hill
#
# Bulk Modulus (GPa) = 35.93376 46.07066 41.00221
# Shear Modulus (GPa) = 27.34443 33.60060 30.47252
#
# Velocity S-wave (km/s) = 3.36718 3.73255 3.55456
# Velocity P-wave (km/s) = 5.47874 6.13827 5.81786
#
# Compressibility (1/GPa) = 0.02782898
#
# Stress axis : x y z
#
# Youngs Moduli (GPa) = 78.90506 72.94097 56.35577
#
# Poissons Ratio (x) = 0.44785 0.13603
# Poissons Ratio (y) = 0.48446 -0.02278
# Poissons Ratio (z) = 0.19045 -0.02949
#
# Static dielectric constant tensor:
#      x y z
#    x 2.026820 -0.011960 -0.000220 
#    y -0.011960 1.920690 0.021110 
#    z -0.000220 0.021110 1.974490 
# 
# From -- ./inp_files/525530.got.cif
#   From: 2010.05.17/outbox.cif.g08.bks.cpg/sg2_263_cif.got.tgz:525530.got - 2010.06.03 11:33:40.
