data_PCOD9109454
_publ_section_title
;
Structure prediction by ZEFSAII (Michael W. Deem and Ramdas Pophale) SiO2 
 PCOD9109454
Probable space group: P -1
;
_chemical_formula_sum "Si O2"
_cell_formula_units_Z 16
_cell_length_a 16.651868
_cell_length_b 9.144392
_cell_length_c 17.661555
_cell_angle_alpha 122.962747
_cell_angle_beta 24.210588
_cell_angle_gamma 138.703345
_cell_volume 621.062458
_symmetry_space_group_name_H-M "P -1"
_symmetry_group_IT_number 2
_symmetry_cell_setting 'triclinic'
loop_
_space_group_symop_operation_xyz
x,y,z
-x,-y,-z
loop_
_atom_site_type_symbol
_atom_site_label
_atom_site_fract_x
_atom_site_fract_y
_atom_site_fract_z
Si Si1 0.245339 0.192425 0.635589
Si Si2 0.798395 0.185898 0.394529
Si Si3 0.527672 0.453340 0.048850
Si Si4 0.778260 0.722934 0.475108
Si Si5 0.913914 0.788136 0.073127
Si Si6 0.879636 0.519502 0.534220
Si Si7 0.988547 0.494547 0.841581
Si Si8 0.686254 0.915515 0.744753
O O1 0.500000 0.500000 0.500000
O O2 0.161559 0.099857 0.594620
O O3 0.018307 0.113245 0.870560
O O4 0.381381 0.106916 0.527583
O O5 0.816357 0.281501 0.325647
O O6 0.727981 0.279800 0.543613
O O7 0.131740 0.344873 0.170338
O O8 0.361184 0.496418 0.246642
O O9 0.375837 0.181892 0.141373
O O10 0.500000 0.500000 0.000000
O O11 0.437856 0.448248 0.695637
O O12 0.816056 0.846369 0.558299
O O13 0.934753 0.657048 0.284572
O O14 0.011918 0.653805 0.934179
O O15 0.000000 0.000000 0.000000
O O16 0.000000 0.500000 0.500000
O O17 0.136626 0.790397 0.343586
O O18 0.643364 0.276864 0.057218
#
# Coordination Sequence:
#
# PCOD9109454 Si02
#       8
#     2   2   2   2   2   2   2   2
#     4  10  22  43  69  92 131 170 208 276 330 383
#     4  11  23  43  64  94 130 170 221 268 323 393
#     4  11  24  43  65  95 132 179 217 271 330 381
#     4  10  22  40  65  98 127 170 216 263 328 387
#     4  10  20  41  65  92 132 165 210 269 329 383
#     4  12  24  41  65  96 128 176 223 265 320 391
#     4  10  22  40  68  97 125 172 220 264 323 393
#     4  10  24  43  66  92 140 175 214 275 326 386
#
# _framework density 25.762307
#
# number of rings (size 3 to 8) (size 9 to 14) (size 15 to 20)
#    0.000    1.500    2.500    1.875    0.000    5.000 
#    0.000    0.000    0.000    0.000    0.000    0.000 
#    0.000    0.000    0.000    0.000    0.000    0.000 
#
# Total GULP energy -89363.212665 kJ/mol
# GULP energy per Si atom -5585.200792 kJ/mol
# Density = 2.570367 g / cm^3
# Si number density = 25.762307 Si / 1000 Ang^3
#
#
#
# Elastic Constant Matrix: (Units=GPa)
#
#
# Indices 1 2 3 4 5 6 
#
# 1 114.3385 18.0904 20.5150 -1.3069 36.8097 -8.5258
# 2 18.0904 130.5217 26.4502 4.8423 14.6654 -3.2883
# 3 20.5150 26.4502 115.4554 22.7538 6.1865 -1.3234
# 4 -1.3069 4.8423 22.7538 57.2734 -0.0609 10.0221
# 5 36.8097 14.6654 6.1865 -0.0609 42.9785 10.2481
# 6 -8.5258 -3.2883 -1.3234 10.0221 10.2481 39.3860
#
#
#
# Elastic Compliance Matrix: (Units=1/GPa)
#
#
# Indices 1 2 3 4 5 6 
#
# 1 0.013697 0.000065 -0.001646 -0.000164 -0.013030 0.006347
# 2 0.000065 0.008387 -0.001692 -0.000305 -0.003038 0.001526
# 3 -0.001646 -0.001692 0.010132 -0.004057 0.000335 0.000788
# 4 -0.000164 -0.000305 -0.004057 0.020131 0.002266 -0.005909
# 5 -0.013030 -0.003038 0.000335 0.002266 0.038687 -0.013706
# 6 0.006347 0.001526 0.000788 -0.005909 -0.013706 0.031987
#
#
# Mechanical properties :
#
#
# Convention : Reuss Voigt Hill
#
# Bulk Modulus (GPa) = 38.95545 54.49188 46.72366
# Shear Modulus (GPa) = 36.19936 47.61159 41.90548
#
# Velocity S-wave (km/s) = 3.75257 4.30363 4.03751
# Velocity P-wave (km/s) = 5.82492 6.77441 6.31753
#
# Compressibility (1/GPa) = 0.02567035
#
# Stress axis : x y z
#
# Youngs Moduli (GPa) = 73.00732 119.23735 98.69532
#
# Poissons Ratio (x) = -0.00776 0.16240
# Poissons Ratio (y) = -0.00475 0.16704
# Poissons Ratio (z) = 0.12013 0.20180
#
# Static dielectric constant tensor:
#      x y z
#    x 2.195670 0.001930 -0.074110 
#    y 0.001930 2.077840 -0.044780 
#    z -0.074110 -0.044780 1.994560 
# 
# From -- ./inp_files/601191.got.cif
#   From: 2010.05.17/outbox.cif.g08.bks.cpg/sg2_301_cif.got.tgz:601191.got - 2010.06.03 11:33:40.
