data_PCOD9109887
_publ_section_title
;
Structure prediction by ZEFSAII (Michael W. Deem and Ramdas Pophale) SiO2 
 PCOD9109887
Probable space group: P -1
;
_chemical_formula_sum "Si O2"
_cell_formula_units_Z 13
_cell_length_a 7.351642
_cell_length_b 9.472340
_cell_length_c 7.972474
_cell_angle_alpha 71.580117
_cell_angle_beta 105.058768
_cell_angle_gamma 110.903416
_cell_volume 485.247511
_symmetry_space_group_name_H-M "P -1"
_symmetry_group_IT_number 2
_symmetry_cell_setting 'triclinic'
loop_
_space_group_symop_operation_xyz
x,y,z
-x,-y,-z
loop_
_atom_site_type_symbol
_atom_site_label
_atom_site_fract_x
_atom_site_fract_y
_atom_site_fract_z
Si Si1 0.366750 0.656349 0.872725
Si Si2 0.923704 0.191582 0.305537
Si Si3 0.931314 0.068544 0.715822
Si Si4 0.736247 0.683834 0.144954
Si Si5 0.470822 0.295707 0.559024
Si Si6 0.500000 0.000000 0.500000
Si Si7 0.239149 0.504561 0.253614
O O1 0.303895 0.804334 0.734785
O O2 0.280295 0.498881 0.803364
O O3 0.600774 0.699856 0.948359
O O4 0.283633 0.604218 0.058532
O O5 0.987642 0.155080 0.516940
O O6 0.035443 0.372212 0.232427
O O7 0.979812 0.077486 0.230999
O O8 0.050834 0.189738 0.839146
O O9 0.697227 0.030720 0.670762
O O10 0.630990 0.711797 0.280953
O O11 0.384259 0.400955 0.375581
O O12 0.704477 0.376705 0.621497
O O13 0.425109 0.130162 0.529348
#
# Coordination Sequence:
#
# PCOD9109887 Si02
#       7
#     2   2   2   2   2   1   2
#     4  10  24  40  73 102 139 166 227 270 349 388
#     4  11  22  44  68 101 132 179 222 284 323 410
#     4  11  24  42  69  94 137 175 235 269 338 385
#     4  10  22  47  66 102 131 183 215 280 330 410
#     4  10  21  40  72  96 137 171 233 267 334 390
#     4  12  24  42  66 106 124 176 224 294 312 396
#     4  10  20  41  68 103 134 173 214 285 323 403
#
# _framework density 26.790451000000001
#
# number of rings (size 3 to 8) (size 9 to 14) (size 15 to 20)
#    0.000    1.538    3.077    1.385    2.154    6.154 
#    0.000    3.846    0.000    0.000    0.000    0.000 
#    0.000    0.000    0.000    0.000    0.000    0.000 
#
# Total GULP energy -72529.469810 kJ/mol
# GULP energy per Si atom -5579.189985 kJ/mol
# Density = 2.672947 g / cm^3
# Si number density = 26.790451 Si / 1000 Ang^3
#
#
#
# Elastic Constant Matrix: (Units=GPa)
#
#
# Indices 1 2 3 4 5 6 
#
# 1 87.0067 38.3287 32.0488 14.5188 39.9468 4.0989
# 2 38.3287 180.4154 63.4817 25.0746 41.8935 -7.5391
# 3 32.0488 63.4817 121.1410 20.9796 9.5870 -11.5908
# 4 14.5188 25.0746 20.9796 40.4978 8.8229 16.3637
# 5 39.9468 41.8935 9.5870 8.8229 51.4886 0.2487
# 6 4.0989 -7.5391 -11.5908 16.3637 0.2487 50.7351
#
#
#
# Elastic Compliance Matrix: (Units=1/GPa)
#
#
# Indices 1 2 3 4 5 6 
#
# 1 0.020087 0.000999 -0.004600 -0.001278 -0.015312 -0.002038
# 2 0.000999 0.008596 -0.003614 -0.002913 -0.006604 0.001343
# 3 -0.004600 -0.003614 0.012305 -0.005360 0.005115 0.004349
# 4 -0.001278 -0.002913 -0.005360 0.035313 -0.001629 -0.012936
# 5 -0.015312 -0.006604 0.005115 -0.001629 0.035993 0.001773
# 6 -0.002038 0.001343 0.004349 -0.012936 0.001773 0.025232
#
#
# Mechanical properties :
#
#
# Convention : Reuss Voigt Hill
#
# Bulk Modulus (GPa) = 37.65103 72.92017 55.28560
# Shear Modulus (GPa) = 31.09334 45.52457 38.30895
#
# Velocity S-wave (km/s) = 3.41047 4.12671 3.78557
# Velocity P-wave (km/s) = 5.43993 7.06994 6.30781
#
# Compressibility (1/GPa) = 0.02655970
#
# Stress axis : x y z
#
# Youngs Moduli (GPa) = 49.78426 116.32747 81.26839
#
# Poissons Ratio (x) = -0.11620 0.37380
# Poissons Ratio (y) = -0.04973 0.29366
# Poissons Ratio (z) = 0.22898 0.42035
#
# Static dielectric constant tensor:
#      x y z
#    x 2.201640 0.070130 0.110160 
#    y 0.070130 2.061190 0.014550 
#    z 0.110160 0.014550 1.982470 
# 
# From -- ./inp_files/153588.got.cif
#   From: 2010.05.17/outbox.cif.g08.bks.cpg/sg2_77_cif.got.tgz:153588.got - 2010.06.03 11:33:40.
