data_PCOD9109740
_publ_section_title
;
Structure prediction by ZEFSAII (Michael W. Deem and Ramdas Pophale) SiO2 
 PCOD9109740
Probable space group: P -1
;
_chemical_formula_sum "Si O2"
_cell_formula_units_Z 13
_cell_length_a 23.026768
_cell_length_b 23.011647
_cell_length_c 7.608761
_cell_angle_alpha 142.578880
_cell_angle_beta 38.893181
_cell_angle_gamma 167.711320
_cell_volume 521.361744
_symmetry_space_group_name_H-M "P -1"
_symmetry_group_IT_number 2
_symmetry_cell_setting 'triclinic'
loop_
_space_group_symop_operation_xyz
x,y,z
-x,-y,-z
loop_
_atom_site_type_symbol
_atom_site_label
_atom_site_fract_x
_atom_site_fract_y
_atom_site_fract_z
Si Si1 0.589429 0.768029 0.926603
Si Si2 0.267852 0.735074 0.539403
Si Si3 0.000000 0.000000 0.500000
Si Si4 0.296189 0.554214 0.455489
Si Si5 0.815211 0.171775 0.826352
Si Si6 0.226647 0.270643 0.002078
Si Si7 0.906736 0.639200 0.023675
O O1 0.450665 0.673057 0.200602
O O2 0.324907 0.503356 0.783781
O O3 0.755566 0.835124 0.742407
O O4 0.826141 0.064788 0.997191
O O5 0.250965 0.605066 0.276596
O O6 0.000000 0.500000 0.500000
O O7 0.500000 0.000000 0.500000
O O8 0.253333 0.784112 0.867306
O O9 0.826983 0.810714 0.268343
O O10 0.019370 0.348197 0.608208
O O11 0.528717 0.838904 0.693079
O O12 0.211876 0.370644 0.292754
O O13 0.984666 0.292745 0.882370
O O14 0.500000 0.500000 0.000000
O O15 0.000000 0.000000 0.000000
#
# Coordination Sequence:
#
# PCOD9109740 Si02
#       7
#     2   2   1   2   2   2   2
#     4  12  27  47  71 103 149 193 246 309 383 450
#     4  10  20  41  67 108 146 184 243 306 362 436
#     4  12  30  54  74 110 158 204 250 334 390 432
#     4  12  26  47  68 109 147 188 240 316 382 440
#     4  11  23  43  75 104 145 191 239 312 366 437
#     4  12  29  50  77 109 149 198 264 316 383 471
#     4  11  24  43  74 106 137 197 254 293 363 467
#
# _framework density 24.934702999999999
#
# number of rings (size 3 to 8) (size 9 to 14) (size 15 to 20)
#    0.000    0.615    0.000    9.231    6.462    4.308 
#    0.000    4.615    0.000    0.000    0.000    0.000 
#    0.000    0.000    0.000    0.000    0.000    0.000 
#
# Total GULP energy -72522.255258 kJ/mol
# GULP energy per Si atom -5578.635020 kJ/mol
# Density = 2.487795 g / cm^3
# Si number density = 24.934703 Si / 1000 Ang^3
#
#
#
# Elastic Constant Matrix: (Units=GPa)
#
#
# Indices 1 2 3 4 5 6 
#
# 1 53.8956 16.5605 9.2948 4.7125 3.1077 9.8127
# 2 16.5605 194.5670 21.8377 -5.9357 0.4715 -9.4600
# 3 9.2948 21.8377 82.3885 -3.3605 19.4574 -8.0270
# 4 4.7125 -5.9357 -3.3605 48.4240 9.2555 4.0704
# 5 3.1077 0.4715 19.4574 9.2555 25.3237 0.5847
# 6 9.8127 -9.4600 -8.0270 4.0704 0.5847 46.5449
#
#
#
# Elastic Compliance Matrix: (Units=1/GPa)
#
#
# Indices 1 2 3 4 5 6 
#
# 1 0.020593 -0.001778 -0.002481 -0.002029 0.000268 -0.004957
# 2 -0.001778 0.005513 -0.001348 0.000472 0.000951 0.001210
# 3 -0.002481 -0.001348 0.016438 0.003584 -0.013678 0.002942
# 4 -0.002029 0.000472 0.003584 0.023325 -0.011021 -0.000760
# 5 0.000268 0.000951 -0.013678 -0.011021 0.054021 -0.001937
# 6 -0.004957 0.001210 0.002942 -0.000760 -0.001937 0.023374
#
#
# Mechanical properties :
#
#
# Convention : Reuss Voigt Hill
#
# Bulk Modulus (GPa) = 31.91825 47.35969 39.63897
# Shear Modulus (GPa) = 30.31749 42.93573 36.62661
#
# Velocity S-wave (km/s) = 3.49072 4.15411 3.83678
# Velocity P-wave (km/s) = 5.39216 6.48410 5.96318
#
# Compressibility (1/GPa) = 0.03133004
#
# Stress axis : x y z
#
# Youngs Moduli (GPa) = 48.56043 181.38412 60.83423
#
# Poissons Ratio (x) = 0.32247 0.15093
# Poissons Ratio (y) = 0.08633 0.08202
# Poissons Ratio (z) = 0.12048 0.24455
#
# Static dielectric constant tensor:
#      x y z
#    x 2.022380 -0.009890 -0.046630 
#    y -0.009890 1.911660 -0.001380 
#    z -0.046630 -0.001380 2.212220 
# 
# From -- ./inp_files/357943.got.cif
#   From: 2010.05.17/outbox.cif.g08.bks.cpg/sg2_179_cif.got.tgz:357943.got - 2010.06.03 11:33:40.
