data_PCOD9109860
_publ_section_title
;
Structure prediction by ZEFSAII (Michael W. Deem and Ramdas Pophale) SiO2 
 PCOD9109860
Probable space group: P -1
;
_chemical_formula_sum "Si O2"
_cell_formula_units_Z 14
_cell_length_a 15.268467
_cell_length_b 11.603423
_cell_length_c 12.508505
_cell_angle_alpha 66.687681
_cell_angle_beta 47.017743
_cell_angle_gamma 26.816972
_cell_volume 559.237790
_symmetry_space_group_name_H-M "P -1"
_symmetry_group_IT_number 2
_symmetry_cell_setting 'triclinic'
loop_
_space_group_symop_operation_xyz
x,y,z
-x,-y,-z
loop_
_atom_site_type_symbol
_atom_site_label
_atom_site_fract_x
_atom_site_fract_y
_atom_site_fract_z
Si Si1 0.686153 0.691464 0.453465
Si Si2 0.391741 0.392414 0.088985
Si Si3 0.050526 0.852502 0.802757
Si Si4 0.499320 0.391104 0.392726
Si Si5 0.071591 0.733121 0.440779
Si Si6 0.772734 0.769063 0.995121
Si Si7 0.621755 0.635929 0.133208
O O1 0.455092 0.803293 0.567742
O O2 0.818708 0.511924 0.521112
O O3 0.500000 0.000000 0.500000
O O4 0.984195 0.412156 0.228806
O O5 0.124817 0.687906 0.288200
O O6 0.523001 0.122124 0.097898
O O7 0.312937 0.474388 0.999790
O O8 0.689015 0.193084 0.943550
O O9 0.255764 0.655888 0.595188
O O10 0.193363 0.822863 0.769277
O O11 0.121131 0.660805 0.886161
O O12 0.308101 0.590629 0.366502
O O13 0.710876 0.097162 0.644913
O O14 0.609579 0.798586 0.081300
O O15 0.000000 0.500000 0.000000
#
# Coordination Sequence:
#
# PCOD9109860 Si02
#       7
#     2   2   2   2   2   2   2
#     4  10  20  41  67  98 135 173 225 281 336 401
#     4  12  23  46  67 101 141 182 228 289 336 409
#     4  11  22  45  76  94 140 190 225 278 348 407
#     4   9  21  45  70 101 133 189 227 280 340 411
#     4  10  24  44  65 104 141 171 231 286 337 406
#     4  12  22  42  67  99 138 181 227 277 346 406
#     4  12  25  44  68 104 138 180 230 283 345 406
#
# _framework density 25.034072999999999
#
# number of rings (size 3 to 8) (size 9 to 14) (size 15 to 20)
#    0.857    0.286    5.714    1.286    0.000    1.714 
#    7.714    0.714    0.000    0.000    0.000    0.000 
#    0.000    0.000    0.000    0.000    0.000    0.000 
#
# Total GULP energy -78416.638330 kJ/mol
# GULP energy per Si atom -5601.188452 kJ/mol
# Density = 2.497709 g / cm^3
# Si number density = 25.034073 Si / 1000 Ang^3
#
#
#
# Elastic Constant Matrix: (Units=GPa)
#
#
# Indices 1 2 3 4 5 6 
#
# 1 145.9270 19.5787 59.9670 2.1372 -6.1014 0.5863
# 2 19.5787 77.8124 7.4658 -10.1408 12.2748 3.7509
# 3 59.9670 7.4658 111.2874 -15.2252 24.0267 -7.4365
# 4 2.1372 -10.1408 -15.2252 23.4313 2.7372 4.2229
# 5 -6.1014 12.2748 24.0267 2.7372 53.1008 -16.4340
# 6 0.5863 3.7509 -7.4365 4.2229 -16.4340 48.0124
#
#
#
# Elastic Compliance Matrix: (Units=1/GPa)
#
#
# Indices 1 2 3 4 5 6 
#
# 1 0.011553 -0.004703 -0.008786 -0.010119 0.007646 0.002373
# 2 -0.004703 0.016803 0.004679 0.012574 -0.008609 -0.004583
# 3 -0.008786 0.004679 0.018067 0.016523 -0.012059 -0.003041
# 4 -0.010119 0.012574 0.016523 0.063684 -0.017935 -0.010040
# 5 0.007646 -0.008609 -0.012059 -0.017935 0.031509 0.011074
# 6 0.002373 -0.004583 -0.003041 -0.010040 0.011074 0.025360
#
#
# Mechanical properties :
#
#
# Convention : Reuss Voigt Hill
#
# Bulk Modulus (GPa) = 34.71816 56.56109 45.63962
# Shear Modulus (GPa) = 25.74718 41.44325 33.59521
#
# Velocity S-wave (km/s) = 3.21048 4.07317 3.66728
# Velocity P-wave (km/s) = 5.25751 6.69056 6.01685
#
# Compressibility (1/GPa) = 0.02880337
#
# Stress axis : x y z
#
# Youngs Moduli (GPa) = 86.55948 59.51194 55.34915
#
# Poissons Ratio (x) = 0.27989 0.48631
# Poissons Ratio (y) = 0.40710 -0.25901
# Poissons Ratio (z) = 0.76054 -0.27849
#
# Static dielectric constant tensor:
#      x y z
#    x 1.976750 0.029180 -0.018190 
#    y 0.029180 2.029770 0.005340 
#    z -0.018190 0.005340 1.918960 
# 
# From -- ./inp_files/449964.got.cif
#   From: 2010.05.17/outbox.cif.g08.bks.cpg/sg2_225_cif.got.tgz:449964.got - 2010.06.03 11:33:40.
