data_PCOD9109237
_publ_section_title
;
Structure prediction by ZEFSAII (Michael W. Deem and Ramdas Pophale) SiO2 
 PCOD9109237
Probable space group: P -1
;
_chemical_formula_sum "Si O2"
_cell_formula_units_Z 16
_cell_length_a 19.361317
_cell_length_b 11.885581
_cell_length_c 7.413370
_cell_angle_alpha 94.853447
_cell_angle_beta 121.619049
_cell_angle_gamma 38.139000
_cell_volume 701.634098
_symmetry_space_group_name_H-M "P -1"
_symmetry_group_IT_number 2
_symmetry_cell_setting 'triclinic'
loop_
_space_group_symop_operation_xyz
x,y,z
-x,-y,-z
loop_
_atom_site_type_symbol
_atom_site_label
_atom_site_fract_x
_atom_site_fract_y
_atom_site_fract_z
Si Si1 0.390059 0.347331 0.634354
Si Si2 0.910016 0.558583 0.712380
Si Si3 0.252263 0.490084 0.881316
Si Si4 0.480212 0.006288 0.759564
Si Si5 0.084019 0.215075 0.422632
Si Si6 0.384123 0.732549 0.972849
Si Si7 0.872588 0.121581 0.179603
Si Si8 0.028046 0.750850 0.102370
O O1 0.319456 0.428848 0.758948
O O2 0.508554 0.095126 0.728587
O O3 0.225143 0.531320 0.316765
O O4 0.494145 0.333805 0.759027
O O5 0.711867 0.790170 0.507611
O O6 0.927484 0.635366 0.597061
O O7 0.980929 0.343905 0.780760
O O8 0.000000 0.500000 0.000000
O O9 0.221647 0.647459 0.951674
O O10 0.077000 0.635825 0.669117
O O11 0.388826 0.249197 0.138698
O O12 0.500000 0.000000 0.000000
O O13 0.262086 0.958824 0.712347
O O14 0.061608 0.182210 0.191977
O O15 0.257812 0.812223 0.924948
O O16 0.500000 0.500000 0.000000
O O17 0.000000 0.000000 0.500000
O O18 0.963738 0.947359 0.118893
#
# Coordination Sequence:
#
# PCOD9109237 Si02
#       8
#     2   2   2   2   2   2   2   2
#     4  10  20  41  64  88 125 163 207 259 310 361
#     4   9  20  40  63  88 126 162 198 256 312 360
#     4  11  21  38  61  92 126 164 206 253 311 363
#     4   9  19  36  62  88 116 159 208 254 296 358
#     4  11  23  39  66  93 122 170 207 254 311 371
#     4  12  23  40  64  90 123 164 206 256 312 368
#     4  12  22  42  62  89 129 167 202 260 310 368
#     4  10  22  43  64  92 125 164 208 253 311 373
#
# _framework density 22.803909000000001
#
# number of rings (size 3 to 8) (size 9 to 14) (size 15 to 20)
#    0.000    1.500    3.750    1.500    0.000    1.500 
#    0.000   16.875    0.000    0.000    0.000    0.000 
#    0.000    0.000    0.000    0.000    0.000    0.000 
#
# Total GULP energy -89395.979039 kJ/mol
# GULP energy per Si atom -5587.248690 kJ/mol
# Density = 2.275201 g / cm^3
# Si number density = 22.803909 Si / 1000 Ang^3
#
#
#
# Elastic Constant Matrix: (Units=GPa)
#
#
# Indices 1 2 3 4 5 6 
#
# 1 97.7504 28.8951 10.4407 4.3922 14.1448 23.1440
# 2 28.8951 131.8434 31.3708 -11.7158 -14.4639 28.0175
# 3 10.4407 31.3708 83.5595 -0.1320 10.1447 11.7549
# 4 4.3922 -11.7158 -0.1320 34.1748 8.3093 0.8805
# 5 14.1448 -14.4639 10.1447 8.3093 37.9301 4.7668
# 6 23.1440 28.0175 11.7549 0.8805 4.7668 39.0509
#
#
#
# Elastic Compliance Matrix: (Units=1/GPa)
#
#
# Indices 1 2 3 4 5 6 
#
# 1 0.012969 -0.002504 0.000697 -0.001157 -0.005038 -0.005459
# 2 -0.002504 0.011358 -0.003838 0.002789 0.006480 -0.006363
# 3 0.000697 -0.003838 0.014148 -0.000019 -0.005345 -0.001265
# 4 -0.001157 0.002789 -0.000019 0.031682 -0.005267 -0.001381
# 5 -0.005038 0.006480 -0.005345 -0.005267 0.033808 -0.004062
# 6 -0.005459 -0.006363 -0.001265 -0.001381 -0.004062 0.034316
#
#
# Mechanical properties :
#
#
# Convention : Reuss Voigt Hill
#
# Bulk Modulus (GPa) = 36.78412 50.50739 43.64575
# Shear Modulus (GPa) = 31.51919 38.39426 34.95673
#
# Velocity S-wave (km/s) = 3.72181 4.10771 3.91951
# Velocity P-wave (km/s) = 5.88513 6.68538 6.29798
#
# Compressibility (1/GPa) = 0.02718564
#
# Stress axis : x y z
#
# Youngs Moduli (GPa) = 77.10521 88.04549 70.67990
#
# Poissons Ratio (x) = 0.22045 -0.04928
# Poissons Ratio (y) = 0.19305 0.27129
# Poissons Ratio (z) = -0.05376 0.33795
#
# Static dielectric constant tensor:
#      x y z
#    x 1.962780 -0.107230 -0.047510 
#    y -0.107230 2.097660 -0.021710 
#    z -0.047510 -0.021710 1.827460 
# 
# From -- ./inp_files/345406.got.cif
#   From: 2010.05.17/outbox.cif.g08.bks.cpg/sg2_173_cif.got.tgz:345406.got - 2010.06.03 11:33:40.
