data_PCOD9109087
_publ_section_title
;
Structure prediction by ZEFSAII (Michael W. Deem and Ramdas Pophale) SiO2 
 PCOD9109087
Probable space group: P -1
;
_chemical_formula_sum "Si O2"
_cell_formula_units_Z 14
_cell_length_a 8.752514
_cell_length_b 11.405687
_cell_length_c 6.590565
_cell_angle_alpha 90.099691
_cell_angle_beta 79.569193
_cell_angle_gamma 109.634083
_cell_volume 608.190495
_symmetry_space_group_name_H-M "P -1"
_symmetry_group_IT_number 2
_symmetry_cell_setting 'triclinic'
loop_
_space_group_symop_operation_xyz
x,y,z
-x,-y,-z
loop_
_atom_site_type_symbol
_atom_site_label
_atom_site_fract_x
_atom_site_fract_y
_atom_site_fract_z
Si Si1 0.113469 0.453492 0.822216
Si Si2 0.884124 0.187718 0.704759
Si Si3 0.185635 0.125882 0.595593
Si Si4 0.695184 0.984712 0.079393
Si Si5 0.695496 0.325480 0.500611
Si Si6 0.582366 0.604670 0.311411
Si Si7 0.471226 0.129843 0.253769
O O1 0.169301 0.550630 0.621356
O O2 0.290508 0.441295 0.852716
O O3 0.997267 0.317523 0.779203
O O4 0.000000 0.500000 0.000000
O O5 0.786920 0.096741 0.905944
O O6 0.771129 0.228020 0.575786
O O7 0.009640 0.128376 0.570342
O O8 0.294659 0.269562 0.617643
O O9 0.299246 0.084635 0.414160
O O10 0.182274 0.052666 0.804732
O O11 0.585911 0.869981 0.965324
O O12 0.567991 0.032007 0.235583
O O13 0.579721 0.358899 0.697770
O O14 0.585869 0.255766 0.333035
O O15 0.500000 0.500000 0.500000
#
# Coordination Sequence:
#
# PCOD9109087 Si02
#       7
#     2   2   2   2   2   2   2
#     4  10  20  41  62  93 127 162 209 263 313 375
#     4  11  24  40  64  94 127 169 207 263 319 373
#     4  10  22  43  63  88 132 167 209 262 313 374
#     4  11  24  40  65  94 126 168 217 256 309 382
#     4  10  21  41  67  89 125 168 209 259 315 375
#     4   8  18  37  65  84 118 165 206 248 309 371
#     4  10  24  41  65  92 125 166 217 255 314 370
#
# _framework density 23.019103999999999
#
# number of rings (size 3 to 8) (size 9 to 14) (size 15 to 20)
#    0.000    2.000    0.000    2.143   10.000    0.571 
#    7.714    0.714    0.000    0.000    0.000    0.000 
#    0.000    0.000    0.000    0.000    0.000    0.000 
#
# Total GULP energy -78134.661915 kJ/mol
# GULP energy per Si atom -5581.047280 kJ/mol
# Density = 2.296671 g / cm^3
# Si number density = 23.019104 Si / 1000 Ang^3
#
#
#
# Elastic Constant Matrix: (Units=GPa)
#
#
# Indices 1 2 3 4 5 6 
#
# 1 142.8854 43.4102 51.9570 -5.4950 -38.5532 -32.4478
# 2 43.4102 113.2111 50.6670 -18.1319 -12.0635 6.4934
# 3 51.9570 50.6670 70.7361 0.0005 -27.4228 -12.4508
# 4 -5.4950 -18.1319 0.0005 39.9613 -5.0093 -7.2982
# 5 -38.5532 -12.0635 -27.4228 -5.0093 41.6504 2.2303
# 6 -32.4478 6.4934 -12.4508 -7.2982 2.2303 48.8226
#
#
#
# Elastic Compliance Matrix: (Units=1/GPa)
#
#
# Indices 1 2 3 4 5 6 
#
# 1 0.013697 -0.003105 -0.002309 0.003390 0.010186 0.008968
# 2 -0.003105 0.016288 -0.012669 0.005092 -0.005540 -0.006446
# 3 -0.002309 -0.012669 0.031725 -0.002964 0.014342 0.007142
# 4 0.003390 0.005092 -0.002964 0.029449 0.005938 0.004951
# 5 0.010186 -0.005540 0.014342 0.005938 0.041447 0.010158
# 6 0.008968 -0.006446 0.007142 0.004951 0.010158 0.029398
#
#
# Mechanical properties :
#
#
# Convention : Reuss Voigt Hill
#
# Bulk Modulus (GPa) = 39.14723 68.76680 53.95701
# Shear Modulus (GPa) = 24.19135 38.14009 31.16572
#
# Velocity S-wave (km/s) = 3.24531 4.07491 3.68354
# Velocity P-wave (km/s) = 5.57549 7.21654 6.44843
#
# Compressibility (1/GPa) = 0.02554459
#
# Stress axis : x y z
#
# Youngs Moduli (GPa) = 73.00850 61.39311 31.52058
#
# Poissons Ratio (x) = 0.19060 0.07279
# Poissons Ratio (y) = 0.22666 0.39934
# Poissons Ratio (z) = 0.16861 0.77779
#
# Static dielectric constant tensor:
#      x y z
#    x 1.925080 -0.018090 -0.004400 
#    y -0.018090 1.871600 0.037160 
#    z -0.004400 0.037160 1.864210 
# 
# From -- ./inp_files/27605.got.cif
#   From: 2010.05.17/outbox.cif.g08.bks.cpg/sg2_14_cif.got.tgz:27605.got - 2010.06.03 11:33:40.
