data_PCOD9109965
_publ_section_title
;
Structure prediction by ZEFSAII (Michael W. Deem and Ramdas Pophale) SiO2 
 PCOD9109965
Probable space group: P -1
;
_chemical_formula_sum "Si O2"
_cell_formula_units_Z 16
_cell_length_a 23.999099
_cell_length_b 18.615942
_cell_length_c 7.848787
_cell_angle_alpha 142.095911
_cell_angle_beta 130.439644
_cell_angle_gamma 21.381735
_cell_volume 725.061585
_symmetry_space_group_name_H-M "P -1"
_symmetry_group_IT_number 2
_symmetry_cell_setting 'triclinic'
loop_
_space_group_symop_operation_xyz
x,y,z
-x,-y,-z
loop_
_atom_site_type_symbol
_atom_site_label
_atom_site_fract_x
_atom_site_fract_y
_atom_site_fract_z
Si Si1 0.025154 0.587555 0.988748
Si Si2 0.522781 0.583464 0.813670
Si Si3 0.221507 0.391571 0.709917
Si Si4 0.668864 0.203578 0.850988
Si Si5 0.054644 0.042731 0.897638
Si Si6 0.890895 0.037031 0.549308
Si Si7 0.503481 0.846480 0.050216
Si Si8 0.250058 0.132261 0.842941
O O1 0.865808 0.732717 0.971439
O O2 0.110833 0.465702 0.746243
O O3 0.154890 0.359344 0.960267
O O4 0.968363 0.801932 0.307468
O O5 0.500000 0.500000 0.500000
O O6 0.702216 0.317219 0.758628
O O7 0.379415 0.790119 0.055398
O O8 0.521880 0.699751 0.914936
O O9 0.325366 0.328640 0.924595
O O10 0.360073 0.128855 0.383092
O O11 0.100448 0.645927 0.834337
O O12 0.734514 0.010847 0.494946
O O13 0.500000 0.500000 0.000000
O O14 0.803799 0.107578 0.984784
O O15 0.995191 0.998636 0.744303
O O16 0.114996 0.950203 0.646516
O O17 0.429048 0.920668 0.858735
#
# Coordination Sequence:
#
# PCOD9109965 Si02
#       8
#     2   2   2   2   2   2   2   2
#     4  10  23  43  64  98 129 175 218 263 328 392
#     4  12  22  41  67 100 130 171 222 269 325 383
#     4  10  23  44  69  97 124 171 229 269 323 380
#     4  12  26  42  64  99 137 172 215 269 333 391
#     4  10  22  40  67  95 130 166 219 270 317 392
#     4  10  20  41  68  96 124 171 218 270 321 373
#     4  11  24  43  69  96 131 169 219 279 320 389
#     4  11  26  43  63  96 138 172 214 267 335 389
#
# _framework density 22.067091000000001
#
# number of rings (size 3 to 8) (size 9 to 14) (size 15 to 20)
#    0.000    1.250    2.500    3.000    5.250    1.000 
#    0.000    6.250    0.000    0.000    0.000    0.000 
#    0.000    0.000    0.000    0.000    0.000    0.000 
#
# Total GULP energy -89560.527092 kJ/mol
# GULP energy per Si atom -5597.532943 kJ/mol
# Density = 2.201687 g / cm^3
# Si number density = 22.067091 Si / 1000 Ang^3
#
#
#
# Elastic Constant Matrix: (Units=GPa)
#
#
# Indices 1 2 3 4 5 6 
#
# 1 37.0170 6.6089 2.7192 0.3630 9.4504 -2.3878
# 2 6.6089 152.5148 37.3344 -14.3208 26.1736 -9.3646
# 3 2.7192 37.3344 48.5384 -7.5829 6.8706 -2.9630
# 4 0.3630 -14.3208 -7.5829 42.9930 -2.0487 8.3347
# 5 9.4504 26.1736 6.8706 -2.0487 33.6969 6.5402
# 6 -2.3878 -9.3646 -2.9630 8.3347 6.5402 26.9584
#
#
#
# Elastic Compliance Matrix: (Units=1/GPa)
#
#
# Indices 1 2 3 4 5 6 
#
# 1 0.029898 0.000829 -0.000797 -0.001729 -0.010104 0.005835
# 2 0.000829 0.009568 -0.005980 0.000971 -0.007199 0.004186
# 3 -0.000797 -0.005980 0.025668 0.002545 -0.000198 -0.000066
# 4 -0.001729 0.000971 0.002545 0.025720 0.002339 -0.008055
# 5 -0.010104 -0.007199 -0.000198 0.002339 0.041019 -0.014092
# 6 0.005835 0.004186 -0.000066 -0.008055 -0.014092 0.044967
#
#
# Mechanical properties :
#
#
# Convention : Reuss Voigt Hill
#
# Bulk Modulus (GPa) = 18.78281 36.82169 27.80225
# Shear Modulus (GPa) = 24.21527 33.49018 28.85273
#
# Velocity S-wave (km/s) = 3.31622 3.89993 3.61986
# Velocity P-wave (km/s) = 4.81594 6.08291 5.48612
#
# Compressibility (1/GPa) = 0.05324016
#
# Stress axis : x y z
#
# Youngs Moduli (GPa) = 33.44706 104.51239 38.95885
#
# Poissons Ratio (x) = -0.08668 0.03103
# Poissons Ratio (y) = -0.02774 0.23297
# Poissons Ratio (z) = 0.02664 0.62497
#
# Static dielectric constant tensor:
#      x y z
#    x 0.995080 -0.885220 0.022900 
#    y -0.885220 0.836620 0.061510 
#    z 0.022900 0.061510 1.789980 
# 
# From -- ./inp_files/357818.got.cif
#   From: 2010.05.17/outbox.cif.g08.bks.cpg/sg2_179_cif.got.tgz:357818.got - 2010.06.03 11:33:40.
