data_PCOD9109319
_publ_section_title
;
Structure prediction by ZEFSAII (Michael W. Deem and Ramdas Pophale) SiO2 
 PCOD9109319
Probable space group: P -1
;
_chemical_formula_sum "Si O2"
_cell_formula_units_Z 16
_cell_length_a 15.987231
_cell_length_b 9.110288
_cell_length_c 10.548431
_cell_angle_alpha 121.373321
_cell_angle_beta 80.271381
_cell_angle_gamma 142.079808
_cell_volume 715.514975
_symmetry_space_group_name_H-M "P -1"
_symmetry_group_IT_number 2
_symmetry_cell_setting 'triclinic'
loop_
_space_group_symop_operation_xyz
x,y,z
-x,-y,-z
loop_
_atom_site_type_symbol
_atom_site_label
_atom_site_fract_x
_atom_site_fract_y
_atom_site_fract_z
Si Si1 0.863163 0.398388 0.523342
Si Si2 0.846282 0.696760 0.480994
Si Si3 0.755444 0.183663 0.974791
Si Si4 0.550473 0.714416 0.396966
Si Si5 0.469548 0.712549 0.690883
Si Si6 0.957886 0.123005 0.090107
Si Si7 0.356893 0.290198 0.030252
Si Si8 0.080806 0.853882 0.178437
O O1 0.851573 0.525322 0.475858
O O2 0.000000 0.500000 0.500000
O O3 0.917963 0.582612 0.720610
O O4 0.704868 0.035554 0.431970
O O5 0.688169 0.448956 0.333236
O O6 0.000000 0.000000 0.500000
O O7 0.843423 0.849716 0.651621
O O8 0.812532 0.134543 0.834375
O O9 0.612762 0.032792 0.875496
O O10 0.695856 0.981058 0.020968
O O11 0.909202 0.541743 0.134819
O O12 0.516466 0.765225 0.555284
O O13 0.558798 0.527578 0.352833
O O14 0.414313 0.495027 0.229667
O O15 0.947144 0.184334 0.981402
O O16 0.786538 0.862948 0.070316
O O17 0.000000 0.000000 0.000000
O O18 0.500000 0.500000 0.000000
#
# Coordination Sequence:
#
# PCOD9109319 Si02
#       8
#     2   2   2   2   2   2   2   2
#     4  12  26  43  66  99 131 175 221 268 331 389
#     4  12  26  41  61  92 137 169 217 275 327 377
#     4   9  20  38  70  92 123 162 215 259 322 395
#     4  10  21  39  67  91 129 167 213 262 326 393
#     4  10  20  41  64  95 124 167 215 269 325 383
#     4  11  22  42  68  91 126 170 219 268 317 385
#     4  10  21  37  61  94 129 170 208 262 323 390
#     4  10  20  41  66  96 120 170 218 263 317 394
#
# _framework density 22.361516000000002
#
# number of rings (size 3 to 8) (size 9 to 14) (size 15 to 20)
#    0.000    1.500    1.250    5.250    0.000    7.500 
#    2.250    0.625    0.000    0.000    0.000    0.000 
#    0.000    0.000    0.000    0.000    0.000    0.000 
#
# Total GULP energy -89475.275185 kJ/mol
# GULP energy per Si atom -5592.204699 kJ/mol
# Density = 2.231062 g / cm^3
# Si number density = 22.361516 Si / 1000 Ang^3
#
#
#
# Elastic Constant Matrix: (Units=GPa)
#
#
# Indices 1 2 3 4 5 6 
#
# 1 88.6684 25.5642 11.4066 13.8104 22.2549 14.5072
# 2 25.5642 141.1177 6.7140 19.2189 11.7050 15.9228
# 3 11.4066 6.7140 62.3404 15.6765 10.7367 -3.7420
# 4 13.8104 19.2189 15.6765 34.8595 7.6898 4.4004
# 5 22.2549 11.7050 10.7367 7.6898 35.2937 6.2591
# 6 14.5072 15.9228 -3.7420 4.4004 6.2591 24.3329
#
#
#
# Elastic Compliance Matrix: (Units=1/GPa)
#
#
# Indices 1 2 3 4 5 6 
#
# 1 0.014882 -0.001028 -0.001135 -0.002488 -0.007073 -0.006105
# 2 -0.001028 0.008251 0.000056 -0.003526 -0.000632 -0.003978
# 3 -0.001135 0.000056 0.019444 -0.008110 -0.004563 0.006271
# 4 -0.002488 -0.003526 -0.008110 0.036155 -0.002057 -0.003466
# 5 -0.007073 -0.000632 -0.004563 -0.002057 0.035706 -0.004884
# 6 -0.006105 -0.003978 0.006271 -0.003466 -0.004884 0.050187
#
#
# Mechanical properties :
#
#
# Convention : Reuss Voigt Hill
#
# Bulk Modulus (GPa) = 26.06580 42.16622 34.11601
# Shear Modulus (GPa) = 27.52908 35.46001 31.49455
#
# Velocity S-wave (km/s) = 3.51250 3.98648 3.75697
# Velocity P-wave (km/s) = 5.30396 6.33142 5.84033
#
# Compressibility (1/GPa) = 0.03836445
#
# Stress axis : x y z
#
# Youngs Moduli (GPa) = 67.19547 121.19469 51.42876
#
# Poissons Ratio (x) = 0.12453 0.05837
# Poissons Ratio (y) = 0.06905 -0.00288
# Poissons Ratio (z) = 0.07627 -0.00679
#
# Static dielectric constant tensor:
#      x y z
#    x 1.879330 0.005380 -0.016870 
#    y 0.005380 1.899760 0.017030 
#    z -0.016870 0.017030 1.822140 
# 
# From -- ./inp_files/448054.got.cif
#   From: 2010.05.17/outbox.cif.g08.bks.cpg/sg2_225_cif.got.tgz:448054.got - 2010.06.03 11:33:40.
