data_PCOD9109198
_publ_section_title
;
Structure prediction by ZEFSAII (Michael W. Deem and Ramdas Pophale) SiO2 
 PCOD9109198
Probable space group: P -1
;
_chemical_formula_sum "Si O2"
_cell_formula_units_Z 14
_cell_length_a 9.571196
_cell_length_b 7.883612
_cell_length_c 7.402615
_cell_angle_alpha 80.295561
_cell_angle_beta 76.539741
_cell_angle_gamma 91.584801
_cell_volume 534.147128
_symmetry_space_group_name_H-M "P -1"
_symmetry_group_IT_number 2
_symmetry_cell_setting 'triclinic'
loop_
_space_group_symop_operation_xyz
x,y,z
-x,-y,-z
loop_
_atom_site_type_symbol
_atom_site_label
_atom_site_fract_x
_atom_site_fract_y
_atom_site_fract_z
Si Si1 0.848855 0.378344 0.589542
Si Si2 0.121156 0.245502 0.957096
Si Si3 0.651564 0.673169 0.576557
Si Si4 0.860248 0.352759 0.199982
Si Si5 0.591532 0.204344 0.110821
Si Si6 0.947833 0.889623 0.362792
Si Si7 0.425599 0.198368 0.808892
O O1 0.725136 0.501868 0.649340
O O2 0.800278 0.304532 0.421785
O O3 0.000000 0.500000 0.500000
O O4 0.910908 0.219443 0.699499
O O5 0.110633 0.440012 0.845197
O O6 0.097414 0.100206 0.836870
O O7 0.285096 0.233841 0.964917
O O8 0.003759 0.252509 0.146625
O O9 0.528084 0.714592 0.744133
O O10 0.794435 0.803199 0.497367
O O11 0.586003 0.684953 0.388574
O O12 0.744622 0.299139 0.094563
O O13 0.586399 0.003015 0.203122
O O14 0.555249 0.217673 0.907917
O O15 0.000000 0.000000 0.500000
#
# Coordination Sequence:
#
# PCOD9109198 Si02
#       7
#     2   2   2   2   2   2   2
#     4  10  20  41  63  97 128 165 222 267 325 386
#     4  10  23  44  66  92 133 166 220 283 316 389
#     4  10  22  45  64  94 135 174 218 274 323 392
#     4  11  23  42  66  98 124 170 223 268 329 391
#     4  11  26  41  68  94 134 180 214 271 336 395
#     4  10  22  40  67 100 127 171 220 270 333 386
#     4  10  23  46  60  97 136 170 222 269 332 388
#
# _framework density 26.210007999999998
#
# number of rings (size 3 to 8) (size 9 to 14) (size 15 to 20)
#    0.000    1.714    4.286    0.429    8.000    4.000 
#    2.571    0.000    0.000    0.000    0.000    0.000 
#    0.000    0.000    0.000    0.000    0.000    0.000 
#
# Total GULP energy -78195.275310 kJ/mol
# GULP energy per Si atom -5585.376808 kJ/mol
# Density = 2.615035 g / cm^3
# Si number density = 26.210008 Si / 1000 Ang^3
#
#
#
# Elastic Constant Matrix: (Units=GPa)
#
#
# Indices 1 2 3 4 5 6 
#
# 1 91.6270 34.8800 28.5635 12.3222 11.3384 -22.7459
# 2 34.8800 62.1743 27.3433 11.5353 -2.8116 -6.0628
# 3 28.5635 27.3433 62.5272 10.6770 12.2307 11.3849
# 4 12.3222 11.5353 10.6770 32.5989 -6.2180 -3.0563
# 5 11.3384 -2.8116 12.2307 -6.2180 60.5974 13.8404
# 6 -22.7459 -6.0628 11.3849 -3.0563 13.8404 47.6101
#
#
#
# Elastic Compliance Matrix: (Units=1/GPa)
#
#
# Indices 1 2 3 4 5 6 
#
# 1 0.019320 -0.006627 -0.006432 -0.002838 -0.005506 0.011343
# 2 -0.006627 0.023927 -0.007762 -0.002698 0.003516 0.000542
# 3 -0.006432 -0.007762 0.025353 -0.004515 -0.002527 -0.009679
# 4 -0.002838 -0.002698 -0.004515 0.035132 0.004872 0.000219
# 5 -0.005506 0.003516 -0.002527 0.004872 0.020346 -0.007181
# 6 0.011343 0.000542 -0.009679 0.000219 -0.007181 0.030908
#
#
# Mechanical properties :
#
#
# Convention : Reuss Voigt Hill
#
# Bulk Modulus (GPa) = 37.09149 44.21136 40.65142
# Shear Modulus (GPa) = 24.31734 36.53071 30.42403
#
# Velocity S-wave (km/s) = 3.04927 3.73737 3.41072
# Velocity P-wave (km/s) = 5.15555 5.96059 5.57263
#
# Compressibility (1/GPa) = 0.02696036
#
# Stress axis : x y z
#
# Youngs Moduli (GPa) = 51.75909 41.79298 39.44279
#
# Poissons Ratio (x) = 0.27694 0.25368
# Poissons Ratio (y) = 0.34298 0.30616
# Poissons Ratio (z) = 0.33289 0.32440
#
# Static dielectric constant tensor:
#      x y z
#    x 2.040580 0.036330 -0.018120 
#    y 0.036330 2.234460 -0.106740 
#    z -0.018120 -0.106740 2.102480 
# 
# From -- ./inp_files/155443.got.cif
#   From: 2010.05.17/outbox.cif.g08.bks.cpg/sg2_78_cif.got.tgz:155443.got - 2010.06.03 11:33:40.
