data_PCOD9109297
_publ_section_title
;
Structure prediction by ZEFSAII (Michael W. Deem and Ramdas Pophale) SiO2 
 PCOD9109297
Probable space group: P -1
;
_chemical_formula_sum "Si O2"
_cell_formula_units_Z 16
_cell_length_a 14.556114
_cell_length_b 24.430644
_cell_length_c 18.800014
_cell_angle_alpha 161.019792
_cell_angle_beta 151.849661
_cell_angle_gamma 19.856408
_cell_volume 736.779091
_symmetry_space_group_name_H-M "P -1"
_symmetry_group_IT_number 2
_symmetry_cell_setting 'triclinic'
loop_
_space_group_symop_operation_xyz
x,y,z
-x,-y,-z
loop_
_atom_site_type_symbol
_atom_site_label
_atom_site_fract_x
_atom_site_fract_y
_atom_site_fract_z
Si Si1 0.816928 0.440539 0.731425
Si Si2 0.435688 0.707589 0.169799
Si Si3 0.553864 0.990444 0.353285
Si Si4 0.188270 0.878811 0.729213
Si Si5 0.570199 0.913131 0.113900
Si Si6 0.722391 0.353181 0.300383
Si Si7 0.553072 0.141466 0.252093
Si Si8 0.301722 0.843545 0.091308
O O1 0.555031 0.561960 0.752048
O O2 0.118838 0.207239 0.673672
O O3 0.768927 0.348061 0.516720
O O4 0.820887 0.636590 0.959262
O O5 0.484644 0.700066 0.109755
O O6 0.113434 0.905320 0.191309
O O7 0.534070 0.801521 0.401688
O O8 0.500000 0.500000 0.000000
O O9 0.451494 0.047362 0.272489
O O10 0.454623 0.887129 0.200410
O O11 0.226759 0.899620 0.697381
O O12 0.372751 0.897022 0.920729
O O13 0.627836 0.032921 0.248092
O O14 0.686724 0.575362 0.560203
O O15 0.732891 0.299088 0.157583
O O16 0.997616 0.106627 0.217709
O O17 0.500000 0.000000 0.000000
#
# Coordination Sequence:
#
# PCOD9109297 Si02
#       8
#     2   2   2   2   2   2   2   2
#     4  10  20  41  64  93 128 161 216 268 316 380
#     4  11  26  44  62  91 134 175 211 261 333 390
#     4  11  25  41  63  99 127 169 221 265 325 380
#     4   9  21  41  62  91 125 171 218 261 319 383
#     4  11  20  36  65  96 125 161 213 275 316 371
#     4  10  22  42  68  98 126 169 224 264 320 382
#     4   9  21  38  62  96 127 160 211 273 326 362
#     4  11  24  43  68  93 132 174 218 264 318 395
#
# _framework density 21.716142999999999
#
# number of rings (size 3 to 8) (size 9 to 14) (size 15 to 20)
#    0.000    1.750    1.250    1.875    3.500    8.000 
#    0.000    3.125    0.000    0.000    0.000    0.000 
#    0.000    0.000    0.000    0.000    0.000    0.000 
#
# Total GULP energy -89170.726755 kJ/mol
# GULP energy per Si atom -5573.170422 kJ/mol
# Density = 2.166672 g / cm^3
# Si number density = 21.716143 Si / 1000 Ang^3
#
#
#
# Elastic Constant Matrix: (Units=GPa)
#
#
# Indices 1 2 3 4 5 6 
#
# 1 115.6596 21.5438 31.1923 -4.6561 -6.3657 31.2784
# 2 21.5438 31.1611 31.7944 -3.6286 -9.2256 4.6268
# 3 31.1923 31.7944 123.5030 2.9029 -4.6889 24.1368
# 4 -4.6561 -3.6286 2.9029 28.8193 5.2310 -3.5894
# 5 -6.3657 -9.2256 -4.6889 5.2310 27.4794 -3.9318
# 6 31.2784 4.6268 24.1368 -3.5894 -3.9318 47.6787
#
#
#
# Elastic Compliance Matrix: (Units=1/GPa)
#
#
# Indices 1 2 3 4 5 6 
#
# 1 0.011934 -0.007799 0.000390 0.000151 -0.000865 -0.007330
# 2 -0.007799 0.054734 -0.013287 0.005360 0.014444 0.008125
# 3 0.000390 -0.013287 0.012522 -0.003141 -0.002458 -0.005745
# 4 0.000151 0.005360 -0.003141 0.037088 -0.005286 0.003327
# 5 -0.000865 0.014444 -0.002458 -0.005286 0.042125 0.003486
# 6 -0.007330 0.008125 -0.005745 0.003327 0.003486 0.028440
#
#
# Mechanical properties :
#
#
# Convention : Reuss Voigt Hill
#
# Bulk Modulus (GPa) = 26.45563 48.82052 37.63808
# Shear Modulus (GPa) = 20.76113 33.18169 26.97141
#
# Velocity S-wave (km/s) = 3.09532 3.91317 3.52802
# Velocity P-wave (km/s) = 4.99836 6.55341 5.82798
#
# Compressibility (1/GPa) = 0.03779914
#
# Stress axis : x y z
#
# Youngs Moduli (GPa) = 83.79206 18.27026 79.85789
#
# Poissons Ratio (x) = 0.14248 -0.03111
# Poissons Ratio (y) = 0.65346 1.06103
# Poissons Ratio (z) = -0.03264 0.24275
#
# Static dielectric constant tensor:
#      x y z
#    x 1.922980 0.132720 -0.014180 
#    y 0.132720 1.929750 -0.000950 
#    z -0.014180 -0.000950 1.864020 
# 
# From -- ./inp_files/574438.got.cif
#   From: 2010.05.17/outbox.cif.g08.bks.cpg/sg2_288_cif.got.tgz:574438.got - 2010.06.03 11:33:40.
