data_PCOD9109096
_publ_section_title
;
Structure prediction by ZEFSAII (Michael W. Deem and Ramdas Pophale) SiO2 
 PCOD9109096
Probable space group: P -1
;
_chemical_formula_sum "Si O2"
_cell_formula_units_Z 14
_cell_length_a 7.170058
_cell_length_b 14.846477
_cell_length_c 13.681314
_cell_angle_alpha 146.228801
_cell_angle_beta 121.253455
_cell_angle_gamma 81.575983
_cell_volume 554.041153
_symmetry_space_group_name_H-M "P -1"
_symmetry_group_IT_number 2
_symmetry_cell_setting 'triclinic'
loop_
_space_group_symop_operation_xyz
x,y,z
-x,-y,-z
loop_
_atom_site_type_symbol
_atom_site_label
_atom_site_fract_x
_atom_site_fract_y
_atom_site_fract_z
Si Si1 0.834482 0.461931 0.693957
Si Si2 0.640993 0.517029 0.348859
Si Si3 0.568446 0.222595 0.215065
Si Si4 0.109363 0.853664 0.508702
Si Si5 0.998119 0.048351 0.220596
Si Si6 0.283579 0.258047 0.856518
Si Si7 0.779285 0.122301 0.745858
O O1 0.608511 0.497067 0.683048
O O2 0.778884 0.374309 0.490837
O O3 0.792918 0.285947 0.591283
O O4 0.121441 0.667844 0.986969
O O5 0.663286 0.353511 0.259661
O O6 0.883592 0.752886 0.631343
O O7 0.548021 0.451295 0.152047
O O8 0.500000 0.000000 0.000000
O O9 0.257918 0.148853 0.079638
O O10 0.103559 0.914744 0.672717
O O11 0.813292 0.732973 0.268182
O O12 0.289310 0.066407 0.693456
O O13 0.205151 0.007048 0.281641
O O14 0.026131 0.193370 0.799220
O O15 0.500000 0.000000 0.500000
#
# Coordination Sequence:
#
# PCOD9109096 Si02
#       7
#     2   2   2   2   2   2   2
#     4  11  23  42  70  92 132 182 217 273 342 379
#     4  11  24  41  68  98 130 177 222 276 333 390
#     4  12  23  49  69  93 141 172 224 278 327 400
#     4  10  20  41  62  96 126 181 218 268 335 392
#     4  11  24  44  64 101 135 173 223 276 326 395
#     4   9  20  41  64  89 141 176 220 269 339 390
#     4  10  23  42  63 101 139 172 221 279 325 401
#
# _framework density 25.268881
#
# number of rings (size 3 to 8) (size 9 to 14) (size 15 to 20)
#    0.000    1.429    5.714    0.429    4.000    2.857 
#    5.143    0.000    0.000    0.000    0.000    0.000 
#    0.000    0.000    0.000    0.000    0.000    0.000 
#
# Total GULP energy -78266.989512 kJ/mol
# GULP energy per Si atom -5590.499251 kJ/mol
# Density = 2.521137 g / cm^3
# Si number density = 25.268881 Si / 1000 Ang^3
#
#
#
# Elastic Constant Matrix: (Units=GPa)
#
#
# Indices 1 2 3 4 5 6 
#
# 1 48.4331 17.1529 28.1082 8.6420 3.4065 -6.2560
# 2 17.1529 141.1467 48.6919 4.9674 -0.0695 -18.1429
# 3 28.1082 48.6919 174.4578 -16.3602 14.0810 -4.1503
# 4 8.6420 4.9674 -16.3602 49.0101 -3.0042 -4.3801
# 5 3.4065 -0.0695 14.0810 -3.0042 44.1042 3.4011
# 6 -6.2560 -18.1429 -4.1503 -4.3801 3.4011 29.4073
#
#
#
# Elastic Compliance Matrix: (Units=1/GPa)
#
#
# Indices 1 2 3 4 5 6 
#
# 1 0.024845 -0.000990 -0.004049 -0.005402 -0.001261 0.003444
# 2 -0.000990 0.008611 -0.002262 -0.001019 0.000389 0.004586
# 3 -0.004049 -0.002262 0.007457 0.003276 -0.001809 -0.000507
# 4 -0.005402 -0.001019 0.003276 0.022778 0.000768 0.001988
# 5 -0.001261 0.000389 -0.001809 0.000768 0.023625 -0.002902
# 6 0.003444 0.004586 -0.000507 0.001988 -0.002902 0.038127
#
#
# Mechanical properties :
#
#
# Convention : Reuss Voigt Hill
#
# Bulk Modulus (GPa) = 38.00771 61.32708 49.66739
# Shear Modulus (GPa) = 33.59833 42.50995 38.05414
#
# Velocity S-wave (km/s) = 3.65037 4.10604 3.88489
# Velocity P-wave (km/s) = 5.73070 6.84119 6.31042
#
# Compressibility (1/GPa) = 0.02631045
#
# Stress axis : x y z
#
# Youngs Moduli (GPa) = 40.24908 116.13162 134.10306
#
# Poissons Ratio (x) = 0.11499 0.54305
# Poissons Ratio (y) = 0.03985 0.30330
# Poissons Ratio (z) = 0.16299 0.26266
#
# Static dielectric constant tensor:
#      x y z
#    x 2.112050 -0.041710 0.018470 
#    y -0.041710 1.981930 -0.016920 
#    z 0.018470 -0.016920 1.987750 
# 
# From -- ./inp_files/379204.got.cif
#   From: 2010.05.17/outbox.cif.g08.bks.cpg/sg2_190_cif.got.tgz:379204.got - 2010.06.03 11:33:40.
