data_PCOD9109469
_publ_section_title
;
Structure prediction by ZEFSAII (Michael W. Deem and Ramdas Pophale) SiO2 
 PCOD9109469
Probable space group: P -1
;
_chemical_formula_sum "Si O2"
_cell_formula_units_Z 16
_cell_length_a 19.464293
_cell_length_b 7.091926
_cell_length_c 21.809272
_cell_angle_alpha 73.030601
_cell_angle_beta 12.286569
_cell_angle_gamma 73.008700
_cell_volume 612.385377
_symmetry_space_group_name_H-M "P -1"
_symmetry_group_IT_number 2
_symmetry_cell_setting 'triclinic'
loop_
_space_group_symop_operation_xyz
x,y,z
-x,-y,-z
loop_
_atom_site_type_symbol
_atom_site_label
_atom_site_fract_x
_atom_site_fract_y
_atom_site_fract_z
Si Si1 0.827901 0.769414 0.244508
Si Si2 0.842453 0.093137 0.708047
Si Si3 0.962628 0.415469 0.323701
Si Si4 0.715549 0.760454 0.058313
Si Si5 0.564236 0.758322 0.601656
Si Si6 0.517147 0.452524 0.917839
Si Si7 0.444918 0.882520 0.911649
Si Si8 0.308152 0.847351 0.603889
O O1 0.637843 0.683785 0.475456
O O2 0.630407 0.736998 0.358031
O O3 0.811458 0.007636 0.249670
O O4 0.197781 0.710162 0.936553
O O5 0.209792 0.020135 0.383230
O O6 0.808480 0.293677 0.677855
O O7 0.796371 0.113393 0.820252
O O8 0.500000 0.000000 0.000000
O O9 0.638335 0.297824 0.607880
O O10 0.825635 0.640815 0.425373
O O11 0.180063 0.364560 0.197641
O O12 0.193234 0.361178 0.070942
O O13 0.695024 0.990977 0.034564
O O14 0.006852 0.729773 0.854842
O O15 0.601106 0.993049 0.542473
O O16 0.500000 0.500000 0.000000
O O17 0.537391 0.652362 0.842172
#
# Coordination Sequence:
#
# PCOD9109469 Si02
#       8
#     2   2   2   2   2   2   2   2
#     4   9  20  38  71  95 125 162 226 258 301 371
#     4  11  22  40  65  92 126 157 199 262 325 369
#     4  12  27  44  62  94 135 165 211 269 325 381
#     4  12  26  42  63  95 132 171 207 261 330 375
#     4  10  20  41  65  94 125 171 212 265 308 371
#     4  10  24  45  67  94 122 169 219 265 312 382
#     4  11  23  41  62  92 118 164 214 252 304 382
#     4   9  22  39  70  93 128 168 217 257 311 379
#
# _framework density 26.127338999999999
#
# number of rings (size 3 to 8) (size 9 to 14) (size 15 to 20)
#    0.750    0.750    0.000    4.875    1.750    5.000 
#    4.500    3.750    0.000    0.000    0.000    0.000 
#    0.000    0.000    0.000    0.000    0.000    0.000 
#
# Total GULP energy -89453.261881 kJ/mol
# GULP energy per Si atom -5590.828868 kJ/mol
# Density = 2.606787 g / cm^3
# Si number density = 26.127339 Si / 1000 Ang^3
#
#
#
# Elastic Constant Matrix: (Units=GPa)
#
#
# Indices 1 2 3 4 5 6 
#
# 1 76.0515 -7.8329 36.2268 1.3740 -28.8649 1.7176
# 2 -7.8329 38.8211 6.4628 -9.3190 0.5541 -8.1098
# 3 36.2268 6.4628 118.0533 8.9909 -9.6473 -0.7388
# 4 1.3740 -9.3190 8.9909 41.1428 -5.6513 -8.8469
# 5 -28.8649 0.5541 -9.6473 -5.6513 51.4889 -1.9771
# 6 1.7176 -8.1098 -0.7388 -8.8469 -1.9771 29.9404
#
#
#
# Elastic Compliance Matrix: (Units=1/GPa)
#
#
# Indices 1 2 3 4 5 6 
#
# 1 0.020789 0.006555 -0.006142 0.004154 0.010980 0.002384
# 2 0.006555 0.032985 -0.004261 0.011365 0.004233 0.012091
# 3 -0.006142 -0.004261 0.010710 -0.003737 -0.001869 -0.001765
# 4 0.004154 0.011365 -0.003737 0.030928 0.005371 0.012241
# 5 0.010980 0.004233 -0.001869 0.005371 0.025916 0.003769
# 6 0.002384 0.012091 -0.001765 0.012241 0.003769 0.040360
#
#
# Mechanical properties :
#
#
# Convention : Reuss Voigt Hill
#
# Bulk Modulus (GPa) = 17.60978 33.62660 25.61819
# Shear Modulus (GPa) = 26.55166 37.71904 32.13535
#
# Velocity S-wave (km/s) = 3.19131 3.80368 3.51087
# Velocity P-wave (km/s) = 4.50931 5.67352 5.12458
#
# Compressibility (1/GPa) = 0.05678664
#
# Stress axis : x y z
#
# Youngs Moduli (GPa) = 48.10319 30.31701 93.37280
#
# Poissons Ratio (x) = -0.19874 0.57353
# Poissons Ratio (y) = -0.31534 0.39789
# Poissons Ratio (z) = 0.29547 0.12919
#
# Static dielectric constant tensor:
#      x y z
#    x 2.046360 0.022950 -0.031840 
#    y 0.022950 2.242900 -0.036600 
#    z -0.031840 -0.036600 1.983740 
# 
# From -- ./inp_files/613600.got.cif
#   From: 2010.05.17/outbox.cif.g08.bks.cpg/sg2_307_cif.got.tgz:613600.got - 2010.06.03 11:33:40.
