data_PCOD9109931
_publ_section_title
;
Structure prediction by ZEFSAII (Michael W. Deem and Ramdas Pophale) SiO2 
 PCOD9109931
Probable space group: P -1
;
_chemical_formula_sum "Si O2"
_cell_formula_units_Z 16
_cell_length_a 17.207130
_cell_length_b 11.787291
_cell_length_c 8.603293
_cell_angle_alpha 97.187681
_cell_angle_beta 53.365483
_cell_angle_gamma 54.236811
_cell_volume 779.298937
_symmetry_space_group_name_H-M "P -1"
_symmetry_group_IT_number 2
_symmetry_cell_setting 'triclinic'
loop_
_space_group_symop_operation_xyz
x,y,z
-x,-y,-z
loop_
_atom_site_type_symbol
_atom_site_label
_atom_site_fract_x
_atom_site_fract_y
_atom_site_fract_z
Si Si1 0.861824 0.235894 0.209601
Si Si2 0.553366 0.101220 0.385241
Si Si3 0.866667 0.642593 0.545829
Si Si4 0.595147 0.340609 0.724122
Si Si5 0.542452 0.900772 0.174586
Si Si6 0.786733 0.918903 0.499841
Si Si7 0.404694 0.481097 0.670349
Si Si8 0.044317 0.288457 0.058291
O O1 0.706484 0.329159 0.504162
O O2 0.787072 0.333212 0.141343
O O3 0.942604 0.268351 0.201494
O O4 0.000000 0.000000 0.000000
O O5 0.442668 0.169346 0.681311
O O6 0.501510 0.279815 0.445018
O O7 0.506468 0.066336 0.293016
O O8 0.759279 0.895303 0.139205
O O9 0.856152 0.788932 0.547895
O O10 0.000000 0.500000 0.500000
O O11 0.936038 0.499730 0.292977
O O12 0.694290 0.756591 0.844419
O O13 0.453309 0.429402 0.786300
O O14 0.720773 0.113796 0.592379
O O15 0.500000 0.500000 0.000000
O O16 0.382839 0.991236 0.310694
O O17 0.919045 0.756569 0.177054
O O18 0.500000 0.500000 0.500000
#
# Coordination Sequence:
#
# PCOD9109931 Si02
#       8
#     2   2   2   2   2   2   2   2
#     4  11  23  43  69  95 128 170 221 269 328 387
#     4  10  20  41  68  93 128 174 217 257 322 397
#     4  12  26  41  63 101 136 168 218 278 332 382
#     4  11  24  46  67  98 131 171 220 275 325 390
#     4  10  22  40  66  91 131 170 216 262 318 390
#     4  11  24  46  65  90 136 176 220 265 331 399
#     4  10  21  40  69  92 122 172 223 258 314 398
#     4  11  22  43  68  93 133 171 213 274 330 385
#
# _framework density 20.531272999999999
#
# number of rings (size 3 to 8) (size 9 to 14) (size 15 to 20)
#    0.000    1.250    5.000    1.500    3.500    3.000 
#    2.250    0.625    0.000    0.000    0.000    0.000 
#    0.000    0.000    0.000    0.000    0.000    0.000 
#
# Total GULP energy -89177.724935 kJ/mol
# GULP energy per Si atom -5573.607808 kJ/mol
# Density = 2.048454 g / cm^3
# Si number density = 20.531273 Si / 1000 Ang^3
#
#
#
# Elastic Constant Matrix: (Units=GPa)
#
#
# Indices 1 2 3 4 5 6 
#
# 1 44.3921 26.2622 18.3374 -6.0034 5.7910 24.3807
# 2 26.2622 118.6354 33.0924 4.5356 11.2551 13.8605
# 3 18.3374 33.0924 116.5715 -4.3018 9.4268 5.4227
# 4 -6.0034 4.5356 -4.3018 17.1876 11.5636 1.1751
# 5 5.7910 11.2551 9.4268 11.5636 23.2633 2.3721
# 6 24.3807 13.8605 5.4227 1.1751 2.3721 38.9264
#
#
#
# Elastic Compliance Matrix: (Units=1/GPa)
#
#
# Indices 1 2 3 4 5 6 
#
# 1 0.051714 -0.006697 -0.001413 0.038411 -0.025152 -0.029435
# 2 -0.006697 0.010636 -0.002254 -0.005985 0.000320 0.000883
# 3 -0.001413 -0.002254 0.010154 0.006672 -0.006034 0.000439
# 4 0.038411 -0.005985 0.006672 0.121918 -0.067686 -0.022412
# 5 -0.025152 0.000320 -0.006034 -0.067686 0.083815 0.013416
# 6 -0.029435 0.000883 0.000439 -0.022412 0.013416 0.043609
#
#
# Mechanical properties :
#
#
# Convention : Reuss Voigt Hill
#
# Bulk Modulus (GPa) = 19.31378 48.33144 33.82261
# Shear Modulus (GPa) = 13.89540 29.33593 21.61566
#
# Velocity S-wave (km/s) = 2.60434 3.78410 3.24823
# Velocity P-wave (km/s) = 4.29778 6.53331 5.52969
#
# Compressibility (1/GPa) = 0.05177652
#
# Stress axis : x y z
#
# Youngs Moduli (GPa) = 19.33723 94.02311 98.48150
#
# Poissons Ratio (x) = 0.62967 0.13916
# Poissons Ratio (y) = 0.12950 0.22194
# Poissons Ratio (z) = 0.02732 0.21189
#
# Static dielectric constant tensor:
#      x y z
#    x 1.766300 -0.037530 -0.006490 
#    y -0.037530 1.750770 -0.140910 
#    z -0.006490 -0.140910 1.662890 
# 
# From -- ./inp_files/333349.got.cif
#   From: 2010.05.17/outbox.cif.g08.bks.cpg/sg2_167_cif.got.tgz:333349.got - 2010.06.03 11:33:40.
