data_PCOD9109027
_publ_section_title
;
Structure prediction by ZEFSAII (Michael W. Deem and Ramdas Pophale) SiO2 
 PCOD9109027
Probable space group: P -1
;
_chemical_formula_sum "Si O2"
_cell_formula_units_Z 14
_cell_length_a 9.269492
_cell_length_b 12.061471
_cell_length_c 18.028240
_cell_angle_alpha 151.662291
_cell_angle_beta 41.392312
_cell_angle_gamma 117.994989
_cell_volume 502.130892
_symmetry_space_group_name_H-M "P -1"
_symmetry_group_IT_number 2
_symmetry_cell_setting 'triclinic'
loop_
_space_group_symop_operation_xyz
x,y,z
-x,-y,-z
loop_
_atom_site_type_symbol
_atom_site_label
_atom_site_fract_x
_atom_site_fract_y
_atom_site_fract_z
Si Si1 0.838516 0.558648 0.768677
Si Si2 0.530348 0.750303 0.550891
Si Si3 0.078917 0.093792 0.799353
Si Si4 0.413837 0.295264 0.894109
Si Si5 0.313921 0.861660 0.868431
Si Si6 0.186040 0.207032 0.303483
Si Si7 0.439641 0.405026 0.782931
O O1 0.570847 0.581849 0.854881
O O2 0.078550 0.260643 0.461583
O O3 0.804378 0.601365 0.894675
O O4 0.901538 0.785424 0.851290
O O5 0.438339 0.781629 0.689562
O O6 0.694188 0.407003 0.266223
O O7 0.263394 0.955967 0.721472
O O8 0.640104 0.943612 0.611462
O O9 0.308714 0.895972 0.530240
O O10 0.887043 0.990559 0.818733
O O11 0.833042 0.423791 0.061800
O O12 0.352418 0.346907 0.860729
O O13 0.500000 0.500000 0.000000
O O14 0.526990 0.854070 0.835356
O O15 0.000000 0.500000 0.500000
#
# Coordination Sequence:
#
# PCOD9109027 Si02
#       7
#     2   2   2   2   2   2   2
#     4   9  20  39  64  98 129 179 222 268 333 403
#     4  10  22  40  63  95 135 173 224 274 339 400
#     4  11  23  42  67 105 135 177 224 278 337 392
#     4   9  20  44  65  92 130 177 227 279 334 399
#     4  10  20  41  61  94 135 175 220 269 336 404
#     4  11  21  37  65  97 136 176 219 271 333 406
#     4  10  22  42  69  97 136 179 228 276 330 393
#
# _framework density 27.881176
#
# number of rings (size 3 to 8) (size 9 to 14) (size 15 to 20)
#    0.000    2.000    2.857    0.000    0.000    2.857 
#   10.286    6.429    0.000    0.000    0.000    0.000 
#    0.000    0.000    0.000    0.000    0.000    0.000 
#
# Total GULP energy -78145.174501 kJ/mol
# GULP energy per Si atom -5581.798179 kJ/mol
# Density = 2.781772 g / cm^3
# Si number density = 27.881176 Si / 1000 Ang^3
#
#
#
# Elastic Constant Matrix: (Units=GPa)
#
#
# Indices 1 2 3 4 5 6 
#
# 1 145.3837 37.1969 37.7790 -5.6220 -7.4473 -17.4960
# 2 37.1969 151.1342 32.8980 14.4738 -4.2303 -8.3023
# 3 37.7790 32.8980 114.1935 3.6337 -1.2850 9.8002
# 4 -5.6220 14.4738 3.6337 56.6563 6.6882 20.6515
# 5 -7.4473 -4.2303 -1.2850 6.6882 54.3605 4.6510
# 6 -17.4960 -8.3023 9.8002 20.6515 4.6510 56.5713
#
#
#
# Elastic Compliance Matrix: (Units=1/GPa)
#
#
# Indices 1 2 3 4 5 6 
#
# 1 0.008253 -0.001333 -0.002574 0.000278 0.000706 0.002644
# 2 -0.001333 0.007745 -0.001869 -0.002793 0.000547 0.002023
# 3 -0.002574 -0.001869 0.010392 0.000702 -0.000072 -0.003121
# 4 0.000278 -0.002793 0.000702 0.021565 -0.002119 -0.008144
# 5 0.000706 0.000547 -0.000072 -0.002119 0.018834 -0.000464
# 6 0.002644 0.002023 -0.003121 -0.008144 -0.000464 0.022343
#
#
# Mechanical properties :
#
#
# Convention : Reuss Voigt Hill
#
# Bulk Modulus (GPa) = 67.39174 69.60657 68.49916
# Shear Modulus (GPa) = 47.33495 53.70679 50.52087
#
# Velocity S-wave (km/s) = 4.12483 4.39370 4.26138
# Velocity P-wave (km/s) = 6.84903 7.12454 6.98814
#
# Compressibility (1/GPa) = 0.01483861
#
# Stress axis : x y z
#
# Youngs Moduli (GPa) = 121.16420 129.10961 96.22854
#
# Poissons Ratio (x) = 0.17204 0.24772
# Poissons Ratio (y) = 0.16145 0.17986
# Poissons Ratio (z) = 0.31192 0.24132
#
# Static dielectric constant tensor:
#      x y z
#    x 2.339790 0.009820 0.064660 
#    y 0.009820 2.329170 -0.097830 
#    z 0.064660 -0.097830 2.356170 
# 
# From -- ./inp_files/112286.got.cif
#   From: 2010.05.17/outbox.cif.g08.bks.cpg/sg2_57_cif.got.tgz:112286.got - 2010.06.03 11:33:40.
