data_PCOD9109254
_publ_section_title
;
Structure prediction by ZEFSAII (Michael W. Deem and Ramdas Pophale) SiO2 
 PCOD9109254
Probable space group: P -1
;
_chemical_formula_sum "Si O2"
_cell_formula_units_Z 16
_cell_length_a 14.605970
_cell_length_b 7.964776
_cell_length_c 11.695332
_cell_angle_alpha 107.885998
_cell_angle_beta 49.025135
_cell_angle_gamma 71.142212
_cell_volume 667.973344
_symmetry_space_group_name_H-M "P -1"
_symmetry_group_IT_number 2
_symmetry_cell_setting 'triclinic'
loop_
_space_group_symop_operation_xyz
x,y,z
-x,-y,-z
loop_
_atom_site_type_symbol
_atom_site_label
_atom_site_fract_x
_atom_site_fract_y
_atom_site_fract_z
Si Si1 0.262811 0.873591 0.967956
Si Si2 0.922712 0.770001 0.582867
Si Si3 0.651428 0.553757 0.582484
Si Si4 0.697033 0.490127 0.775745
Si Si5 0.626316 0.150026 0.725125
Si Si6 0.858274 0.751529 0.063054
Si Si7 0.028645 0.036985 0.856870
Si Si8 0.739191 0.761168 0.378214
O O1 0.472233 0.631801 0.741191
O O2 0.191505 0.028340 0.177090
O O3 0.154068 0.809026 0.024663
O O4 0.218636 0.060344 0.941549
O O5 0.098168 0.700028 0.400194
O O6 0.000000 0.500000 0.500000
O O7 0.789626 0.901769 0.614032
O O8 0.656571 0.636620 0.721138
O O9 0.823484 0.247259 0.375138
O O10 0.659455 0.679549 0.496508
O O11 0.655149 0.330127 0.746897
O O12 0.561530 0.689204 0.027127
O O13 0.643766 0.033390 0.566325
O O14 0.735230 0.754381 0.241002
O O15 0.904222 0.841281 0.146565
O O16 0.049859 0.475809 0.811716
O O17 0.000000 0.000000 0.000000
#
# Coordination Sequence:
#
# PCOD9109254 Si02
#       8
#     2   2   2   2   2   2   2   2
#     4  11  23  39  68  96 128 169 221 258 330 390
#     4  12  24  41  71 101 132 172 215 272 327 397
#     4  12  22  40  68  95 128 172 218 270 323 394
#     4  11  24  44  68  95 136 173 218 266 333 386
#     4  11  25  44  67 100 131 174 218 273 324 394
#     4  10  22  44  65  93 132 173 215 273 328 386
#     4  10  20  41  64  90 125 170 213 268 319 379
#     4  11  23  41  68  93 132 173 217 272 331 376
#
# _framework density 23.953052
#
# number of rings (size 3 to 8) (size 9 to 14) (size 15 to 20)
#    0.000    1.000    5.000    2.625    1.750    3.500 
#    0.000    0.000    2.750    0.000    0.000    0.000 
#    0.000    0.000    0.000    0.000    0.000    0.000 
#
# Total GULP energy -89451.145178 kJ/mol
# GULP energy per Si atom -5590.696574 kJ/mol
# Density = 2.389853 g / cm^3
# Si number density = 23.953052 Si / 1000 Ang^3
#
#
#
# Elastic Constant Matrix: (Units=GPa)
#
#
# Indices 1 2 3 4 5 6 
#
# 1 40.5988 -4.2324 36.9535 -5.0691 -7.1685 2.5648
# 2 -4.2324 54.6974 18.3018 -3.9700 -5.2800 -1.1739
# 3 36.9535 18.3018 178.1547 -29.9433 -5.1001 5.8303
# 4 -5.0691 -3.9700 -29.9433 27.2138 -3.8720 2.4430
# 5 -7.1685 -5.2800 -5.1001 -3.8720 45.4077 3.0150
# 6 2.5648 -1.1739 5.8303 2.4430 3.0150 27.4469
#
#
#
# Elastic Compliance Matrix: (Units=1/GPa)
#
#
# Indices 1 2 3 4 5 6 
#
# 1 0.032698 0.005366 -0.007142 -0.000093 0.005099 -0.001861
# 2 0.005366 0.020047 -0.002929 0.001063 0.002902 0.000565
# 3 -0.007142 -0.002929 0.008859 0.008232 0.000369 -0.002113
# 4 -0.000093 0.001063 0.008232 0.047308 0.005500 -0.006509
# 5 0.005099 0.002902 0.000369 0.005500 0.023911 -0.003547
# 6 -0.001861 0.000565 -0.002113 -0.006509 -0.003547 0.038050
#
#
# Mechanical properties :
#
#
# Convention : Reuss Voigt Hill
#
# Bulk Modulus (GPa) = 19.15992 41.72185 30.44088
# Shear Modulus (GPa) = 25.29317 34.84222 30.06769
#
# Velocity S-wave (km/s) = 3.25306 3.81807 3.54683
# Velocity P-wave (km/s) = 4.70385 6.07395 5.43226
#
# Compressibility (1/GPa) = 0.05219230
#
# Stress axis : x y z
#
# Youngs Moduli (GPa) = 30.58302 49.88246 112.88304
#
# Poissons Ratio (x) = -0.26765 0.80623
# Poissons Ratio (y) = -0.16409 0.33064
# Poissons Ratio (z) = 0.21843 0.14611
#
# Static dielectric constant tensor:
#      x y z
#    x 2.003500 0.076500 -0.035710 
#    y 0.076500 2.001400 -0.047840 
#    z -0.035710 -0.047840 1.842660 
# 
# From -- ./inp_files/447783.got.cif
#   From: 2010.05.17/outbox.cif.g08.bks.cpg/sg2_224_cif.got.tgz:447783.got - 2010.06.03 11:33:40.
