data_PCOD9109933
_publ_section_title
;
Structure prediction by ZEFSAII (Michael W. Deem and Ramdas Pophale) SiO2 
 PCOD9109933
Probable space group: P -1
;
_chemical_formula_sum "Si O2"
_cell_formula_units_Z 16
_cell_length_a 8.127998
_cell_length_b 20.394954
_cell_length_c 12.697256
_cell_angle_alpha 46.116106
_cell_angle_beta 62.587894
_cell_angle_gamma 30.067102
_cell_volume 701.024171
_symmetry_space_group_name_H-M "P -1"
_symmetry_group_IT_number 2
_symmetry_cell_setting 'triclinic'
loop_
_space_group_symop_operation_xyz
x,y,z
-x,-y,-z
loop_
_atom_site_type_symbol
_atom_site_label
_atom_site_fract_x
_atom_site_fract_y
_atom_site_fract_z
Si Si1 0.181838 0.883804 0.231814
Si Si2 0.719589 0.350555 0.859600
Si Si3 0.809768 0.902366 0.440905
Si Si4 0.196318 0.585296 0.566307
Si Si5 0.200873 0.059426 0.896235
Si Si6 0.414863 0.254871 0.528829
Si Si7 0.384839 0.655148 0.725309
Si Si8 0.112215 0.123311 0.180172
O O1 0.498686 0.744993 0.378866
O O2 0.834772 0.992481 0.281252
O O3 0.110503 0.845181 0.197788
O O4 0.231105 0.960529 0.076114
O O5 0.500000 0.500000 0.500000
O O6 0.669980 0.460302 0.824324
O O7 0.050061 0.208584 0.839732
O O8 0.378337 0.477748 0.743004
O O9 0.901456 0.785157 0.461152
O O10 0.141154 0.760344 0.578001
O O11 0.500000 0.000000 0.500000
O O12 0.987211 0.604704 0.531368
O O13 0.577139 0.933867 0.876974
O O14 0.834262 0.228801 0.048260
O O15 0.474761 0.301583 0.364527
O O16 0.690391 0.055023 0.659160
O O17 0.128002 0.743417 0.800058
#
# Coordination Sequence:
#
# PCOD9109933 Si02
#       8
#     2   2   2   2   2   2   2   2
#     4  10  22  40  67 106 128 170 236 282 317 402
#     4  11  24  45  66 102 141 179 220 285 353 398
#     4  10  20  41  68  93 131 179 227 267 330 402
#     4  11  24  42  67  96 140 176 220 274 351 396
#     4  11  23  43  69 100 138 176 227 277 343 403
#     4  11  23  44  71 102 132 182 236 280 326 414
#     4  10  24  43  67 103 136 176 228 287 339 400
#     4  12  23  44  76  98 135 185 231 275 340 410
#
# _framework density 22.823751000000001
#
# number of rings (size 3 to 8) (size 9 to 14) (size 15 to 20)
#    0.000    1.250    1.250    4.875    1.750    1.000 
#    6.750    6.250    0.000    0.000    0.000    0.000 
#    0.000    0.000    0.000    0.000    0.000    0.000 
#
# Total GULP energy -89092.144607 kJ/mol
# GULP energy per Si atom -5568.259038 kJ/mol
# Density = 2.277180 g / cm^3
# Si number density = 22.823751 Si / 1000 Ang^3
#
#
#
# Elastic Constant Matrix: (Units=GPa)
#
#
# Indices 1 2 3 4 5 6 
#
# 1 103.6590 56.8100 59.0423 8.6782 3.9144 -10.7449
# 2 56.8100 131.8216 57.7696 20.0613 -20.0721 9.0144
# 3 59.0423 57.7696 124.8337 7.4768 -3.2367 -2.6974
# 4 8.6782 20.0613 7.4768 32.9475 -8.9159 9.5228
# 5 3.9144 -20.0721 -3.2367 -8.9159 55.8067 3.0216
# 6 -10.7449 9.0144 -2.6974 9.5228 3.0216 26.7743
#
#
#
# Elastic Compliance Matrix: (Units=1/GPa)
#
#
# Indices 1 2 3 4 5 6 
#
# 1 0.017598 -0.006211 -0.005100 -0.004135 -0.005003 0.010675
# 2 -0.006211 0.013194 -0.003049 -0.002333 0.005009 -0.006977
# 3 -0.005100 -0.003049 0.011802 0.000538 0.000033 -0.000026
# 4 -0.004135 -0.002333 0.000538 0.038965 0.006542 -0.015417
# 5 -0.005003 0.005009 0.000033 0.006542 0.021576 -0.008453
# 6 0.010675 -0.006977 -0.000026 -0.015417 -0.008453 0.050417
#
#
# Mechanical properties :
#
#
# Convention : Reuss Voigt Hill
#
# Bulk Modulus (GPa) = 72.08515 78.61756 75.35136
# Shear Modulus (GPa) = 26.75261 35.55186 31.15223
#
# Velocity S-wave (km/s) = 3.42737 3.95101 3.69847
# Velocity P-wave (km/s) = 6.87855 7.43870 7.16410
#
# Compressibility (1/GPa) = 0.01387248
#
# Stress axis : x y z
#
# Youngs Moduli (GPa) = 56.82600 75.79100 84.73134
#
# Poissons Ratio (x) = 0.47076 0.43214
# Poissons Ratio (y) = 0.35296 0.25837
# Poissons Ratio (z) = 0.28982 0.23111
#
# Static dielectric constant tensor:
#      x y z
#    x 1.989330 0.081050 -0.048290 
#    y 0.081050 1.529030 -0.023200 
#    z -0.048290 -0.023200 1.957280 
# 
# From -- ./inp_files/404811.got.cif
#   From: 2010.05.17/outbox.cif.g08.bks.cpg/sg2_203_cif.got.tgz:404811.got - 2010.06.03 11:33:40.
