data_PCOD9109197
_publ_section_title
;
Structure prediction by ZEFSAII (Michael W. Deem and Ramdas Pophale) SiO2 
 PCOD9109197
Probable space group: P -1
;
_chemical_formula_sum "Si O2"
_cell_formula_units_Z 15
_cell_length_a 12.608620
_cell_length_b 8.045710
_cell_length_c 25.270142
_cell_angle_alpha 153.298412
_cell_angle_beta 149.756836
_cell_angle_gamma 32.227039
_cell_volume 548.140180
_symmetry_space_group_name_H-M "P -1"
_symmetry_group_IT_number 2
_symmetry_cell_setting 'triclinic'
loop_
_space_group_symop_operation_xyz
x,y,z
-x,-y,-z
loop_
_atom_site_type_symbol
_atom_site_label
_atom_site_fract_x
_atom_site_fract_y
_atom_site_fract_z
Si Si1 0.500000 0.000000 0.500000
Si Si2 0.207786 0.287746 0.092095
Si Si3 0.464986 0.750146 0.136498
Si Si4 0.982053 0.101424 0.728071
Si Si5 0.102095 0.216079 0.197444
Si Si6 0.459162 0.922554 0.900154
Si Si7 0.541685 0.899255 0.593911
Si Si8 0.742013 0.066697 0.415411
O O1 0.223288 0.059191 0.406025
O O2 0.503494 0.206467 0.618627
O O3 0.046012 0.629123 0.154510
O O4 0.402407 0.062508 0.152209
O O5 0.320185 0.386801 0.116515
O O6 0.090248 0.973163 0.934713
O O7 0.278276 0.928117 0.151299
O O8 0.683288 0.763692 0.264869
O O9 0.441635 0.350240 0.992240
O O10 0.967580 0.372284 0.746880
O O11 0.236604 0.824935 0.764912
O O12 0.232501 0.225157 0.310250
O O13 0.500000 0.000000 0.000000
O O14 0.585496 0.521920 0.463396
O O15 0.350574 0.950792 0.569812
O O16 0.000000 0.000000 0.500000
#
# Coordination Sequence:
#
# PCOD9109197 Si02
#       8
#     1   2   2   2   2   2   2   2
#     4  12  26  44  70  94 144 182 200 270 350 404
#     4  11  22  41  72  94 122 175 218 277 323 368
#     4  10  20  41  63  97 125 162 227 268 315 383
#     4  11  24  46  65  99 132 170 225 267 324 393
#     4  10  20  42  75  92 125 169 226 280 307 379
#     4  12  27  40  60 102 137 169 214 266 337 399
#     4  10  23  42  62 101 129 168 223 263 329 393
#     4  10  22  40  69  93 127 172 226 273 312 384
#
# _framework density 27.365264
#
# number of rings (size 3 to 8) (size 9 to 14) (size 15 to 20)
#    0.000    1.333    2.667    4.400    3.733    3.733 
#    0.000    1.333    0.000    0.000    0.000    0.000 
#    0.000    0.000    0.000    0.000    0.000    0.000 
#
# Total GULP energy -83813.717056 kJ/mol
# GULP energy per Si atom -5587.581137 kJ/mol
# Density = 2.730298 g / cm^3
# Si number density = 27.365264 Si / 1000 Ang^3
#
#
#
# Elastic Constant Matrix: (Units=GPa)
#
#
# Indices 1 2 3 4 5 6 
#
# 1 144.5218 32.1546 56.9989 -39.9511 -5.5335 0.5821
# 2 32.1546 67.1468 49.3148 -9.0180 18.7321 -0.4676
# 3 56.9989 49.3148 162.7460 -33.4141 10.0675 3.5077
# 4 -39.9511 -9.0180 -33.4141 60.9049 -9.8326 2.2889
# 5 -5.5335 18.7321 10.0675 -9.8326 53.9574 -5.9058
# 6 0.5821 -0.4676 3.5077 2.2889 -5.9058 29.1414
#
#
#
# Elastic Compliance Matrix: (Units=1/GPa)
#
#
# Indices 1 2 3 4 5 6 
#
# 1 0.010151 -0.004166 -0.001317 0.005931 0.003836 0.000200
# 2 -0.004166 0.022818 -0.005734 -0.003783 -0.007988 -0.000182
# 3 -0.001317 -0.005734 0.009027 0.003393 0.000649 -0.001287
# 4 0.005931 -0.003783 0.003393 0.022507 0.005248 -0.001292
# 5 0.003836 -0.007988 0.000649 0.005248 0.022969 0.003960
# 6 0.000200 -0.000182 -0.001287 -0.001292 0.003960 0.035367
#
#
# Mechanical properties :
#
#
# Convention : Reuss Voigt Hill
#
# Bulk Modulus (GPa) = 51.11556 72.37237 61.74397
# Shear Modulus (GPa) = 32.93932 44.53049 38.73490
#
# Velocity S-wave (km/s) = 3.47319 4.03831 3.76636
# Velocity P-wave (km/s) = 5.89946 6.94609 6.44406
#
# Compressibility (1/GPa) = 0.01956351
#
# Stress axis : x y z
#
# Youngs Moduli (GPa) = 98.50936 43.82493 110.77423
#
# Poissons Ratio (x) = 0.18259 0.14585
# Poissons Ratio (y) = 0.41042 0.63514
# Poissons Ratio (z) = 0.12971 0.25128
#
# Static dielectric constant tensor:
#      x y z
#    x 1.967510 -0.111150 -0.042950 
#    y -0.111150 2.036360 -0.000280 
#    z -0.042950 -0.000280 2.183410 
# 
# From -- ./inp_files/303052.got.cif
#   From: 2010.05.17/outbox.cif.g08.bks.cpg/sg2_152_cif.got.tgz:303052.got - 2010.06.03 11:33:40.
