data_PCOD9109718
_publ_section_title
;
Structure prediction by ZEFSAII (Michael W. Deem and Ramdas Pophale) SiO2 
 PCOD9109718
Probable space group: P -1
;
_chemical_formula_sum "Si O2"
_cell_formula_units_Z 16
_cell_length_a 9.544981
_cell_length_b 11.764206
_cell_length_c 19.047194
_cell_angle_alpha 47.361598
_cell_angle_beta 155.759071
_cell_angle_gamma 126.948446
_cell_volume 645.022956
_symmetry_space_group_name_H-M "P -1"
_symmetry_group_IT_number 2
_symmetry_cell_setting 'triclinic'
loop_
_space_group_symop_operation_xyz
x,y,z
-x,-y,-z
loop_
_atom_site_type_symbol
_atom_site_label
_atom_site_fract_x
_atom_site_fract_y
_atom_site_fract_z
Si Si1 0.307068 0.122537 0.792071
Si Si2 0.386368 0.728375 0.660189
Si Si3 0.485977 0.239960 0.573666
Si Si4 0.602356 0.545927 0.309604
Si Si5 0.599203 0.987869 0.840587
Si Si6 0.787448 0.462433 0.727675
Si Si7 0.238915 0.991985 0.318310
Si Si8 0.492686 0.351268 0.107982
O O1 0.469754 0.280982 0.824364
O O2 0.522130 0.039017 0.863473
O O3 0.955804 0.191285 0.563598
O O4 0.140370 0.019175 0.819337
O O5 0.558044 0.595151 0.744982
O O6 0.282926 0.655613 0.717162
O O7 0.656652 0.859960 0.739808
O O8 0.404273 0.106865 0.647388
O O9 0.723816 0.354824 0.676649
O O10 0.188010 0.359779 0.359439
O O11 0.668031 0.156319 0.625564
O O12 0.516720 0.541822 0.354154
O O13 0.000000 0.500000 0.500000
O O14 0.492313 0.813911 0.853509
O O15 0.000000 0.000000 0.000000
O O16 0.106252 0.384165 0.946304
O O17 0.500000 0.000000 0.500000
O O18 0.500000 0.500000 0.000000
#
# Coordination Sequence:
#
# PCOD9109718 Si02
#       8
#     2   2   2   2   2   2   2   2
#     4  10  22  41  73 100 131 179 237 274 332 411
#     4  10  23  41  68  97 140 184 214 282 354 396
#     4  11  22  41  78  91 131 186 233 268 345 398
#     4  10  20  41  67 100 134 168 234 281 330 405
#     4  12  24  48  69  99 137 178 229 290 332 402
#     4  11  24  42  69 103 131 183 229 282 337 401
#     4  10  21  42  66 105 136 174 226 282 332 413
#     4  12  28  43  64 102 147 171 230 286 341 407
#
# _framework density 24.805316999999999
#
# number of rings (size 3 to 8) (size 9 to 14) (size 15 to 20)
#    0.000    1.250    3.750    2.250    1.750    6.000 
#    0.000    0.625    0.000    0.000    0.000    0.000 
#    0.000    0.000    0.000    0.000    0.000    0.000 
#
# Total GULP energy -89496.642634 kJ/mol
# GULP energy per Si atom -5593.540165 kJ/mol
# Density = 2.474886 g / cm^3
# Si number density = 24.805317 Si / 1000 Ang^3
#
#
#
# Elastic Constant Matrix: (Units=GPa)
#
#
# Indices 1 2 3 4 5 6 
#
# 1 133.2572 48.8897 15.4358 -17.6658 15.5405 -9.5251
# 2 48.8897 149.5290 26.8948 -34.8586 14.6338 -2.6282
# 3 15.4358 26.8948 59.1926 -23.9153 2.2413 0.3612
# 4 -17.6658 -34.8586 -23.9153 38.8834 4.9008 -4.5095
# 5 15.5405 14.6338 2.2413 4.9008 41.7567 -15.6031
# 6 -9.5251 -2.6282 0.3612 -4.5095 -15.6031 46.9356
#
#
#
# Elastic Compliance Matrix: (Units=1/GPa)
#
#
# Indices 1 2 3 4 5 6 
#
# 1 0.008991 -0.002034 -0.000319 0.002510 -0.002490 0.001127
# 2 -0.002034 0.009612 -0.000560 0.007766 -0.003615 -0.000326
# 3 -0.000319 -0.000560 0.022883 0.013762 -0.002439 0.000239
# 4 0.002510 0.007766 0.013762 0.043631 -0.008719 0.002132
# 5 -0.002490 -0.003615 -0.002439 -0.008719 0.030516 0.008618
# 6 0.001127 -0.000326 0.000239 0.002132 0.008618 0.024584
#
#
# Mechanical properties :
#
#
# Convention : Reuss Voigt Hill
#
# Bulk Modulus (GPa) = 28.04297 58.26881 43.15589
# Shear Modulus (GPa) = 31.65961 42.23237 36.94599
#
# Velocity S-wave (km/s) = 3.57644 4.13068 3.86351
# Velocity P-wave (km/s) = 5.32770 6.80378 6.11047
#
# Compressibility (1/GPa) = 0.03565956
#
# Stress axis : x y z
#
# Youngs Moduli (GPa) = 111.22214 104.03770 43.70076
#
# Poissons Ratio (x) = 0.21158 0.01394
# Poissons Ratio (y) = 0.22619 0.02449
# Poissons Ratio (z) = 0.03549 0.05830
#
# Static dielectric constant tensor:
#      x y z
#    x 2.025300 0.119470 -0.016100 
#    y 0.119470 2.058030 0.039020 
#    z -0.016100 0.039020 2.073080 
# 
# From -- ./inp_files/589549.got.cif
#   From: 2010.05.17/outbox.cif.g08.bks.cpg/sg2_295_cif.got.tgz:589549.got - 2010.06.03 11:33:40.
