data_PCOD9109280
_publ_section_title
;
Structure prediction by ZEFSAII (Michael W. Deem and Ramdas Pophale) SiO2 
 PCOD9109280
Probable space group: P -1
;
_chemical_formula_sum "Si O2"
_cell_formula_units_Z 16
_cell_length_a 9.082951
_cell_length_b 8.170667
_cell_length_c 11.850740
_cell_angle_alpha 54.924196
_cell_angle_beta 98.175348
_cell_angle_gamma 88.078141
_cell_volume 705.203969
_symmetry_space_group_name_H-M "P -1"
_symmetry_group_IT_number 2
_symmetry_cell_setting 'triclinic'
loop_
_space_group_symop_operation_xyz
x,y,z
-x,-y,-z
loop_
_atom_site_type_symbol
_atom_site_label
_atom_site_fract_x
_atom_site_fract_y
_atom_site_fract_z
Si Si1 0.546063 0.095451 0.082591
Si Si2 0.123170 0.430409 0.667080
Si Si3 0.608853 0.199293 0.682148
Si Si4 0.634621 0.495672 0.160692
Si Si5 0.946778 0.054716 0.846035
Si Si6 0.835411 0.140476 0.205464
Si Si7 0.456653 0.360461 0.386912
Si Si8 0.158213 0.262957 0.496794
O O1 0.722508 0.092688 0.112558
O O2 0.501440 0.956938 0.232601
O O3 0.458842 0.321204 0.988925
O O4 0.500000 0.000000 0.000000
O O5 0.265915 0.412885 0.769490
O O6 0.179516 0.401334 0.555590
O O7 0.023750 0.251529 0.745161
O O8 0.009259 0.636147 0.597487
O O9 0.771417 0.109981 0.781635
O O10 0.582185 0.239963 0.530558
O O11 0.566122 0.410235 0.659421
O O12 0.756001 0.350086 0.161134
O O13 0.520874 0.370433 0.264529
O O14 0.007213 0.879305 0.832874
O O15 0.000000 0.000000 0.000000
O O16 0.841148 0.964920 0.369741
O O17 0.296064 0.283092 0.420039
#
# Coordination Sequence:
#
# PCOD9109280 Si02
#       8
#     2   2   2   2   2   2   2   2
#     4  12  22  44  68  94 123 171 222 264 315 380
#     4  10  21  39  64  94 125 165 218 262 313 372
#     4  11  21  39  68 100 119 162 226 277 304 364
#     4  12  26  41  64  96 135 173 206 262 335 388
#     4  11  23  41  67  94 124 168 224 265 312 385
#     4  11  26  43  62  95 136 169 206 266 332 385
#     4  11  22  38  67  98 126 161 220 269 317 371
#     4  10  20  41  64  92 126 166 218 271 302 373
#
# _framework density 22.688469999999999
#
# number of rings (size 3 to 8) (size 9 to 14) (size 15 to 20)
#    0.000    1.000    3.750    4.875    3.500    1.000 
#    0.000    2.500    0.000    0.000    0.000    0.000 
#    0.000    0.000    0.000    0.000    0.000    0.000 
#
# Total GULP energy -89520.663126 kJ/mol
# GULP energy per Si atom -5595.041445 kJ/mol
# Density = 2.263683 g / cm^3
# Si number density = 22.688470 Si / 1000 Ang^3
#
#
#
# Elastic Constant Matrix: (Units=GPa)
#
#
# Indices 1 2 3 4 5 6 
#
# 1 65.2289 -5.6296 0.8231 2.6922 15.9885 -15.7457
# 2 -5.6296 52.2842 14.0137 -10.9548 -2.8759 -23.9503
# 3 0.8231 14.0137 88.4929 -15.9968 8.7305 -18.4914
# 4 2.6922 -10.9548 -15.9968 26.2107 -11.7897 8.5444
# 5 15.9885 -2.8759 8.7305 -11.7897 37.4422 -3.0678
# 6 -15.7457 -23.9503 -18.4914 8.5444 -3.0678 29.2618
#
#
#
# Elastic Compliance Matrix: (Units=1/GPa)
#
#
# Indices 1 2 3 4 5 6 
#
# 1 0.026290 0.011765 0.002934 -0.010324 -0.012014 0.027385
# 2 0.011765 0.038248 0.002440 0.004762 0.001957 0.037993
# 3 0.002934 0.002440 0.014263 0.004996 -0.001923 0.010929
# 4 -0.010324 0.004762 0.004996 0.057902 0.020757 -0.013232
# 5 -0.012014 0.001957 -0.001923 0.020757 0.038307 -0.008123
# 6 0.027385 0.037993 0.010929 -0.013232 -0.008123 0.089925
#
#
# Mechanical properties :
#
#
# Convention : Reuss Voigt Hill
#
# Bulk Modulus (GPa) = 8.84327 24.93561 16.88944
# Shear Modulus (GPa) = 18.63232 31.70288 25.16760
#
# Velocity S-wave (km/s) = 2.86881 3.74212 3.33418
# Velocity P-wave (km/s) = 3.85741 5.44845 4.72044
#
# Compressibility (1/GPa) = 0.11308030
#
# Stress axis : x y z
#
# Youngs Moduli (GPa) = 38.03658 26.14507 70.11081
#
# Poissons Ratio (x) = -0.30760 -0.20569
# Poissons Ratio (y) = -0.44751 -0.17109
# Poissons Ratio (z) = -0.11159 -0.06380
#
# Static dielectric constant tensor:
#      x y z
#    x 1.847270 -0.015730 -0.009030 
#    y -0.015730 1.872300 -0.000680 
#    z -0.009030 -0.000680 1.852260 
# 
# From -- ./inp_files/208958.got.cif
#   From: 2010.05.17/outbox.cif.g08.bks.cpg/sg2_105_cif.got.tgz:208958.got - 2010.06.03 11:33:40.
