data_PCOD9109913
_publ_section_title
;
Structure prediction by ZEFSAII (Michael W. Deem and Ramdas Pophale) SiO2 
 PCOD9109913
Probable space group: P -1
;
_chemical_formula_sum "Si O2"
_cell_formula_units_Z 16
_cell_length_a 15.144183
_cell_length_b 7.693645
_cell_length_c 11.966323
_cell_angle_alpha 144.606934
_cell_angle_beta 87.689496
_cell_angle_gamma 113.622798
_cell_volume 622.892101
_symmetry_space_group_name_H-M "P -1"
_symmetry_group_IT_number 2
_symmetry_cell_setting 'triclinic'
loop_
_space_group_symop_operation_xyz
x,y,z
-x,-y,-z
loop_
_atom_site_type_symbol
_atom_site_label
_atom_site_fract_x
_atom_site_fract_y
_atom_site_fract_z
Si Si1 0.983332 0.540922 0.652984
Si Si2 0.842274 0.518131 0.341943
Si Si3 0.299454 0.330427 0.985831
Si Si4 0.250204 0.334445 0.388283
Si Si5 0.474799 0.989260 0.624507
Si Si6 0.168844 0.336680 0.171866
Si Si7 0.559259 0.510601 0.378719
Si Si8 0.662916 0.409010 0.121209
O O1 0.034394 0.364633 0.623618
O O2 0.000000 0.500000 0.500000
O O3 0.865149 0.422760 0.643018
O O4 0.067156 0.997692 0.919880
O O5 0.845631 0.761210 0.571086
O O6 0.760046 0.457115 0.216690
O O7 0.769111 0.094489 0.183972
O O8 0.271722 0.537836 0.184384
O O9 0.434372 0.574070 0.111752
O O10 0.277178 0.375492 0.884675
O O11 0.348414 0.772717 0.563426
O O12 0.190503 0.145393 0.172645
O O13 0.331718 0.313512 0.453099
O O14 0.509262 0.726460 0.522647
O O15 0.500000 0.000000 0.500000
O O16 0.612163 0.570014 0.283017
O O17 0.448772 0.043384 0.134990
#
# Coordination Sequence:
#
# PCOD9109913 Si02
#       8
#     2   2   2   2   2   2   2   2
#     4  10  20  41  68  91 124 163 211 276 323 374
#     4  10  23  40  66  92 122 173 217 262 319 380
#     4  11  23  37  61  93 131 169 206 267 307 379
#     4  11  21  38  61  91 128 166 211 253 313 379
#     4  12  23  34  55  90 132 169 207 254 310 377
#     4  10  22  38  63 101 121 159 223 258 323 388
#     4  10  23  39  57  86 133 177 212 254 304 384
#     4  10  22  41  59  89 130 173 216 256 312 375
#
# _framework density 25.686630000000001
#
# number of rings (size 3 to 8) (size 9 to 14) (size 15 to 20)
#    0.000    1.500    3.750    1.125    3.500    0.500 
#    0.000    0.625    0.000    4.500    0.000    0.000 
#    0.000    0.000    0.000    0.000    0.000    0.000 
#
# Total GULP energy -89274.229015 kJ/mol
# GULP energy per Si atom -5579.639313 kJ/mol
# Density = 2.562817 g / cm^3
# Si number density = 25.686630 Si / 1000 Ang^3
#
#
#
# Elastic Constant Matrix: (Units=GPa)
#
#
# Indices 1 2 3 4 5 6 
#
# 1 128.1018 14.1948 38.6063 -35.4300 -7.0857 19.0275
# 2 14.1948 83.0590 27.8145 -50.6128 1.8200 -10.8068
# 3 38.6063 27.8145 119.9959 -39.4254 1.5498 -0.7318
# 4 -35.4300 -50.6128 -39.4254 54.2706 8.7918 0.4675
# 5 -7.0857 1.8200 1.5498 8.7918 35.8314 -16.4984
# 6 19.0275 -10.8068 -0.7318 0.4675 -16.4984 33.2169
#
#
#
# Elastic Compliance Matrix: (Units=1/GPa)
#
#
# Indices 1 2 3 4 5 6 
#
# 1 0.011878 0.005103 -0.000817 0.012711 -0.004477 -0.007565
# 2 0.005103 0.034999 0.003521 0.039982 -0.009150 0.003434
# 3 -0.000817 0.003521 0.011742 0.011910 -0.003871 -0.000218
# 4 0.012711 0.039982 0.011910 0.076169 -0.021338 -0.005681
# 5 -0.004477 -0.009150 -0.003871 -0.021338 0.042526 0.020924
# 6 -0.007565 0.003434 -0.000218 -0.005681 0.020924 0.046024
#
#
# Mechanical properties :
#
#
# Convention : Reuss Voigt Hill
#
# Bulk Modulus (GPa) = 13.47090 54.70977 34.09033
# Shear Modulus (GPa) = 21.50829 41.36649 31.43739
#
# Velocity S-wave (km/s) = 2.89681 4.01737 3.50220
# Velocity P-wave (km/s) = 4.05517 6.54707 5.44557
#
# Compressibility (1/GPa) = 0.07423411
#
# Stress axis : x y z
#
# Youngs Moduli (GPa) = 84.18633 28.57195 85.16566
#
# Poissons Ratio (x) = -0.14579 0.06954
# Poissons Ratio (y) = -0.42957 -0.29989
# Poissons Ratio (z) = 0.06875 -0.10061
#
# Static dielectric constant tensor:
#      x y z
#    x 1.987180 -0.341510 -0.130310 
#    y -0.341510 1.591210 -0.276100 
#    z -0.130310 -0.276100 1.959590 
# 
# From -- ./inp_files/397254.got.cif
#   From: 2010.05.17/outbox.cif.g08.bks.cpg/sg2_199_cif.got.tgz:397254.got - 2010.06.03 11:33:40.
