data_PCOD9109122
_publ_section_title
;
Structure prediction by ZEFSAII (Michael W. Deem and Ramdas Pophale) SiO2 
 PCOD9109122
Probable space group: P -1
;
_chemical_formula_sum "Si O2"
_cell_formula_units_Z 14
_cell_length_a 17.535618
_cell_length_b 7.098668
_cell_length_c 7.328952
_cell_angle_alpha 80.604892
_cell_angle_beta 47.493638
_cell_angle_gamma 101.806850
_cell_volume 598.110134
_symmetry_space_group_name_H-M "P -1"
_symmetry_group_IT_number 2
_symmetry_cell_setting 'triclinic'
loop_
_space_group_symop_operation_xyz
x,y,z
-x,-y,-z
loop_
_atom_site_type_symbol
_atom_site_label
_atom_site_fract_x
_atom_site_fract_y
_atom_site_fract_z
Si Si1 0.675446 0.388758 0.843942
Si Si2 0.553497 0.983633 0.684697
Si Si3 0.282948 0.214881 0.504248
Si Si4 0.920387 0.983687 0.401024
Si Si5 0.831407 0.935442 0.930819
Si Si6 0.107734 0.661215 0.415392
Si Si7 0.449812 0.668135 0.586702
O O1 0.656091 0.557160 0.722995
O O2 0.804578 0.413603 0.619796
O O3 0.573253 0.155076 0.004279
O O4 0.652232 0.422780 0.087464
O O5 0.650426 0.927997 0.624590
O O6 0.541555 0.864925 0.525415
O O7 0.576937 0.221760 0.561852
O O8 0.159311 0.104473 0.627037
O O9 0.257501 0.219051 0.759099
O O10 0.849905 0.856921 0.714641
O O11 0.938381 0.221234 0.382401
O O12 0.041167 0.976833 0.203746
O O13 0.813602 0.144034 0.877577
O O14 0.000000 0.500000 0.500000
O O15 0.500000 0.500000 0.500000
#
# Coordination Sequence:
#
# PCOD9109122 Si02
#       7
#     2   2   2   2   2   2   2
#     4  10  22  37  62  93 132 169 212 271 329 374
#     4   9  22  41  62  94 136 168 213 276 318 381
#     4  12  21  40  68  93 133 170 213 277 323 387
#     4   9  22  40  65  94 121 172 223 256 336 386
#     4   9  21  40  65  89 126 169 215 269 325 376
#     4  10  20  41  63  87 127 170 213 278 322 380
#     4   9  20  42  67  92 127 177 221 260 329 394
#
# _framework density 23.407060000000001
#
# number of rings (size 3 to 8) (size 9 to 14) (size 15 to 20)
#    1.714    0.571    0.000    2.571    0.000    2.286 
#    2.571    4.286    0.000    0.000    0.000    0.000 
#    0.000    0.000    0.000    0.000    0.000    0.000 
#
# Total GULP energy -78079.119572 kJ/mol
# GULP energy per Si atom -5577.079969 kJ/mol
# Density = 2.335378 g / cm^3
# Si number density = 23.407060 Si / 1000 Ang^3
#
#
#
# Elastic Constant Matrix: (Units=GPa)
#
#
# Indices 1 2 3 4 5 6 
#
# 1 68.6169 14.3208 19.2886 -1.4606 5.6756 -25.3320
# 2 14.3208 84.0282 26.2072 -12.7184 9.7395 -28.1610
# 3 19.2886 26.2072 108.7529 -13.0044 26.1762 -15.9316
# 4 -1.4606 -12.7184 -13.0044 32.2350 -4.8280 4.4053
# 5 5.6756 9.7395 26.1762 -4.8280 30.1065 -4.6077
# 6 -25.3320 -28.1610 -15.9316 4.4053 -4.6077 48.3476
#
#
#
# Elastic Compliance Matrix: (Units=1/GPa)
#
#
# Indices 1 2 3 4 5 6 
#
# 1 0.018528 0.000519 -0.002016 -0.001150 -0.000656 0.009388
# 2 0.000519 0.016055 -0.001791 0.004213 -0.001761 0.008482
# 3 -0.002016 -0.001791 0.012751 0.002789 -0.009536 0.000939
# 4 -0.001150 0.004213 0.002789 0.034058 0.001867 -0.000155
# 5 -0.000656 -0.001761 -0.009536 0.001867 0.042401 -0.000641
# 6 0.009388 0.008482 0.000939 -0.000155 -0.000641 0.030806
#
#
# Mechanical properties :
#
#
# Convention : Reuss Voigt Hill
#
# Bulk Modulus (GPa) = 24.53448 42.33680 33.43564
# Shear Modulus (GPa) = 28.61089 35.57657 32.09373
#
# Velocity S-wave (km/s) = 3.49996 3.90283 3.70687
# Velocity P-wave (km/s) = 5.18048 6.19967 5.71285
#
# Compressibility (1/GPa) = 0.04075897
#
# Stress axis : x y z
#
# Youngs Moduli (GPa) = 53.97354 62.28515 78.42813
#
# Poissons Ratio (x) = -0.03234 0.15807
# Poissons Ratio (y) = -0.02803 0.14046
# Poissons Ratio (z) = 0.10879 0.11155
#
# Static dielectric constant tensor:
#      x y z
#    x 1.924250 0.030680 0.054760 
#    y 0.030680 1.923610 -0.015610 
#    z 0.054760 -0.015610 1.902610 
# 
# From -- ./inp_files/327302.got.cif
#   From: 2010.05.17/outbox.cif.g08.bks.cpg/sg2_164_cif.got.tgz:327302.got - 2010.06.03 11:33:40.
