data_PCOD9109083
_publ_section_title
;
Structure prediction by ZEFSAII (Michael W. Deem and Ramdas Pophale) SiO2 
 PCOD9109083
Probable space group: P -1
;
_chemical_formula_sum "Si O2"
_cell_formula_units_Z 16
_cell_length_a 14.678370
_cell_length_b 11.094421
_cell_length_c 5.439368
_cell_angle_alpha 54.264653
_cell_angle_beta 64.632127
_cell_angle_gamma 63.094338
_cell_volume 624.483852
_symmetry_space_group_name_H-M "P -1"
_symmetry_group_IT_number 2
_symmetry_cell_setting 'triclinic'
loop_
_space_group_symop_operation_xyz
x,y,z
-x,-y,-z
loop_
_atom_site_type_symbol
_atom_site_label
_atom_site_fract_x
_atom_site_fract_y
_atom_site_fract_z
Si Si1 0.319248 0.582028 0.052536
Si Si2 0.079278 0.320004 0.776036
Si Si3 0.742529 0.682108 0.776726
Si Si4 0.762599 0.927561 0.826542
Si Si5 0.042584 0.052549 0.634489
Si Si6 0.494921 0.366173 0.460010
Si Si7 0.582719 0.903487 0.321703
Si Si8 0.905290 0.363701 0.569690
O O1 0.286569 0.478171 0.999785
O O2 0.404799 0.467853 0.263970
O O3 0.211942 0.650591 0.244437
O O4 0.388004 0.682451 0.733411
O O5 0.141425 0.340650 0.431030
O O6 0.095193 0.467261 0.727090
O O7 0.962255 0.337106 0.803848
O O8 0.145468 0.155562 0.992174
O O9 0.733293 0.783429 0.905402
O O10 0.666556 0.783714 0.538709
O O11 0.830171 0.994842 0.473587
O O12 0.653624 0.005772 0.993570
O O13 0.984553 0.235066 0.474228
O O14 0.000000 0.000000 0.500000
O O15 0.000000 0.000000 0.000000
O O16 0.500000 0.500000 0.500000
O O17 0.465025 0.200826 0.689025
O O18 0.500000 0.000000 0.500000
#
# Coordination Sequence:
#
# PCOD9109083 Si02
#       8
#     2   2   2   2   2   2   2   2
#     4   9  20  37  64  93 131 168 220 293 350 418
#     4   9  19  38  66 103 133 168 226 303 354 411
#     4   9  18  38  64  95 133 176 222 283 363 412
#     4  11  22  42  70  96 139 184 232 292 357 424
#     4  12  28  48  67  96 148 199 234 282 362 441
#     4  10  20  41  62  92 134 175 221 287 367 412
#     4  10  23  40  67 100 136 180 238 291 348 427
#     4  10  20  42  65 100 132 173 235 288 345 429
#
# _framework density 25.621158999999999
#
# number of rings (size 3 to 8) (size 9 to 14) (size 15 to 20)
#    0.000    2.000    1.250    2.250    1.750    2.000 
#    9.000    0.000    0.000    0.000    0.000    0.000 
#    0.000    0.000    0.000    0.000    0.000    0.000 
#
# Total GULP energy -89206.935743 kJ/mol
# GULP energy per Si atom -5575.433484 kJ/mol
# Density = 2.556284 g / cm^3
# Si number density = 25.621159 Si / 1000 Ang^3
#
#
#
# Elastic Constant Matrix: (Units=GPa)
#
#
# Indices 1 2 3 4 5 6 
#
# 1 150.3641 35.7548 52.8127 16.5765 -33.5338 -4.6281
# 2 35.7548 78.3753 19.4488 27.2473 -19.1234 6.1170
# 3 52.8127 19.4488 113.7599 19.9672 -44.6998 -9.9414
# 4 16.5765 27.2473 19.9672 33.6774 -14.1939 -4.1025
# 5 -33.5338 -19.1234 -44.6998 -14.1939 59.2820 11.6849
# 6 -4.6281 6.1170 -9.9414 -4.1025 11.6849 47.4556
#
#
#
# Elastic Compliance Matrix: (Units=1/GPa)
#
#
# Indices 1 2 3 4 5 6 
#
# 1 0.008752 -0.003084 -0.002897 0.000736 0.001900 0.000240
# 2 -0.003084 0.020106 0.001447 -0.014825 0.003201 -0.004659
# 3 -0.002897 0.001447 0.013921 -0.004524 0.008236 0.000028
# 4 0.000736 -0.014825 -0.004524 0.045492 0.002244 0.004415
# 5 0.001900 0.003201 0.008236 0.002244 0.026685 -0.004879
# 6 0.000240 -0.004659 0.000028 0.004415 -0.004879 0.023285
#
#
# Mechanical properties :
#
#
# Convention : Reuss Voigt Hill
#
# Bulk Modulus (GPa) = 29.66526 62.05910 45.86218
# Shear Modulus (GPa) = 31.53680 43.71519 37.62600
#
# Velocity S-wave (km/s) = 3.51221 4.13512 3.83633
# Velocity P-wave (km/s) = 5.29632 6.86100 6.12880
#
# Compressibility (1/GPa) = 0.03370947
#
# Stress axis : x y z
#
# Youngs Moduli (GPa) = 114.26584 49.73687 71.83592
#
# Poissons Ratio (x) = 0.15341 0.20813
# Poissons Ratio (y) = 0.35244 -0.10397
# Poissons Ratio (z) = 0.33105 -0.07199
#
# Static dielectric constant tensor:
#      x y z
#    x 2.040330 0.110910 -0.055770 
#    y 0.110910 2.346780 -0.117360 
#    z -0.055770 -0.117360 2.229380 
# 
# From -- ./inp_files/94382.got.cif
#   From: 2010.05.17/outbox.cif.g08.bks.cpg/sg2_48_cif.got.tgz:94382.got - 2010.06.03 11:33:40.
