data_PCOD9109357
_publ_section_title
;
Structure prediction by ZEFSAII (Michael W. Deem and Ramdas Pophale) SiO2 
 PCOD9109357
Probable space group: P -1
;
_chemical_formula_sum "Si O2"
_cell_formula_units_Z 16
_cell_length_a 5.340502
_cell_length_b 12.068712
_cell_length_c 23.065320
_cell_angle_alpha 31.547431
_cell_angle_beta 111.996328
_cell_angle_gamma 121.227795
_cell_volume 657.553718
_symmetry_space_group_name_H-M "P -1"
_symmetry_group_IT_number 2
_symmetry_cell_setting 'triclinic'
loop_
_space_group_symop_operation_xyz
x,y,z
-x,-y,-z
loop_
_atom_site_type_symbol
_atom_site_label
_atom_site_fract_x
_atom_site_fract_y
_atom_site_fract_z
Si Si1 0.997129 0.212597 0.369073
Si Si2 0.005952 0.887186 0.757842
Si Si3 0.653634 0.271965 0.640950
Si Si4 0.962022 0.794502 0.043818
Si Si5 0.041215 0.041838 0.819373
Si Si6 0.377155 0.862287 0.428708
Si Si7 0.330849 0.514689 0.166283
Si Si8 0.591512 0.490299 0.644682
O O1 0.265813 0.332908 0.294038
O O2 0.094150 0.410503 0.339107
O O3 0.000000 0.000000 0.500000
O O4 0.688827 0.092966 0.360453
O O5 0.899552 0.629871 0.839018
O O6 0.937979 0.894406 0.816813
O O7 0.859592 0.022943 0.643885
O O8 0.350000 0.043885 0.715978
O O9 0.878520 0.211985 0.725580
O O10 0.728646 0.282165 0.575985
O O11 0.628489 0.477196 0.584004
O O12 0.652181 0.600468 0.127198
O O13 0.222646 0.703574 0.099990
O O14 0.949929 0.888103 0.936795
O O15 0.000000 0.000000 0.000000
O O16 0.384781 0.227575 0.763603
O O17 0.432730 0.670326 0.558380
#
# Coordination Sequence:
#
# PCOD9109357 Si02
#       8
#     2   2   2   2   2   2   2   2
#     4  10  22  44  70 106 142 183 238 292 361 442
#     4  10  23  43  71 100 145 182 246 299 361 437
#     4  10  21  39  67  94 145 179 243 293 355 427
#     4  12  29  48  76 105 146 190 246 303 364 440
#     4  10  25  44  66 105 141 187 249 303 352 432
#     4  10  20  41  65 102 141 186 239 292 361 433
#     4  12  26  48  76 103 143 194 235 301 374 424
#     4  10  22  39  66 100 141 190 233 296 367 423
#
# _framework density 24.332611
#
# number of rings (size 3 to 8) (size 9 to 14) (size 15 to 20)
#    0.000    1.500    1.250    2.250    7.000    6.500 
#    2.250    3.125    0.000    0.000    0.000    0.000 
#    0.000    0.000    0.000    0.000    0.000    0.000 
#
# Total GULP energy -89192.260695 kJ/mol
# GULP energy per Si atom -5574.516293 kJ/mol
# Density = 2.427723 g / cm^3
# Si number density = 24.332611 Si / 1000 Ang^3
#
#
#
# Elastic Constant Matrix: (Units=GPa)
#
#
# Indices 1 2 3 4 5 6 
#
# 1 64.7662 20.3498 18.7784 -4.4780 -8.1987 0.7548
# 2 20.3498 124.3410 31.6652 -12.8059 -13.6899 -11.3328
# 3 18.7784 31.6652 91.8517 12.9986 -15.6459 -5.6226
# 4 -4.4780 -12.8059 12.9986 30.0412 6.9172 5.1574
# 5 -8.1987 -13.6899 -15.6459 6.9172 30.2884 -18.7642
# 6 0.7548 -11.3328 -5.6226 5.1574 -18.7642 38.2193
#
#
#
# Elastic Compliance Matrix: (Units=1/GPa)
#
#
# Indices 1 2 3 4 5 6 
#
# 1 0.017296 -0.001697 -0.003565 0.003683 0.000110 -0.001812
# 2 -0.001697 0.010288 -0.002469 0.003176 0.005188 0.004840
# 3 -0.003565 -0.002469 0.019487 -0.017494 0.021282 0.015015
# 4 0.003683 0.003176 -0.017494 0.055653 -0.035961 -0.026870
# 5 0.000110 0.005188 0.021282 -0.035961 0.086938 0.052203
# 6 -0.001812 0.004840 0.015015 -0.026870 0.052203 0.059100
#
#
# Mechanical properties :
#
#
# Convention : Reuss Voigt Hill
#
# Bulk Modulus (GPa) = 31.63498 46.94954 39.29226
# Shear Modulus (GPa) = 18.19759 33.72082 25.95921
#
# Velocity S-wave (km/s) = 2.73769 3.72671 3.26981
# Velocity P-wave (km/s) = 4.79818 6.15261 5.51712
#
# Compressibility (1/GPa) = 0.03161058
#
# Stress axis : x y z
#
# Youngs Moduli (GPa) = 57.81520 97.19744 51.31572
#
# Poissons Ratio (x) = 0.16492 0.18292
# Poissons Ratio (y) = 0.09810 0.12672
# Poissons Ratio (z) = 0.20609 0.24001
#
# Static dielectric constant tensor:
#      x y z
#    x 2.024610 -0.069530 0.006570 
#    y -0.069530 2.034350 -0.027570 
#    z 0.006570 -0.027570 1.964320 
# 
# From -- ./inp_files/604415.got.cif
#   From: 2010.05.17/outbox.cif.g08.bks.cpg/sg2_303_cif.got.tgz:604415.got - 2010.06.03 11:33:40.
