data_PCOD9109520
_publ_section_title
;
Structure prediction by ZEFSAII (Michael W. Deem and Ramdas Pophale) SiO2 
 PCOD9109520
Probable space group: P -1
;
_chemical_formula_sum "Si O2"
_cell_formula_units_Z 13
_cell_length_a 8.748223
_cell_length_b 5.075844
_cell_length_c 13.312981
_cell_angle_alpha 116.361363
_cell_angle_beta 92.179475
_cell_angle_gamma 107.855142
_cell_volume 493.545743
_symmetry_space_group_name_H-M "P -1"
_symmetry_group_IT_number 2
_symmetry_cell_setting 'triclinic'
loop_
_space_group_symop_operation_xyz
x,y,z
-x,-y,-z
loop_
_atom_site_type_symbol
_atom_site_label
_atom_site_fract_x
_atom_site_fract_y
_atom_site_fract_z
Si Si1 0.924230 0.682813 0.347697
Si Si2 0.668728 0.272655 0.113643
Si Si3 0.746555 0.146419 0.410511
Si Si4 0.895317 0.131172 0.947069
Si Si5 0.241949 0.937813 0.274775
Si Si6 0.496917 0.263078 0.821378
Si Si7 0.500000 0.500000 0.500000
O O1 0.824553 0.522190 0.216952
O O2 0.865563 0.406191 0.381607
O O3 0.858780 0.961207 0.426076
O O4 0.110452 0.803187 0.336100
O O5 0.572824 0.028802 0.154704
O O6 0.559011 0.457046 0.098601
O O7 0.735210 0.112769 0.001479
O O8 0.606822 0.855144 0.303326
O O9 0.639773 0.325488 0.491311
O O10 0.847444 0.980892 0.810147
O O11 0.000000 0.500000 0.000000
O O12 0.000000 0.000000 0.000000
O O13 0.316906 0.685217 0.190428
O O14 0.395740 0.222681 0.371488
#
# Coordination Sequence:
#
# PCOD9109520 Si02
#       7
#     2   2   2   2   2   2   1
#     4  10  21  39  70 101 136 179 232 286 347 419
#     4  10  20  41  65  98 141 179 230 287 347 418
#     4   9  21  41  67 101 135 181 231 284 349 413
#     4  12  26  43  72 109 141 186 238 297 352 419
#     4  11  25  44  73 107 144 189 238 294 357 421
#     4   9  21  39  65 100 139 181 226 285 355 416
#     4  10  24  50  72 104 148 186 236 296 352 426
#
# _framework density 26.340008999999998
#
# number of rings (size 3 to 8) (size 9 to 14) (size 15 to 20)
#    0.000    1.846    1.538    0.923    4.308    5.538 
#    0.000    6.154    0.000    0.000    0.000    0.000 
#    0.000    0.000    0.000    0.000    0.000    0.000 
#
# Total GULP energy -72593.991081 kJ/mol
# GULP energy per Si atom -5584.153160 kJ/mol
# Density = 2.628006 g / cm^3
# Si number density = 26.340009 Si / 1000 Ang^3
#
#
#
# Elastic Constant Matrix: (Units=GPa)
#
#
# Indices 1 2 3 4 5 6 
#
# 1 165.7438 62.1858 49.5933 -7.0293 -5.0601 -15.9538
# 2 62.1858 109.9556 12.6353 -6.0278 6.8620 -10.9874
# 3 49.5933 12.6353 100.9447 8.3329 16.4052 13.0917
# 4 -7.0293 -6.0278 8.3329 17.2960 -4.0660 -6.2706
# 5 -5.0601 6.8620 16.4052 -4.0660 44.4184 -3.3999
# 6 -15.9538 -10.9874 13.0917 -6.2706 -3.3999 44.8252
#
#
#
# Elastic Compliance Matrix: (Units=1/GPa)
#
#
# Indices 1 2 3 4 5 6 
#
# 1 0.011600 -0.004691 -0.008074 0.011212 0.006621 0.007407
# 2 -0.004691 0.011985 0.000948 0.001594 -0.002512 0.001024
# 3 -0.008074 0.000948 0.018451 -0.018427 -0.010440 -0.011400
# 4 0.011212 0.001594 -0.018427 0.084154 0.017289 0.022847
# 5 0.006621 -0.002512 -0.010440 0.017289 0.029819 0.009470
# 6 0.007407 0.001024 -0.011400 0.022847 0.009470 0.032440
#
#
# Mechanical properties :
#
#
# Convention : Reuss Voigt Hill
#
# Bulk Modulus (GPa) = 54.34113 69.49698 61.91905
# Shear Modulus (GPa) = 22.91299 38.12323 30.51811
#
# Velocity S-wave (km/s) = 2.95259 3.80853 3.40755
# Velocity P-wave (km/s) = 5.68324 6.76622 6.24824
#
# Compressibility (1/GPa) = 0.01840227
#
# Stress axis : x y z
#
# Youngs Moduli (GPa) = 86.20674 83.43719 54.19830
#
# Poissons Ratio (x) = 0.39141 0.43760
# Poissons Ratio (y) = 0.40440 -0.05140
# Poissons Ratio (z) = 0.69604 -0.07913
#
# Static dielectric constant tensor:
#      x y z
#    x 2.091960 -0.080230 0.073160 
#    y -0.080230 2.732630 -0.047120 
#    z 0.073160 -0.047120 2.103260 
# 
# From -- ./inp_files/487403.got.cif
#   From: 2010.05.17/outbox.cif.g08.bks.cpg/sg2_244_cif.got.tgz:487403.got - 2010.06.03 11:33:40.
