data_PCOD9109859
_publ_section_title
;
Structure prediction by ZEFSAII (Michael W. Deem and Ramdas Pophale) SiO2 
 PCOD9109859
Probable space group: P -1
;
_chemical_formula_sum "Si O2"
_cell_formula_units_Z 16
_cell_length_a 5.183668
_cell_length_b 11.108445
_cell_length_c 12.735825
_cell_angle_alpha 63.570274
_cell_angle_beta 80.586205
_cell_angle_gamma 84.444447
_cell_volume 647.627044
_symmetry_space_group_name_H-M "P -1"
_symmetry_group_IT_number 2
_symmetry_cell_setting 'triclinic'
loop_
_space_group_symop_operation_xyz
x,y,z
-x,-y,-z
loop_
_atom_site_type_symbol
_atom_site_label
_atom_site_fract_x
_atom_site_fract_y
_atom_site_fract_z
Si Si1 0.849005 0.139530 0.199706
Si Si2 0.717711 0.566402 0.389004
Si Si3 0.361026 0.288900 0.869072
Si Si4 0.208960 0.378277 0.054233
Si Si5 0.830388 0.136088 0.973049
Si Si6 0.412400 0.244534 0.294975
Si Si7 0.963370 0.695318 0.513823
Si Si8 0.855436 0.031114 0.606891
O O1 0.722623 0.229747 0.267207
O O2 0.081324 0.232631 0.111888
O O3 0.708974 0.128077 0.102345
O O4 0.950755 0.002386 0.296476
O O5 0.500000 0.500000 0.500000
O O6 0.593808 0.624295 0.269970
O O7 0.858490 0.673065 0.412315
O O8 0.922225 0.445819 0.397980
O O9 0.579634 0.169201 0.904992
O O10 0.056463 0.246135 0.897898
O O11 0.397564 0.372506 0.942704
O O12 0.328612 0.357552 0.170645
O O13 0.000000 0.500000 0.000000
O O14 0.000000 0.000000 0.000000
O O15 0.271701 0.264978 0.406326
O O16 0.351749 0.087674 0.326785
O O17 0.183783 0.809267 0.453735
O O18 0.000000 0.000000 0.500000
#
# Coordination Sequence:
#
# PCOD9109859 Si02
#       8
#     2   2   2   2   2   2   2   2
#     4  10  22  39  64 100 133 173 229 290 352 432
#     4  11  27  45  66  96 140 189 241 289 349 434
#     4  11  25  46  71 103 141 182 242 292 352 431
#     4  10  21  40  64  99 136 180 226 286 359 420
#     4  11  25  46  71 104 139 184 231 295 361 423
#     4  10  20  41  67  98 135 170 229 294 356 423
#     4  10  24  43  64  99 135 186 236 290 358 422
#     4   9  21  39  65  94 134 174 226 291 354 416
#
# _framework density 24.705577999999999
#
# number of rings (size 3 to 8) (size 9 to 14) (size 15 to 20)
#    0.000    1.750    1.250    1.125    5.250    7.500 
#    0.000    0.000    0.000    0.000    0.000    0.000 
#    0.000    0.000    0.000    0.000    0.000    0.000 
#
# Total GULP energy -89271.028863 kJ/mol
# GULP energy per Si atom -5579.439304 kJ/mol
# Density = 2.464935 g / cm^3
# Si number density = 24.705578 Si / 1000 Ang^3
#
#
#
# Elastic Constant Matrix: (Units=GPa)
#
#
# Indices 1 2 3 4 5 6 
#
# 1 57.0266 15.2780 23.5212 -1.0348 3.5659 -12.6603
# 2 15.2780 99.4102 36.4255 -6.1007 -0.4250 -7.0980
# 3 23.5212 36.4255 159.9961 -9.2113 12.5313 -9.3241
# 4 -1.0348 -6.1007 -9.2113 18.1533 -10.0424 -9.6707
# 5 3.5659 -0.4250 12.5313 -10.0424 36.3905 -6.3633
# 6 -12.6603 -7.0980 -9.3241 -9.6707 -6.3633 32.7122
#
#
#
# Elastic Compliance Matrix: (Units=1/GPa)
#
#
# Indices 1 2 3 4 5 6 
#
# 1 0.020770 -0.001460 -0.002011 0.005497 0.001751 0.009114
# 2 -0.001460 0.011811 -0.002109 0.007117 0.003710 0.004222
# 3 -0.002011 -0.002109 0.007388 0.003034 -0.001269 0.001520
# 4 0.005497 0.007117 0.003034 0.098863 0.032802 0.040144
# 5 0.001751 0.003710 -0.001269 0.032802 0.040096 0.018618
# 6 0.009114 0.004222 0.001520 0.040144 0.018618 0.050936
#
#
# Mechanical properties :
#
#
# Convention : Reuss Voigt Hill
#
# Bulk Modulus (GPa) = 34.70992 51.87581 43.29287
# Shear Modulus (GPa) = 19.95009 33.53174 26.74092
#
# Velocity S-wave (km/s) = 2.84476 3.68809 3.29353
# Velocity P-wave (km/s) = 4.98700 6.25933 5.65903
#
# Compressibility (1/GPa) = 0.02881021
#
# Stress axis : x y z
#
# Youngs Moduli (GPa) = 48.14712 84.66997 135.34565
#
# Poissons Ratio (x) = 0.12360 0.27212
# Poissons Ratio (y) = 0.07028 0.28544
# Poissons Ratio (z) = 0.09680 0.17857
#
# Static dielectric constant tensor:
#      x y z
#    x 2.197920 0.031070 0.002370 
#    y 0.031070 2.043770 0.048760 
#    z 0.002370 0.048760 1.970360 
# 
# From -- ./inp_files/363838.got.cif
#   From: 2010.05.17/outbox.cif.g08.bks.cpg/sg2_182_cif.got.tgz:363838.got - 2010.06.03 11:33:40.
