data_PCOD9109760
_publ_section_title
;
Structure prediction by ZEFSAII (Michael W. Deem and Ramdas Pophale) SiO2 
 PCOD9109760
Probable space group: P -1
;
_chemical_formula_sum "Si O2"
_cell_formula_units_Z 16
_cell_length_a 16.762797
_cell_length_b 8.238286
_cell_length_c 8.328815
_cell_angle_alpha 81.485719
_cell_angle_beta 110.006735
_cell_angle_gamma 139.758097
_cell_volume 685.969956
_symmetry_space_group_name_H-M "P -1"
_symmetry_group_IT_number 2
_symmetry_cell_setting 'triclinic'
loop_
_space_group_symop_operation_xyz
x,y,z
-x,-y,-z
loop_
_atom_site_type_symbol
_atom_site_label
_atom_site_fract_x
_atom_site_fract_y
_atom_site_fract_z
Si Si1 0.856757 0.889223 0.846610
Si Si2 0.516846 0.801246 0.437116
Si Si3 0.272446 0.941809 0.960743
Si Si4 0.218485 0.763306 0.604463
Si Si5 0.410397 0.347755 0.235309
Si Si6 0.026863 0.801808 0.795881
Si Si7 0.960715 0.177257 0.552512
Si Si8 0.260964 0.622940 0.235379
O O1 0.735885 0.839491 0.764472
O O2 0.790828 0.614582 0.861778
O O3 0.927768 0.015502 0.705200
O O4 0.938431 0.051596 0.038257
O O5 0.485100 0.624213 0.296542
O O6 0.518498 0.692382 0.613839
O O7 0.399999 0.759148 0.373514
O O8 0.663406 0.085848 0.462265
O O9 0.285017 0.813633 0.112861
O O10 0.371486 0.232163 0.046447
O O11 0.292374 0.907657 0.801857
O O12 0.120529 0.781124 0.879203
O O13 0.131007 0.795427 0.499024
O O14 0.111978 0.463168 0.610883
O O15 0.066332 0.932661 0.629409
O O16 0.870691 0.534314 0.727429
#
# Coordination Sequence:
#
# PCOD9109760 Si02
#       8
#     2   2   2   2   2   2   2   2
#     4  10  20  41  67  90 127 161 205 261 306 361
#     4  10  21  39  63  88 125 160 204 251 312 370
#     4  10  22  39  62  90 123 162 210 250 308 364
#     4  10  21  38  62  92 124 159 203 265 299 366
#     4   9  20  39  65  88 116 169 204 246 307 380
#     4  10  22  39  64  90 122 166 208 255 302 369
#     4  10  21  38  64  96 121 161 213 252 309 362
#     4  11  23  37  63  94 125 166 200 252 314 369
#
# _framework density 23.324638
#
# number of rings (size 3 to 8) (size 9 to 14) (size 15 to 20)
#    0.000    2.000    1.250    1.500    1.750    4.000 
#    0.000    0.000    0.000    0.000    0.000    0.000 
#    0.000    0.000    0.000    0.000    0.000    0.000 
#
# Total GULP energy -89354.489361 kJ/mol
# GULP energy per Si atom -5584.655585 kJ/mol
# Density = 2.327155 g / cm^3
# Si number density = 23.324638 Si / 1000 Ang^3
#
#
#
# Elastic Constant Matrix: (Units=GPa)
#
#
# Indices 1 2 3 4 5 6 
#
# 1 105.1157 28.3823 45.5706 -1.5886 21.6170 11.7888
# 2 28.3823 104.8174 49.6465 18.7789 -2.5881 12.8167
# 3 45.5706 49.6465 107.5729 17.0524 4.3986 -0.4650
# 4 -1.5886 18.7789 17.0524 35.8209 -3.0247 4.3732
# 5 21.6170 -2.5881 4.3986 -3.0247 49.2484 8.6532
# 6 11.7888 12.8167 -0.4650 4.3732 8.6532 31.4062
#
#
#
# Elastic Compliance Matrix: (Units=1/GPa)
#
#
# Indices 1 2 3 4 5 6 
#
# 1 0.013838 -0.001426 -0.005689 0.004161 -0.004685 -0.003985
# 2 -0.001426 0.013855 -0.005291 -0.003942 0.002523 -0.005343
# 3 -0.005689 -0.005291 0.015031 -0.005322 -0.000393 0.005367
# 4 0.004161 -0.003942 -0.005322 0.033437 0.001386 -0.005070
# 5 -0.004685 0.002523 -0.000393 0.001386 0.023667 -0.005991
# 6 -0.003985 -0.005343 0.005367 -0.005070 -0.005991 0.037953
#
#
# Mechanical properties :
#
#
# Convention : Reuss Voigt Hill
#
# Bulk Modulus (GPa) = 55.83310 62.74497 59.28903
# Shear Modulus (GPa) = 29.66202 36.22220 32.94211
#
# Velocity S-wave (km/s) = 3.56996 3.94503 3.76218
# Velocity P-wave (km/s) = 6.40174 6.90726 6.65929
#
# Compressibility (1/GPa) = 0.01791052
#
# Stress axis : x y z
#
# Youngs Moduli (GPa) = 72.26406 72.17723 66.52881
#
# Poissons Ratio (x) = 0.10294 0.37849
# Poissons Ratio (y) = 0.10307 0.35203
# Poissons Ratio (z) = 0.41112 0.38192
#
# Static dielectric constant tensor:
#      x y z
#    x 1.922460 -0.011260 -0.036280 
#    y -0.011260 1.847880 0.054210 
#    z -0.036280 0.054210 1.904230 
# 
# From -- ./inp_files/328890.got.cif
#   From: 2010.05.17/outbox.cif.g08.bks.cpg/sg2_165_cif.got.tgz:328890.got - 2010.06.03 11:33:40.
