data_PCOD9109699
_publ_section_title
;
Structure prediction by ZEFSAII (Michael W. Deem and Ramdas Pophale) SiO2 
 PCOD9109699
Probable space group: P -1
;
_chemical_formula_sum "Si O2"
_cell_formula_units_Z 16
_cell_length_a 9.011372
_cell_length_b 13.540945
_cell_length_c 8.180148
_cell_angle_alpha 47.561963
_cell_angle_beta 71.926704
_cell_angle_gamma 87.118903
_cell_volume 682.065798
_symmetry_space_group_name_H-M "P -1"
_symmetry_group_IT_number 2
_symmetry_cell_setting 'triclinic'
loop_
_space_group_symop_operation_xyz
x,y,z
-x,-y,-z
loop_
_atom_site_type_symbol
_atom_site_label
_atom_site_fract_x
_atom_site_fract_y
_atom_site_fract_z
Si Si1 0.181730 0.123283 0.464141
Si Si2 0.149162 0.934027 0.195741
Si Si3 0.833518 0.540879 0.469784
Si Si4 0.559364 0.283785 0.835633
Si Si5 0.798009 0.773573 0.007264
Si Si6 0.587795 0.627946 0.718823
Si Si7 0.676706 0.073895 0.185431
Si Si8 0.582486 0.168312 0.619795
O O1 0.316832 0.251227 0.334506
O O2 0.035895 0.112461 0.649651
O O3 0.248241 0.985712 0.619225
O O4 0.133379 0.153304 0.264996
O O5 0.243656 0.863308 0.377431
O O6 0.194035 0.899659 0.035709
O O7 0.197207 0.098647 0.016364
O O8 0.704028 0.407679 0.598834
O O9 0.877964 0.663486 0.187389
O O10 0.723534 0.589569 0.595002
O O11 0.000000 0.500000 0.500000
O O12 0.383673 0.310306 0.876691
O O13 0.535949 0.172417 0.822314
O O14 0.610735 0.211409 0.060261
O O15 0.457218 0.692397 0.593204
O O16 0.500000 0.500000 0.000000
O O17 0.531145 0.952867 0.306959
#
# Coordination Sequence:
#
# PCOD9109699 Si02
#       8
#     2   2   2   2   2   2   2   2
#     4  11  26  38  67 100 133 173 210 280 339 375
#     4  11  21  41  68  96 130 167 222 273 331 389
#     4  12  29  44  68  99 132 180 225 274 327 393
#     4  11  21  41  71  91 127 174 223 259 327 392
#     4  12  23  45  66  95 139 170 221 269 329 403
#     4  11  25  48  65  95 138 176 227 269 325 400
#     4  10  20  41  66  98 126 168 220 267 327 393
#     4  10  20  41  70  98 120 174 221 267 324 398
#
# _framework density 23.458145999999999
#
# number of rings (size 3 to 8) (size 9 to 14) (size 15 to 20)
#    0.000    1.000    3.750    3.375    7.000    1.500 
#    2.250    1.250    0.000    0.000    0.000    0.000 
#    0.000    0.000    0.000    0.000    0.000    0.000 
#
# Total GULP energy -89447.749422 kJ/mol
# GULP energy per Si atom -5590.484339 kJ/mol
# Density = 2.340475 g / cm^3
# Si number density = 23.458146 Si / 1000 Ang^3
#
#
#
# Elastic Constant Matrix: (Units=GPa)
#
#
# Indices 1 2 3 4 5 6 
#
# 1 122.2682 22.7795 69.2780 -14.0034 23.0484 -24.1753
# 2 22.7795 44.8258 18.5839 -1.7029 11.3181 -7.3151
# 3 69.2780 18.5839 142.2845 -16.6100 35.1031 -18.1761
# 4 -14.0034 -1.7029 -16.6100 36.7851 -8.1968 4.9535
# 5 23.0484 11.3181 35.1031 -8.1968 54.1781 -14.3572
# 6 -24.1753 -7.3151 -18.1761 4.9535 -14.3572 26.0888
#
#
#
# Elastic Compliance Matrix: (Units=1/GPa)
#
#
# Indices 1 2 3 4 5 6 
#
# 1 0.013277 -0.003502 -0.004956 0.001736 0.000650 0.007896
# 2 -0.003502 0.025442 -0.000794 -0.001448 -0.003012 0.001953
# 3 -0.004956 -0.000794 0.010875 0.001998 -0.004494 -0.000091
# 4 0.001736 -0.001448 0.001998 0.029419 0.002257 -0.001749
# 5 0.000650 -0.003012 -0.004494 0.002257 0.024651 0.009764
# 6 0.007896 0.001953 -0.000091 -0.001749 0.009764 0.051837
#
#
# Mechanical properties :
#
#
# Convention : Reuss Voigt Hill
#
# Bulk Modulus (GPa) = 32.16544 58.96237 45.56390
# Shear Modulus (GPa) = 27.11948 36.65954 31.88951
#
# Velocity S-wave (km/s) = 3.40381 3.95747 3.69103
# Velocity P-wave (km/s) = 5.40273 6.78762 6.13438
#
# Compressibility (1/GPa) = 0.03108927
#
# Stress axis : x y z
#
# Youngs Moduli (GPa) = 75.31870 39.30569 91.95121
#
# Poissons Ratio (x) = 0.13764 0.45571
# Poissons Ratio (y) = 0.26375 0.07305
# Poissons Ratio (z) = 0.37328 0.03123
#
# Static dielectric constant tensor:
#      x y z
#    x 1.932190 -0.023160 0.042150 
#    y -0.023160 1.959840 0.002600 
#    z 0.042150 0.002600 1.891490 
# 
# From -- ./inp_files/205086.got.cif
#   From: 2010.05.17/outbox.cif.g08.bks.cpg/sg2_103_cif.got.tgz:205086.got - 2010.06.03 11:33:40.
