data_PCOD9109885
_publ_section_title
;
Structure prediction by ZEFSAII (Michael W. Deem and Ramdas Pophale) SiO2 
 PCOD9109885
Probable space group: P -1
;
_chemical_formula_sum "Si O2"
_cell_formula_units_Z 12
_cell_length_a 8.755665
_cell_length_b 13.937483
_cell_length_c 5.486493
_cell_angle_alpha 95.784534
_cell_angle_beta 73.807218
_cell_angle_gamma 134.392456
_cell_volume 455.082262
_symmetry_space_group_name_H-M "P -1"
_symmetry_group_IT_number 2
_symmetry_cell_setting 'triclinic'
loop_
_space_group_symop_operation_xyz
x,y,z
-x,-y,-z
loop_
_atom_site_type_symbol
_atom_site_label
_atom_site_fract_x
_atom_site_fract_y
_atom_site_fract_z
Si Si1 0.731578 0.152317 0.907696
Si Si2 0.678152 0.787524 0.009178
Si Si3 0.240069 0.561308 0.822184
Si Si4 0.234807 0.385716 0.072833
Si Si5 0.003366 0.078666 0.729741
Si Si6 0.173652 0.699958 0.581762
O O1 0.911585 0.146549 0.760668
O O2 0.727667 0.220757 0.693874
O O3 0.765375 0.214975 0.175169
O O4 0.500000 0.000000 0.000000
O O5 0.448208 0.680624 0.936058
O O6 0.810378 0.943382 0.944109
O O7 0.819266 0.748863 0.872552
O O8 0.735565 0.803330 0.275404
O O9 0.210840 0.434030 0.837970
O O10 0.254353 0.626335 0.581687
O O11 0.000000 0.500000 0.000000
O O12 0.500000 0.500000 0.000000
O O13 0.091846 0.391388 0.318883
O O14 0.000000 0.000000 0.500000
#
# Coordination Sequence:
#
# PCOD9109885 Si02
#       6
#     2   2   2   2   2   2
#     4  12  26  45  74 107 150 198 250 309 381 452
#     4  10  20  41  68 102 140 186 247 300 376 439
#     4   9  20  41  73 103 142 191 246 304 373 448
#     4   9  18  40  75 101 145 189 250 307 373 445
#     4  11  24  41  72 104 146 195 246 309 377 448
#     4  11  23  46  70 105 151 190 248 310 376 453
#
# _framework density 26.368856999999998
#
# number of rings (size 3 to 8) (size 9 to 14) (size 15 to 20)
#    0.000    1.667    1.667    2.500    2.333    0.000 
#    6.000    8.333   14.667    0.000    0.000    0.000 
#    0.000    0.000    0.000    0.000    0.000    0.000 
#
# Total GULP energy -66850.716737 kJ/mol
# GULP energy per Si atom -5570.893061 kJ/mol
# Density = 2.630884 g / cm^3
# Si number density = 26.368857 Si / 1000 Ang^3
#
#
#
# Elastic Constant Matrix: (Units=GPa)
#
#
# Indices 1 2 3 4 5 6 
#
# 1 191.5336 78.5904 54.8004 -6.8614 23.4440 -20.5762
# 2 78.5904 151.4631 47.0204 9.5971 9.6884 -7.6293
# 3 54.8004 47.0204 123.3742 5.3812 17.4403 0.4575
# 4 -6.8614 9.5971 5.3812 57.1875 -7.0038 4.6506
# 5 23.4440 9.6884 17.4403 -7.0038 36.5226 -8.3142
# 6 -20.5762 -7.6293 0.4575 4.6506 -8.3142 72.8776
#
#
#
# Elastic Compliance Matrix: (Units=1/GPa)
#
#
# Indices 1 2 3 4 5 6 
#
# 1 0.007571 -0.003195 -0.001838 0.001184 -0.002579 0.001445
# 2 -0.003195 0.008967 -0.001974 -0.001677 0.000337 0.000195
# 3 -0.001838 -0.001974 0.010252 -0.001213 -0.003683 -0.001133
# 4 0.001184 -0.001677 -0.001213 0.018523 0.003680 -0.000596
# 5 -0.002579 0.000337 -0.003683 0.003680 0.032037 0.002750
# 6 0.001445 0.000195 -0.001133 -0.000596 0.002750 0.014509
#
#
# Mechanical properties :
#
#
# Convention : Reuss Voigt Hill
#
# Bulk Modulus (GPa) = 78.26595 91.91035 85.08815
# Shear Modulus (GPa) = 45.40055 52.38153 48.89104
#
# Velocity S-wave (km/s) = 4.15390 4.46184 4.31062
# Velocity P-wave (km/s) = 7.26307 7.84062 7.55736
#
# Compressibility (1/GPa) = 0.01277695
#
# Stress axis : x y z
#
# Youngs Moduli (GPa) = 132.07951 111.51488 97.54642
#
# Poissons Ratio (x) = 0.35633 0.17926
# Poissons Ratio (y) = 0.42204 0.19252
# Poissons Ratio (z) = 0.24271 0.22009
#
# Static dielectric constant tensor:
#      x y z
#    x 2.315840 -0.040700 0.234280 
#    y -0.040700 2.350070 -0.145640 
#    z 0.234280 -0.145640 2.451870 
# 
# From -- ./inp_files/35785.got.cif
#   From: 2010.05.17/outbox.cif.g08.bks.cpg/sg2_18_cif.got.tgz:35785.got - 2010.06.03 11:33:40.
