data_PCOD9109067
_publ_section_title
;
Structure prediction by ZEFSAII (Michael W. Deem and Ramdas Pophale) SiO2 
 PCOD9109067
Probable space group: P -1
;
_chemical_formula_sum "Si O2"
_cell_formula_units_Z 16
_cell_length_a 12.755958
_cell_length_b 11.221397
_cell_length_c 9.465760
_cell_angle_alpha 123.286277
_cell_angle_beta 143.417494
_cell_angle_gamma 76.868028
_cell_volume 609.896490
_symmetry_space_group_name_H-M "P -1"
_symmetry_group_IT_number 2
_symmetry_cell_setting 'triclinic'
loop_
_space_group_symop_operation_xyz
x,y,z
-x,-y,-z
loop_
_atom_site_type_symbol
_atom_site_label
_atom_site_fract_x
_atom_site_fract_y
_atom_site_fract_z
Si Si1 0.771120 0.049731 0.697817
Si Si2 0.374549 0.096625 0.275354
Si Si3 0.972153 0.469781 0.613772
Si Si4 0.009260 0.218698 0.656126
Si Si5 0.395919 0.592145 0.126079
Si Si6 0.302791 0.079283 0.855221
Si Si7 0.568639 0.729382 0.117466
Si Si8 0.062729 0.377430 0.080756
O O1 0.566275 0.063725 0.471811
O O2 0.933342 0.207836 0.907901
O O3 0.783551 0.020284 0.860655
O O4 0.735842 0.884690 0.475583
O O5 0.433441 0.274394 0.513308
O O6 0.327392 0.084037 0.051615
O O7 0.945373 0.298839 0.514590
O O8 0.000000 0.500000 0.500000
O O9 0.197898 0.571639 0.974211
O O10 0.842807 0.521393 0.610481
O O11 0.135589 0.136651 0.677934
O O12 0.143182 0.323609 0.996396
O O13 0.802831 0.101275 0.422922
O O14 0.412607 0.663316 0.032151
O O15 0.393118 0.420848 0.986928
O O16 0.476688 0.191875 0.018673
O O17 0.000000 0.500000 0.000000
#
# Coordination Sequence:
#
# PCOD9109067 Si02
#       8
#     2   2   2   2   2   2   2   2
#     4  10  20  41  62  90 125 160 209 266 307 370
#     4  10  23  38  68  89 124 165 210 258 315 370
#     4  11  23  41  67  91 124 169 208 258 311 377
#     4  10  23  42  61  88 132 159 211 258 310 374
#     4  10  21  43  61  94 126 165 203 263 314 369
#     4  11  22  41  64  92 120 172 204 260 314 372
#     4  10  21  39  65  86 131 162 205 261 315 365
#     4  10  21  41  62  88 125 166 202 263 313 361
#
# _framework density 26.23396
#
# number of rings (size 3 to 8) (size 9 to 14) (size 15 to 20)
#    0.000    1.750    3.750    0.000    1.750    1.000 
#   11.250    0.625    0.000    0.000    0.000    0.000 
#    0.000    0.000    0.000    0.000    0.000    0.000 
#
# Total GULP energy -89176.057687 kJ/mol
# GULP energy per Si atom -5573.503605 kJ/mol
# Density = 2.617425 g / cm^3
# Si number density = 26.233960 Si / 1000 Ang^3
#
#
#
# Elastic Constant Matrix: (Units=GPa)
#
#
# Indices 1 2 3 4 5 6 
#
# 1 64.7688 27.6774 25.3675 -12.4741 -15.1251 21.9364
# 2 27.6774 128.1349 47.9755 -8.1750 -2.2987 42.4766
# 3 25.3675 47.9755 78.7713 -0.8225 -27.3028 16.0667
# 4 -12.4741 -8.1750 -0.8225 29.2924 15.7802 -13.7744
# 5 -15.1251 -2.2987 -27.3028 15.7802 47.8832 -2.0903
# 6 21.9364 42.4766 16.0667 -13.7744 -2.0903 64.5578
#
#
#
# Elastic Compliance Matrix: (Units=1/GPa)
#
#
# Indices 1 2 3 4 5 6 
#
# 1 0.020447 -0.001099 -0.004376 0.005371 0.001969 -0.003926
# 2 -0.001099 0.013267 -0.008648 0.003621 -0.006080 -0.005628
# 3 -0.004376 -0.008648 0.025456 -0.013464 0.017090 -0.001477
# 4 0.005371 0.003621 -0.013464 0.054276 -0.023258 0.009971
# 5 0.001969 -0.006080 0.017090 -0.023258 0.038421 -0.004640
# 6 -0.003926 -0.005628 -0.001477 0.009971 -0.004640 0.022872
#
#
# Mechanical properties :
#
#
# Convention : Reuss Voigt Hill
#
# Bulk Modulus (GPa) = 32.33770 52.63507 42.48639
# Shear Modulus (GPa) = 23.44183 39.72367 31.58275
#
# Velocity S-wave (km/s) = 2.99250 3.89550 3.47347
# Velocity P-wave (km/s) = 4.92885 6.35142 5.68481
#
# Compressibility (1/GPa) = 0.03092366
#
# Stress axis : x y z
#
# Youngs Moduli (GPa) = 48.90700 75.37342 39.28374
#
# Poissons Ratio (x) = 0.08280 0.17191
# Poissons Ratio (y) = 0.05373 0.33974
# Poissons Ratio (z) = 0.21403 0.65186
#
# Static dielectric constant tensor:
#      x y z
#    x 2.122290 -0.011180 0.069780 
#    y -0.011180 2.136440 0.013780 
#    z 0.069780 0.013780 2.176080 
# 
# From -- ./inp_files/305817.got.cif
#   From: 2010.05.17/outbox.cif.g08.bks.cpg/sg2_153_cif.got.tgz:305817.got - 2010.06.03 11:33:40.
