data_PCOD9109214
_publ_section_title
;
Structure prediction by ZEFSAII (Michael W. Deem and Ramdas Pophale) SiO2 
 PCOD9109214
Probable space group: P -1
;
_chemical_formula_sum "Si O2"
_cell_formula_units_Z 16
_cell_length_a 12.288295
_cell_length_b 8.135478
_cell_length_c 15.413966
_cell_angle_alpha 132.420879
_cell_angle_beta 45.268398
_cell_angle_gamma 136.412625
_cell_volume 710.752368
_symmetry_space_group_name_H-M "P -1"
_symmetry_group_IT_number 2
_symmetry_cell_setting 'triclinic'
loop_
_space_group_symop_operation_xyz
x,y,z
-x,-y,-z
loop_
_atom_site_type_symbol
_atom_site_label
_atom_site_fract_x
_atom_site_fract_y
_atom_site_fract_z
Si Si1 0.251286 0.681073 0.661326
Si Si2 0.008230 0.069803 0.916527
Si Si3 0.724476 0.769451 0.547522
Si Si4 0.865309 0.179794 0.377142
Si Si5 0.308010 0.457884 0.112474
Si Si6 0.085168 0.555825 0.122196
Si Si7 0.077318 0.049824 0.332906
Si Si8 0.598715 0.111510 0.651022
O O1 0.353959 0.521409 0.537806
O O2 0.129764 0.615051 0.620103
O O3 0.112465 0.592119 0.783205
O O4 0.394857 0.970832 0.693493
O O5 0.820345 0.843044 0.912328
O O6 0.135576 0.024814 0.763883
O O7 0.074061 0.368514 0.985162
O O8 0.000000 0.000000 0.000000
O O9 0.904654 0.897117 0.435797
O O10 0.626324 0.925042 0.634844
O O11 0.767307 0.797499 0.634657
O O12 0.703964 0.118926 0.508128
O O13 0.022939 0.220041 0.365137
O O14 0.218529 0.549525 0.118920
O O15 0.330176 0.625299 0.245002
O O16 0.500000 0.500000 0.000000
O O17 0.114018 0.837934 0.190671
#
# Coordination Sequence:
#
# PCOD9109214 Si02
#       8
#     2   2   2   2   2   2   2   2
#     4  11  21  37  60  92 123 163 196 246 298 359
#     4  10  21  39  61  84 118 158 206 241 300 360
#     4   9  19  36  59  85 127 159 200 236 301 363
#     4  11  23  37  62  94 125 154 201 255 303 349
#     4  11  22  37  64  90 113 157 207 249 293 354
#     4  10  20  41  64  84 118 164 210 238 294 371
#     4   9  19  35  60  91 117 161 198 248 297 356
#     4  11  23  38  60  94 127 155 200 251 301 350
#
# _framework density 22.511355999999999
#
# number of rings (size 3 to 8) (size 9 to 14) (size 15 to 20)
#    0.000    1.750    3.750    1.500    3.500    2.500 
#    0.000    0.000    0.000    0.750    0.000    0.000 
#    0.000    0.000    0.000    0.000    0.000    0.000 
#
# Total GULP energy -89183.293948 kJ/mol
# GULP energy per Si atom -5573.955872 kJ/mol
# Density = 2.246012 g / cm^3
# Si number density = 22.511356 Si / 1000 Ang^3
#
#
#
# Elastic Constant Matrix: (Units=GPa)
#
#
# Indices 1 2 3 4 5 6 
#
# 1 77.0784 16.3037 33.9148 3.5447 -8.9660 9.2261
# 2 16.3037 60.4428 35.0583 16.5243 1.7693 24.9776
# 3 33.9148 35.0583 134.6186 18.2099 5.2471 19.7403
# 4 3.5447 16.5243 18.2099 28.9442 -0.8220 4.2591
# 5 -8.9660 1.7693 5.2471 -0.8220 33.1819 4.3369
# 6 9.2261 24.9776 19.7403 4.2591 4.3369 33.1964
#
#
#
# Elastic Compliance Matrix: (Units=1/GPa)
#
#
# Indices 1 2 3 4 5 6 
#
# 1 0.015734 -0.002222 -0.003642 0.001997 0.005187 -0.001469
# 2 -0.002222 0.029805 -0.002837 -0.012210 0.000388 -0.018605
# 3 -0.003642 -0.002837 0.010006 -0.004000 -0.002253 -0.001996
# 4 0.001997 -0.012210 -0.004000 0.043090 0.002212 0.005193
# 5 0.005187 0.000388 -0.002253 0.002212 0.032574 -0.004933
# 6 -0.001469 -0.018605 -0.001996 0.005193 -0.004933 0.045696
#
#
# Mechanical properties :
#
#
# Convention : Reuss Voigt Hill
#
# Bulk Modulus (GPa) = 26.21809 49.18817 37.70313
# Shear Modulus (GPa) = 24.15204 31.52204 27.83704
#
# Velocity S-wave (km/s) = 3.27904 3.74608 3.52032
# Velocity P-wave (km/s) = 5.09981 6.37249 5.77134
#
# Compressibility (1/GPa) = 0.03814161
#
# Stress axis : x y z
#
# Youngs Moduli (GPa) = 63.55774 33.55163 99.93603
#
# Poissons Ratio (x) = 0.07456 0.36397
# Poissons Ratio (y) = 0.14124 0.28356
# Poissons Ratio (z) = 0.23148 0.09520
#
# Static dielectric constant tensor:
#      x y z
#    x 1.914070 -0.072640 -0.013350 
#    y -0.072640 1.849040 0.052410 
#    z -0.013350 0.052410 1.877170 
# 
# From -- ./inp_files/516227.got.cif
#   From: 2010.05.17/outbox.cif.g08.bks.cpg/sg2_259_cif.got.tgz:516227.got - 2010.06.03 11:33:40.
