data_PCOD9109212
_publ_section_title
;
Structure prediction by ZEFSAII (Michael W. Deem and Ramdas Pophale) SiO2 
 PCOD9109212
Probable space group: P -1
;
_chemical_formula_sum "Si O2"
_cell_formula_units_Z 12
_cell_length_a 6.820330
_cell_length_b 16.349145
_cell_length_c 7.892225
_cell_angle_alpha 52.784134
_cell_angle_beta 134.494648
_cell_angle_gamma 104.011065
_cell_volume 473.625658
_symmetry_space_group_name_H-M "P -1"
_symmetry_group_IT_number 2
_symmetry_cell_setting 'triclinic'
loop_
_space_group_symop_operation_xyz
x,y,z
-x,-y,-z
loop_
_atom_site_type_symbol
_atom_site_label
_atom_site_fract_x
_atom_site_fract_y
_atom_site_fract_z
Si Si1 0.845464 0.698209 0.360347
Si Si2 0.180439 0.827300 0.553605
Si Si3 0.615954 0.064123 0.751591
Si Si4 0.848549 0.480434 0.755631
Si Si5 0.808120 0.743024 0.923449
Si Si6 0.658482 0.115334 0.095934
O O1 0.911854 0.571224 0.560553
O O2 0.955112 0.738789 0.201642
O O3 0.986151 0.751025 0.524370
O O4 0.510105 0.757399 0.131058
O O5 0.176774 0.915530 0.294958
O O6 0.118542 0.899599 0.595515
O O7 0.497126 0.741270 0.808426
O O8 0.554142 0.951217 0.884829
O O9 0.694396 0.099740 0.938400
O O10 0.304646 0.146268 0.389041
O O11 0.500000 0.500000 0.500000
O O12 0.017991 0.359513 0.949058
O O13 0.000000 0.500000 0.000000
#
# Coordination Sequence:
#
# PCOD9109212 Si02
#       6
#     2   2   2   2   2   2
#     4  11  24  42  69  98 138 184 232 294 350 423
#     4   9  22  40  67  97 140 179 228 284 346 418
#     4   9  20  42  66  97 143 185 229 285 349 411
#     4  12  29  46  74 104 139 184 240 299 353 428
#     4   9  23  45  64  97 136 181 234 285 352 418
#     4  10  20  41  64 101 143 179 234 285 343 423
#
# _framework density 25.336462999999998
#
# number of rings (size 3 to 8) (size 9 to 14) (size 15 to 20)
#    1.000    1.000    0.000    2.000    7.000    1.333 
#    3.000    1.667    0.000    0.000    0.000    0.000 
#    0.000    0.000    0.000    0.000    0.000    0.000 
#
# Total GULP energy -66864.572573 kJ/mol
# GULP energy per Si atom -5572.047714 kJ/mol
# Density = 2.527880 g / cm^3
# Si number density = 25.336463 Si / 1000 Ang^3
#
#
#
# Elastic Constant Matrix: (Units=GPa)
#
#
# Indices 1 2 3 4 5 6 
#
# 1 110.5593 46.1410 32.9882 12.1555 -29.3318 -1.4233
# 2 46.1410 102.8463 22.1823 11.6145 -12.8248 -8.5314
# 3 32.9882 22.1823 76.2329 1.0806 -4.6054 1.8102
# 4 12.1555 11.6145 1.0806 47.8575 -15.2879 -9.6998
# 5 -29.3318 -12.8248 -4.6054 -15.2879 29.9041 -5.5121
# 6 -1.4233 -8.5314 1.8102 -9.6998 -5.5121 41.9787
#
#
#
# Elastic Compliance Matrix: (Units=1/GPa)
#
#
# Indices 1 2 3 4 5 6 
#
# 1 0.015973 -0.004360 -0.004846 0.002250 0.014627 0.002305
# 2 -0.004360 0.012452 -0.001738 -0.001235 0.000580 0.002249
# 3 -0.004846 -0.001738 0.015552 -0.000156 -0.003494 -0.001683
# 4 0.002250 -0.001235 -0.000156 0.027973 0.017539 0.008599
# 5 0.014627 0.000580 -0.003494 0.017539 0.058774 0.012535
# 6 0.002305 0.002249 -0.001683 0.008599 0.012535 0.028062
#
#
# Mechanical properties :
#
#
# Convention : Reuss Voigt Hill
#
# Bulk Modulus (GPa) = 45.27088 54.69570 49.98329
# Shear Modulus (GPa) = 26.59048 36.50320 31.54684
#
# Velocity S-wave (km/s) = 3.24311 3.79982 3.53245
# Velocity P-wave (km/s) = 5.65069 6.39423 6.03392
#
# Compressibility (1/GPa) = 0.02208925
#
# Stress axis : x y z
#
# Youngs Moduli (GPa) = 62.60419 80.30649 64.30200
#
# Poissons Ratio (x) = 0.35013 0.31164
# Poissons Ratio (y) = 0.27295 0.11173
# Poissons Ratio (z) = 0.30341 0.13954
#
# Static dielectric constant tensor:
#      x y z
#    x 1.984750 0.004970 0.052540 
#    y 0.004970 1.949570 0.198210 
#    z 0.052540 0.198210 2.489300 
# 
# From -- ./inp_files/29920.got.cif
#   From: 2010.05.17/outbox.cif.g08.bks.cpg/sg2_15_cif.got.tgz:29920.got - 2010.06.03 11:33:40.
