data_PCOD9109715
_publ_section_title
;
Structure prediction by ZEFSAII (Michael W. Deem and Ramdas Pophale) SiO2 
 PCOD9109715
Probable space group: P -1
;
_chemical_formula_sum "Si O2"
_cell_formula_units_Z 16
_cell_length_a 12.702194
_cell_length_b 15.675420
_cell_length_c 14.935289
_cell_angle_alpha 151.157718
_cell_angle_beta 129.016018
_cell_angle_gamma 32.888395
_cell_volume 712.311438
_symmetry_space_group_name_H-M "P -1"
_symmetry_group_IT_number 2
_symmetry_cell_setting 'triclinic'
loop_
_space_group_symop_operation_xyz
x,y,z
-x,-y,-z
loop_
_atom_site_type_symbol
_atom_site_label
_atom_site_fract_x
_atom_site_fract_y
_atom_site_fract_z
Si Si1 0.836161 0.783637 0.614628
Si Si2 0.996051 0.912453 0.320287
Si Si3 0.139839 0.495678 0.786718
Si Si4 0.991720 0.008986 0.111728
Si Si5 0.383678 0.280204 0.903681
Si Si6 0.289901 0.645116 0.572192
Si Si7 0.725901 0.717892 0.820338
Si Si8 0.209625 0.251063 0.935180
O O1 0.770481 0.722317 0.441757
O O2 0.000000 0.500000 0.500000
O O3 0.937805 0.863569 0.708031
O O4 0.628550 0.058049 0.808097
O O5 0.823367 0.924090 0.227344
O O6 0.913245 0.117087 0.382916
O O7 0.000000 0.000000 0.500000
O O8 0.232053 0.595950 0.141078
O O9 0.262330 0.343858 0.805884
O O10 0.890965 0.689079 0.840683
O O11 0.136392 0.703276 0.944776
O O12 0.767178 0.213546 0.232331
O O13 0.000000 0.000000 0.000000
O O14 0.385490 0.140272 0.858763
O O15 0.500000 0.500000 0.500000
O O16 0.310696 0.414340 0.379913
O O17 0.823758 0.586192 0.848960
O O18 0.500000 0.000000 0.000000
O O19 0.000000 0.500000 0.000000
#
# Coordination Sequence:
#
# PCOD9109715 Si02
#       8
#     2   2   2   2   2   2   2   2
#     4  12  28  48  74 104 140 194 246 297 366 432
#     4  11  23  42  67 108 147 184 237 301 365 439
#     4  12  24  50  71 101 145 190 247 298 359 441
#     4  12  26  47  74 106 149 191 247 307 360 443
#     4  11  25  46  72 102 146 191 241 297 367 439
#     4  12  25  44  73 109 144 188 246 307 372 434
#     4  12  24  41  74 104 142 191 237 304 372 431
#     4  10  20  41  66  99 138 181 230 291 365 427
#
# _framework density 22.462084000000001
#
# number of rings (size 3 to 8) (size 9 to 14) (size 15 to 20)
#    0.000    0.500    6.250    3.375    1.750    3.500 
#    2.250    0.000    0.000    0.000    0.000    0.000 
#    0.000    0.000    0.000    0.000    0.000    0.000 
#
# Total GULP energy -89182.898008 kJ/mol
# GULP energy per Si atom -5573.931126 kJ/mol
# Density = 2.241096 g / cm^3
# Si number density = 22.462084 Si / 1000 Ang^3
#
#
#
# Elastic Constant Matrix: (Units=GPa)
#
#
# Indices 1 2 3 4 5 6 
#
# 1 111.2264 6.6109 42.1354 16.5482 -11.0177 -2.2007
# 2 6.6109 44.6794 35.6060 9.9942 -9.2607 7.7015
# 3 42.1354 35.6060 139.2330 -1.6011 -15.8728 6.2076
# 4 16.5482 9.9942 -1.6011 44.0926 4.2741 -10.7809
# 5 -11.0177 -9.2607 -15.8728 4.2741 55.6842 4.3902
# 6 -2.2007 7.7015 6.2076 -10.7809 4.3902 36.8226
#
#
#
# Elastic Compliance Matrix: (Units=1/GPa)
#
#
# Indices 1 2 3 4 5 6 
#
# 1 0.011390 0.003576 -0.004115 -0.005775 0.002224 -0.001329
# 2 0.003576 0.034701 -0.009017 -0.012492 0.005644 -0.009854
# 3 -0.004115 -0.009017 0.010777 0.004191 0.000357 0.001008
# 4 -0.005775 -0.012492 0.004191 0.031108 -0.005304 0.011301
# 5 0.002224 0.005644 0.000357 -0.005304 0.020246 -0.005075
# 6 -0.001329 -0.009854 0.001008 0.011301 -0.005075 0.032883
#
#
# Mechanical properties :
#
#
# Convention : Reuss Voigt Hill
#
# Bulk Modulus (GPa) = 26.48561 51.53815 39.01188
# Shear Modulus (GPa) = 28.93458 41.37232 35.15345
#
# Velocity S-wave (km/s) = 3.59298 4.29636 3.96032
# Velocity P-wave (km/s) = 5.38790 6.89971 6.19013
#
# Compressibility (1/GPa) = 0.03775636
#
# Stress axis : x y z
#
# Youngs Moduli (GPa) = 87.79435 28.81744 92.78600
#
# Poissons Ratio (x) = -0.10305 0.38183
# Poissons Ratio (y) = -0.31396 0.83667
# Poissons Ratio (z) = 0.36129 0.25985
#
# Static dielectric constant tensor:
#      x y z
#    x -24.625350 4.450150 -13.332700 
#    y 4.450150 1.115430 2.253580 
#    z -13.332700 2.253580 -4.843920 
# 
# From -- ./inp_files/522668.got.cif
#   From: 2010.05.17/outbox.cif.g08.bks.cpg/sg2_262_cif.got.tgz:522668.got - 2010.06.03 11:33:40.
