data_PCOD9109213
_publ_section_title
;
Structure prediction by ZEFSAII (Michael W. Deem and Ramdas Pophale) SiO2 
 PCOD9109213
Probable space group: P -1
;
_chemical_formula_sum "Si O2"
_cell_formula_units_Z 14
_cell_length_a 9.706094
_cell_length_b 15.694008
_cell_length_c 6.246159
_cell_angle_alpha 76.013310
_cell_angle_beta 50.486936
_cell_angle_gamma 60.310188
_cell_volume 633.828868
_symmetry_space_group_name_H-M "P -1"
_symmetry_group_IT_number 2
_symmetry_cell_setting 'triclinic'
loop_
_space_group_symop_operation_xyz
x,y,z
-x,-y,-z
loop_
_atom_site_type_symbol
_atom_site_label
_atom_site_fract_x
_atom_site_fract_y
_atom_site_fract_z
Si Si1 0.340517 0.600070 0.487836
Si Si2 0.522575 0.134970 0.300486
Si Si3 0.726250 0.770459 0.887663
Si Si4 0.770754 0.221125 0.251945
Si Si5 0.107651 0.661053 0.284220
Si Si6 0.758653 0.910114 0.086065
Si Si7 0.955297 0.605387 0.072438
O O1 0.500000 0.500000 0.500000
O O2 0.348713 0.699805 0.490675
O O3 0.294693 0.590508 0.291207
O O4 0.136364 0.620651 0.793106
O O5 0.439790 0.210413 0.138442
O O6 0.642919 0.167858 0.327794
O O7 0.334015 0.127681 0.604414
O O8 0.668387 0.026277 0.134932
O O9 0.934400 0.731399 0.573652
O O10 0.684523 0.873651 0.974129
O O11 0.766158 0.691818 0.087852
O O12 0.807392 0.280203 0.982115
O O13 0.999674 0.143883 0.130916
O O14 0.992563 0.612832 0.283162
O O15 0.000000 0.500000 0.000000
#
# Coordination Sequence:
#
# PCOD9109213 Si02
#       7
#     2   2   2   2   2   2   2
#     4  10  23  39  61  92 126 166 215 263 319 386
#     4  11  25  37  70  97 126 175 216 262 322 386
#     4  11  20  42  63  90 132 169 210 269 319 376
#     4  11  22  43  64  93 131 170 209 269 321 379
#     4  10  20  41  64  83 128 173 200 267 326 364
#     4  11  22  45  62  95 135 166 218 267 319 380
#     4  10  22  37  62  90 123 170 212 260 321 380
#
# _framework density 22.087980000000002
#
# number of rings (size 3 to 8) (size 9 to 14) (size 15 to 20)
#    0.000    1.429    5.714    0.857    0.000   10.286 
#    0.000    0.714    0.000    0.000    0.000    0.000 
#    0.000    0.000    0.000    0.000    0.000    0.000 
#
# Total GULP energy -78052.928255 kJ/mol
# GULP energy per Si atom -5575.209161 kJ/mol
# Density = 2.203771 g / cm^3
# Si number density = 22.087980 Si / 1000 Ang^3
#
#
#
# Elastic Constant Matrix: (Units=GPa)
#
#
# Indices 1 2 3 4 5 6 
#
# 1 131.4826 53.9427 25.6178 10.2272 5.8125 -2.9523
# 2 53.9427 105.8621 20.3358 24.7558 9.0822 8.0869
# 3 25.6178 20.3358 54.7325 14.4413 9.4527 -3.8560
# 4 10.2272 24.7558 14.4413 26.3870 2.9923 7.4906
# 5 5.8125 9.0822 9.4527 2.9923 36.4362 3.8817
# 6 -2.9523 8.0869 -3.8560 7.4906 3.8817 44.2281
#
#
#
# Elastic Compliance Matrix: (Units=1/GPa)
#
#
# Indices 1 2 3 4 5 6 
#
# 1 0.010248 -0.005243 -0.003520 0.002594 0.000279 0.000872
# 2 -0.005243 0.015054 0.000221 -0.011732 -0.001911 -0.000929
# 3 -0.003520 0.000221 0.024471 -0.012919 -0.005261 0.004508
# 4 0.002594 -0.011732 -0.012919 0.057195 0.002089 -0.008678
# 5 0.000279 -0.001911 -0.005261 0.002089 0.029393 -0.003024
# 6 0.000872 -0.000929 0.004508 -0.008678 -0.003024 0.024966
#
#
# Mechanical properties :
#
#
# Convention : Reuss Voigt Hill
#
# Bulk Modulus (GPa) = 30.59164 54.65222 42.62193
# Shear Modulus (GPa) = 26.41221 34.22232 30.31727
#
# Velocity S-wave (km/s) = 3.46175 3.94047 3.70884
# Velocity P-wave (km/s) = 5.46427 6.74535 6.13832
#
# Compressibility (1/GPa) = 0.03268867
#
# Stress axis : x y z
#
# Youngs Moduli (GPa) = 97.58213 66.42899 40.86476
#
# Poissons Ratio (x) = 0.34828 0.14383
# Poissons Ratio (y) = 0.51161 -0.00902
# Poissons Ratio (z) = 0.34347 -0.01466
#
# Static dielectric constant tensor:
#      x y z
#    x 1.895590 -0.109130 0.066550 
#    y -0.109130 1.487700 -0.022770 
#    z 0.066550 -0.022770 1.848490 
# 
# From -- ./inp_files/35590.got.cif
#   From: 2010.05.17/outbox.cif.g08.bks.cpg/sg2_18_cif.got.tgz:35590.got - 2010.06.03 11:33:40.
