data_PCOD9109692
_publ_section_title
;
Structure prediction by ZEFSAII (Michael W. Deem and Ramdas Pophale) SiO2 
 PCOD9109692
Probable space group: P -1
;
_chemical_formula_sum "Si O2"
_cell_formula_units_Z 14
_cell_length_a 11.549953
_cell_length_b 21.281660
_cell_length_c 10.217202
_cell_angle_alpha 144.616303
_cell_angle_beta 118.509194
_cell_angle_gamma 34.012924
_cell_volume 642.804561
_symmetry_space_group_name_H-M "P -1"
_symmetry_group_IT_number 2
_symmetry_cell_setting 'triclinic'
loop_
_space_group_symop_operation_xyz
x,y,z
-x,-y,-z
loop_
_atom_site_type_symbol
_atom_site_label
_atom_site_fract_x
_atom_site_fract_y
_atom_site_fract_z
Si Si1 0.785833 0.552211 0.619884
Si Si2 0.801564 0.550978 0.926468
Si Si3 0.375811 0.835847 0.405460
Si Si4 0.623547 0.795218 0.699630
Si Si5 0.814617 0.270572 0.156440
Si Si6 0.793840 0.320342 0.513487
Si Si7 0.870165 0.137950 0.508202
O O1 0.612132 0.729484 0.712742
O O2 0.808851 0.405358 0.362052
O O3 0.072381 0.402137 0.505894
O O4 0.705463 0.634137 0.865757
O O5 0.568120 0.708122 0.170682
O O6 0.930056 0.339760 0.636553
O O7 0.000000 0.500000 0.000000
O O8 0.474584 0.847854 0.587889
O O9 0.363433 0.729507 0.295792
O O10 0.084816 0.053767 0.560404
O O11 0.500000 0.000000 0.000000
O O12 0.900320 0.192204 0.220158
O O13 0.516460 0.441114 0.274187
O O14 0.991726 0.073707 0.821760
O O15 0.806738 0.242249 0.517868
#
# Coordination Sequence:
#
# PCOD9109692 Si02
#       7
#     2   2   2   2   2   2   2
#     4  10  23  41  68  93 127 175 214 263 324 382
#     4  11  22  45  66  93 135 171 217 264 321 391
#     4  11  24  43  64  95 134 168 214 271 323 378
#     4  11  23  44  65  95 128 172 218 263 320 386
#     4  10  20  41  66  97 131 165 217 271 318 385
#     4  10  22  39  69  96 127 177 213 264 328 378
#     4  11  23  42  64  99 132 166 220 268 322 381
#
# _framework density 21.77956
#
# number of rings (size 3 to 8) (size 9 to 14) (size 15 to 20)
#    0.000    1.429    2.857    2.143    0.000    1.714 
#   12.857    1.429    0.000    0.000    0.000    0.000 
#    0.000    0.000    0.000    0.000    0.000    0.000 
#
# Total GULP energy -78227.920968 kJ/mol
# GULP energy per Si atom -5587.708641 kJ/mol
# Density = 2.172999 g / cm^3
# Si number density = 21.779560 Si / 1000 Ang^3
#
#
#
# Elastic Constant Matrix: (Units=GPa)
#
#
# Indices 1 2 3 4 5 6 
#
# 1 129.1377 66.1815 45.3665 -24.1376 -7.3901 13.4141
# 2 66.1815 116.0429 60.1521 -43.3565 3.9110 12.1216
# 3 45.3665 60.1521 75.3393 -30.2011 -11.2914 8.9193
# 4 -24.1376 -43.3565 -30.2011 28.1948 3.2694 -1.3530
# 5 -7.3901 3.9110 -11.2914 3.2694 39.5861 -9.7385
# 6 13.4141 12.1216 8.9193 -1.3530 -9.7385 58.5548
#
#
#
# Elastic Compliance Matrix: (Units=1/GPa)
#
#
# Indices 1 2 3 4 5 6 
#
# 1 0.011559 -0.006285 -0.002752 -0.002989 0.002081 -0.000651
# 2 -0.006285 0.028613 -0.007299 0.031727 -0.009751 -0.004260
# 3 -0.002752 -0.007299 0.028182 0.015789 0.006780 -0.000659
# 4 -0.002989 0.031727 0.015789 0.099319 -0.009244 -0.007531
# 5 0.002081 -0.009751 0.006780 -0.009244 0.030637 0.005391
# 6 -0.000651 -0.004260 -0.000659 -0.007531 0.005391 0.018932
#
#
# Mechanical properties :
#
#
# Convention : Reuss Voigt Hill
#
# Bulk Modulus (GPa) = 28.02565 73.76890 50.89727
# Shear Modulus (GPa) = 19.09797 35.18846 27.14321
#
# Velocity S-wave (km/s) = 2.96442 4.02389 3.53408
# Velocity P-wave (km/s) = 4.96114 7.45206 6.33033
#
# Compressibility (1/GPa) = 0.03568160
#
# Stress axis : x y z
#
# Youngs Moduli (GPa) = 86.50985 34.94903 35.48416
#
# Poissons Ratio (x) = 0.21965 0.09765
# Poissons Ratio (y) = 0.54370 0.25902
# Poissons Ratio (z) = 0.23807 0.25511
#
# Static dielectric constant tensor:
#      x y z
#    x 1.833240 0.011110 -0.013700 
#    y 0.011110 1.786290 -0.001370 
#    z -0.013700 -0.001370 1.821890 
# 
# From -- ./inp_files/72046.got.cif
#   From: 2010.05.17/outbox.cif.g08.bks.cpg/sg2_37_cif.got.tgz:72046.got - 2010.06.03 11:33:40.
