data_PCOD9109335
_publ_section_title
;
Structure prediction by ZEFSAII (Michael W. Deem and Ramdas Pophale) SiO2 
 PCOD9109335
Probable space group: P -1
;
_chemical_formula_sum "Si O2"
_cell_formula_units_Z 14
_cell_length_a 9.206452
_cell_length_b 7.548242
_cell_length_c 12.497509
_cell_angle_alpha 122.081569
_cell_angle_beta 60.037501
_cell_angle_gamma 126.556043
_cell_volume 569.308356
_symmetry_space_group_name_H-M "P -1"
_symmetry_group_IT_number 2
_symmetry_cell_setting 'triclinic'
loop_
_space_group_symop_operation_xyz
x,y,z
-x,-y,-z
loop_
_atom_site_type_symbol
_atom_site_label
_atom_site_fract_x
_atom_site_fract_y
_atom_site_fract_z
Si Si1 0.279591 0.598047 0.903885
Si Si2 0.348064 0.418639 0.222813
Si Si3 0.391726 0.997223 0.850216
Si Si4 0.380201 0.047929 0.646936
Si Si5 0.172720 0.222830 0.638948
Si Si6 0.249019 0.078283 0.341499
Si Si7 0.835632 0.735702 0.971431
O O1 0.488715 0.661031 0.887114
O O2 0.282788 0.837160 0.939811
O O3 0.247420 0.456622 0.758050
O O4 0.153914 0.430575 0.991256
O O5 0.467713 0.690052 0.292169
O O6 0.256236 0.268545 0.313821
O O7 0.201376 0.374387 0.167760
O O8 0.599800 0.014595 0.776379
O O9 0.320945 0.889223 0.722994
O O10 0.347113 0.217378 0.931521
O O11 0.201166 0.052628 0.659620
O O12 0.500000 0.000000 0.500000
O O13 0.279682 0.201956 0.486420
O O14 0.958736 0.134404 0.655187
O O15 0.000000 0.000000 0.000000
#
# Coordination Sequence:
#
# PCOD9109335 Si02
#       7
#     2   2   2   2   2   2   2
#     4  10  23  41  67  98 131 176 222 276 336 396
#     4  10  23  41  67  93 135 178 220 272 337 389
#     4  11  24  42  67  99 127 181 224 271 329 404
#     4  11  22  41  69  99 136 175 224 272 336 404
#     4  10  20  41  64  96 144 168 219 282 336 388
#     4  10  22  39  65 100 131 179 221 277 335 401
#     4  12  25  47  68  95 138 176 225 285 330 391
#
# _framework density 24.591246000000002
#
# number of rings (size 3 to 8) (size 9 to 14) (size 15 to 20)
#    0.000    1.429    4.286    1.286    2.000    4.571 
#    2.571    0.714    0.000    0.857    0.000    0.000 
#    0.000    0.000    0.000    0.000    0.000    0.000 
#
# Total GULP energy -78159.595024 kJ/mol
# GULP energy per Si atom -5582.828216 kJ/mol
# Density = 2.453528 g / cm^3
# Si number density = 24.591246 Si / 1000 Ang^3
#
#
#
# Elastic Constant Matrix: (Units=GPa)
#
#
# Indices 1 2 3 4 5 6 
#
# 1 91.9850 35.2266 37.3412 -1.8918 13.7362 -11.7917
# 2 35.2266 82.2217 31.7524 -13.3311 19.8377 -19.5470
# 3 37.3412 31.7524 69.5694 -4.1547 27.6042 -0.6115
# 4 -1.8918 -13.3311 -4.1547 32.1503 -4.4313 15.1446
# 5 13.7362 19.8377 27.6042 -4.4313 46.1330 -7.6066
# 6 -11.7917 -19.5470 -0.6115 15.1446 -7.6066 50.3902
#
#
#
# Elastic Compliance Matrix: (Units=1/GPa)
#
#
# Indices 1 2 3 4 5 6 
#
# 1 0.015430 -0.003925 -0.007314 -0.002904 0.001707 0.003130
# 2 -0.003925 0.018049 -0.004815 0.004217 -0.002587 0.004367
# 3 -0.007314 -0.004815 0.025135 0.001857 -0.011532 -0.005573
# 4 -0.002904 0.004217 0.001857 0.037803 -0.000145 -0.010404
# 5 0.001707 -0.002587 -0.011532 -0.000145 0.029793 0.003797
# 6 0.003130 0.004367 -0.005573 -0.010404 0.003797 0.025904
#
#
# Mechanical properties :
#
#
# Convention : Reuss Voigt Hill
#
# Bulk Modulus (GPa) = 37.72490 50.26851 43.99671
# Shear Modulus (GPa) = 25.89917 35.03178 30.46548
#
# Velocity S-wave (km/s) = 3.24880 3.77843 3.52358
# Velocity P-wave (km/s) = 5.42651 6.28661 5.87233
#
# Compressibility (1/GPa) = 0.02650769
#
# Stress axis : x y z
#
# Youngs Moduli (GPa) = 64.80853 55.40459 39.78509
#
# Poissons Ratio (x) = 0.21745 0.29098
# Poissons Ratio (y) = 0.25436 0.19155
# Poissons Ratio (z) = 0.47400 0.26675
#
# Static dielectric constant tensor:
#      x y z
#    x 1.961530 0.000910 -0.002100 
#    y 0.000910 1.997770 -0.013760 
#    z -0.002100 -0.013760 2.087470 
# 
# From -- ./inp_files/271292.got.cif
#   From: 2010.05.17/outbox.cif.g08.bks.cpg/sg2_136_cif.got.tgz:271292.got - 2010.06.03 11:33:40.
