data_PCOD9109186
_publ_section_title
;
Structure prediction by ZEFSAII (Michael W. Deem and Ramdas Pophale) SiO2 
 PCOD9109186
Probable space group: P -1
;
_chemical_formula_sum "Si O2"
_cell_formula_units_Z 16
_cell_length_a 8.746836
_cell_length_b 9.716437
_cell_length_c 14.138049
_cell_angle_alpha 122.219792
_cell_angle_beta 117.383625
_cell_angle_gamma 42.024756
_cell_volume 676.178949
_symmetry_space_group_name_H-M "P -1"
_symmetry_group_IT_number 2
_symmetry_cell_setting 'triclinic'
loop_
_space_group_symop_operation_xyz
x,y,z
-x,-y,-z
loop_
_atom_site_type_symbol
_atom_site_label
_atom_site_fract_x
_atom_site_fract_y
_atom_site_fract_z
Si Si1 0.325414 0.270613 0.105143
Si Si2 0.592812 0.572807 0.125387
Si Si3 0.681751 0.840216 0.138718
Si Si4 0.150869 0.398606 0.409896
Si Si5 0.042138 0.679750 0.312782
Si Si6 0.219039 0.981390 0.296286
Si Si7 0.283759 0.717655 0.782571
Si Si8 0.575720 0.304577 0.574873
O O1 0.167922 0.492736 0.199118
O O2 0.547588 0.240445 0.127344
O O3 0.429300 0.070505 0.131673
O O4 0.227408 0.247499 0.974639
O O5 0.690446 0.661829 0.127600
O O6 0.383929 0.774001 0.201117
O O7 0.753462 0.376204 0.172299
O O8 0.500000 0.500000 0.000000
O O9 0.813717 0.873474 0.262570
O O10 0.009454 0.580742 0.355655
O O11 0.396222 0.336475 0.464583
O O12 0.000000 0.500000 0.500000
O O13 0.207295 0.174541 0.331408
O O14 0.207582 0.723740 0.406432
O O15 0.321209 0.896205 0.399114
O O16 0.960958 0.075930 0.250603
O O17 0.417680 0.526159 0.673070
#
# Coordination Sequence:
#
# PCOD9109186 Si02
#       8
#     2   2   2   2   2   2   2   2
#     4  10  22  41  63  94 132 174 223 267 326 404
#     4  11  23  40  62 100 134 175 221 272 328 403
#     4  11  22  40  64  95 132 174 221 271 330 397
#     4  12  24  45  70  99 133 178 226 282 333 390
#     4  11  24  43  68  94 135 177 217 277 335 394
#     4  11  23  41  69  94 137 178 216 278 340 387
#     4  10  20  41  63  95 135 172 220 272 325 399
#     4  10  23  43  68  97 130 173 228 273 332 394
#
# _framework density 23.662375000000001
#
# number of rings (size 3 to 8) (size 9 to 14) (size 15 to 20)
#    0.000    1.250    2.500    3.375    1.750    0.500 
#    6.750    0.625    0.000    0.000    0.000    0.000 
#    0.000    0.000    0.000    0.000    0.000    0.000 
#
# Total GULP energy -89511.718514 kJ/mol
# GULP energy per Si atom -5594.482407 kJ/mol
# Density = 2.360852 g / cm^3
# Si number density = 23.662375 Si / 1000 Ang^3
#
#
#
# Elastic Constant Matrix: (Units=GPa)
#
#
# Indices 1 2 3 4 5 6 
#
# 1 80.1469 15.1732 25.0483 -17.3404 12.5217 20.9601
# 2 15.1732 70.5676 35.4149 -22.1988 0.5476 3.4858
# 3 25.0483 35.4149 55.7502 -22.4843 11.7802 5.0424
# 4 -17.3404 -22.1988 -22.4843 43.8484 3.8157 1.9082
# 5 12.5217 0.5476 11.7802 3.8157 33.7572 -2.0131
# 6 20.9601 3.4858 5.0424 1.9082 -2.0131 37.6369
#
#
#
# Elastic Compliance Matrix: (Units=1/GPa)
#
#
# Indices 1 2 3 4 5 6 
#
# 1 0.018993 0.000470 -0.003440 0.007096 -0.007305 -0.010910
# 2 0.000470 0.022033 -0.013170 0.004304 0.003544 -0.000567
# 3 -0.003440 -0.013170 0.035209 0.011213 -0.012232 -0.002804
# 4 0.007096 0.004304 0.011213 0.034859 -0.011045 -0.008211
# 5 -0.007305 0.003544 -0.012232 -0.011045 0.038269 0.007985
# 6 -0.010910 -0.000567 -0.002804 -0.008211 0.007985 0.033917
#
#
# Mechanical properties :
#
#
# Convention : Reuss Voigt Hill
#
# Bulk Modulus (GPa) = 22.74961 39.74862 31.24911
# Shear Modulus (GPa) = 21.71915 31.77038 26.74476
#
# Velocity S-wave (km/s) = 3.03294 3.66820 3.36559
# Velocity P-wave (km/s) = 4.67975 5.89709 5.32333
#
# Compressibility (1/GPa) = 0.04395680
#
# Stress axis : x y z
#
# Youngs Moduli (GPa) = 52.65104 45.38577 28.40164
#
# Poissons Ratio (x) = -0.02135 0.09771
# Poissons Ratio (y) = -0.02477 0.37404
# Poissons Ratio (z) = 0.18114 0.59771
#
# Static dielectric constant tensor:
#      x y z
#    x 1.969340 -0.095740 0.090220 
#    y -0.095740 2.109750 -0.223910 
#    z 0.090220 -0.223910 2.066080 
# 
# From -- ./inp_files/448447.got.cif
#   From: 2010.05.17/outbox.cif.g08.bks.cpg/sg2_225_cif.got.tgz:448447.got - 2010.06.03 11:33:40.
