data_PCOD9109615
_publ_section_title
;
Structure prediction by ZEFSAII (Michael W. Deem and Ramdas Pophale) SiO2 
 PCOD9109615
Probable space group: P -1
;
_chemical_formula_sum "Si O2"
_cell_formula_units_Z 6
_cell_length_a 6.629640
_cell_length_b 8.383624
_cell_length_c 9.818887
_cell_angle_alpha 63.658124
_cell_angle_beta 27.478184
_cell_angle_gamma 76.386403
_cell_volume 208.471866
_symmetry_space_group_name_H-M "P -1"
_symmetry_group_IT_number 2
_symmetry_cell_setting 'triclinic'
loop_
_space_group_symop_operation_xyz
x,y,z
-x,-y,-z
loop_
_atom_site_type_symbol
_atom_site_label
_atom_site_fract_x
_atom_site_fract_y
_atom_site_fract_z
Si Si1 0.949165 0.498596 0.316460
Si Si2 0.430794 0.892477 0.404723
Si Si3 0.304012 0.251669 0.430407
O O1 0.500000 0.500000 0.500000
O O2 0.781682 0.268659 0.523231
O O3 0.023992 0.658242 0.328040
O O4 0.379254 0.581124 0.923102
O O5 0.376895 0.781920 0.623229
O O6 0.181833 0.043813 0.513700
O O7 0.000000 0.000000 0.000000
#
# Coordination Sequence:
#
# PCOD9109615 Si02
#       3
#     2   2   2
#     4  10  17  23  28  33  42  45  51  58  64  68
#     4  10  17  21  30  34  39  46  53  56  64  69
#     4  10  18  23  27  35  40  46  51  58  63  70
#
# _framework density 28.780861999999999
#
# number of rings (size 3 to 8) (size 9 to 14) (size 15 to 20)
#    0.000    2.000    6.667    4.000    4.667    0.000 
#    0.000    0.000    0.000    0.000    0.000    0.000 
#    0.000    0.000    0.000    0.000    0.000    0.000 
#
# Total GULP energy -33573.401283 kJ/mol
# GULP energy per Si atom -5595.566881 kJ/mol
# Density = 2.871536 g / cm^3
# Si number density = 28.780862 Si / 1000 Ang^3
#
#
#
# Elastic Constant Matrix: (Units=GPa)
#
#
# Indices 1 2 3 4 5 6 
#
# 1 73.1820 50.0049 19.7891 -6.7928 10.0974 12.1536
# 2 50.0049 361.1819 57.9441 14.3957 14.9707 9.8176
# 3 19.7891 57.9441 144.0566 0.8527 14.3757 21.4698
# 4 -6.7928 14.3957 0.8527 52.5735 7.3587 3.1482
# 5 10.0974 14.9707 14.3757 7.3587 58.0513 -8.9134
# 6 12.1536 9.8176 21.4698 3.1482 -8.9134 82.3971
#
#
#
# Elastic Compliance Matrix: (Units=1/GPa)
#
#
# Indices 1 2 3 4 5 6 
#
# 1 0.016407 -0.002090 -0.000784 0.003255 -0.002902 -0.002405
# 2 -0.002090 0.003268 -0.001052 -0.001157 -0.000036 0.000233
# 3 -0.000784 -0.001052 0.007971 0.000452 -0.001940 -0.002063
# 4 0.003255 -0.001157 0.000452 0.020293 -0.003195 -0.001581
# 5 -0.002902 -0.000036 -0.001940 -0.003195 0.019106 0.003127
# 6 -0.002405 0.000233 -0.002063 -0.001581 0.003127 0.013400
#
#
# Mechanical properties :
#
#
# Convention : Reuss Voigt Hill
#
# Bulk Modulus (GPa) = 50.52070 92.65520 71.58795
# Shear Modulus (GPa) = 52.69067 68.64986 60.67026
#
# Velocity S-wave (km/s) = 4.28337 4.88921 4.59628
# Velocity P-wave (km/s) = 6.48496 8.00848 7.28665
#
# Compressibility (1/GPa) = 0.01979387
#
# Stress axis : x y z
#
# Youngs Moduli (GPa) = 60.95131 305.99795 125.45568
#
# Poissons Ratio (x) = 0.63943 0.09841
# Poissons Ratio (y) = 0.12737 0.13194
# Poissons Ratio (z) = 0.04781 0.32182
#
# Static dielectric constant tensor:
#      x y z
#    x 2.508060 -0.108440 -0.037200 
#    y -0.108440 2.322430 0.044020 
#    z -0.037200 0.044020 2.140870 
# 
# From -- ./inp_files/15983.got.cif
#   From: 2010.05.17/outbox.cif.g08.bks.cpg/sg2_8_cif.got.tgz:15983.got - 2010.06.03 11:33:40.
