data_PCOD9109833
_publ_section_title
;
Structure prediction by ZEFSAII (Michael W. Deem and Ramdas Pophale) SiO2 
 PCOD9109833
Probable space group: P -1
;
_chemical_formula_sum "Si O2"
_cell_formula_units_Z 16
_cell_length_a 8.721784
_cell_length_b 15.329424
_cell_length_c 10.039279
_cell_angle_alpha 60.422200
_cell_angle_beta 55.897479
_cell_angle_gamma 39.929599
_cell_volume 708.231757
_symmetry_space_group_name_H-M "P -1"
_symmetry_group_IT_number 2
_symmetry_cell_setting 'triclinic'
loop_
_space_group_symop_operation_xyz
x,y,z
-x,-y,-z
loop_
_atom_site_type_symbol
_atom_site_label
_atom_site_fract_x
_atom_site_fract_y
_atom_site_fract_z
Si Si1 0.910275 0.617544 0.629363
Si Si2 0.076887 0.641975 0.822612
Si Si3 0.132488 0.849131 0.099422
Si Si4 0.664863 0.885805 0.390468
Si Si5 0.532208 0.580122 0.530935
Si Si6 0.796201 0.144328 0.642833
Si Si7 0.196063 0.071848 0.304913
Si Si8 0.393998 0.433047 0.052482
O O1 0.741848 0.755218 0.522865
O O2 0.757908 0.572394 0.758913
O O3 0.985476 0.628791 0.735454
O O4 0.178468 0.517489 0.501266
O O5 0.324407 0.622479 0.704768
O O6 0.857697 0.804308 0.836911
O O7 0.184577 0.525650 0.966456
O O8 0.252056 0.825634 0.202334
O O9 0.912379 0.851455 0.242271
O O10 0.359436 0.721811 0.995982
O O11 0.000000 0.000000 0.000000
O O12 0.500000 0.000000 0.500000
O O13 0.478383 0.951349 0.306672
O O14 0.500000 0.500000 0.500000
O O15 0.446322 0.719385 0.412950
O O16 0.020254 0.129950 0.480450
O O17 0.873585 0.001737 0.686755
O O18 0.500000 0.500000 0.000000
#
# Coordination Sequence:
#
# PCOD9109833 Si02
#       8
#     2   2   2   2   2   2   2   2
#     4  11  22  41  73  93 133 182 229 278 343 413
#     4  10  20  41  67  96 133 173 230 280 350 398
#     4  12  26  44  69  99 143 185 224 283 352 409
#     4  12  21  43  68 103 132 174 238 278 343 411
#     4   9  18  37  66  96 119 172 225 285 331 403
#     4  10  21  40  64 100 134 171 231 274 347 406
#     4  10  22  37  71 101 131 177 220 291 329 412
#     4  12  29  45  65 101 142 186 232 287 344 408
#
# _framework density 22.591474999999999
#
# number of rings (size 3 to 8) (size 9 to 14) (size 15 to 20)
#    0.000    1.250    2.500    4.875    1.750    3.000 
#    0.000    2.500    0.000    0.000    0.000    0.000 
#    0.000    0.000    0.000    0.000    0.000    0.000 
#
# Total GULP energy -89322.296525 kJ/mol
# GULP energy per Si atom -5582.643533 kJ/mol
# Density = 2.254006 g / cm^3
# Si number density = 22.591475 Si / 1000 Ang^3
#
#
#
# Elastic Constant Matrix: (Units=GPa)
#
#
# Indices 1 2 3 4 5 6 
#
# 1 57.1525 31.0370 28.7389 0.2509 -12.3286 -10.0392
# 2 31.0370 121.2146 37.8445 -24.7967 5.2438 -18.5444
# 3 28.7389 37.8445 92.2534 -23.0041 -11.8406 -9.8503
# 4 0.2509 -24.7967 -23.0041 36.7687 -2.1609 7.2915
# 5 -12.3286 5.2438 -11.8406 -2.1609 27.7107 -3.8038
# 6 -10.0392 -18.5444 -9.8503 7.2915 -3.8038 33.9368
#
#
#
# Elastic Compliance Matrix: (Units=1/GPa)
#
#
# Indices 1 2 3 4 5 6 
#
# 1 0.027587 -0.006560 -0.006081 -0.008952 0.011038 0.005972
# 2 -0.006560 0.012419 -0.001856 0.006490 -0.005237 0.002325
# 3 -0.006081 -0.001856 0.016617 0.009391 0.005563 0.000616
# 4 -0.008952 0.006490 0.009391 0.038474 0.001183 -0.004510
# 5 0.011038 -0.005237 0.005563 0.001183 0.045399 0.006853
# 6 0.005972 0.002325 0.000616 -0.004510 0.006853 0.034420
#
#
# Mechanical properties :
#
#
# Convention : Reuss Voigt Hill
#
# Bulk Modulus (GPa) = 36.19549 51.76238 43.97894
# Shear Modulus (GPa) = 23.46101 31.21656 27.33879
#
# Velocity S-wave (km/s) = 3.22606 3.72127 3.48248
# Velocity P-wave (km/s) = 5.47112 6.43629 5.97323
#
# Compressibility (1/GPa) = 0.02762775
#
# Stress axis : x y z
#
# Youngs Moduli (GPa) = 36.24943 80.52074 60.17965
#
# Poissons Ratio (x) = 0.52825 0.36593
# Poissons Ratio (y) = 0.23781 0.11172
# Poissons Ratio (z) = 0.22042 0.14949
#
# Static dielectric constant tensor:
#      x y z
#    x 1.856920 0.127190 -0.012150 
#    y 0.127190 1.643180 0.002530 
#    z -0.012150 0.002530 1.837670 
# 
# From -- ./inp_files/398531.got.cif
#   From: 2010.05.17/outbox.cif.g08.bks.cpg/sg2_200_cif.got.tgz:398531.got - 2010.06.03 11:33:40.
