data_PCOD9109995
_publ_section_title
;
Structure prediction by ZEFSAII (Michael W. Deem and Ramdas Pophale) SiO2 
 PCOD9109995
Probable space group: P -1
;
_chemical_formula_sum "Si O2"
_cell_formula_units_Z 16
_cell_length_a 11.872216
_cell_length_b 13.838251
_cell_length_c 11.663122
_cell_angle_alpha 30.794184
_cell_angle_beta 88.523659
_cell_angle_gamma 66.903846
_cell_volume 677.237276
_symmetry_space_group_name_H-M "P -1"
_symmetry_group_IT_number 2
_symmetry_cell_setting 'triclinic'
loop_
_space_group_symop_operation_xyz
x,y,z
-x,-y,-z
loop_
_atom_site_type_symbol
_atom_site_label
_atom_site_fract_x
_atom_site_fract_y
_atom_site_fract_z
Si Si1 0.618070 0.592313 0.984271
Si Si2 0.177010 0.191513 0.793787
Si Si3 0.649695 0.015596 0.777841
Si Si4 0.280678 0.115098 0.347799
Si Si5 0.697158 0.507738 0.319668
Si Si6 0.327444 0.403273 0.521676
Si Si7 0.082352 0.975985 0.850033
Si Si8 0.143682 0.938919 0.619833
O O1 0.439485 0.878704 0.662016
O O2 0.728805 0.648234 0.908451
O O3 0.624187 0.518388 0.192039
O O4 0.691610 0.349723 0.143765
O O5 0.299015 0.213926 0.732298
O O6 0.161573 0.052545 0.839738
O O7 0.000000 0.500000 0.500000
O O8 0.238291 0.035028 0.073284
O O9 0.692703 0.003887 0.658325
O O10 0.463970 0.277240 0.552075
O O11 0.679640 0.754582 0.054028
O O12 0.139399 0.165504 0.358650
O O13 0.624575 0.562170 0.392432
O O14 0.888068 0.228089 0.605350
O O15 0.156409 0.698865 0.186223
O O16 0.132261 0.924490 0.769347
O O17 0.000000 0.000000 0.500000
#
# Coordination Sequence:
#
# PCOD9109995 Si02
#       8
#     2   2   2   2   2   2   2   2
#     4  10  22  45  69  98 134 179 225 279 338 393
#     4  11  23  41  70  97 137 176 216 275 343 401
#     4  10  22  44  68 103 131 176 226 277 338 405
#     4  10  24  44  72  96 135 179 228 277 339 399
#     4  10  20  41  68  97 140 172 221 279 338 403
#     4  11  24  42  70  99 138 171 224 280 340 400
#     4  12  25  42  65 103 134 176 228 270 339 410
#     4  12  26  43  65 100 136 176 228 279 331 399
#
# _framework density 23.625395000000001
#
# number of rings (size 3 to 8) (size 9 to 14) (size 15 to 20)
#    0.000    1.250    3.750    3.000    0.000    8.000 
#    0.000    0.000    0.000    0.000    0.000    0.000 
#    0.000    0.000    0.000    0.000    0.000    0.000 
#
# Total GULP energy -89573.333275 kJ/mol
# GULP energy per Si atom -5598.333330 kJ/mol
# Density = 2.357162 g / cm^3
# Si number density = 23.625395 Si / 1000 Ang^3
#
#
#
# Elastic Constant Matrix: (Units=GPa)
#
#
# Indices 1 2 3 4 5 6 
#
# 1 73.0679 14.2580 0.9832 6.6020 -12.9900 13.2544
# 2 14.2580 117.2072 33.8344 26.1140 -0.5464 21.4377
# 3 0.9832 33.8344 82.4980 0.1766 6.2855 4.5314
# 4 6.6020 26.1140 0.1766 46.6637 2.5894 4.0468
# 5 -12.9900 -0.5464 6.2855 2.5894 40.3183 1.2976
# 6 13.2544 21.4377 4.5314 4.0468 1.2976 38.1030
#
#
#
# Elastic Compliance Matrix: (Units=1/GPa)
#
#
# Indices 1 2 3 4 5 6 
#
# 1 0.015855 -0.000524 -0.000096 -0.001798 0.005399 -0.005202
# 2 -0.000524 0.012488 -0.004897 -0.006484 0.001361 -0.005619
# 3 -0.000096 -0.004897 0.014269 0.002763 -0.002528 0.000884
# 4 -0.001798 -0.006484 0.002763 0.025339 -0.002769 0.001348
# 5 0.005399 0.001361 -0.002528 -0.002769 0.027228 -0.002977
# 6 -0.005202 -0.005619 0.000884 0.001348 -0.002977 0.031069
#
#
# Mechanical properties :
#
#
# Convention : Reuss Voigt Hill
#
# Bulk Modulus (GPa) = 31.66580 41.21382 36.43981
# Shear Modulus (GPa) = 33.82775 39.93015 36.87895
#
# Velocity S-wave (km/s) = 3.78807 4.11559 3.95522
# Velocity P-wave (km/s) = 5.70658 6.32982 6.02626
#
# Compressibility (1/GPa) = 0.03157981
#
# Stress axis : x y z
#
# Youngs Moduli (GPa) = 63.06994 80.07766 70.08230
#
# Poissons Ratio (x) = 0.04194 0.00672
# Poissons Ratio (y) = 0.03303 0.34316
# Poissons Ratio (z) = 0.00605 0.39210
#
# Static dielectric constant tensor:
#      x y z
#    x 1.935740 0.004590 -0.000150 
#    y 0.004590 1.857130 -0.008160 
#    z -0.000150 -0.008160 1.913530 
# 
# From -- ./inp_files/433662.got.cif
#   From: 2010.05.17/outbox.cif.g08.bks.cpg/sg2_217_cif.got.tgz:433662.got - 2010.06.03 11:33:40.
