data_PCOD9109176
_publ_section_title
;
Structure prediction by ZEFSAII (Michael W. Deem and Ramdas Pophale) SiO2 
 PCOD9109176
Probable space group: P -1
;
_chemical_formula_sum "Si O2"
_cell_formula_units_Z 16
_cell_length_a 25.695931
_cell_length_b 9.071747
_cell_length_c 22.886237
_cell_angle_alpha 152.574062
_cell_angle_beta 16.642581
_cell_angle_gamma 149.516516
_cell_volume 701.157160
_symmetry_space_group_name_H-M "P -1"
_symmetry_group_IT_number 2
_symmetry_cell_setting 'triclinic'
loop_
_space_group_symop_operation_xyz
x,y,z
-x,-y,-z
loop_
_atom_site_type_symbol
_atom_site_label
_atom_site_fract_x
_atom_site_fract_y
_atom_site_fract_z
Si Si1 0.364389 0.418191 0.782786
Si Si2 0.054295 0.811928 0.220029
Si Si3 0.945328 0.737736 0.515897
Si Si4 0.853412 0.798691 0.950390
Si Si5 0.144365 0.288134 0.802969
Si Si6 0.635245 0.279113 0.650813
Si Si7 0.286876 0.694976 0.564657
Si Si8 0.725807 0.085628 0.080026
O O1 0.574894 0.447055 0.586244
O O2 0.311060 0.075715 0.687931
O O3 0.262062 0.707408 0.967445
O O4 0.263790 0.392094 0.943851
O O5 0.907272 0.511103 0.286476
O O6 0.019242 0.093036 0.401036
O O7 0.081060 0.934798 0.168140
O O8 0.737710 0.591489 0.679558
O O9 0.060512 0.443307 0.271344
O O10 0.000000 0.000000 0.500000
O O11 0.008854 0.038659 0.897873
O O12 0.734625 0.011242 0.113649
O O13 0.287162 0.531181 0.768237
O O14 0.259754 0.037134 0.557646
O O15 0.000000 0.500000 0.000000
O O16 0.657771 0.331929 0.573755
O O17 0.435204 0.178839 0.855550
#
# Coordination Sequence:
#
# PCOD9109176 Si02
#       8
#     2   2   2   2   2   2   2   2
#     4  11  22  40  67  98 130 163 222 266 316 389
#     4  12  24  44  64  94 131 172 214 272 321 370
#     4  11  22  42  68  87 126 175 225 260 314 379
#     4  10  20  41  63  94 126 171 211 263 318 388
#     4   9  19  35  61  92 127 167 202 257 328 388
#     4  11  21  41  64  95 127 172 215 264 320 386
#     4  11  23  40  68  97 128 169 218 265 321 387
#     4  11  23  39  63  95 130 163 208 269 335 376
#
# _framework density 22.819420000000001
#
# number of rings (size 3 to 8) (size 9 to 14) (size 15 to 20)
#    0.000    1.250    3.750    3.000    0.000    1.000 
#   11.250    1.875    0.000    0.000    0.000    0.000 
#    0.000    0.000    0.000    0.000    0.000    0.000 
#
# Total GULP energy -89077.745186 kJ/mol
# GULP energy per Si atom -5567.359074 kJ/mol
# Density = 2.276748 g / cm^3
# Si number density = 22.819420 Si / 1000 Ang^3
#
#
#
# Elastic Constant Matrix: (Units=GPa)
#
#
# Indices 1 2 3 4 5 6 
#
# 1 54.1015 15.3640 10.9123 2.0577 8.4763 6.3808
# 2 15.3640 125.9729 22.5665 -21.5647 4.9963 18.6126
# 3 10.9123 22.5665 34.6428 -11.6123 7.6416 7.4591
# 4 2.0577 -21.5647 -11.6123 38.2131 3.6657 0.8729
# 5 8.4763 4.9963 7.6416 3.6657 32.2876 3.1742
# 6 6.3808 18.6126 7.4591 0.8729 3.1742 34.0897
#
#
#
# Elastic Compliance Matrix: (Units=1/GPa)
#
#
# Indices 1 2 3 4 5 6 
#
# 1 0.020938 -0.001832 -0.005549 -0.003494 -0.003376 -0.001301
# 2 -0.001832 0.010334 -0.003361 0.005058 -0.000440 -0.004653
# 3 -0.005549 -0.003361 0.039537 0.011319 -0.008144 -0.005309
# 4 -0.003494 0.005058 0.011319 0.033324 -0.005847 -0.004893
# 5 -0.003376 -0.000440 -0.008144 -0.005847 0.034558 -0.000414
# 6 -0.001301 -0.004653 -0.005309 -0.004893 -0.000414 0.033444
#
#
# Mechanical properties :
#
#
# Convention : Reuss Voigt Hill
#
# Bulk Modulus (GPa) = 20.27274 34.71143 27.49208
# Shear Modulus (GPa) = 23.80283 31.97638 27.88960
#
# Velocity S-wave (km/s) = 3.23320 3.74743 3.49977
# Velocity P-wave (km/s) = 4.77927 5.82826 5.32964
#
# Compressibility (1/GPa) = 0.04932733
#
# Stress axis : x y z
#
# Youngs Moduli (GPa) = 47.75934 96.76459 25.29302
#
# Poissons Ratio (x) = 0.17724 0.14034
# Poissons Ratio (y) = 0.08748 0.08500
# Poissons Ratio (z) = 0.26500 0.32519
#
# Static dielectric constant tensor:
#      x y z
#    x 2.013700 0.008850 -0.074860 
#    y 0.008850 1.884100 -0.037690 
#    z -0.074860 -0.037690 1.951380 
# 
# From -- ./inp_files/601966.got.cif
#   From: 2010.05.17/outbox.cif.g08.bks.cpg/sg2_301_cif.got.tgz:601966.got - 2010.06.03 11:33:40.
