data_PCOD9109020
_publ_section_title
;
Structure prediction by ZEFSAII (Michael W. Deem and Ramdas Pophale) SiO2 
 PCOD9109020
Probable space group: P -1
;
_chemical_formula_sum "Si O2"
_cell_formula_units_Z 16
_cell_length_a 8.677002
_cell_length_b 12.612779
_cell_length_c 8.732217
_cell_angle_alpha 90.685056
_cell_angle_beta 130.112618
_cell_angle_gamma 100.016111
_cell_volume 709.907646
_symmetry_space_group_name_H-M "P -1"
_symmetry_group_IT_number 2
_symmetry_cell_setting 'triclinic'
loop_
_space_group_symop_operation_xyz
x,y,z
-x,-y,-z
loop_
_atom_site_type_symbol
_atom_site_label
_atom_site_fract_x
_atom_site_fract_y
_atom_site_fract_z
Si Si1 0.724748 0.310928 0.606660
Si Si2 0.435157 0.331423 0.834859
Si Si3 0.508840 0.858162 0.360846
Si Si4 0.049577 0.008726 0.356392
Si Si5 0.163206 0.468261 0.485192
Si Si6 0.123111 0.233578 0.872592
Si Si7 0.123924 0.595440 0.972133
Si Si8 0.938093 0.110608 0.018057
O O1 0.534857 0.206577 0.504590
O O2 0.706131 0.418956 0.508537
O O3 0.769632 0.329124 0.818154
O O4 0.937791 0.283384 0.688060
O O5 0.426946 0.218637 0.733186
O O6 0.302807 0.400622 0.658611
O O7 0.335460 0.299527 0.937300
O O8 0.668925 0.405422 0.991010
O O9 0.703178 0.960341 0.507464
O O10 0.298377 0.892585 0.177418
O O11 0.000000 0.000000 0.500000
O O12 0.932853 0.890577 0.219781
O O13 0.968129 0.103221 0.218143
O O14 0.000000 0.500000 0.500000
O O15 0.038646 0.396914 0.264099
O O16 0.086476 0.215053 0.030938
O O17 0.000000 0.500000 0.000000
O O18 0.000000 0.000000 0.000000
#
# Coordination Sequence:
#
# PCOD9109020 Si02
#       8
#     2   2   2   2   2   2   2   2
#     4   9  20  41  61  90 133 167 212 267 313 385
#     4  11  22  40  65  96 131 169 218 265 316 378
#     4  10  22  40  65  94 129 169 218 263 318 381
#     4  11  22  41  67  96 128 167 215 266 320 380
#     4  11  22  41  67  96 131 165 212 270 321 373
#     4  10  20  41  61  93 135 164 212 270 312 382
#     4   9  22  41  61  88 124 171 213 261 319 377
#     4   9  22  41  61  87 126 168 206 262 324 374
#
# _framework density 22.538143000000002
#
# number of rings (size 3 to 8) (size 9 to 14) (size 15 to 20)
#    0.000    2.000    2.500    0.000    0.000   13.000 
#    2.250    1.250    0.000    0.000    0.000    0.000 
#    0.000    0.000    0.000    0.000    0.000    0.000 
#
# Total GULP energy -89117.229186 kJ/mol
# GULP energy per Si atom -5569.826824 kJ/mol
# Density = 2.248684 g / cm^3
# Si number density = 22.538143 Si / 1000 Ang^3
#
#
#
# Elastic Constant Matrix: (Units=GPa)
#
#
# Indices 1 2 3 4 5 6 
#
# 1 97.6149 55.6651 25.2898 -14.9019 9.1177 43.7562
# 2 55.6651 91.6662 41.8790 -29.7301 6.8148 29.4513
# 3 25.2898 41.8790 85.8197 -28.0793 4.7359 21.5471
# 4 -14.9019 -29.7301 -28.0793 31.4343 0.8774 1.4469
# 5 9.1177 6.8148 4.7359 0.8774 39.7647 2.8966
# 6 43.7562 29.4513 21.5471 1.4469 2.8966 50.8228
#
#
#
# Elastic Compliance Matrix: (Units=1/GPa)
#
#
# Indices 1 2 3 4 5 6 
#
# 1 0.022427 -0.006982 0.004049 0.008523 -0.003375 -0.017029
# 2 -0.006982 0.024933 -0.001634 0.019252 -0.002308 -0.008161
# 3 0.004049 -0.001634 0.020734 0.019510 -0.002694 -0.011731
# 4 0.008523 0.019252 0.019510 0.072996 -0.007116 -0.028438
# 5 -0.003375 -0.002308 -0.002694 -0.007116 0.026498 0.004078
# 6 -0.017029 -0.008161 -0.011731 -0.028438 0.004078 0.044618
#
#
# Mechanical properties :
#
#
# Convention : Reuss Voigt Hill
#
# Bulk Modulus (GPa) = 16.96088 57.86316 37.41202
# Shear Modulus (GPa) = 20.74734 34.55551 27.65142
#
# Velocity S-wave (km/s) = 3.03734 3.91986 3.50647
# Velocity P-wave (km/s) = 4.45447 6.79825 5.74711
#
# Compressibility (1/GPa) = 0.05895919
#
# Stress axis : x y z
#
# Youngs Moduli (GPa) = 44.58963 40.10716 48.22908
#
# Poissons Ratio (x) = 0.28003 -0.19527
# Poissons Ratio (y) = 0.31133 0.07882
# Poissons Ratio (z) = -0.18054 0.06555
#
# Static dielectric constant tensor:
#      x y z
#    x 0.415260 -1.057870 -0.525900 
#    y -1.057870 1.410960 -0.166660 
#    z -0.525900 -0.166660 1.815800 
# 
# From -- ./inp_files/207213.got.cif
#   From: 2010.05.17/outbox.cif.g08.bks.cpg/sg2_104_cif.got.tgz:207213.got - 2010.06.03 11:33:40.
