data_PCOD9109574
_publ_section_title
;
Structure prediction by ZEFSAII (Michael W. Deem and Ramdas Pophale) SiO2 
 PCOD9109574
Probable space group: P -1
;
_chemical_formula_sum "Si O2"
_cell_formula_units_Z 16
_cell_length_a 14.614075
_cell_length_b 14.683374
_cell_length_c 14.486110
_cell_angle_alpha 37.374761
_cell_angle_beta 28.494590
_cell_angle_gamma 28.436041
_cell_volume 702.887758
_symmetry_space_group_name_H-M "P -1"
_symmetry_group_IT_number 2
_symmetry_cell_setting 'triclinic'
loop_
_space_group_symop_operation_xyz
x,y,z
-x,-y,-z
loop_
_atom_site_type_symbol
_atom_site_label
_atom_site_fract_x
_atom_site_fract_y
_atom_site_fract_z
Si Si1 0.832582 0.590631 0.866745
Si Si2 0.754073 0.896288 0.409425
Si Si3 0.267764 0.472193 0.688967
Si Si4 0.619567 0.266107 0.179722
Si Si5 0.790280 0.177244 0.480896
Si Si6 0.416644 0.543532 0.304534
Si Si7 0.144859 0.111798 0.473552
Si Si8 0.168765 0.523526 0.243173
O O1 0.785928 0.793638 0.738883
O O2 0.907034 0.520279 0.749968
O O3 0.053746 0.470552 0.841536
O O4 0.612349 0.584149 0.090465
O O5 0.710914 0.921731 0.535443
O O6 0.952887 0.675574 0.382330
O O7 0.500000 0.000000 0.500000
O O8 0.809109 0.040472 0.214095
O O9 0.507107 0.286928 0.675173
O O10 0.171962 0.662312 0.678020
O O11 0.382706 0.491544 0.478287
O O12 0.486923 0.380598 0.300254
O O13 0.410505 0.339952 0.227578
O O14 0.751227 0.351294 0.962533
O O15 0.810644 0.076827 0.449052
O O16 0.000000 0.000000 0.500000
O O17 0.143466 0.735323 0.369712
#
# Coordination Sequence:
#
# PCOD9109574 Si02
#       8
#     2   2   2   2   2   2   2   2
#     4  10  22  40  64  93 125 161 208 258 305 364
#     4  12  25  36  61  94 122 165 209 249 309 368
#     4  10  23  42  69  88 126 158 207 255 307 372
#     4  10  21  40  59  83 127 164 207 254 297 366
#     4  11  21  43  69  92 122 169 198 256 319 357
#     4  10  20  41  66  89 123 171 202 251 316 361
#     4  11  23  41  64  92 128 161 209 254 309 370
#     4  10  22  39  59  88 123 165 205 252 306 356
#
# _framework density 22.763237
#
# number of rings (size 3 to 8) (size 9 to 14) (size 15 to 20)
#    0.000    1.500    3.750    1.875    5.250    1.000 
#    2.250    6.250    0.000    0.000    0.000    0.000 
#    0.000    0.000    0.000    0.000    0.000    0.000 
#
# Total GULP energy -89321.087221 kJ/mol
# GULP energy per Si atom -5582.567951 kJ/mol
# Density = 2.271143 g / cm^3
# Si number density = 22.763237 Si / 1000 Ang^3
#
#
#
# Elastic Constant Matrix: (Units=GPa)
#
#
# Indices 1 2 3 4 5 6 
#
# 1 111.2713 42.3104 7.2132 3.5464 -27.6855 6.5795
# 2 42.3104 129.8782 -8.1813 -4.8034 -7.5803 4.5208
# 3 7.2132 -8.1813 71.5941 -7.6874 -17.6636 3.4922
# 4 3.5464 -4.8034 -7.6874 20.1440 -3.5467 5.2088
# 5 -27.6855 -7.5803 -17.6636 -3.5467 36.4481 5.3162
# 6 6.5795 4.5208 3.4922 5.2088 5.3162 45.2713
#
#
#
# Elastic Compliance Matrix: (Units=1/GPa)
#
#
# Indices 1 2 3 4 5 6 
#
# 1 0.012871 -0.003489 0.000816 -0.000364 0.009804 -0.002695
# 2 -0.003489 0.009208 0.002103 0.004056 0.000845 -0.001141
# 3 0.000816 0.002103 0.018323 0.010506 0.011588 -0.004312
# 4 -0.000364 0.004056 0.010506 0.059398 0.012825 -0.009503
# 5 0.009804 0.000845 0.011588 0.012825 0.043229 -0.008955
# 6 -0.002695 -0.001141 -0.004312 -0.009503 -0.008955 0.025072
#
#
# Mechanical properties :
#
#
# Convention : Reuss Voigt Hill
#
# Bulk Modulus (GPa) = 25.46981 43.93645 34.70313
# Shear Modulus (GPa) = 27.42300 38.46611 32.94456
#
# Velocity S-wave (km/s) = 3.47465 4.11522 3.80843
# Velocity P-wave (km/s) = 5.22598 6.47483 5.88364
#
# Compressibility (1/GPa) = 0.03926216
#
# Stress axis : x y z
#
# Youngs Moduli (GPa) = 77.69319 108.60462 54.57570
#
# Poissons Ratio (x) = 0.37893 -0.04452
# Poissons Ratio (y) = 0.27108 -0.11480
# Poissons Ratio (z) = -0.06338 -0.22844
#
# Static dielectric constant tensor:
#      x y z
#    x 1.933940 -0.029070 -0.022710 
#    y -0.029070 1.914300 -0.007180 
#    z -0.022710 -0.007180 1.956390 
# 
# From -- ./inp_files/533665.got.cif
#   From: 2010.05.17/outbox.cif.g08.bks.cpg/sg2_267_cif.got.tgz:533665.got - 2010.06.03 11:33:40.
