data_PCOD9109428
_publ_section_title
;
Structure prediction by ZEFSAII (Michael W. Deem and Ramdas Pophale) SiO2 
 PCOD9109428
Probable space group: P -1
;
_chemical_formula_sum "Si O2"
_cell_formula_units_Z 16
_cell_length_a 11.304174
_cell_length_b 7.816964
_cell_length_c 11.343431
_cell_angle_alpha 124.355128
_cell_angle_beta 113.516837
_cell_angle_gamma 89.930638
_cell_volume 724.800202
_symmetry_space_group_name_H-M "P -1"
_symmetry_group_IT_number 2
_symmetry_cell_setting 'triclinic'
loop_
_space_group_symop_operation_xyz
x,y,z
-x,-y,-z
loop_
_atom_site_type_symbol
_atom_site_label
_atom_site_fract_x
_atom_site_fract_y
_atom_site_fract_z
Si Si1 0.190695 0.330440 0.528827
Si Si2 0.702252 0.738505 0.695295
Si Si3 0.224016 0.964660 0.568822
Si Si4 0.490448 0.947600 0.779299
Si Si5 0.140409 0.536552 0.229729
Si Si6 0.091071 0.795239 0.095214
Si Si7 0.307215 0.773167 0.866891
Si Si8 0.087387 0.955128 0.757260
O O1 0.288330 0.369616 0.469669
O O2 0.228188 0.525622 0.711535
O O3 0.038546 0.262210 0.392071
O O4 0.203448 0.117970 0.517145
O O5 0.563198 0.784408 0.688005
O O6 0.753801 0.596088 0.754895
O O7 0.809652 0.978958 0.820772
O O8 0.381258 0.998434 0.670252
O O9 0.158220 0.716706 0.407476
O O10 0.152934 0.011431 0.676835
O O11 0.408183 0.843687 0.822986
O O12 0.605449 0.160521 0.954843
O O13 0.157910 0.666214 0.163046
O O14 0.990730 0.367301 0.099898
O O15 0.974122 0.863566 0.146404
O O16 0.202237 0.911991 0.867725
#
# Coordination Sequence:
#
# PCOD9109428 Si02
#       8
#     2   2   2   2   2   2   2   2
#     4  11  23  39  62  98 124 159 216 258 315 376
#     4  11  22  42  64  95 124 171 208 252 315 372
#     4  11  23  42  61  91 131 169 206 257 312 370
#     4  10  24  43  62  87 126 171 212 255 304 374
#     4  11  22  40  65  92 132 161 203 266 315 366
#     4  10  23  41  62 102 126 159 208 261 319 377
#     4  10  22  42  64  91 123 163 216 258 308 373
#     4  10  20  41  65  91 128 159 200 269 320 365
#
# _framework density 22.075049
#
# number of rings (size 3 to 8) (size 9 to 14) (size 15 to 20)
#    0.000    1.500    2.500    3.375    0.000    6.000 
#    4.500    0.000    0.000    0.000    0.000    0.000 
#    0.000    0.000    0.000    0.000    0.000    0.000 
#
# Total GULP energy -89510.254318 kJ/mol
# GULP energy per Si atom -5594.390895 kJ/mol
# Density = 2.202481 g / cm^3
# Si number density = 22.075049 Si / 1000 Ang^3
#
#
#
# Elastic Constant Matrix: (Units=GPa)
#
#
# Indices 1 2 3 4 5 6 
#
# 1 105.3630 44.4637 19.8316 -18.7289 -4.7551 -24.3927
# 2 44.4637 92.4579 29.6318 8.5294 -2.7085 -14.5948
# 3 19.8316 29.6318 115.7529 0.8404 9.1890 -3.4819
# 4 -18.7289 8.5294 0.8404 26.0045 3.8382 1.8077
# 5 -4.7551 -2.7085 9.1890 3.8382 23.2752 4.5139
# 6 -24.3927 -14.5948 -3.4819 1.8077 4.5139 12.4862
#
#
#
# Elastic Compliance Matrix: (Units=1/GPa)
#
#
# Indices 1 2 3 4 5 6 
#
# 1 0.024871 -0.007385 -0.000839 0.018536 -0.006115 0.039248
# 2 -0.007385 0.017460 -0.003146 -0.011731 0.002560 0.005877
# 3 -0.000839 -0.003146 0.009896 0.000829 -0.004368 -0.001097
# 4 0.018536 -0.011731 0.000829 0.055921 -0.010717 0.018509
# 5 -0.006115 0.002560 -0.004368 -0.010717 0.050733 -0.026963
# 6 0.039248 0.005877 -0.001097 0.018509 -0.026963 0.170392
#
#
# Mechanical properties :
#
#
# Convention : Reuss Voigt Hill
#
# Bulk Modulus (GPa) = 33.91332 55.71423 44.81377
# Shear Modulus (GPa) = 13.81814 26.99628 20.40721
#
# Velocity S-wave (km/s) = 2.50464 3.50084 3.04377
# Velocity P-wave (km/s) = 4.87446 6.45248 5.71817
#
# Compressibility (1/GPa) = 0.02948694
#
# Stress axis : x y z
#
# Youngs Moduli (GPa) = 40.20783 57.27221 101.05256
#
# Poissons Ratio (x) = 0.42298 0.08478
# Poissons Ratio (y) = 0.29695 0.31788
# Poissons Ratio (z) = 0.03373 0.18016
#
# Static dielectric constant tensor:
#      x y z
#    x 1.807040 0.019610 0.002150 
#    y 0.019610 1.768230 0.013680 
#    z 0.002150 0.013680 1.846470 
# 
# From -- ./inp_files/418475.got.cif
#   From: 2010.05.17/outbox.cif.g08.bks.cpg/sg2_210_cif.got.tgz:418475.got - 2010.06.03 11:33:40.
