data_PCOD9109977
_publ_section_title
;
Structure prediction by ZEFSAII (Michael W. Deem and Ramdas Pophale) SiO2 
 PCOD9109977
Probable space group: P -1
;
_chemical_formula_sum "Si O2"
_cell_formula_units_Z 15
_cell_length_a 8.489823
_cell_length_b 12.228717
_cell_length_c 10.817420
_cell_angle_alpha 50.355019
_cell_angle_beta 111.083763
_cell_angle_gamma 136.886089
_cell_volume 578.909440
_symmetry_space_group_name_H-M "P -1"
_symmetry_group_IT_number 2
_symmetry_cell_setting 'triclinic'
loop_
_space_group_symop_operation_xyz
x,y,z
-x,-y,-z
loop_
_atom_site_type_symbol
_atom_site_label
_atom_site_fract_x
_atom_site_fract_y
_atom_site_fract_z
Si Si1 0.068036 0.766355 0.640637
Si Si2 0.267953 0.092316 0.297961
Si Si3 0.182984 0.558309 0.402889
Si Si4 0.616399 0.226778 0.117040
Si Si5 0.741632 0.612918 0.880590
Si Si6 0.831411 0.887767 0.156943
Si Si7 0.500000 0.500000 0.500000
Si Si8 0.820210 0.190287 0.971316
O O1 0.179526 0.691810 0.785310
O O2 0.926716 0.632358 0.577459
O O3 0.902194 0.738745 0.715212
O O4 0.258588 0.992054 0.488694
O O5 0.380577 0.063722 0.242821
O O6 0.393150 0.318767 0.183101
O O7 0.009556 0.977401 0.258935
O O8 0.430051 0.621913 0.449501
O O9 0.000000 0.500000 0.500000
O O10 0.198134 0.706082 0.215663
O O11 0.685737 0.169440 0.066898
O O12 0.619232 0.394422 0.966121
O O13 0.913368 0.680139 0.996521
O O14 0.637567 0.656328 0.304367
O O15 0.723268 0.980416 0.060047
O O16 0.000000 0.000000 0.000000
#
# Coordination Sequence:
#
# PCOD9109977 Si02
#       8
#     2   2   2   2   2   2   1   2
#     4  11  21  43  64  96 140 176 230 289 354 428
#     4  11  24  39  65 104 138 174 236 298 345 431
#     4  12  25  46  72 104 143 189 246 300 354 436
#     4  11  21  41  68 103 132 183 227 284 369 421
#     4  10  20  41  68  96 134 182 226 282 360 424
#     4  11  26  47  70 103 144 188 249 296 353 441
#     4  12  28  50  72 100 142 198 240 296 366 412
#     4  10  22  43  71  97 139 184 229 299 359 423
#
# _framework density 25.910786999999999
#
# number of rings (size 3 to 8) (size 9 to 14) (size 15 to 20)
#    0.000    1.067    4.000    2.800    1.867    1.600 
#    2.400    0.000    0.000    0.000    0.000    0.000 
#    0.000    0.000    0.000    0.000    0.000    0.000 
#
# Total GULP energy -83606.397898 kJ/mol
# GULP energy per Si atom -5573.759860 kJ/mol
# Density = 2.585181 g / cm^3
# Si number density = 25.910787 Si / 1000 Ang^3
#
#
#
# Elastic Constant Matrix: (Units=GPa)
#
#
# Indices 1 2 3 4 5 6 
#
# 1 108.9966 -3.7737 72.7120 -14.2843 -20.3190 -22.9005
# 2 -3.7737 38.0213 9.4979 -2.5586 5.1701 -2.3625
# 3 72.7120 9.4979 197.2311 -23.9729 3.7119 -30.3706
# 4 -14.2843 -2.5586 -23.9729 28.1122 -8.2843 5.8465
# 5 -20.3190 5.1701 3.7119 -8.2843 33.7647 -14.3578
# 6 -22.9005 -2.3625 -30.3706 5.8465 -14.3578 31.3412
#
#
#
# Elastic Compliance Matrix: (Units=1/GPa)
#
#
# Indices 1 2 3 4 5 6 
#
# 1 0.023722 0.001960 -0.004281 0.011727 0.027400 0.023697
# 2 0.001960 0.027365 -0.001777 0.001187 -0.002316 0.000490
# 3 -0.004281 -0.001777 0.007610 0.003209 -0.001067 0.003025
# 4 0.011727 0.001187 0.003209 0.048672 0.024352 0.013844
# 5 0.027400 -0.002316 -0.001067 0.024352 0.072803 0.047621
# 6 0.023697 0.000490 0.003025 0.013844 0.047621 0.071423
#
#
# Mechanical properties :
#
#
# Convention : Reuss Voigt Hill
#
# Bulk Modulus (GPa) = 19.80197 55.68014 37.74106
# Shear Modulus (GPa) = 18.07506 36.36447 27.21976
#
# Velocity S-wave (km/s) = 2.64405 3.75033 3.24469
# Velocity P-wave (km/s) = 4.12072 6.34737 5.35114
#
# Compressibility (1/GPa) = 0.05050002
#
# Stress axis : x y z
#
# Youngs Moduli (GPa) = 42.15488 36.54349 131.40785
#
# Poissons Ratio (x) = -0.07161 0.56256
# Poissons Ratio (y) = -0.08261 0.23350
# Poissons Ratio (z) = 0.18047 0.06493
#
# Static dielectric constant tensor:
#      x y z
#    x -91.741030 -83.757430 -18.419220 
#    y -83.757430 -72.737150 -16.446520 
#    z -18.419220 -16.446520 -1.541240 
# 
# From -- ./inp_files/207083.got.cif
#   From: 2010.05.17/outbox.cif.g08.bks.cpg/sg2_104_cif.got.tgz:207083.got - 2010.06.03 11:33:40.
