data_PCOD9109886
_publ_section_title
;
Structure prediction by ZEFSAII (Michael W. Deem and Ramdas Pophale) SiO2 
 PCOD9109886
Probable space group: P -1
;
_chemical_formula_sum "Si O2"
_cell_formula_units_Z 14
_cell_length_a 5.301856
_cell_length_b 7.974079
_cell_length_c 17.697520
_cell_angle_alpha 57.600638
_cell_angle_beta 94.952036
_cell_angle_gamma 119.151756
_cell_volume 536.009542
_symmetry_space_group_name_H-M "P -1"
_symmetry_group_IT_number 2
_symmetry_cell_setting 'triclinic'
loop_
_space_group_symop_operation_xyz
x,y,z
-x,-y,-z
loop_
_atom_site_type_symbol
_atom_site_label
_atom_site_fract_x
_atom_site_fract_y
_atom_site_fract_z
Si Si1 0.822315 0.512411 0.041736
Si Si2 0.644150 0.079871 0.242824
Si Si3 0.441856 0.269102 0.976024
Si Si4 0.449881 0.840644 0.152180
Si Si5 0.371944 0.204191 0.425955
Si Si6 0.016936 0.621200 0.687871
Si Si7 0.749813 0.225649 0.561171
O O1 0.654522 0.301080 0.148960
O O2 0.880909 0.752008 0.018921
O O3 0.500000 0.500000 0.000000
O O4 0.829743 0.440282 0.966344
O O5 0.360276 0.895902 0.330166
O O6 0.903699 0.207772 0.279510
O O7 0.673834 0.948621 0.203179
O O8 0.474327 0.274598 0.885505
O O9 0.416101 0.045666 0.068522
O O10 0.141196 0.640344 0.225694
O O11 0.466565 0.200816 0.514999
O O12 0.682519 0.313977 0.362183
O O13 0.186606 0.945715 0.446303
O O14 0.785047 0.652895 0.625839
O O15 0.000000 0.500000 0.500000
#
# Coordination Sequence:
#
# PCOD9109886 Si02
#       7
#     2   2   2   2   2   2   2
#     4  10  20  41  68 102 142 192 236 302 366 435
#     4  10  23  41  68 104 142 189 250 296 368 437
#     4   9  21  40  67  99 144 186 241 297 369 437
#     4  10  21  43  68 107 143 192 243 302 365 441
#     4  10  25  45  72 104 144 197 240 302 375 435
#     4  11  24  46  72 104 149 193 246 303 367 441
#     4  10  22  44  73 105 144 189 245 307 364 436
#
# _framework density 26.118939999999998
#
# number of rings (size 3 to 8) (size 9 to 14) (size 15 to 20)
#    0.000    2.000    0.000    1.714    4.000    6.286 
#   10.286    8.571    0.000    0.000    0.000    0.000 
#    0.000    0.000    0.000    0.000    0.000    0.000 
#
# Total GULP energy -78119.476523 kJ/mol
# GULP energy per Si atom -5579.962609 kJ/mol
# Density = 2.605949 g / cm^3
# Si number density = 26.118940 Si / 1000 Ang^3
#
#
#
# Elastic Constant Matrix: (Units=GPa)
#
#
# Indices 1 2 3 4 5 6 
#
# 1 151.6482 35.7385 54.9286 1.2848 -11.4925 -18.9768
# 2 35.7385 99.7716 42.1553 6.4611 -15.2153 18.9158
# 3 54.9286 42.1553 178.1973 -10.6048 -18.6729 10.6676
# 4 1.2848 6.4611 -10.6048 63.1348 11.9832 -3.7562
# 5 -11.4925 -15.2153 -18.6729 11.9832 26.5970 3.5935
# 6 -18.9768 18.9158 10.6676 -3.7562 3.5935 27.7013
#
#
#
# Elastic Compliance Matrix: (Units=1/GPa)
#
#
# Indices 1 2 3 4 5 6 
#
# 1 0.010153 -0.005218 -0.002841 0.001087 -0.002718 0.012113
# 2 -0.005218 0.017674 -0.000541 -0.005162 0.012195 -0.017717
# 3 -0.002841 -0.000541 0.007363 0.000264 0.004178 -0.004918
# 4 0.001087 -0.005162 0.000264 0.019175 -0.012063 0.008333
# 5 -0.002718 0.012195 0.004178 -0.012063 0.054539 -0.020509
# 6 0.012113 -0.017717 -0.004918 0.008333 -0.020509 0.062179
#
#
# Mechanical properties :
#
#
# Convention : Reuss Voigt Hill
#
# Bulk Modulus (GPa) = 55.58474 77.25133 66.41803
# Shear Modulus (GPa) = 25.73591 43.27293 34.50442
#
# Velocity S-wave (km/s) = 3.14241 4.07475 3.63857
# Velocity P-wave (km/s) = 5.87315 7.19577 6.56784
#
# Compressibility (1/GPa) = 0.01799055
#
# Stress axis : x y z
#
# Youngs Moduli (GPa) = 98.48932 56.58087 135.80821
#
# Poissons Ratio (x) = 0.29525 0.38577
# Poissons Ratio (y) = 0.51394 0.07350
# Poissons Ratio (z) = 0.27977 0.03062
#
# Static dielectric constant tensor:
#      x y z
#    x 2.005290 0.239910 0.032030 
#    y 0.239910 1.101700 -0.197950 
#    z 0.032030 -0.197950 1.986230 
# 
# From -- ./inp_files/555116.got.cif
#   From: 2010.05.17/outbox.cif.g08.bks.cpg/sg2_278_cif.got.tgz:555116.got - 2010.06.03 11:33:40.
