data_PCOD9109800
_publ_section_title
;
Structure prediction by ZEFSAII (Michael W. Deem and Ramdas Pophale) SiO2 
 PCOD9109800
Probable space group: P -1
;
_chemical_formula_sum "Si O2"
_cell_formula_units_Z 16
_cell_length_a 10.110086
_cell_length_b 18.864802
_cell_length_c 5.244196
_cell_angle_alpha 84.561613
_cell_angle_beta 112.362631
_cell_angle_gamma 123.765224
_cell_volume 760.045856
_symmetry_space_group_name_H-M "P -1"
_symmetry_group_IT_number 2
_symmetry_cell_setting 'triclinic'
loop_
_space_group_symop_operation_xyz
x,y,z
-x,-y,-z
loop_
_atom_site_type_symbol
_atom_site_label
_atom_site_fract_x
_atom_site_fract_y
_atom_site_fract_z
Si Si1 0.799027 0.950588 0.434492
Si Si2 0.607846 0.613890 0.836948
Si Si3 0.716970 0.562517 0.433357
Si Si4 0.708788 0.312854 0.823004
Si Si5 0.076889 0.599068 0.555769
Si Si6 0.617637 0.042251 0.327811
Si Si7 0.459207 0.833353 0.910746
Si Si8 0.384710 0.228754 0.346836
O O1 0.743129 0.868288 0.604204
O O2 0.761864 0.021661 0.469608
O O3 0.656707 0.905829 0.117820
O O4 0.000000 0.000000 0.500000
O O5 0.693841 0.588654 0.689119
O O6 0.402515 0.542076 0.653907
O O7 0.677519 0.714159 0.831340
O O8 0.645470 0.595462 0.152718
O O9 0.916032 0.604056 0.505669
O O10 0.830487 0.352620 0.654869
O O11 0.519741 0.292896 0.640111
O O12 0.800070 0.368939 0.119271
O O13 0.647493 0.217051 0.898057
O O14 0.000000 0.500000 0.500000
O O15 0.652407 0.136017 0.310489
O O16 0.500000 0.000000 0.500000
O O17 0.500000 0.000000 0.000000
O O18 0.494358 0.778686 0.763562
#
# Coordination Sequence:
#
# PCOD9109800 Si02
#       8
#     2   2   2   2   2   2   2   2
#     4  10  23  42  67 104 132 171 225 279 334 402
#     4  10  23  41  66  90 129 179 211 264 324 400
#     4  10  23  42  62  92 131 171 221 259 330 391
#     4  11  24  39  64  98 131 167 222 271 324 393
#     4  12  24  42  66  97 131 169 221 282 329 384
#     4  10  20  41  67  93 129 171 212 264 330 402
#     4  10  22  42  70  95 130 179 223 269 335 412
#     4  11  22  42  69  95 133 172 227 264 340 396
#
# _framework density 21.051362000000001
#
# number of rings (size 3 to 8) (size 9 to 14) (size 15 to 20)
#    0.000    1.500    2.500    1.875    3.500    2.500 
#    4.500    0.000    0.000    0.000    0.000    0.000 
#    0.000    0.000    0.000    0.000    0.000    0.000 
#
# Total GULP energy -89162.525512 kJ/mol
# GULP energy per Si atom -5572.657844 kJ/mol
# Density = 2.100345 g / cm^3
# Si number density = 21.051362 Si / 1000 Ang^3
#
#
#
# Elastic Constant Matrix: (Units=GPa)
#
#
# Indices 1 2 3 4 5 6 
#
# 1 109.9526 58.6205 25.2146 -5.2591 -5.8408 19.2483
# 2 58.6205 100.4380 30.8674 -20.4573 10.9112 15.9213
# 3 25.2146 30.8674 63.1553 -4.1623 -18.2988 13.1260
# 4 -5.2591 -20.4573 -4.1623 39.4131 0.1428 -2.1914
# 5 -5.8408 10.9112 -18.2988 0.1428 28.4203 -8.0791
# 6 19.2483 15.9213 13.1260 -2.1914 -8.0791 41.1163
#
#
#
# Elastic Compliance Matrix: (Units=1/GPa)
#
#
# Indices 1 2 3 4 5 6 
#
# 1 0.014820 -0.010201 0.001410 -0.003316 0.007265 -0.002187
# 2 -0.010201 0.024785 -0.012548 0.010009 -0.020995 -0.004408
# 3 0.001410 -0.012548 0.027915 -0.003481 0.022990 -0.000381
# 4 -0.003316 0.010009 -0.003481 0.029725 -0.007212 -0.001045
# 5 0.007265 -0.020995 0.022990 -0.007212 0.062201 0.009227
# 6 -0.002187 -0.004408 -0.000381 -0.001045 0.009227 0.028931
#
#
# Mechanical properties :
#
#
# Convention : Reuss Voigt Hill
#
# Bulk Modulus (GPa) = 40.25579 55.88342 48.06961
# Shear Modulus (GPa) = 20.89104 32.37950 26.63527
#
# Velocity S-wave (km/s) = 3.15363 3.92614 3.56090
# Velocity P-wave (km/s) = 5.69427 6.86707 6.30798
#
# Compressibility (1/GPa) = 0.02484115
#
# Stress axis : x y z
#
# Youngs Moduli (GPa) = 67.47449 40.34722 35.82308
#
# Poissons Ratio (x) = 0.41159 -0.05050
# Poissons Ratio (y) = 0.68832 0.44951
# Poissons Ratio (z) = -0.09513 0.50628
#
# Static dielectric constant tensor:
#      x y z
#    x 1.779430 -0.062730 0.015150 
#    y -0.062730 1.885840 -0.019920 
#    z 0.015150 -0.019920 1.837900 
# 
# From -- ./inp_files/47593.got.cif
#   From: 2010.05.17/outbox.cif.g08.bks.cpg/sg2_24_cif.got.tgz:47593.got - 2010.06.03 11:33:40.
