data_PCOD9109082
_publ_section_title
;
Structure prediction by ZEFSAII (Michael W. Deem and Ramdas Pophale) SiO2 
 PCOD9109082
Probable space group: P -1
;
_chemical_formula_sum "Si O2"
_cell_formula_units_Z 16
_cell_length_a 22.105697
_cell_length_b 7.355568
_cell_length_c 6.091509
_cell_angle_alpha 59.745875
_cell_angle_beta 102.638605
_cell_angle_gamma 127.155313
_cell_volume 676.614665
_symmetry_space_group_name_H-M "P -1"
_symmetry_group_IT_number 2
_symmetry_cell_setting 'triclinic'
loop_
_space_group_symop_operation_xyz
x,y,z
-x,-y,-z
loop_
_atom_site_type_symbol
_atom_site_label
_atom_site_fract_x
_atom_site_fract_y
_atom_site_fract_z
Si Si1 0.037632 0.394404 0.237074
Si Si2 0.368090 0.785591 0.811860
Si Si3 0.330642 0.096757 0.311081
Si Si4 0.111344 0.139742 0.386948
Si Si5 0.565480 0.493786 0.167217
Si Si6 0.628635 0.430554 0.647849
Si Si7 0.169480 0.894960 0.259578
Si Si8 0.767156 0.650488 0.283330
O O1 0.086136 0.321471 0.175945
O O2 0.093285 0.615188 0.321554
O O3 0.967567 0.132701 0.450525
O O4 0.000000 0.500000 0.000000
O O5 0.375724 0.007667 0.534134
O O6 0.423483 0.712622 0.809729
O O7 0.278588 0.546448 0.837383
O O8 0.384592 0.804156 0.074073
O O9 0.239977 0.883374 0.382598
O O10 0.343679 0.339495 0.301235
O O11 0.361059 0.215954 0.019957
O O12 0.162413 0.290398 0.551307
O O13 0.154574 0.058745 0.315491
O O14 0.563234 0.419706 0.463455
O O15 0.500000 0.500000 0.000000
O O16 0.696634 0.525430 0.473456
O O17 0.198840 0.065611 0.956843
#
# Coordination Sequence:
#
# PCOD9109082 Si02
#       8
#     2   2   2   2   2   2   2   2
#     4  11  25  44  63  93 131 175 219 270 337 398
#     4  10  22  38  63  96 126 168 220 271 325 389
#     4  11  22  40  65  97 124 166 221 270 325 394
#     4  11  24  44  65  91 133 173 216 278 332 393
#     4  10  23  43  63  90 134 173 208 264 328 394
#     4  10  20  41  62  92 128 166 209 272 323 384
#     4  12  22  44  67  97 128 172 226 274 333 397
#     4  11  19  42  63  91 130 165 216 270 331 384
#
# _framework density 23.64714
#
# number of rings (size 3 to 8) (size 9 to 14) (size 15 to 20)
#    0.000    1.250    6.250    1.125    0.000    5.000 
#   11.250    1.250    0.000    0.000    0.000    0.000 
#    0.000    0.000    0.000    0.000    0.000    0.000 
#
# Total GULP energy -89216.712531 kJ/mol
# GULP energy per Si atom -5576.044533 kJ/mol
# Density = 2.359332 g / cm^3
# Si number density = 23.647140 Si / 1000 Ang^3
#
#
#
# Elastic Constant Matrix: (Units=GPa)
#
#
# Indices 1 2 3 4 5 6 
#
# 1 108.3189 26.0770 38.0115 3.5557 42.9763 9.3696
# 2 26.0770 64.0742 6.9330 12.7949 8.4052 11.6055
# 3 38.0115 6.9330 117.8678 13.0309 49.5601 -11.9491
# 4 3.5557 12.7949 13.0309 25.5626 1.8354 11.6760
# 5 42.9763 8.4052 49.5601 1.8354 39.7998 6.1433
# 6 9.3696 11.6055 -11.9491 11.6760 6.1433 31.3142
#
#
#
# Elastic Compliance Matrix: (Units=1/GPa)
#
#
# Indices 1 2 3 4 5 6 
#
# 1 0.019604 -0.004921 0.009195 -0.006372 -0.032555 0.008230
# 2 -0.004921 0.019503 0.000407 -0.008075 0.001506 -0.002885
# 3 0.009195 0.000407 0.040359 -0.034850 -0.064554 0.038158
# 4 -0.006372 -0.008075 -0.034850 0.080325 0.055891 -0.049314
# 5 -0.032555 0.001506 -0.064554 0.055891 0.147848 -0.065296
# 6 0.008230 -0.002885 0.038158 -0.049314 -0.065296 0.076299
#
#
# Mechanical properties :
#
#
# Convention : Reuss Voigt Hill
#
# Bulk Modulus (GPa) = 11.25773 48.03378 29.64575
# Shear Modulus (GPa) = 12.37052 33.95126 23.16089
#
# Velocity S-wave (km/s) = 2.28968 3.79323 3.13299
# Velocity P-wave (km/s) = 3.42947 6.28821 5.06473
#
# Compressibility (1/GPa) = 0.08882789
#
# Stress axis : x y z
#
# Youngs Moduli (GPa) = 51.01017 51.27387 24.77742
#
# Poissons Ratio (x) = 0.25231 -0.22782
# Poissons Ratio (y) = 0.25101 -0.01008
# Poissons Ratio (z) = -0.46902 -0.02086
#
# Static dielectric constant tensor:
#      x y z
#    x 1.958420 -0.000670 -0.010630 
#    y -0.000670 1.948980 0.038490 
#    z -0.010630 0.038490 1.979140 
# 
# From -- ./inp_files/122772.got.cif
#   From: 2010.05.17/outbox.cif.g08.bks.cpg/sg2_62_cif.got.tgz:122772.got - 2010.06.03 11:33:40.
