data_PCOD9109864
_publ_section_title
;
Structure prediction by ZEFSAII (Michael W. Deem and Ramdas Pophale) SiO2 
 PCOD9109864
Probable space group: P -1
;
_chemical_formula_sum "Si O2"
_cell_formula_units_Z 16
_cell_length_a 9.041772
_cell_length_b 11.301871
_cell_length_c 11.112298
_cell_angle_alpha 96.117790
_cell_angle_beta 125.205544
_cell_angle_gamma 120.841540
_cell_volume 652.774839
_symmetry_space_group_name_H-M "P -1"
_symmetry_group_IT_number 2
_symmetry_cell_setting 'triclinic'
loop_
_space_group_symop_operation_xyz
x,y,z
-x,-y,-z
loop_
_atom_site_type_symbol
_atom_site_label
_atom_site_fract_x
_atom_site_fract_y
_atom_site_fract_z
Si Si1 0.958246 0.225093 0.824933
Si Si2 0.512156 0.229457 0.246780
Si Si3 0.765105 0.094457 0.066870
Si Si4 0.199588 0.681502 0.053283
Si Si5 0.288476 0.096399 0.619040
Si Si6 0.487702 0.534311 0.858968
Si Si7 0.794582 0.876173 0.673658
Si Si8 0.067441 0.740527 0.460177
O O1 0.756967 0.201076 0.807763
O O2 0.950468 0.279794 0.695242
O O3 0.916593 0.065103 0.770698
O O4 0.226920 0.366845 0.036346
O O5 0.532021 0.333939 0.160843
O O6 0.384198 0.227637 0.305619
O O7 0.786384 0.301116 0.416120
O O8 0.321937 0.037344 0.092882
O O9 0.871627 0.269962 0.087877
O O10 0.987586 0.122753 0.238546
O O11 0.500000 0.000000 0.000000
O O12 0.480481 0.756667 0.170678
O O13 0.000000 0.500000 0.000000
O O14 0.352715 0.176404 0.525921
O O15 0.246687 0.935744 0.589694
O O16 0.000000 0.000000 0.500000
O O17 0.227499 0.369365 0.656204
O O18 0.500000 0.500000 0.000000
#
# Coordination Sequence:
#
# PCOD9109864 Si02
#       8
#     2   2   2   2   2   2   2   2
#     4  10  20  41  67  99 130 170 234 276 338 405
#     4  12  21  41  67  96 133 173 234 280 335 410
#     4  12  25  42  65 101 138 182 226 285 351 410
#     4  12  26  44  68  99 138 183 227 288 345 413
#     4  11  24  44  68  99 138 180 223 280 353 410
#     4  10  22  37  62 100 134 170 218 289 341 397
#     4  11  22  42  74  96 127 179 232 279 333 417
#     4  10  22  38  67  98 131 172 223 283 338 407
#
# _framework density 24.510748
#
# number of rings (size 3 to 8) (size 9 to 14) (size 15 to 20)
#    0.000    1.000    3.750    3.000    1.750    4.000 
#    0.000    1.875    0.000    0.000    0.000    0.000 
#    0.000    0.000    0.000    0.000    0.000    0.000 
#
# Total GULP energy -89392.641748 kJ/mol
# GULP energy per Si atom -5587.040109 kJ/mol
# Density = 2.445496 g / cm^3
# Si number density = 24.510748 Si / 1000 Ang^3
#
#
#
# Elastic Constant Matrix: (Units=GPa)
#
#
# Indices 1 2 3 4 5 6 
#
# 1 68.5605 16.4969 16.8541 -16.2350 20.9353 -3.6309
# 2 16.4969 155.8229 56.1901 -22.8992 19.2668 -6.6414
# 3 16.8541 56.1901 122.1318 -16.3525 44.3544 -10.3038
# 4 -16.2350 -22.8992 -16.3525 52.7795 0.4487 7.3202
# 5 20.9353 19.2668 44.3544 0.4487 42.6059 -6.0613
# 6 -3.6309 -6.6414 -10.3038 7.3202 -6.0613 23.6707
#
#
#
# Elastic Compliance Matrix: (Units=1/GPa)
#
#
# Indices 1 2 3 4 5 6 
#
# 1 0.019434 -0.000617 0.003026 0.006931 -0.012673 -0.001263
# 2 -0.000617 0.008002 -0.003349 0.002238 0.000153 0.000040
# 3 0.003026 -0.003349 0.015987 0.004450 -0.016538 0.000872
# 4 0.006931 0.002238 0.004450 0.024423 -0.010239 -0.006547
# 5 -0.012673 0.000153 -0.016538 -0.010239 0.047852 0.006320
# 6 -0.001263 0.000040 0.000872 -0.006547 0.006320 0.046086
#
#
# Mechanical properties :
#
#
# Convention : Reuss Voigt Hill
#
# Bulk Modulus (GPa) = 24.07165 58.39972 41.23569
# Shear Modulus (GPa) = 28.16690 40.94284 34.55487
#
# Velocity S-wave (km/s) = 3.39361 4.09149 3.75878
# Velocity P-wave (km/s) = 5.01973 6.79693 5.97478
#
# Compressibility (1/GPa) = 0.04154264
#
# Stress axis : x y z
#
# Youngs Moduli (GPa) = 51.45508 124.96626 62.55225
#
# Poissons Ratio (x) = 0.07710 -0.18927
# Poissons Ratio (y) = 0.03175 0.20950
# Poissons Ratio (z) = -0.15569 0.41853
#
# Static dielectric constant tensor:
#      x y z
#    x 2.059790 0.009560 0.078690 
#    y 0.009560 1.996020 0.014910 
#    z 0.078690 0.014910 1.965140 
# 
# From -- ./inp_files/392660.got.cif
#   From: 2010.05.17/outbox.cif.g08.bks.cpg/sg2_197_cif.got.tgz:392660.got - 2010.06.03 11:33:40.
