data_PCOD9109673
_publ_section_title
;
Structure prediction by ZEFSAII (Michael W. Deem and Ramdas Pophale) SiO2 
 PCOD9109673
Probable space group: P -1
;
_chemical_formula_sum "Si O2"
_cell_formula_units_Z 12
_cell_length_a 15.517733
_cell_length_b 10.249919
_cell_length_c 5.317232
_cell_angle_alpha 67.627989
_cell_angle_beta 122.067770
_cell_angle_gamma 139.277843
_cell_volume 467.202461
_symmetry_space_group_name_H-M "P -1"
_symmetry_group_IT_number 2
_symmetry_cell_setting 'triclinic'
loop_
_space_group_symop_operation_xyz
x,y,z
-x,-y,-z
loop_
_atom_site_type_symbol
_atom_site_label
_atom_site_fract_x
_atom_site_fract_y
_atom_site_fract_z
Si Si1 0.536114 0.188887 0.695032
Si Si2 0.359021 0.425250 0.706728
Si Si3 0.263083 0.536934 0.828914
Si Si4 0.081174 0.019848 0.360984
Si Si5 0.736986 0.199387 0.700432
Si Si6 0.984677 0.331682 0.728050
O O1 0.584262 0.378672 0.488965
O O2 0.640176 0.157416 0.812641
O O3 0.376448 0.992886 0.513156
O O4 0.575642 0.266308 0.982359
O O5 0.262299 0.384942 0.818262
O O6 0.250350 0.229636 0.507234
O O7 0.500000 0.500000 0.000000
O O8 0.223389 0.613735 0.505941
O O9 0.148183 0.440873 0.944851
O O10 0.075291 0.845347 0.426712
O O11 0.000000 0.000000 0.500000
O O12 0.000000 0.000000 0.000000
O O13 0.882377 0.250978 0.871263
O O14 0.000000 0.500000 0.500000
#
# Coordination Sequence:
#
# PCOD9109673 Si02
#       6
#     2   2   2   2   2   2
#     4  10  21  41  64  95 140 185 235 308 362 440
#     4  11  26  43  69 102 143 193 246 300 370 449
#     4  10  20  41  66  95 138 179 238 304 368 429
#     4  12  27  52  77 109 154 203 249 313 382 448
#     4   9  21  39  63  98 133 183 241 296 370 435
#     4  10  22  45  69 104 139 189 250 306 363 447
#
# _framework density 25.684797
#
# number of rings (size 3 to 8) (size 9 to 14) (size 15 to 20)
#    0.000    1.667    1.667    1.500    2.333    2.667 
#   12.000    0.000    0.000    0.000    0.000    0.000 
#    0.000    0.000    0.000    0.000    0.000    0.000 
#
# Total GULP energy -66990.209236 kJ/mol
# GULP energy per Si atom -5582.517436 kJ/mol
# Density = 2.562634 g / cm^3
# Si number density = 25.684797 Si / 1000 Ang^3
#
#
#
# Elastic Constant Matrix: (Units=GPa)
#
#
# Indices 1 2 3 4 5 6 
#
# 1 82.7793 62.3985 40.4264 -0.3997 16.0391 -5.0997
# 2 62.3985 162.5875 61.9992 29.6303 16.8822 -16.6260
# 3 40.4264 61.9992 113.2474 23.6181 1.0287 -8.0366
# 4 -0.3997 29.6303 23.6181 46.4415 4.5523 -0.7393
# 5 16.0391 16.8822 1.0287 4.5523 28.2585 5.5651
# 6 -5.0997 -16.6260 -8.0366 -0.7393 5.5651 38.2406
#
#
#
# Elastic Compliance Matrix: (Units=1/GPa)
#
#
# Indices 1 2 3 4 5 6 
#
# 1 0.021852 -0.006665 -0.005775 0.008327 -0.009624 0.000364
# 2 -0.006665 0.011318 -0.002316 -0.005773 -0.002718 0.003829
# 3 -0.005775 -0.002316 0.013347 -0.005855 0.005085 0.000175
# 4 0.008327 -0.005773 -0.005855 0.028779 -0.005448 -0.001281
# 5 -0.009624 -0.002718 0.005085 -0.005448 0.044744 -0.008014
# 6 0.000364 0.003829 0.000175 -0.001281 -0.008014 0.029042
#
#
# Mechanical properties :
#
#
# Convention : Reuss Voigt Hill
#
# Bulk Modulus (GPa) = 58.81012 76.47358 67.64185
# Shear Modulus (GPa) = 27.13514 35.50745 31.32130
#
# Velocity S-wave (km/s) = 3.25386 3.72214 3.49585
# Velocity P-wave (km/s) = 6.08797 6.95061 6.53354
#
# Compressibility (1/GPa) = 0.01700388
#
# Stress axis : x y z
#
# Youngs Moduli (GPa) = 45.76204 88.35734 74.92217
#
# Poissons Ratio (x) = 0.58893 0.43267
# Poissons Ratio (y) = 0.30502 0.17355
# Poissons Ratio (z) = 0.26427 0.20467
#
# Static dielectric constant tensor:
#      x y z
#    x 2.118320 0.054690 -0.020580 
#    y 0.054690 2.084240 -0.045310 
#    z -0.020580 -0.045310 2.034160 
# 
# From -- ./inp_files/73744.got.cif
#   From: 2010.05.17/outbox.cif.g08.bks.cpg/sg2_37_cif.got.tgz:73744.got - 2010.06.03 11:33:40.
