data_PCOD9109077
_publ_section_title
;
Structure prediction by ZEFSAII (Michael W. Deem and Ramdas Pophale) SiO2 
 PCOD9109077
Probable space group: P -1
;
_chemical_formula_sum "Si O2"
_cell_formula_units_Z 16
_cell_length_a 9.082828
_cell_length_b 14.801057
_cell_length_c 11.442158
_cell_angle_alpha 75.668113
_cell_angle_beta 37.913867
_cell_angle_gamma 94.902960
_cell_volume 807.561948
_symmetry_space_group_name_H-M "P -1"
_symmetry_group_IT_number 2
_symmetry_cell_setting 'triclinic'
loop_
_space_group_symop_operation_xyz
x,y,z
-x,-y,-z
loop_
_atom_site_type_symbol
_atom_site_label
_atom_site_fract_x
_atom_site_fract_y
_atom_site_fract_z
Si Si1 0.715223 0.398777 0.237312
Si Si2 0.293035 0.096396 0.922686
Si Si3 0.358459 0.729672 0.898913
Si Si4 0.835418 0.274297 0.403878
Si Si5 0.841874 0.659879 0.372932
Si Si6 0.901515 0.129530 0.983068
Si Si7 0.892550 0.380630 0.568156
Si Si8 0.673779 0.773995 0.927772
O O1 0.590671 0.327220 0.222630
O O2 0.758816 0.326054 0.327860
O O3 0.470985 0.422715 0.419580
O O4 0.000000 0.500000 0.000000
O O5 0.575260 0.176787 0.657561
O O6 0.060382 0.113827 0.996808
O O7 0.290091 0.125255 0.051137
O O8 0.232521 0.977821 0.971978
O O9 0.564395 0.766117 0.866764
O O10 0.309591 0.828410 0.861158
O O11 0.060841 0.644372 0.162549
O O12 0.947173 0.362557 0.407384
O O13 0.058811 0.239678 0.238152
O O14 0.890104 0.773813 0.259594
O O15 0.958492 0.666733 0.426822
O O16 0.000000 0.500000 0.500000
O O17 0.572274 0.320228 0.817204
#
# Coordination Sequence:
#
# PCOD9109077 Si02
#       8
#     2   2   2   2   2   2   2   2
#     4  12  25  37  61  89 120 157 198 244 295 352
#     4  10  20  41  62  92 113 159 198 238 307 341
#     4   9  21  42  58  85 119 156 197 241 291 346
#     4  11  23  39  58  92 121 148 201 250 288 354
#     4   9  21  43  59  85 119 155 194 246 286 353
#     4   9  19  41  65  83 122 155 195 246 292 355
#     4  10  23  40  63  83 118 164 196 238 300 347
#     4  10  22  39  61  86 123 151 197 248 284 360
#
# _framework density 19.812721
#
# number of rings (size 3 to 8) (size 9 to 14) (size 15 to 20)
#    0.750    1.250    1.250    1.500    5.250    1.500 
#    2.250    2.500    0.000    0.000    0.000    0.000 
#    0.000    0.000    0.000    0.000    0.000    0.000 
#
# Total GULP energy -89190.296555 kJ/mol
# GULP energy per Si atom -5574.393535 kJ/mol
# Density = 1.976763 g / cm^3
# Si number density = 19.812721 Si / 1000 Ang^3
#
#
#
# Elastic Constant Matrix: (Units=GPa)
#
#
# Indices 1 2 3 4 5 6 
#
# 1 59.1998 6.1174 16.3267 13.1925 6.6250 2.9850
# 2 6.1174 57.8428 7.9851 3.5499 4.9412 20.3623
# 3 16.3267 7.9851 49.7660 8.5791 -5.3772 -1.2715
# 4 13.1925 3.5499 8.5791 26.5015 -4.0612 -5.7418
# 5 6.6250 4.9412 -5.3772 -4.0612 27.0739 6.2279
# 6 2.9850 20.3623 -1.2715 -5.7418 6.2279 28.4202
#
#
#
# Elastic Compliance Matrix: (Units=1/GPa)
#
#
# Indices 1 2 3 4 5 6 
#
# 1 0.022090 0.001362 -0.006476 -0.011158 -0.007657 -0.004162
# 2 0.001362 0.025130 -0.003969 -0.007299 -0.002367 -0.019281
# 3 -0.006476 -0.003969 0.024011 -0.002488 0.006068 0.002765
# 4 -0.011158 -0.007299 -0.002488 0.049402 0.007620 0.014601
# 5 -0.007657 -0.002367 0.006068 0.007620 0.042753 -0.005057
# 6 -0.004162 -0.019281 0.002765 0.014601 -0.005057 0.053620
#
#
# Mechanical properties :
#
#
# Convention : Reuss Voigt Hill
#
# Bulk Modulus (GPa) = 18.84494 25.29634 22.07064
# Shear Modulus (GPa) = 19.77371 25.49109 22.63240
#
# Velocity S-wave (km/s) = 3.16259 3.59081 3.38348
# Velocity P-wave (km/s) = 4.78207 5.47607 5.14079
#
# Compressibility (1/GPa) = 0.05306463
#
# Stress axis : x y z
#
# Youngs Moduli (GPa) = 45.26874 39.79316 41.64815
#
# Poissons Ratio (x) = -0.05418 0.26970
# Poissons Ratio (y) = -0.06164 0.16530
# Poissons Ratio (z) = 0.29315 0.15794
#
# Static dielectric constant tensor:
#      x y z
#    x 1.715370 0.004040 -0.009200 
#    y 0.004040 1.683490 0.013130 
#    z -0.009200 0.013130 1.717960 
# 
# From -- ./inp_files/398897.got.cif
#   From: 2010.05.17/outbox.cif.g08.bks.cpg/sg2_200_cif.got.tgz:398897.got - 2010.06.03 11:33:40.
