data_PCOD9109110
_publ_section_title
;
Structure prediction by ZEFSAII (Michael W. Deem and Ramdas Pophale) SiO2 
 PCOD9109110
Probable space group: P -1
;
_chemical_formula_sum "Si O2"
_cell_formula_units_Z 16
_cell_length_a 10.299121
_cell_length_b 8.598196
_cell_length_c 22.273372
_cell_angle_alpha 40.859135
_cell_angle_beta 141.967964
_cell_angle_gamma 135.659571
_cell_volume 759.255407
_symmetry_space_group_name_H-M "P -1"
_symmetry_group_IT_number 2
_symmetry_cell_setting 'triclinic'
loop_
_space_group_symop_operation_xyz
x,y,z
-x,-y,-z
loop_
_atom_site_type_symbol
_atom_site_label
_atom_site_fract_x
_atom_site_fract_y
_atom_site_fract_z
Si Si1 0.291468 0.607152 0.604077
Si Si2 0.554705 0.734441 0.995709
Si Si3 0.839981 0.243840 0.936726
Si Si4 0.634823 0.977345 0.689292
Si Si5 0.884079 0.415353 0.581605
Si Si6 0.745706 0.877071 0.424804
Si Si7 0.701042 0.523300 0.917695
Si Si8 0.412834 0.118785 0.762495
O O1 0.190699 0.679682 0.485411
O O2 0.310687 0.331163 0.684295
O O3 0.132665 0.585746 0.610066
O O4 0.524547 0.802439 0.644497
O O5 0.791048 0.945926 0.014633
O O6 0.397073 0.900498 0.868234
O O7 0.500000 0.500000 0.000000
O O8 0.506462 0.634644 0.074234
O O9 0.747695 0.359475 0.927375
O O10 0.679554 0.250217 0.820668
O O11 0.093333 0.399289 0.983709
O O12 0.843089 0.194463 0.678343
O O13 0.444345 0.090415 0.610520
O O14 0.681189 0.782944 0.809690
O O15 0.734933 0.589563 0.495032
O O16 0.691199 0.975967 0.311483
O O17 0.000000 0.000000 0.500000
#
# Coordination Sequence:
#
# PCOD9109110 Si02
#       8
#     2   2   2   2   2   2   2   2
#     4  10  20  41  63  85 122 156 203 257 297 365
#     4  10  21  40  61  89 126 165 204 249 308 367
#     4   9  22  41  61  89 124 159 212 254 301 362
#     4  12  22  38  61  92 119 160 203 249 306 360
#     4  10  23  39  62  89 119 160 202 250 309 359
#     4  11  22  42  63  87 128 160 203 251 310 370
#     4  11  22  39  65  91 124 163 208 260 298 358
#     4   9  21  42  61  87 124 165 199 252 311 357
#
# _framework density 21.073278999999999
#
# number of rings (size 3 to 8) (size 9 to 14) (size 15 to 20)
#    0.750    1.000    2.500    1.875    0.000    3.500 
#    2.250    1.250    0.000    0.000    0.000    0.000 
#    0.000    0.000    0.000    0.000    0.000    0.000 
#
# Total GULP energy -89136.246338 kJ/mol
# GULP energy per Si atom -5571.015396 kJ/mol
# Density = 2.102532 g / cm^3
# Si number density = 21.073279 Si / 1000 Ang^3
#
#
#
# Elastic Constant Matrix: (Units=GPa)
#
#
# Indices 1 2 3 4 5 6 
#
# 1 39.6751 14.7587 0.5815 -15.3780 -0.7163 -2.2049
# 2 14.7587 66.0602 12.2252 2.7056 -0.0130 -1.0395
# 3 0.5815 12.2252 67.1651 -2.2413 -12.7047 2.0891
# 4 -15.3780 2.7056 -2.2413 47.8861 0.3957 1.2194
# 5 -0.7163 -0.0130 -12.7047 0.3957 26.1146 -6.3794
# 6 -2.2049 -1.0395 2.0891 1.2194 -6.3794 20.0145
#
#
#
# Elastic Compliance Matrix: (Units=1/GPa)
#
#
# Indices 1 2 3 4 5 6 
#
# 1 0.032613 -0.008037 0.001904 0.010918 0.002403 0.003077
# 2 -0.008037 0.017763 -0.003653 -0.003740 -0.001924 0.000033
# 3 0.001904 -0.003653 0.017188 0.001529 0.008603 0.000875
# 4 0.010918 -0.003740 0.001529 0.024680 0.000550 -0.000479
# 5 0.002403 -0.001924 0.008603 0.000550 0.045923 0.013871
# 6 0.003077 0.000033 0.000875 -0.000479 0.013871 0.054663
#
#
# Mechanical properties :
#
#
# Convention : Reuss Voigt Hill
#
# Bulk Modulus (GPa) = 20.83732 25.33678 23.08705
# Shear Modulus (GPa) = 21.89146 28.49205 25.19176
#
# Velocity S-wave (km/s) = 3.22658 3.68101 3.46126
# Velocity P-wave (km/s) = 4.87756 5.48778 5.19164
#
# Compressibility (1/GPa) = 0.04799082
#
# Stress axis : x y z
#
# Youngs Moduli (GPa) = 30.66298 56.29799 58.17907
#
# Poissons Ratio (x) = 0.45245 -0.11075
# Poissons Ratio (y) = 0.24643 0.21255
# Poissons Ratio (z) = -0.05837 0.20568
#
# Static dielectric constant tensor:
#      x y z
#    x 1.779890 -0.024660 0.015660 
#    y -0.024660 1.765230 0.018980 
#    z 0.015660 0.018980 1.779710 
# 
# From -- ./inp_files/617969.got.cif
#   From: 2010.05.17/outbox.cif.g08.bks.cpg/sg2_309_cif.got.tgz:617969.got - 2010.06.03 11:33:40.
