data_PCOD9109666
_publ_section_title
;
Structure prediction by ZEFSAII (Michael W. Deem and Ramdas Pophale) SiO2 
 PCOD9109666
Probable space group: P -1
;
_chemical_formula_sum "Si O2"
_cell_formula_units_Z 16
_cell_length_a 16.749276
_cell_length_b 9.746692
_cell_length_c 11.893308
_cell_angle_alpha 138.809851
_cell_angle_beta 32.899903
_cell_angle_gamma 117.133087
_cell_volume 604.888143
_symmetry_space_group_name_H-M "P -1"
_symmetry_group_IT_number 2
_symmetry_cell_setting 'triclinic'
loop_
_space_group_symop_operation_xyz
x,y,z
-x,-y,-z
loop_
_atom_site_type_symbol
_atom_site_label
_atom_site_fract_x
_atom_site_fract_y
_atom_site_fract_z
Si Si1 0.979354 0.728595 0.504699
Si Si2 0.594931 0.201278 0.920877
Si Si3 0.131963 0.794201 0.969771
Si Si4 0.229191 0.433539 0.214521
Si Si5 0.834141 0.095437 0.356145
Si Si6 0.427333 0.981835 0.456719
Si Si7 0.490365 0.383147 0.556869
Si Si8 0.226667 0.303145 0.475063
O O1 0.843431 0.730741 0.755140
O O2 0.918283 0.675846 0.426248
O O3 0.149677 0.534097 0.247064
O O4 0.958014 0.994962 0.700618
O O5 0.696210 0.165246 0.663949
O O6 0.694535 0.945767 0.706060
O O7 0.603208 0.397667 0.111935
O O8 0.395338 0.279725 0.198941
O O9 0.317881 0.755433 0.713674
O O10 0.160585 0.525945 0.777062
O O11 0.013126 0.900780 0.068690
O O12 0.160054 0.663852 0.518670
O O13 0.428461 0.288383 0.905791
O O14 0.752441 0.999431 0.305287
O O15 0.424245 0.191890 0.512768
O O16 0.500000 0.000000 0.500000
O O17 0.500000 0.500000 0.500000
#
# Coordination Sequence:
#
# PCOD9109666 Si02
#       8
#     2   2   2   2   2   2   2   2
#     4  10  20  41  66  95 132 174 224 286 331 411
#     4  10  23  42  67 100 133 183 227 278 349 414
#     4  10  23  42  68 105 131 179 230 283 344 412
#     4  10  22  41  64  91 132 177 222 271 352 407
#     4  11  25  44  66  99 143 173 225 297 349 406
#     4  12  26  42  69 102 137 181 232 286 351 416
#     4  11  24  46  74 101 140 184 238 282 339 425
#     4  10  22  40  70  96 133 178 233 273 345 413
#
# _framework density 26.451173000000001
#
# number of rings (size 3 to 8) (size 9 to 14) (size 15 to 20)
#    0.000    1.500    1.250    2.625    7.000    2.500 
#    0.000    5.625    0.000    0.000    0.000    0.000 
#    0.000    0.000    0.000    0.000    0.000    0.000 
#
# Total GULP energy -89530.664720 kJ/mol
# GULP energy per Si atom -5595.666545 kJ/mol
# Density = 2.639097 g / cm^3
# Si number density = 26.451173 Si / 1000 Ang^3
#
#
#
# Elastic Constant Matrix: (Units=GPa)
#
#
# Indices 1 2 3 4 5 6 
#
# 1 123.2982 50.4507 26.2859 1.2517 -16.0865 20.2655
# 2 50.4507 108.4298 56.3366 11.1043 -14.9547 15.2840
# 3 26.2859 56.3366 101.0647 26.0065 -14.0357 -0.6341
# 4 1.2517 11.1043 26.0065 48.2579 -3.6285 4.0024
# 5 -16.0865 -14.9547 -14.0357 -3.6285 42.3608 -7.3275
# 6 20.2655 15.2840 -0.6341 4.0024 -7.3275 43.5774
#
#
#
# Elastic Compliance Matrix: (Units=1/GPa)
#
#
# Indices 1 2 3 4 5 6 
#
# 1 0.010697 -0.004044 -0.000644 0.001427 0.001961 -0.003367
# 2 -0.004044 0.015745 -0.007918 0.001122 0.000852 -0.003717
# 3 -0.000644 -0.007918 0.016768 -0.007367 0.002654 0.004444
# 4 0.001427 0.001122 -0.007367 0.024683 0.000018 -0.003428
# 5 0.001961 0.000852 0.002654 0.000018 0.026089 0.003213
# 6 -0.003367 -0.003717 0.004444 -0.003428 0.003213 0.026737
#
#
# Mechanical properties :
#
#
# Convention : Reuss Voigt Hill
#
# Bulk Modulus (GPa) = 55.56259 66.54875 61.05567
# Shear Modulus (GPa) = 32.90991 40.15385 36.53188
#
# Velocity S-wave (km/s) = 3.53111 3.90043 3.72036
# Velocity P-wave (km/s) = 6.13811 6.74523 6.44882
#
# Compressibility (1/GPa) = 0.01799772
#
# Stress axis : x y z
#
# Youngs Moduli (GPa) = 93.48371 63.51334 59.63648
#
# Poissons Ratio (x) = 0.25682 0.03841
# Poissons Ratio (y) = 0.37800 0.47223
# Poissons Ratio (z) = 0.06022 0.50293
#
# Static dielectric constant tensor:
#      x y z
#    x 2.143770 0.041530 0.093820 
#    y 0.041530 2.148370 -0.004070 
#    z 0.093820 -0.004070 2.157280 
# 
# From -- ./inp_files/538482.got.cif
#   From: 2010.05.17/outbox.cif.g08.bks.cpg/sg2_270_cif.got.tgz:538482.got - 2010.06.03 11:33:40.
