data_PCOD9109847
_publ_section_title
;
Structure prediction by ZEFSAII (Michael W. Deem and Ramdas Pophale) SiO2 
 PCOD9109847
Probable space group: P -1
;
_chemical_formula_sum "Si O2"
_cell_formula_units_Z 15
_cell_length_a 8.324036
_cell_length_b 10.179588
_cell_length_c 9.536968
_cell_angle_alpha 114.905793
_cell_angle_beta 116.173752
_cell_angle_gamma 102.058840
_cell_volume 575.312519
_symmetry_space_group_name_H-M "P -1"
_symmetry_group_IT_number 2
_symmetry_cell_setting 'triclinic'
loop_
_space_group_symop_operation_xyz
x,y,z
-x,-y,-z
loop_
_atom_site_type_symbol
_atom_site_label
_atom_site_fract_x
_atom_site_fract_y
_atom_site_fract_z
Si Si1 0.267127 0.416725 0.823930
Si Si2 0.969833 0.170713 0.831876
Si Si3 0.443337 0.018654 0.749418
Si Si4 0.989181 0.889818 0.582129
Si Si5 0.846224 0.649649 0.732707
Si Si6 0.461265 0.710417 0.592060
Si Si7 0.500000 0.000000 0.500000
Si Si8 0.248859 0.713402 0.806405
O O1 0.221019 0.561401 0.824766
O O2 0.134966 0.305336 0.851898
O O3 0.192587 0.290294 0.606873
O O4 0.500000 0.500000 0.000000
O O5 0.749805 0.127062 0.672958
O O6 0.981174 0.000015 0.755562
O O7 0.022389 0.248322 0.039530
O O8 0.449852 0.114242 0.655626
O O9 0.219260 0.915078 0.678518
O O10 0.497829 0.887924 0.627008
O O11 0.603012 0.122571 0.974707
O O12 0.000000 0.000000 0.500000
O O13 0.667551 0.698368 0.662687
O O14 0.717377 0.452273 0.620068
O O15 0.017733 0.685849 0.696314
O O16 0.375867 0.709088 0.716406
#
# Coordination Sequence:
#
# PCOD9109847 Si02
#       8
#     2   2   2   2   2   2   1   2
#     4  11  23  39  72 108 140 188 230 296 361 415
#     4  11  24  46  71 107 146 180 235 294 356 429
#     4  12  24  46  72 101 141 190 234 292 354 423
#     4  10  20  41  67  97 142 180 226 282 349 423
#     4  11  25  47  71 102 138 185 241 293 350 421
#     4  11  27  50  68  99 145 187 242 295 344 422
#     4  12  24  44  70 110 142 180 230 296 358 430
#     4  12  25  46  71 102 141 189 242 286 356 421
#
# _framework density 26.072783999999999
#
# number of rings (size 3 to 8) (size 9 to 14) (size 15 to 20)
#    0.000    0.800    4.000    4.800    0.000    2.133 
#    7.200    0.000    0.000    0.000    0.000    0.000 
#    0.000    0.000    0.000    0.000    0.000    0.000 
#
# Total GULP energy -83865.599370 kJ/mol
# GULP energy per Si atom -5591.039958 kJ/mol
# Density = 2.601344 g / cm^3
# Si number density = 26.072784 Si / 1000 Ang^3
#
#
#
# Elastic Constant Matrix: (Units=GPa)
#
#
# Indices 1 2 3 4 5 6 
#
# 1 197.4937 57.2962 62.2465 9.1540 38.4591 5.9093
# 2 57.2962 73.2726 35.2100 25.4144 9.4622 -3.3792
# 3 62.2465 35.2100 199.5569 13.9562 24.4412 -5.5899
# 4 9.1540 25.4144 13.9562 40.0003 2.3054 -3.4069
# 5 38.4591 9.4622 24.4412 2.3054 57.9206 -0.6664
# 6 5.9093 -3.3792 -5.5899 -3.4069 -0.6664 51.0521
#
#
#
# Elastic Compliance Matrix: (Units=1/GPa)
#
#
# Indices 1 2 3 4 5 6 
#
# 1 0.007842 -0.006037 -0.001122 0.002543 -0.003864 -0.001311
# 2 -0.006037 0.023467 -0.001478 -0.012984 0.001329 0.001241
# 3 -0.001122 -0.001478 0.005867 -0.000716 -0.001454 0.000608
# 4 0.002543 -0.012984 -0.000716 0.033032 -0.000569 0.000965
# 5 -0.003864 0.001329 -0.001454 -0.000569 0.020256 0.000602
# 6 -0.001311 0.001241 0.000608 0.000965 0.000602 0.019961
#
#
# Mechanical properties :
#
#
# Convention : Reuss Voigt Hill
#
# Bulk Modulus (GPa) = 50.24342 86.64760 68.44551
# Shear Modulus (GPa) = 37.22094 50.83265 44.02680
#
# Velocity S-wave (km/s) = 3.78243 4.42027 4.11373
# Velocity P-wave (km/s) = 6.19580 7.70434 6.99088
#
# Compressibility (1/GPa) = 0.01990310
#
# Stress axis : x y z
#
# Youngs Moduli (GPa) = 127.51325 42.61278 170.44349
#
# Poissons Ratio (x) = 0.25724 0.19132
# Poissons Ratio (y) = 0.76976 0.25184
# Poissons Ratio (z) = 0.14313 0.06296
#
# Static dielectric constant tensor:
#      x y z
#    x 2.123420 0.084980 -0.115620 
#    y 0.084980 2.610100 -0.188030 
#    z -0.115620 -0.188030 2.037610 
# 
# From -- ./inp_files/393207.got.cif
#   From: 2010.05.17/outbox.cif.g08.bks.cpg/sg2_197_cif.got.tgz:393207.got - 2010.06.03 11:33:40.
