data_PCOD9109095
_publ_section_title
;
Structure prediction by ZEFSAII (Michael W. Deem and Ramdas Pophale) SiO2 
 PCOD9109095
Probable space group: P -1
;
_chemical_formula_sum "Si O2"
_cell_formula_units_Z 15
_cell_length_a 8.547507
_cell_length_b 8.272039
_cell_length_c 12.923399
_cell_angle_alpha 127.220896
_cell_angle_beta 76.346262
_cell_angle_gamma 110.032149
_cell_volume 683.100334
_symmetry_space_group_name_H-M "P -1"
_symmetry_group_IT_number 2
_symmetry_cell_setting 'triclinic'
loop_
_space_group_symop_operation_xyz
x,y,z
-x,-y,-z
loop_
_atom_site_type_symbol
_atom_site_label
_atom_site_fract_x
_atom_site_fract_y
_atom_site_fract_z
Si Si1 0.000000 0.500000 0.500000
Si Si2 0.872972 0.165106 0.842190
Si Si3 0.811450 0.521796 0.125091
Si Si4 0.618734 0.239066 0.420237
Si Si5 0.463007 0.819682 0.192450
Si Si6 0.296726 0.342181 0.027661
Si Si7 0.148487 0.258332 0.222346
Si Si8 0.524760 0.456786 0.313069
O O1 0.189576 0.656902 0.544553
O O2 0.056740 0.418945 0.347735
O O3 0.700090 0.107521 0.785219
O O4 0.014410 0.317764 0.810133
O O5 0.923434 0.961859 0.794585
O O6 0.842167 0.302154 0.998178
O O7 0.668452 0.494844 0.220347
O O8 0.764105 0.618169 0.061893
O O9 0.578708 0.331363 0.351545
O O10 0.506248 0.327897 0.553408
O O11 0.568742 0.987701 0.319921
O O12 0.393406 0.576289 0.142515
O O13 0.575587 0.800117 0.067124
O O14 0.152818 0.248677 0.094619
O O15 0.345261 0.326790 0.248528
#
# Coordination Sequence:
#
# PCOD9109095 Si02
#       8
#     1   2   2   2   2   2   2   2
#     4  10  26  42  60  94 132 152 218 266 314 360
#     4  10  22  38  65  91 130 161 217 251 324 364
#     4  10  23  42  61  99 130 165 203 276 302 379
#     4  10  22  41  66  93 122 172 211 262 312 382
#     4  10  20  41  62  96 125 168 205 265 311 382
#     4  10  23  39  64  95 134 159 214 256 322 366
#     4  11  22  43  64  92 125 175 206 265 305 386
#     4  10  21  41  67  89 125 165 220 251 313 379
#
# _framework density 21.958707
#
# number of rings (size 3 to 8) (size 9 to 14) (size 15 to 20)
#    0.000    1.867    1.333    2.400    3.733    4.800 
#    2.400    2.667    0.000    0.000    0.000    0.000 
#    0.000    0.000    0.000    0.000    0.000    0.000 
#
# Total GULP energy -83554.893961 kJ/mol
# GULP energy per Si atom -5570.326264 kJ/mol
# Density = 2.190873 g / cm^3
# Si number density = 21.958707 Si / 1000 Ang^3
#
#
#
# Elastic Constant Matrix: (Units=GPa)
#
#
# Indices 1 2 3 4 5 6 
#
# 1 52.7181 7.5256 17.3109 -0.1395 -1.5667 19.8190
# 2 7.5256 34.6838 25.5278 4.2839 0.9942 15.4865
# 3 17.3109 25.5278 53.5360 1.2870 -3.1199 19.5432
# 4 -0.1395 4.2839 1.2870 37.5335 14.2603 -0.8241
# 5 -1.5667 0.9942 -3.1199 14.2603 28.4102 -7.8376
# 6 19.8190 15.4865 19.5432 -0.8241 -7.8376 32.7259
#
#
#
# Elastic Compliance Matrix: (Units=1/GPa)
#
#
# Indices 1 2 3 4 5 6 
#
# 1 0.025866 0.005555 -0.005423 0.000910 -0.004248 -0.016049
# 2 0.005555 0.050499 -0.019986 -0.002786 -0.006965 -0.017064
# 3 -0.005423 -0.019986 0.032277 0.000189 0.002194 -0.006003
# 4 0.000910 -0.002786 0.000189 0.033504 -0.017384 -0.002665
# 5 -0.004248 -0.006965 0.002194 -0.017384 0.048517 0.015740
# 6 -0.016049 -0.017064 -0.006003 -0.002665 0.015740 0.055639
#
#
# Mechanical properties :
#
#
# Convention : Reuss Voigt Hill
#
# Bulk Modulus (GPa) = 14.50651 26.85184 20.67917
# Shear Modulus (GPa) = 16.18177 25.77214 20.97696
#
# Velocity S-wave (km/s) = 2.71757 3.42959 3.09413
# Velocity P-wave (km/s) = 4.05802 5.28561 4.71196
#
# Compressibility (1/GPa) = 0.06893459
#
# Stress axis : x y z
#
# Youngs Moduli (GPa) = 38.66018 19.80220 30.98162
#
# Poissons Ratio (x) = -0.10999 0.16802
# Poissons Ratio (y) = -0.21474 0.61918
# Poissons Ratio (z) = 0.20966 0.39576
#
# Static dielectric constant tensor:
#      x y z
#    x 1.864160 -0.009970 0.019220 
#    y -0.009970 1.799460 0.019150 
#    z 0.019220 0.019150 1.799860 
# 
# From -- ./inp_files/383490.got.cif
#   From: 2010.05.17/outbox.cif.g08.bks.cpg/sg2_192_cif.got.tgz:383490.got - 2010.06.03 11:33:40.
