data_PCOD9109049
_publ_section_title
;
Structure prediction by ZEFSAII (Michael W. Deem and Ramdas Pophale) SiO2 
 PCOD9109049
Probable space group: P -1
;
_chemical_formula_sum "Si O2"
_cell_formula_units_Z 16
_cell_length_a 16.018456
_cell_length_b 12.614747
_cell_length_c 16.146466
_cell_angle_alpha 26.991012
_cell_angle_beta 35.800661
_cell_angle_gamma 37.262757
_cell_volume 832.674812
_symmetry_space_group_name_H-M "P -1"
_symmetry_group_IT_number 2
_symmetry_cell_setting 'triclinic'
loop_
_space_group_symop_operation_xyz
x,y,z
-x,-y,-z
loop_
_atom_site_type_symbol
_atom_site_label
_atom_site_fract_x
_atom_site_fract_y
_atom_site_fract_z
Si Si1 0.658506 0.276045 0.170142
Si Si2 0.380992 0.505691 0.321749
Si Si3 0.307262 0.070870 0.765208
Si Si4 0.409923 0.175755 0.019468
Si Si5 0.163971 0.013039 0.086266
Si Si6 0.377373 0.177480 0.230903
Si Si7 0.176328 0.410112 0.925503
Si Si8 0.816466 0.123571 0.325448
O O1 0.481917 0.328192 0.295572
O O2 0.746195 0.210762 0.231365
O O3 0.714866 0.064485 0.206288
O O4 0.668995 0.532051 0.945877
O O5 0.314027 0.341312 0.549592
O O6 0.261475 0.740591 0.218712
O O7 0.503546 0.616848 0.188509
O O8 0.467783 0.921511 0.776516
O O9 0.187482 0.063785 0.936248
O O10 0.406661 0.077887 0.182549
O O11 0.243474 0.272079 0.051688
O O12 0.500000 0.000000 0.000000
O O13 0.993849 0.044674 0.225945
O O14 0.221844 0.213189 0.952658
O O15 0.252794 0.084357 0.441429
O O16 0.224336 0.657971 0.725574
O O17 0.000000 0.500000 0.000000
#
# Coordination Sequence:
#
# PCOD9109049 Si02
#       8
#     2   2   2   2   2   2   2   2
#     4  11  23  41  69  90 126 164 216 266 301 385
#     4  11  22  39  63  94 124 163 209 264 306 372
#     4  12  23  40  68  95 120 170 217 253 323 361
#     4  11  19  38  65  94 127 156 210 263 304 363
#     4  11  25  42  61  95 133 160 206 272 308 370
#     4  11  22  39  68  94 121 170 209 256 316 373
#     4  10  20  41  62  86 131 164 195 259 311 368
#     4  11  24  43  63  94 130 167 211 253 321 376
#
# _framework density 19.215184000000001
#
# number of rings (size 3 to 8) (size 9 to 14) (size 15 to 20)
#    0.000    1.000    7.500    0.750    0.000    2.500 
#    0.000    5.000    0.000    0.000    0.000    0.000 
#    0.000    0.000    0.000    0.000    0.000    0.000 
#
# Total GULP energy -89224.167158 kJ/mol
# GULP energy per Si atom -5576.510447 kJ/mol
# Density = 1.917145 g / cm^3
# Si number density = 19.215184 Si / 1000 Ang^3
#
#
#
# Elastic Constant Matrix: (Units=GPa)
#
#
# Indices 1 2 3 4 5 6 
#
# 1 71.8800 27.3170 24.2245 -2.3146 6.7794 3.9610
# 2 27.3170 69.1054 24.2720 2.5376 3.2848 4.9075
# 3 24.2245 24.2720 121.8162 -0.5813 4.4066 -3.2122
# 4 -2.3146 2.5376 -0.5813 22.5522 -9.0957 0.6341
# 5 6.7794 3.2848 4.4066 -9.0957 14.9475 -0.1382
# 6 3.9610 4.9075 -3.2122 0.6341 -0.1382 36.3350
#
#
#
# Elastic Compliance Matrix: (Units=1/GPa)
#
#
# Indices 1 2 3 4 5 6 
#
# 1 0.017470 -0.005771 -0.002141 -0.000013 -0.006044 -0.001337
# 2 -0.005771 0.018018 -0.002405 -0.003829 -0.002981 -0.001962
# 3 -0.002141 -0.002405 0.009199 -0.000311 -0.001389 0.001372
# 4 -0.000013 -0.003829 -0.000311 0.059837 0.037347 -0.000411
# 5 -0.006044 -0.002981 -0.001389 0.037347 0.093439 0.000642
# 6 -0.001337 -0.001962 0.001372 -0.000411 0.000642 0.028063
#
#
# Mechanical properties :
#
#
# Convention : Reuss Voigt Hill
#
# Bulk Modulus (GPa) = 41.57345 46.04764 43.81055
# Shear Modulus (GPa) = 19.63262 27.23282 23.43272
#
# Velocity S-wave (km/s) = 3.19991 3.76873 3.49591
# Velocity P-wave (km/s) = 5.94435 6.55393 6.25657
#
# Compressibility (1/GPa) = 0.02405381
#
# Stress axis : x y z
#
# Youngs Moduli (GPa) = 57.24042 55.49958 108.70898
#
# Poissons Ratio (x) = 0.32030 0.23273
# Poissons Ratio (y) = 0.33035 0.26140
# Poissons Ratio (z) = 0.12255 0.13346
#
# Static dielectric constant tensor:
#      x y z
#    x 1.677500 0.012560 -0.010130 
#    y 0.012560 1.720340 -0.019180 
#    z -0.010130 -0.019180 1.650520 
# 
# From -- ./inp_files/457682.got.cif
#   From: 2010.05.17/outbox.cif.g08.bks.cpg/sg2_229_cif.got.tgz:457682.got - 2010.06.03 11:33:40.
