data_PCOD9109791
_publ_section_title
;
Structure prediction by ZEFSAII (Michael W. Deem and Ramdas Pophale) SiO2 
 PCOD9109791
Probable space group: P -1
;
_chemical_formula_sum "Si O2"
_cell_formula_units_Z 14
_cell_length_a 11.397043
_cell_length_b 6.854391
_cell_length_c 16.387153
_cell_angle_alpha 136.077195
_cell_angle_beta 47.772026
_cell_angle_gamma 132.878597
_cell_volume 607.622474
_symmetry_space_group_name_H-M "P -1"
_symmetry_group_IT_number 2
_symmetry_cell_setting 'triclinic'
loop_
_space_group_symop_operation_xyz
x,y,z
-x,-y,-z
loop_
_atom_site_type_symbol
_atom_site_label
_atom_site_fract_x
_atom_site_fract_y
_atom_site_fract_z
Si Si1 0.692731 0.203011 0.983843
Si Si2 0.861405 0.772310 0.784974
Si Si3 0.138677 0.402731 0.855162
Si Si4 0.586790 0.253601 0.469817
Si Si5 0.572088 0.238831 0.288909
Si Si6 0.211527 0.801830 0.245309
Si Si7 0.869623 0.645011 0.569960
O O1 0.784401 0.278737 0.876110
O O2 0.756026 0.961444 0.927685
O O3 0.716977 0.503510 0.113948
O O4 0.500000 0.000000 0.000000
O O5 0.861525 0.500591 0.758360
O O6 0.772475 0.639820 0.699813
O O7 0.046604 0.050189 0.768622
O O8 0.242665 0.624406 0.800813
O O9 0.000000 0.500000 0.000000
O O10 0.587134 0.136088 0.342933
O O11 0.479890 0.470340 0.588018
O O12 0.770265 0.449820 0.481744
O O13 0.500000 0.000000 0.500000
O O14 0.407864 0.997771 0.244148
O O15 0.097397 0.008752 0.367607
O O16 0.000000 0.500000 0.500000
#
# Coordination Sequence:
#
# PCOD9109791 Si02
#       7
#     2   2   2   2   2   2   2
#     4  10  20  41  67  92 132 176 225 277 333 398
#     4  10  23  41  63  96 136 172 227 280 338 406
#     4  10  22  43  65  97 142 176 222 279 336 403
#     4  10  22  41  69  97 127 178 232 279 331 401
#     4  10  21  42  69  97 135 176 228 277 334 410
#     4  10  21  42  69  98 128 179 232 277 336 408
#     4  10  23  43  63  95 135 173 216 284 345 404
#
# _framework density 23.040623
#
# number of rings (size 3 to 8) (size 9 to 14) (size 15 to 20)
#    0.000    2.000    1.429    0.857    2.000    1.714 
#    7.714    0.000    0.000    0.000    0.000    0.000 
#    0.000    0.000    0.000    0.000    0.000    0.000 
#
# Total GULP energy -77978.699527 kJ/mol
# GULP energy per Si atom -5569.907109 kJ/mol
# Density = 2.298818 g / cm^3
# Si number density = 23.040623 Si / 1000 Ang^3
#
#
#
# Elastic Constant Matrix: (Units=GPa)
#
#
# Indices 1 2 3 4 5 6 
#
# 1 89.9077 52.0774 30.0112 6.8944 8.6159 -16.3878
# 2 52.0774 149.4888 39.1704 -4.6707 5.9867 -19.1867
# 3 30.0112 39.1704 70.4893 -12.1516 13.3662 -9.0288
# 4 6.8944 -4.6707 -12.1516 32.2920 -4.3053 1.2122
# 5 8.6159 5.9867 13.3662 -4.3053 44.8317 -3.5402
# 6 -16.3878 -19.1867 -9.0288 1.2122 -3.5402 40.8612
#
#
#
# Elastic Compliance Matrix: (Units=1/GPa)
#
#
# Indices 1 2 3 4 5 6 
#
# 1 0.016474 -0.004076 -0.005110 -0.006356 -0.001422 0.003630
# 2 -0.004076 0.009175 -0.003058 0.001068 0.000733 0.002030
# 3 -0.005110 -0.003058 0.020174 0.007711 -0.003851 0.000410
# 4 -0.006356 0.001068 0.007711 0.035708 0.002113 -0.001220
# 5 -0.001422 0.000733 -0.003851 0.002113 0.023906 0.000931
# 6 0.003630 0.002030 0.000410 -0.001220 0.000931 0.027089
#
#
# Mechanical properties :
#
#
# Convention : Reuss Voigt Hill
#
# Bulk Modulus (GPa) = 46.87160 61.37818 54.12489
# Shear Modulus (GPa) = 30.46429 36.17210 33.31819
#
# Velocity S-wave (km/s) = 3.64015 3.96653 3.80684
# Velocity P-wave (km/s) = 6.16886 6.90469 6.54712
#
# Compressibility (1/GPa) = 0.02133488
#
# Stress axis : x y z
#
# Youngs Moduli (GPa) = 60.70004 108.98890 49.56947
#
# Poissons Ratio (x) = 0.44424 0.25331
# Poissons Ratio (y) = 0.24741 0.15159
# Poissons Ratio (z) = 0.31019 0.33330
#
# Static dielectric constant tensor:
#      x y z
#    x 2.065140 0.068830 0.017500 
#    y 0.068830 1.854290 0.035220 
#    z 0.017500 0.035220 1.985100 
# 
# From -- ./inp_files/510630.got.cif
#   From: 2010.05.17/outbox.cif.g08.bks.cpg/sg2_256_cif.got.tgz:510630.got - 2010.06.03 11:33:40.
