data_PCOD9109307
_publ_section_title
;
Structure prediction by ZEFSAII (Michael W. Deem and Ramdas Pophale) SiO2 
 PCOD9109307
Probable space group: P -1
;
_chemical_formula_sum "Si O2"
_cell_formula_units_Z 15
_cell_length_a 6.264310
_cell_length_b 21.393159
_cell_length_c 7.398474
_cell_angle_alpha 120.815945
_cell_angle_beta 122.141403
_cell_angle_gamma 95.690841
_cell_volume 619.702927
_symmetry_space_group_name_H-M "P -1"
_symmetry_group_IT_number 2
_symmetry_cell_setting 'triclinic'
loop_
_space_group_symop_operation_xyz
x,y,z
-x,-y,-z
loop_
_atom_site_type_symbol
_atom_site_label
_atom_site_fract_x
_atom_site_fract_y
_atom_site_fract_z
Si Si1 0.763934 0.728068 0.961983
Si Si2 0.839986 0.053322 0.015775
Si Si3 0.716940 0.106642 0.406955
Si Si4 0.512100 0.674381 0.156497
Si Si5 0.371052 0.197226 0.303837
Si Si6 0.000000 0.500000 0.500000
Si Si7 0.820024 0.577088 0.212752
Si Si8 0.858085 0.573180 0.797059
O O1 0.058741 0.818819 0.254574
O O2 0.603999 0.709598 0.052713
O O3 0.831164 0.653189 0.849891
O O4 0.579796 0.740744 0.744998
O O5 0.499893 0.983249 0.729111
O O6 0.870503 0.088108 0.283895
O O7 0.025934 0.133207 0.090128
O O8 0.000000 0.000000 0.000000
O O9 0.525359 0.142209 0.278018
O O10 0.498287 0.741890 0.375707
O O11 0.761474 0.655427 0.309732
O O12 0.183311 0.590305 0.882636
O O13 0.010717 0.568108 0.439583
O O14 0.304941 0.503427 0.531529
O O15 0.500000 0.500000 0.000000
O O16 0.894871 0.570238 0.024916
#
# Coordination Sequence:
#
# PCOD9109307 Si02
#       8
#     2   2   2   2   2   1   2   2
#     4  11  24  41  66  97 127 174 218 261 322 384
#     4   9  20  39  66  94 130 173 206 269 321 365
#     4  10  20  41  64  93 134 164 218 268 309 381
#     4  11  23  44  63  94 134 165 212 275 314 383
#     4  11  22  40  66  92 130 172 214 263 323 375
#     4  12  24  44  70  94 128 172 212 266 326 386
#     4  11  25  45  66  95 129 166 214 268 322 385
#     4  11  25  45  66  97 131 169 217 267 325 382
#
# _framework density 24.205145000000002
#
# number of rings (size 3 to 8) (size 9 to 14) (size 15 to 20)
#    0.000    1.333    4.000    1.200    0.000    3.200 
#    0.000    6.000    0.000    0.000    0.000    0.000 
#    0.000    0.000    0.000    0.000    0.000    0.000 
#
# Total GULP energy -83712.983612 kJ/mol
# GULP energy per Si atom -5580.865574 kJ/mol
# Density = 2.415005 g / cm^3
# Si number density = 24.205145 Si / 1000 Ang^3
#
#
#
# Elastic Constant Matrix: (Units=GPa)
#
#
# Indices 1 2 3 4 5 6 
#
# 1 44.9894 25.0157 37.9889 -17.8163 -32.8175 -17.9312
# 2 25.0157 109.8481 49.0181 -15.3425 -10.6821 0.7827
# 3 37.9889 49.0181 96.2780 0.7210 -15.1510 -14.4783
# 4 -17.8163 -15.3425 0.7210 51.7462 3.4013 -0.5694
# 5 -32.8175 -10.6821 -15.1510 3.4013 48.3198 10.2765
# 6 -17.9312 0.7827 -14.4783 -0.5694 10.2765 32.5744
#
#
#
# Elastic Compliance Matrix: (Units=1/GPa)
#
#
# Indices 1 2 3 4 5 6 
#
# 1 0.139894 -0.002492 -0.037180 0.043672 0.071487 0.038753
# 2 -0.002492 0.012925 -0.006295 0.003019 -0.000086 -0.004400
# 3 -0.037180 -0.006295 0.025091 -0.013949 -0.016929 -0.004066
# 4 0.043672 0.003019 -0.013949 0.034196 0.021054 0.011723
# 5 0.071487 -0.000086 -0.016929 0.021054 0.059589 0.013398
# 6 0.038753 -0.004400 -0.004066 0.011723 0.013398 0.046307
#
#
# Mechanical properties :
#
#
# Convention : Reuss Voigt Hill
#
# Bulk Modulus (GPa) = 11.63112 52.79568 32.21340
# Shear Modulus (GPa) = 11.40007 35.80092 23.60050
#
# Velocity S-wave (km/s) = 2.17256 3.85003 3.12592
# Velocity P-wave (km/s) = 3.33301 6.45157 5.13477
#
# Compressibility (1/GPa) = 0.08597627
#
# Stress axis : x y z
#
# Youngs Moduli (GPa) = 7.14827 77.37135 39.85545
#
# Poissons Ratio (x) = 0.19280 1.48181
# Poissons Ratio (y) = 0.01781 0.25089
# Poissons Ratio (z) = 0.26577 0.48705
#
# Static dielectric constant tensor:
#      x y z
#    x 2.269860 0.100060 0.053930 
#    y 0.100060 1.927500 0.061490 
#    z 0.053930 0.061490 1.986630 
# 
# From -- ./inp_files/9731.got.cif
#   From: 2010.05.17/outbox.cif.g08.bks.cpg/sg2_5_cif.got.tgz:9731.got - 2010.06.03 11:33:40.
