data_PCOD9109901
_publ_section_title
;
Structure prediction by ZEFSAII (Michael W. Deem and Ramdas Pophale) SiO2 
 PCOD9109901
Probable space group: P -1
;
_chemical_formula_sum "Si O2"
_cell_formula_units_Z 16
_cell_length_a 14.184396
_cell_length_b 8.175311
_cell_length_c 14.720270
_cell_angle_alpha 85.111586
_cell_angle_beta 48.748417
_cell_angle_gamma 124.318345
_cell_volume 717.661824
_symmetry_space_group_name_H-M "P -1"
_symmetry_group_IT_number 2
_symmetry_cell_setting 'triclinic'
loop_
_space_group_symop_operation_xyz
x,y,z
-x,-y,-z
loop_
_atom_site_type_symbol
_atom_site_label
_atom_site_fract_x
_atom_site_fract_y
_atom_site_fract_z
Si Si1 0.454942 0.375093 0.262915
Si Si2 0.215553 0.274934 0.137578
Si Si3 0.377239 0.555361 0.649973
Si Si4 0.250896 0.827120 0.342495
Si Si5 0.032111 0.720715 0.993808
Si Si6 0.382810 0.115215 0.061286
Si Si7 0.484953 0.198835 0.791099
Si Si8 0.828173 0.976183 0.289927
O O1 0.559308 0.450501 0.291413
O O2 0.375483 0.479186 0.310177
O O3 0.292286 0.048055 0.354305
O O4 0.642992 0.577234 0.054026
O O5 0.209388 0.079756 0.182678
O O6 0.371775 0.541202 0.095133
O O7 0.985794 0.115632 0.269015
O O8 0.619445 0.871688 0.443616
O O9 0.280298 0.314769 0.654505
O O10 0.170533 0.449542 0.804262
O O11 0.377884 0.817727 0.314941
O O12 0.000000 0.500000 0.500000
O O13 0.346615 0.952068 0.173614
O O14 0.000000 0.500000 0.000000
O O15 0.276528 0.007336 0.867319
O O16 0.028532 0.816058 0.897577
O O17 0.374807 0.048058 0.967031
#
# Coordination Sequence:
#
# PCOD9109901 Si02
#       8
#     2   2   2   2   2   2   2   2
#     4  10  20  41  68  88 133 179 215 274 337 398
#     4   9  18  37  68  97 123 173 225 272 331 397
#     4  11  22  41  66 100 132 174 227 270 335 408
#     4  11  25  42  61  97 134 168 221 283 331 395
#     4  12  25  44  68  98 141 178 221 280 336 402
#     4   9  20  39  65  92 127 173 221 268 332 401
#     4  11  23  42  68  93 126 180 222 269 339 400
#     4  11  23  39  70 102 132 173 224 280 331 404
#
# _framework density 22.294625
#
# number of rings (size 3 to 8) (size 9 to 14) (size 15 to 20)
#    0.000    1.500    2.500    3.750    1.750    3.000 
#    4.500    0.000    0.000    0.000    0.000    0.000 
#    0.000    0.000    0.000    0.000    0.000    0.000 
#
# Total GULP energy -89343.996839 kJ/mol
# GULP energy per Si atom -5583.999802 kJ/mol
# Density = 2.224388 g / cm^3
# Si number density = 22.294625 Si / 1000 Ang^3
#
#
#
# Elastic Constant Matrix: (Units=GPa)
#
#
# Indices 1 2 3 4 5 6 
#
# 1 94.0328 39.4873 15.4434 -10.9398 -21.1477 6.3121
# 2 39.4873 73.1588 24.4385 -12.5521 -8.3124 -14.4033
# 3 15.4434 24.4385 63.5938 -0.4617 -28.9105 -14.1703
# 4 -10.9398 -12.5521 -0.4617 20.4228 4.9293 4.4437
# 5 -21.1477 -8.3124 -28.9105 4.9293 32.6002 7.9522
# 6 6.3121 -14.4033 -14.1703 4.4437 7.9522 36.9038
#
#
#
# Elastic Compliance Matrix: (Units=1/GPa)
#
#
# Indices 1 2 3 4 5 6 
#
# 1 0.019216 -0.011916 0.005101 0.001289 0.016098 -0.009603
# 2 -0.011916 0.026171 -0.012143 0.011155 -0.015870 0.009666
# 3 0.005101 -0.012143 0.033874 -0.012030 0.031574 0.002040
# 4 0.001289 0.011155 -0.012030 0.060872 -0.015078 -0.004567
# 5 0.016098 -0.015870 0.031574 -0.015078 0.069802 -0.010049
# 6 -0.009603 0.009666 0.002040 -0.004567 -0.010049 0.036011
#
#
# Mechanical properties :
#
#
# Convention : Reuss Voigt Hill
#
# Bulk Modulus (GPa) = 24.18813 43.28040 33.73426
# Shear Modulus (GPa) = 16.79862 28.07979 22.43921
#
# Velocity S-wave (km/s) = 2.74794 3.55278 3.17596
# Velocity P-wave (km/s) = 4.57615 6.02368 5.34910
#
# Compressibility (1/GPa) = 0.04134260
#
# Stress axis : x y z
#
# Youngs Moduli (GPa) = 52.04123 38.21096 29.52133
#
# Poissons Ratio (x) = 0.45531 -0.15057
# Poissons Ratio (y) = 0.62011 0.35849
# Poissons Ratio (z) = -0.26544 0.46401
#
# Static dielectric constant tensor:
#      x y z
#    x 1.806240 -0.033100 -0.027060 
#    y -0.033100 1.816800 0.025460 
#    z -0.027060 0.025460 1.889800 
# 
# From -- ./inp_files/529777.got.cif
#   From: 2010.05.17/outbox.cif.g08.bks.cpg/sg2_265_cif.got.tgz:529777.got - 2010.06.03 11:33:40.
