data_PCOD9109823
_publ_section_title
;
Structure prediction by ZEFSAII (Michael W. Deem and Ramdas Pophale) SiO2 
 PCOD9109823
Probable space group: P -1
;
_chemical_formula_sum "Si O2"
_cell_formula_units_Z 16
_cell_length_a 14.393552
_cell_length_b 9.677464
_cell_length_c 11.217450
_cell_angle_alpha 107.162116
_cell_angle_beta 29.422613
_cell_angle_gamma 96.147756
_cell_volume 694.984137
_symmetry_space_group_name_H-M "P -1"
_symmetry_group_IT_number 2
_symmetry_cell_setting 'triclinic'
loop_
_space_group_symop_operation_xyz
x,y,z
-x,-y,-z
loop_
_atom_site_type_symbol
_atom_site_label
_atom_site_fract_x
_atom_site_fract_y
_atom_site_fract_z
Si Si1 0.418982 0.231988 0.314127
Si Si2 0.876203 0.928430 0.345084
Si Si3 0.287358 0.427506 0.739719
Si Si4 0.946615 0.303049 0.108579
Si Si5 0.597384 0.474565 0.122914
Si Si6 0.945790 0.349636 0.550095
Si Si7 0.842692 0.985550 0.771715
Si Si8 0.685200 0.268436 0.615537
O O1 0.223638 0.182002 0.501269
O O2 0.401302 0.292601 0.486777
O O3 0.449336 0.374317 0.245867
O O4 0.618152 0.092198 0.032149
O O5 0.707987 0.092898 0.566054
O O6 0.066312 0.958153 0.199474
O O7 0.943867 0.851847 0.122968
O O8 0.176225 0.575576 0.822093
O O9 0.411003 0.468369 0.717723
O O10 0.115811 0.373119 0.980171
O O11 0.813386 0.277971 0.357414
O O12 0.530758 0.616561 0.144252
O O13 0.822228 0.372430 0.817233
O O14 0.787479 0.324868 0.625371
O O15 0.000000 0.500000 0.500000
O O16 0.128813 0.193500 0.300533
O O17 0.000000 0.000000 0.500000
#
# Coordination Sequence:
#
# PCOD9109823 Si02
#       8
#     2   2   2   2   2   2   2   2
#     4  11  23  43  67  99 127 167 220 270 320 382
#     4  10  25  42  64  96 137 168 213 270 328 386
#     4  10  22  39  69 102 123 169 220 272 318 380
#     4  10  20  41  67  95 132 169 217 266 327 380
#     4  12  23  41  68  96 131 169 221 264 324 384
#     4  11  26  45  65  93 132 174 216 265 325 392
#     4  11  24  44  66  95 126 173 219 265 321 384
#     4  11  24  42  63  96 133 173 209 267 330 388
#
# _framework density 23.022106000000001
#
# number of rings (size 3 to 8) (size 9 to 14) (size 15 to 20)
#    0.000    1.250    2.500    2.625    3.500    1.500 
#    0.000    1.250    0.000    0.000    0.000    0.000 
#    0.000    0.000    0.000    0.000    0.000    0.000 
#
# Total GULP energy -89498.665718 kJ/mol
# GULP energy per Si atom -5593.666607 kJ/mol
# Density = 2.296971 g / cm^3
# Si number density = 23.022106 Si / 1000 Ang^3
#
#
#
# Elastic Constant Matrix: (Units=GPa)
#
#
# Indices 1 2 3 4 5 6 
#
# 1 38.7397 10.2877 4.4447 18.2261 6.4629 4.0350
# 2 10.2877 112.7591 17.4483 6.0385 5.9896 21.4313
# 3 4.4447 17.4483 76.7932 11.9531 -0.2971 11.1929
# 4 18.2261 6.0385 11.9531 43.4379 -3.5677 1.1695
# 5 6.4629 5.9896 -0.2971 -3.5677 24.7931 3.7540
# 6 4.0350 21.4313 11.1929 1.1695 3.7540 24.0736
#
#
#
# Elastic Compliance Matrix: (Units=1/GPa)
#
#
# Indices 1 2 3 4 5 6 
#
# 1 0.035622 -0.001483 0.001096 -0.015855 -0.010786 -0.002708
# 2 -0.001483 0.010916 -0.001044 -0.000453 -0.000995 -0.008807
# 3 0.001096 -0.001044 0.014715 -0.004167 0.000446 -0.005963
# 4 -0.015855 -0.000453 -0.004167 0.031516 0.008401 0.002157
# 5 -0.010786 -0.000995 0.000446 0.008401 0.045356 -0.004995
# 6 -0.002708 -0.008807 -0.005963 0.002157 -0.004995 0.053280
#
#
# Mechanical properties :
#
#
# Convention : Reuss Voigt Hill
#
# Bulk Modulus (GPa) = 17.12572 32.51702 24.82137
# Shear Modulus (GPa) = 23.39377 31.53499 27.46438
#
# Velocity S-wave (km/s) = 3.19116 3.70506 3.45767
# Velocity P-wave (km/s) = 4.58617 5.69721 5.17161
#
# Compressibility (1/GPa) = 0.05839171
#
# Stress axis : x y z
#
# Youngs Moduli (GPa) = 28.07225 91.60610 67.95668
#
# Poissons Ratio (x) = 0.13585 -0.07448
# Poissons Ratio (y) = 0.04163 0.07096
# Poissons Ratio (z) = -0.03077 0.09566
#
# Static dielectric constant tensor:
#      x y z
#    x 1.860950 -0.000860 0.003630 
#    y -0.000860 1.861960 0.002210 
#    z 0.003630 0.002210 1.862320 
# 
# From -- ./inp_files/399952.got.cif
#   From: 2010.05.17/outbox.cif.g08.bks.cpg/sg2_200_cif.got.tgz:399952.got - 2010.06.03 11:33:40.
