data_PCOD9109256
_publ_section_title
;
Structure prediction by ZEFSAII (Michael W. Deem and Ramdas Pophale) SiO2 
 PCOD9109256
Probable space group: P -1
;
_chemical_formula_sum "Si O2"
_cell_formula_units_Z 15
_cell_length_a 11.301028
_cell_length_b 4.954567
_cell_length_c 14.003007
_cell_angle_alpha 87.579677
_cell_angle_beta 53.578849
_cell_angle_gamma 72.783482
_cell_volume 593.478267
_symmetry_space_group_name_H-M "P -1"
_symmetry_group_IT_number 2
_symmetry_cell_setting 'triclinic'
loop_
_space_group_symop_operation_xyz
x,y,z
-x,-y,-z
loop_
_atom_site_type_symbol
_atom_site_label
_atom_site_fract_x
_atom_site_fract_y
_atom_site_fract_z
Si Si1 0.179730 0.292567 0.723612
Si Si2 0.515369 0.163551 0.085291
Si Si3 0.000000 0.000000 0.500000
Si Si4 0.539068 0.151644 0.618169
Si Si5 0.611193 0.590450 0.132794
Si Si6 0.745631 0.665389 0.637995
Si Si7 0.830851 0.281974 0.438202
Si Si8 0.109949 0.804343 0.871846
O O1 0.366202 0.223150 0.657956
O O2 0.150692 0.463503 0.635858
O O3 0.074599 0.541849 0.841994
O O4 0.143690 0.005687 0.770515
O O5 0.630483 0.892257 0.094577
O O6 0.582226 0.423060 0.057240
O O7 0.351375 0.291881 0.218805
O O8 0.500000 0.000000 0.000000
O O9 0.133055 0.169649 0.419084
O O10 0.974304 0.995701 0.387870
O O11 0.527755 0.308170 0.724260
O O12 0.667731 0.233870 0.494962
O O13 0.616401 0.820738 0.615836
O O14 0.740306 0.366051 0.135743
O O15 0.835104 0.353347 0.552338
O O16 0.000000 0.000000 0.000000
#
# Coordination Sequence:
#
# PCOD9109256 Si02
#       8
#     2   2   1   2   2   2   2   2
#     4  11  25  39  69 102 124 164 223 271 310 399
#     4  11  22  40  64  97 121 163 223 266 309 373
#     4  10  24  42  60  88 132 184 208 260 330 386
#     4   9  20  37  65  94 128 161 204 269 335 374
#     4  10  20  41  64  90 126 162 205 265 322 368
#     4  10  21  40  64  86 132 172 206 263 333 376
#     4  11  22  41  63  93 133 167 218 260 329 388
#     4  11  24  46  65  90 133 173 210 260 334 383
#
# _framework density 25.274723000000002
#
# number of rings (size 3 to 8) (size 9 to 14) (size 15 to 20)
#    0.000    1.600    1.333    4.000    5.600    0.533 
#    4.800    0.000    0.000    0.000    0.000    0.000 
#    0.000    0.000    0.000    0.000    0.000    0.000 
#
# Total GULP energy -83579.035562 kJ/mol
# GULP energy per Si atom -5571.935704 kJ/mol
# Density = 2.521720 g / cm^3
# Si number density = 25.274723 Si / 1000 Ang^3
#
#
#
# Elastic Constant Matrix: (Units=GPa)
#
#
# Indices 1 2 3 4 5 6 
#
# 1 42.2584 18.4021 -5.3932 1.5252 8.5158 -11.4227
# 2 18.4021 138.6820 13.0426 12.8993 -2.5065 1.0307
# 3 -5.3932 13.0426 68.6816 24.4530 18.7895 -9.2034
# 4 1.5252 12.8993 24.4530 36.5459 4.5894 5.8581
# 5 8.5158 -2.5065 18.7895 4.5894 35.6777 6.0702
# 6 -11.4227 1.0307 -9.2034 5.8581 6.0702 54.5995
#
#
#
# Elastic Compliance Matrix: (Units=1/GPa)
#
#
# Indices 1 2 3 4 5 6 
#
# 1 0.034467 -0.005413 0.012610 -0.007858 -0.016295 0.012093
# 2 -0.005413 0.008385 -0.003116 -0.000802 0.003995 -0.002174
# 3 0.012610 -0.003116 0.029338 -0.018633 -0.018269 0.011673
# 4 -0.007858 -0.000802 -0.018633 0.041043 0.008066 -0.010070
# 5 -0.016295 0.003995 -0.018269 0.008066 0.042857 -0.012194
# 6 0.012093 -0.002174 0.011673 -0.010070 -0.012194 0.025290
#
#
# Mechanical properties :
#
#
# Convention : Reuss Voigt Hill
#
# Bulk Modulus (GPa) = 12.44522 33.52501 22.98511
# Shear Modulus (GPa) = 24.99985 40.26932 32.63459
#
# Velocity S-wave (km/s) = 3.14845 3.99590 3.59722
# Velocity P-wave (km/s) = 4.26047 5.88070 5.13490
#
# Compressibility (1/GPa) = 0.08035216
#
# Stress axis : x y z
#
# Youngs Moduli (GPa) = 29.01348 119.26017 34.08548
#
# Poissons Ratio (x) = 0.64555 -0.42983
# Poissons Ratio (y) = 0.15705 0.10622
# Poissons Ratio (z) = -0.36587 0.37164
#
# Static dielectric constant tensor:
#      x y z
#    x 2.102590 -0.053330 0.076530 
#    y -0.053330 2.277180 0.178620 
#    z 0.076530 0.178620 2.192590 
# 
# From -- ./inp_files/79701.got.cif
#   From: 2010.05.17/outbox.cif.g08.bks.cpg/sg2_40_cif.got.tgz:79701.got - 2010.06.03 11:33:40.
