data_PCOD9109880
_publ_section_title
;
Structure prediction by ZEFSAII (Michael W. Deem and Ramdas Pophale) SiO2 
 PCOD9109880
Probable space group: P -1
;
_chemical_formula_sum "Si O2"
_cell_formula_units_Z 12
_cell_length_a 10.150768
_cell_length_b 8.801241
_cell_length_c 9.780591
_cell_angle_alpha 92.904776
_cell_angle_beta 108.566430
_cell_angle_gamma 135.781547
_cell_volume 523.753249
_symmetry_space_group_name_H-M "P -1"
_symmetry_group_IT_number 2
_symmetry_cell_setting 'triclinic'
loop_
_space_group_symop_operation_xyz
x,y,z
-x,-y,-z
loop_
_atom_site_type_symbol
_atom_site_label
_atom_site_fract_x
_atom_site_fract_y
_atom_site_fract_z
Si Si1 0.020252 0.686604 0.068894
Si Si2 0.191522 0.825040 0.438809
Si Si3 0.540561 0.416219 0.891415
Si Si4 0.428715 0.098702 0.046197
Si Si5 0.748769 0.778760 0.465644
Si Si6 0.263644 0.569223 0.575686
O O1 0.095348 0.732450 0.251199
O O2 0.205187 0.917648 0.047426
O O3 0.000000 0.500000 0.000000
O O4 0.791817 0.580292 0.975617
O O5 0.314310 0.769708 0.518427
O O6 0.990451 0.651679 0.471969
O O7 0.285295 0.078430 0.479774
O O8 0.434739 0.381976 0.718451
O O9 0.500000 0.500000 0.000000
O O10 0.402753 0.162746 0.897282
O O11 0.604135 0.304103 0.229080
O O12 0.500000 0.000000 0.000000
O O13 0.715165 0.576675 0.503513
O O14 0.000000 0.000000 0.500000
#
# Coordination Sequence:
#
# PCOD9109880 Si02
#       6
#     2   2   2   2   2   2
#     4  12  26  45  72 109 139 189 246 293 361 435
#     4  10  21  41  71  98 141 184 237 291 355 425
#     4  12  23  46  73 103 147 183 236 303 352 423
#     4  12  23  43  73 101 138 190 240 290 361 424
#     4  10  21  41  72 101 140 189 232 292 363 422
#     4  10  20  41  68 101 137 190 232 288 359 421
#
# _framework density 22.911552
#
# number of rings (size 3 to 8) (size 9 to 14) (size 15 to 20)
#    0.000    1.000    5.000    2.000    0.000    4.000 
#    0.000    2.500    0.000    0.000    0.000    0.000 
#    0.000    0.000    0.000    0.000    0.000    0.000 
#
# Total GULP energy -66856.493595 kJ/mol
# GULP energy per Si atom -5571.374466 kJ/mol
# Density = 2.285940 g / cm^3
# Si number density = 22.911552 Si / 1000 Ang^3
#
#
#
# Elastic Constant Matrix: (Units=GPa)
#
#
# Indices 1 2 3 4 5 6 
#
# 1 161.1387 53.0206 50.2033 10.4275 -2.9843 -22.4596
# 2 53.0206 100.6764 5.1267 -7.1999 -0.9445 -15.9689
# 3 50.2033 5.1267 79.9211 17.2556 1.1102 -8.5322
# 4 10.4275 -7.1999 17.2556 36.6511 -12.6002 -11.1066
# 5 -2.9843 -0.9445 1.1102 -12.6002 31.9844 13.7935
# 6 -22.4596 -15.9689 -8.5322 -11.1066 13.7935 45.2751
#
#
#
# Elastic Compliance Matrix: (Units=1/GPa)
#
#
# Indices 1 2 3 4 5 6 
#
# 1 0.009737 -0.004549 -0.005493 -0.000485 -0.000138 0.002114
# 2 -0.004549 0.013151 0.001480 0.004309 0.000008 0.003715
# 3 -0.005493 0.001480 0.017674 -0.007813 -0.004398 0.000551
# 4 -0.000485 0.004309 -0.007813 0.038012 0.013112 0.005137
# 5 -0.000138 0.000008 -0.004398 0.013112 0.040950 -0.010153
# 6 0.002114 0.003715 0.000551 0.005137 -0.010153 0.028904
#
#
# Mechanical properties :
#
#
# Convention : Reuss Voigt Hill
#
# Bulk Modulus (GPa) = 42.66326 62.04861 52.35594
# Shear Modulus (GPa) = 28.84112 38.34117 33.59114
#
# Velocity S-wave (km/s) = 3.55181 4.09521 3.83315
# Velocity P-wave (km/s) = 5.95666 7.03574 6.51856
#
# Compressibility (1/GPa) = 0.02343937
#
# Stress axis : x y z
#
# Youngs Moduli (GPa) = 102.69769 76.04117 56.57913
#
# Poissons Ratio (x) = 0.34592 0.31076
# Poissons Ratio (y) = 0.46718 -0.08374
# Poissons Ratio (z) = 0.56407 -0.11255
#
# Static dielectric constant tensor:
#      x y z
#    x 1.907320 -0.078070 -0.002400 
#    y -0.078070 1.949020 0.003910 
#    z -0.002400 0.003910 1.783750 
# 
# From -- ./inp_files/156452.got.cif
#   From: 2010.05.17/outbox.cif.g08.bks.cpg/sg2_79_cif.got.tgz:156452.got - 2010.06.03 11:33:40.
