data_PCOD9109909
_publ_section_title
;
Structure prediction by ZEFSAII (Michael W. Deem and Ramdas Pophale) SiO2 
 PCOD9109909
Probable space group: P -1
;
_chemical_formula_sum "Si O2"
_cell_formula_units_Z 16
_cell_length_a 9.420809
_cell_length_b 10.966883
_cell_length_c 12.951671
_cell_angle_alpha 145.119526
_cell_angle_beta 107.448160
_cell_angle_gamma 92.895087
_cell_volume 612.808466
_symmetry_space_group_name_H-M "P -1"
_symmetry_group_IT_number 2
_symmetry_cell_setting 'triclinic'
loop_
_space_group_symop_operation_xyz
x,y,z
-x,-y,-z
loop_
_atom_site_type_symbol
_atom_site_label
_atom_site_fract_x
_atom_site_fract_y
_atom_site_fract_z
Si Si1 0.560152 0.194645 0.244701
Si Si2 0.986641 0.196569 0.065297
Si Si3 0.904604 0.574822 0.316775
Si Si4 0.144679 0.714857 0.258152
Si Si5 0.317341 0.280888 0.752630
Si Si6 0.771807 0.982711 0.236908
Si Si7 0.658791 0.493781 0.753316
Si Si8 0.314857 0.253396 0.387222
O O1 0.649451 0.098613 0.279522
O O2 0.401346 0.208839 0.272480
O O3 0.690444 0.493172 0.447827
O O4 0.500000 0.000000 0.000000
O O5 0.864426 0.017544 0.820478
O O6 0.885118 0.320229 0.174543
O O7 0.186637 0.411232 0.231120
O O8 0.000000 0.000000 0.000000
O O9 0.739384 0.572177 0.233723
O O10 0.027031 0.643898 0.288113
O O11 0.026506 0.788155 0.574113
O O12 0.293508 0.647810 0.252095
O O13 0.257040 0.022907 0.494434
O O14 0.000000 0.500000 0.000000
O O15 0.216423 0.142274 0.740685
O O16 0.500000 0.500000 0.000000
O O17 0.692412 0.755491 0.982533
O O18 0.463955 0.321275 0.550103
#
# Coordination Sequence:
#
# PCOD9109909 Si02
#       8
#     2   2   2   2   2   2   2   2
#     4  11  22  41  68 100 132 185 219 276 345 402
#     4  11  24  42  67 100 131 177 225 278 340 395
#     4  10  22  41  65  89 131 173 216 273 336 404
#     4  10  20  41  68  90 125 175 221 266 350 405
#     4  11  24  41  64  99 131 169 226 284 337 407
#     4  11  22  44  67  94 134 176 227 269 347 409
#     4  11  23  43  68  96 134 181 216 284 340 407
#     4  11  23  43  69  94 143 173 230 282 335 401
#
# _framework density 26.109300000000001
#
# number of rings (size 3 to 8) (size 9 to 14) (size 15 to 20)
#    0.000    1.250    1.250    7.500    3.500    0.000 
#    9.000    2.500    0.000    0.000    0.000    0.000 
#    0.000    0.000    0.000    0.000    0.000    0.000 
#
# Total GULP energy -89316.375811 kJ/mol
# GULP energy per Si atom -5582.273488 kJ/mol
# Density = 2.604987 g / cm^3
# Si number density = 26.109300 Si / 1000 Ang^3
#
#
#
# Elastic Constant Matrix: (Units=GPa)
#
#
# Indices 1 2 3 4 5 6 
#
# 1 67.9485 36.1799 52.1834 3.3912 -13.0715 -24.7044
# 2 36.1799 86.6017 34.2349 3.5674 1.1729 -47.3751
# 3 52.1834 34.2349 216.0059 -9.4939 -4.3164 -29.7783
# 4 3.3912 3.5674 -9.4939 43.3525 -11.3792 -0.5619
# 5 -13.0715 1.1729 -4.3164 -11.3792 47.6140 -1.5007
# 6 -24.7044 -47.3751 -29.7783 -0.5619 -1.5007 58.2940
#
#
#
# Elastic Compliance Matrix: (Units=1/GPa)
#
#
# Indices 1 2 3 4 5 6 
#
# 1 0.023789 -0.007047 -0.004202 -0.000524 0.006273 0.002364
# 2 -0.007047 0.023245 0.000079 -0.001775 -0.002424 0.015865
# 3 -0.004202 0.000079 0.005875 0.001571 -0.000206 0.001295
# 4 -0.000524 -0.001775 0.001571 0.025179 0.006045 -0.000463
# 5 0.006273 -0.002424 -0.000206 0.006045 0.024250 0.001265
# 6 0.002364 0.015865 0.001295 -0.000463 0.001265 0.031740
#
#
# Mechanical properties :
#
#
# Convention : Reuss Voigt Hill
#
# Bulk Modulus (GPa) = 32.71254 68.41695 50.56474
# Shear Modulus (GPa) = 30.01067 46.38261 38.19664
#
# Velocity S-wave (km/s) = 3.39399 4.21940 3.82900
# Velocity P-wave (km/s) = 5.28348 7.07098 6.24155
#
# Compressibility (1/GPa) = 0.03056932
#
# Stress axis : x y z
#
# Youngs Moduli (GPa) = 42.03658 43.01979 170.19847
#
# Poissons Ratio (x) = 0.30318 0.71514
# Poissons Ratio (y) = 0.29625 -0.01347
# Poissons Ratio (z) = 0.17663 -0.00340
#
# Static dielectric constant tensor:
#      x y z
#    x 2.127020 0.031490 0.005410 
#    y 0.031490 2.146980 0.004620 
#    z 0.005410 0.004620 2.142910 
# 
# From -- ./inp_files/519973.got.cif
#   From: 2010.05.17/outbox.cif.g08.bks.cpg/sg2_260_cif.got.tgz:519973.got - 2010.06.03 11:33:40.
