data_PCOD9109903
_publ_section_title
;
Structure prediction by ZEFSAII (Michael W. Deem and Ramdas Pophale) SiO2 
 PCOD9109903
Probable space group: P -1
;
_chemical_formula_sum "Si O2"
_cell_formula_units_Z 14
_cell_length_a 11.688309
_cell_length_b 19.601976
_cell_length_c 8.783194
_cell_angle_alpha 131.159235
_cell_angle_beta 38.478551
_cell_angle_gamma 151.641340
_cell_volume 591.522377
_symmetry_space_group_name_H-M "P -1"
_symmetry_group_IT_number 2
_symmetry_cell_setting 'triclinic'
loop_
_space_group_symop_operation_xyz
x,y,z
-x,-y,-z
loop_
_atom_site_type_symbol
_atom_site_label
_atom_site_fract_x
_atom_site_fract_y
_atom_site_fract_z
Si Si1 0.098214 0.767555 0.321375
Si Si2 0.721550 0.599088 0.054774
Si Si3 0.656891 0.151301 0.125361
Si Si4 0.312003 0.544209 0.604403
Si Si5 0.630314 0.899205 0.138203
Si Si6 0.883244 0.020752 0.379150
Si Si7 0.264156 0.584221 0.057278
O O1 0.382977 0.868087 0.279380
O O2 0.013624 0.838170 0.480834
O O3 0.837151 0.610895 0.435365
O O4 0.193748 0.755114 0.046896
O O5 0.594819 0.630701 0.338920
O O6 0.500000 0.500000 0.000000
O O7 0.698636 0.494014 0.008791
O O8 0.070211 0.753741 0.901996
O O9 0.397109 0.106243 0.410026
O O10 0.500000 0.000000 0.000000
O O11 0.066968 0.506618 0.714750
O O12 0.335183 0.598146 0.824734
O O13 0.473849 0.745838 0.127523
O O14 0.785881 0.994588 0.266238
O O15 0.869327 0.960792 0.853915
#
# Coordination Sequence:
#
# PCOD9109903 Si02
#       7
#     2   2   2   2   2   2   2
#     4  10  20  41  68  89 125 170 215 265 314 380
#     4  12  26  43  67  98 131 173 211 270 334 377
#     4  10  24  43  63  95 130 170 216 262 319 387
#     4  10  22  41  70  94 124 170 221 266 318 383
#     4  10  22  39  66  96 120 174 213 262 326 374
#     4  10  22  41  60  92 136 164 213 263 317 389
#     4  10  22  42  67  96 127 165 222 270 313 389
#
# _framework density 23.667743000000002
#
# number of rings (size 3 to 8) (size 9 to 14) (size 15 to 20)
#    0.000    1.714    1.429    1.714    8.000    1.143 
#   10.286    0.000    0.000    0.000    0.000    0.000 
#    0.000    0.000    0.000    0.000    0.000    0.000 
#
# Total GULP energy -78269.625944 kJ/mol
# GULP energy per Si atom -5590.687567 kJ/mol
# Density = 2.361387 g / cm^3
# Si number density = 23.667743 Si / 1000 Ang^3
#
#
#
# Elastic Constant Matrix: (Units=GPa)
#
#
# Indices 1 2 3 4 5 6 
#
# 1 62.2462 19.4201 2.8988 4.1764 -2.1489 13.7369
# 2 19.4201 70.5154 31.9561 -2.6429 -14.3495 27.2025
# 3 2.8988 31.9561 87.8397 -3.7587 -16.4473 -9.2117
# 4 4.1764 -2.6429 -3.7587 31.2023 6.9305 -0.2796
# 5 -2.1489 -14.3495 -16.4473 6.9305 22.7412 3.7967
# 6 13.7369 27.2025 -9.2117 -0.2796 3.7967 24.3839
#
#
#
# Elastic Compliance Matrix: (Units=1/GPa)
#
#
# Indices 1 2 3 4 5 6 
#
# 1 0.019291 0.003408 -0.002661 -0.004115 0.006086 -0.016670
# 2 0.003408 0.081329 -0.032617 -0.009570 0.049805 -0.112837
# 3 -0.002661 -0.032617 0.026653 0.003688 -0.010979 0.049708
# 4 -0.004115 -0.009570 0.003688 0.036337 -0.017768 0.017571
# 5 0.006086 0.049805 -0.010979 -0.017768 0.086267 -0.076774
# 6 -0.016670 -0.112837 0.049708 0.017571 -0.076774 0.207216
#
#
# Mechanical properties :
#
#
# Convention : Reuss Voigt Hill
#
# Bulk Modulus (GPa) = 15.73981 36.57235 26.15608
# Shear Modulus (GPa) = 9.22489 26.75389 17.98939
#
# Velocity S-wave (km/s) = 1.97639 3.36578 2.75995
# Velocity P-wave (km/s) = 3.44571 5.53088 4.60779
#
# Compressibility (1/GPa) = 0.06353319
#
# Stress axis : x y z
#
# Youngs Moduli (GPa) = 51.83782 12.29572 37.51875
#
# Poissons Ratio (x) = -0.04191 0.09985
# Poissons Ratio (y) = -0.17668 1.22376
# Poissons Ratio (z) = 0.13796 0.40105
#
# Static dielectric constant tensor:
#      x y z
#    x 1.884400 0.021260 0.005490 
#    y 0.021260 1.975830 -0.043140 
#    z 0.005490 -0.043140 1.905040 
# 
# From -- ./inp_files/278545.got.cif
#   From: 2010.05.17/outbox.cif.g08.bks.cpg/sg2_140_cif.got.tgz:278545.got - 2010.06.03 11:33:40.
