data_PCOD9109663
_publ_section_title
;
Structure prediction by ZEFSAII (Michael W. Deem and Ramdas Pophale) SiO2 
 PCOD9109663
Probable space group: P -1
;
_chemical_formula_sum "Si O2"
_cell_formula_units_Z 16
_cell_length_a 13.484626
_cell_length_b 14.783052
_cell_length_c 9.241332
_cell_angle_alpha 151.427754
_cell_angle_beta 63.815251
_cell_angle_gamma 115.581104
_cell_volume 786.430061
_symmetry_space_group_name_H-M "P -1"
_symmetry_group_IT_number 2
_symmetry_cell_setting 'triclinic'
loop_
_space_group_symop_operation_xyz
x,y,z
-x,-y,-z
loop_
_atom_site_type_symbol
_atom_site_label
_atom_site_fract_x
_atom_site_fract_y
_atom_site_fract_z
Si Si1 0.017824 0.223498 0.778569
Si Si2 0.603072 0.563402 0.624775
Si Si3 0.409671 0.610156 0.292880
Si Si4 0.825381 0.579456 0.801015
Si Si5 0.151382 0.542089 0.685383
Si Si6 0.593063 0.007738 0.327088
Si Si7 0.938418 0.822627 0.629459
Si Si8 0.825570 0.964205 0.159805
O O1 0.081280 0.248474 0.620274
O O2 0.086999 0.339113 0.022449
O O3 0.000000 0.000000 0.500000
O O4 0.894894 0.291517 0.961107
O O5 0.500000 0.500000 0.500000
O O6 0.584219 0.448541 0.625973
O O7 0.725366 0.508125 0.421437
O O8 0.602134 0.791500 0.964406
O O9 0.287165 0.518816 0.195731
O O10 0.427473 0.833185 0.555255
O O11 0.500000 0.500000 0.000000
O O12 0.856015 0.434573 0.451047
O O13 0.802823 0.763568 0.976840
O O14 0.065064 0.361433 0.526687
O O15 0.500000 0.000000 0.500000
O O16 0.716410 0.068730 0.395909
O O17 0.852009 0.940014 0.936758
O O18 0.059628 0.935677 0.712647
#
# Coordination Sequence:
#
# PCOD9109663 Si02
#       8
#     2   2   2   2   2   2   2   2
#     4  12  24  38  61 101 133 170 224 278 331 402
#     4  11  25  48  69 101 140 173 225 294 344 401
#     4  11  23  44  69 100 129 176 231 277 337 407
#     4  10  21  43  65  91 136 175 217 279 335 398
#     4  10  23  45  62  91 139 175 221 271 344 411
#     4  12  23  44  76  96 131 183 235 280 336 412
#     4  10  21  38  64  90 136 167 218 266 332 400
#     4  10  20  41  66  95 130 181 217 269 340 405
#
# _framework density 20.345103000000002
#
# number of rings (size 3 to 8) (size 9 to 14) (size 15 to 20)
#    0.000    1.250    6.250    0.750    1.750    4.500 
#    2.250    0.000    0.000    0.000    0.000    0.000 
#    0.000    0.000    0.000    0.000    0.000    0.000 
#
# Total GULP energy -89203.252896 kJ/mol
# GULP energy per Si atom -5575.203306 kJ/mol
# Density = 2.029880 g / cm^3
# Si number density = 20.345103 Si / 1000 Ang^3
#
#
#
# Elastic Constant Matrix: (Units=GPa)
#
#
# Indices 1 2 3 4 5 6 
#
# 1 98.8791 40.1177 42.5815 -4.6944 -1.0282 8.5758
# 2 40.1177 117.2378 41.3514 8.4589 -15.2529 6.8522
# 3 42.5815 41.3514 76.7729 2.3619 -19.1231 3.2784
# 4 -4.6944 8.4589 2.3619 37.7579 -0.9152 -3.3286
# 5 -1.0282 -15.2529 -19.1231 -0.9152 33.0052 -2.3934
# 6 8.5758 6.8522 3.2784 -3.3286 -2.3934 34.8390
#
#
#
# Elastic Compliance Matrix: (Units=1/GPa)
#
#
# Indices 1 2 3 4 5 6 
#
# 1 0.015181 -0.003123 -0.008161 0.002737 -0.005804 -0.002492
# 2 -0.003123 0.011527 -0.003596 -0.002781 0.002980 -0.001221
# 3 -0.008161 -0.003596 0.022216 -0.001220 0.011013 0.001266
# 4 0.002737 -0.002781 -0.001220 0.027728 -0.000952 0.002572
# 5 -0.005804 0.002980 0.011013 -0.000952 0.038018 0.002327
# 6 -0.002492 -0.001221 0.001266 0.002572 0.002327 0.029843
#
#
# Mechanical properties :
#
#
# Convention : Reuss Voigt Hill
#
# Bulk Modulus (GPa) = 52.18621 60.11009 56.14815
# Shear Modulus (GPa) = 27.67619 32.37638 30.02628
#
# Velocity S-wave (km/s) = 3.69228 3.99351 3.84584
# Velocity P-wave (km/s) = 6.62445 7.13257 6.88320
#
# Compressibility (1/GPa) = 0.01916215
#
# Stress axis : x y z
#
# Youngs Moduli (GPa) = 65.87301 86.75636 45.01318
#
# Poissons Ratio (x) = 0.27095 0.36736
# Poissons Ratio (y) = 0.20573 0.16188
# Poissons Ratio (z) = 0.53760 0.31199
#
# Static dielectric constant tensor:
#      x y z
#    x 1.771090 0.012940 -0.038040 
#    y 0.012940 1.792320 -0.095050 
#    z -0.038040 -0.095050 1.977570 
# 
# From -- ./inp_files/314332.got.cif
#   From: 2010.05.17/outbox.cif.g08.bks.cpg/sg2_158_cif.got.tgz:314332.got - 2010.06.03 11:33:40.
