data_PCOD9109589
_publ_section_title
;
Structure prediction by ZEFSAII (Michael W. Deem and Ramdas Pophale) SiO2 
 PCOD9109589
Probable space group: P -1
;
_chemical_formula_sum "Si O2"
_cell_formula_units_Z 16
_cell_length_a 14.771151
_cell_length_b 8.789639
_cell_length_c 11.247743
_cell_angle_alpha 75.228027
_cell_angle_beta 129.601757
_cell_angle_gamma 63.610626
_cell_volume 630.848612
_symmetry_space_group_name_H-M "P -1"
_symmetry_group_IT_number 2
_symmetry_cell_setting 'triclinic'
loop_
_space_group_symop_operation_xyz
x,y,z
-x,-y,-z
loop_
_atom_site_type_symbol
_atom_site_label
_atom_site_fract_x
_atom_site_fract_y
_atom_site_fract_z
Si Si1 0.785157 0.392761 0.616986
Si Si2 0.567955 0.605801 0.160192
Si Si3 0.854659 0.552572 0.282710
Si Si4 0.710386 0.123585 0.649031
Si Si5 0.984083 0.614360 0.839262
Si Si6 0.831959 0.052053 0.378900
Si Si7 0.639088 0.688815 0.679989
Si Si8 0.855935 0.818000 0.078137
O O1 0.602689 0.597588 0.330124
O O2 0.792660 0.206859 0.706810
O O3 0.741337 0.543550 0.667384
O O4 0.993806 0.204448 0.757226
O O5 0.688409 0.616419 0.190499
O O6 0.686255 0.311211 0.292973
O O7 0.336332 0.829890 0.879962
O O8 0.741489 0.818301 0.064761
O O9 0.000000 0.500000 0.500000
O O10 0.016249 0.260161 0.408876
O O11 0.477163 0.346881 0.386780
O O12 0.813563 0.922864 0.665087
O O13 0.747948 0.995276 0.832729
O O14 0.970493 0.497648 0.753397
O O15 0.000000 0.500000 0.000000
O O16 0.200772 0.461552 0.052076
O O17 0.000000 0.000000 0.500000
O O18 0.500000 0.000000 0.500000
#
# Coordination Sequence:
#
# PCOD9109589 Si02
#       8
#     2   2   2   2   2   2   2   2
#     4  12  24  42  71 101 139 178 228 284 345 410
#     4  10  23  48  69 104 135 179 231 287 347 406
#     4  11  23  43  69 105 138 175 233 286 339 409
#     4  11  24  43  65  98 136 178 228 284 336 409
#     4  10  20  41  66  90 129 181 225 273 335 395
#     4   9  22  48  73  93 139 178 231 286 344 411
#     4  12  22  44  63  96 137 176 233 277 335 414
#     4  11  22  42  66  98 137 185 225 273 341 403
#
# _framework density 25.362660999999999
#
# number of rings (size 3 to 8) (size 9 to 14) (size 15 to 20)
#    0.000    1.250    6.250    0.750    1.750    1.500 
#    9.000    0.000    0.000    0.000    0.000    0.000 
#    0.000    0.000    0.000    0.000    0.000    0.000 
#
# Total GULP energy -89160.501769 kJ/mol
# GULP energy per Si atom -5572.531361 kJ/mol
# Density = 2.530493 g / cm^3
# Si number density = 25.362661 Si / 1000 Ang^3
#
#
#
# Elastic Constant Matrix: (Units=GPa)
#
#
# Indices 1 2 3 4 5 6 
#
# 1 112.4216 20.0900 37.6390 -4.4971 -3.8508 46.2301
# 2 20.0900 87.7095 -0.3968 -0.2257 -4.7479 8.4338
# 3 37.6390 -0.3968 91.8267 12.0634 11.4444 11.5259
# 4 -4.4971 -0.2257 12.0634 41.1030 9.5494 4.7702
# 5 -3.8508 -4.7479 11.4444 9.5494 39.5699 -1.0351
# 6 46.2301 8.4338 11.5259 4.7702 -1.0351 42.0348
#
#
#
# Elastic Compliance Matrix: (Units=1/GPa)
#
#
# Indices 1 2 3 4 5 6 
#
# 1 0.020538 -0.002627 -0.006837 0.006289 0.001597 -0.020860
# 2 -0.002627 0.012035 0.001063 -0.000821 0.001087 0.000302
# 3 -0.006837 0.001063 0.014246 -0.004565 -0.003456 0.003832
# 4 0.006289 -0.000821 -0.004565 0.028615 -0.005304 -0.008878
# 5 0.001597 0.001087 -0.003456 -0.005304 0.027844 0.000260
# 6 -0.020860 0.000302 0.003832 -0.008878 0.000260 0.046635
#
#
# Mechanical properties :
#
#
# Convention : Reuss Voigt Hill
#
# Bulk Modulus (GPa) = 33.31190 45.18024 39.24607
# Shear Modulus (GPa) = 28.29327 40.18324 34.23826
#
# Velocity S-wave (km/s) = 3.34361 3.98470 3.67815
# Velocity P-wave (km/s) = 5.29802 6.24683 5.79188
#
# Compressibility (1/GPa) = 0.03001930
#
# Stress axis : x y z
#
# Youngs Moduli (GPa) = 48.69041 83.08850 70.19320
#
# Poissons Ratio (x) = 0.21824 0.47988
# Poissons Ratio (y) = 0.12789 -0.07462
# Poissons Ratio (z) = 0.33288 -0.08833
#
# Static dielectric constant tensor:
#      x y z
#    x 2.319030 -0.105110 -0.035500 
#    y -0.105110 2.070920 0.093380 
#    z -0.035500 0.093380 2.271820 
# 
# From -- ./inp_files/447206.got.cif
#   From: 2010.05.17/outbox.cif.g08.bks.cpg/sg2_224_cif.got.tgz:447206.got - 2010.06.03 11:33:40.
