data_PCOD9109607
_publ_section_title
;
Structure prediction by ZEFSAII (Michael W. Deem and Ramdas Pophale) SiO2 
 PCOD9109607
Probable space group: P -1
;
_chemical_formula_sum "Si O2"
_cell_formula_units_Z 16
_cell_length_a 11.739065
_cell_length_b 11.660604
_cell_length_c 12.823454
_cell_angle_alpha 104.525863
_cell_angle_beta 35.340984
_cell_angle_gamma 78.607084
_cell_volume 683.980684
_symmetry_space_group_name_H-M "P -1"
_symmetry_group_IT_number 2
_symmetry_cell_setting 'triclinic'
loop_
_space_group_symop_operation_xyz
x,y,z
-x,-y,-z
loop_
_atom_site_type_symbol
_atom_site_label
_atom_site_fract_x
_atom_site_fract_y
_atom_site_fract_z
Si Si1 0.865362 0.077929 0.229684
Si Si2 0.134999 0.638107 0.157042
Si Si3 0.405673 0.144093 0.873924
Si Si4 0.672405 0.208133 0.021645
Si Si5 0.658237 0.276581 0.616553
Si Si6 0.536500 0.908862 0.555409
Si Si7 0.029637 0.495802 0.601416
Si Si8 0.854715 0.954888 0.660778
O O1 0.810941 0.210594 0.376468
O O2 0.551762 0.177382 0.447867
O O3 0.073374 0.910217 0.111375
O O4 0.000000 0.000000 0.000000
O O5 0.842869 0.770748 0.344144
O O6 0.088171 0.574829 0.276548
O O7 0.253162 0.719080 0.098223
O O8 0.375293 0.471865 0.871829
O O9 0.565432 0.181264 0.697274
O O10 0.350425 0.058577 0.816994
O O11 0.632096 0.998068 0.756362
O O12 0.153904 0.320425 0.164080
O O13 0.367834 0.357950 0.335488
O O14 0.683254 0.085693 0.915444
O O15 0.882965 0.225272 0.522850
O O16 0.500000 0.000000 0.500000
O O17 0.000000 0.500000 0.500000
O O18 0.000000 0.000000 0.500000
#
# Coordination Sequence:
#
# PCOD9109607 Si02
#       8
#     2   2   2   2   2   2   2   2
#     4  11  23  42  68  94 133 175 222 280 330 390
#     4  11  24  42  69  99 131 177 224 269 333 395
#     4  10  20  41  66  91 133 177 212 271 335 393
#     4  11  22  43  68  96 135 172 222 273 332 398
#     4   9  20  38  62  98 127 173 218 267 339 394
#     4  12  22  44  67  94 127 174 229 271 318 396
#     4  11  24  45  65 102 140 170 217 279 332 395
#     4   9  17  36  66  92 127 172 214 264 333 398
#
# _framework density 23.392472999999999
#
# number of rings (size 3 to 8) (size 9 to 14) (size 15 to 20)
#    0.000    1.500    3.750    2.250    0.000    2.000 
#    4.500    1.875    0.000    0.000    0.000    0.000 
#    0.000    0.000    0.000    0.000    0.000    0.000 
#
# Total GULP energy -89261.115389 kJ/mol
# GULP energy per Si atom -5578.819712 kJ/mol
# Density = 2.333923 g / cm^3
# Si number density = 23.392473 Si / 1000 Ang^3
#
#
#
# Elastic Constant Matrix: (Units=GPa)
#
#
# Indices 1 2 3 4 5 6 
#
# 1 124.6455 23.9249 47.2978 5.5923 31.3522 -13.6746
# 2 23.9249 58.3117 35.7419 -4.9445 17.5263 -6.3552
# 3 47.2978 35.7419 171.3122 17.4239 17.4907 -21.3162
# 4 5.5923 -4.9445 17.4239 35.5105 -3.8944 0.3331
# 5 31.3522 17.5263 17.4907 -3.8944 31.4133 -11.9010
# 6 -13.6746 -6.3552 -21.3162 0.3331 -11.9010 19.6152
#
#
#
# Elastic Compliance Matrix: (Units=1/GPa)
#
#
# Indices 1 2 3 4 5 6 
#
# 1 0.011548 -0.000685 -0.001806 -0.002187 -0.010612 -0.000535
# 2 -0.000685 0.023446 -0.004610 0.004467 -0.011045 -0.004668
# 3 -0.001806 -0.004610 0.008505 -0.004379 0.002056 0.007812
# 4 -0.002187 0.004467 -0.004379 0.031872 0.005249 -0.002192
# 5 -0.010612 -0.011045 0.002056 0.005249 0.058102 0.026421
# 6 -0.000535 -0.004668 0.007812 -0.002192 0.026421 0.073651
#
#
# Mechanical properties :
#
#
# Convention : Reuss Voigt Hill
#
# Bulk Modulus (GPa) = 34.13415 63.13317 48.63366
# Shear Modulus (GPa) = 21.63634 33.79479 27.71556
#
# Velocity S-wave (km/s) = 3.04456 3.80503 3.44584
# Velocity P-wave (km/s) = 5.19449 6.80820 6.05534
#
# Compressibility (1/GPa) = 0.02929617
#
# Stress axis : x y z
#
# Youngs Moduli (GPa) = 86.59375 42.65175 117.57527
#
# Poissons Ratio (x) = 0.02923 0.21236
# Poissons Ratio (y) = 0.05935 0.54201
# Poissons Ratio (z) = 0.15640 0.19662
#
# Static dielectric constant tensor:
#      x y z
#    x 1.817140 0.049830 -0.018030 
#    y 0.049830 1.960240 -0.094750 
#    z -0.018030 -0.094750 1.859240 
# 
# From -- ./inp_files/218833.got.cif
#   From: 2010.05.17/outbox.cif.g08.bks.cpg/sg2_110_cif.got.tgz:218833.got - 2010.06.03 11:33:40.
