data_PCOD9109746
_publ_section_title
;
Structure prediction by ZEFSAII (Michael W. Deem and Ramdas Pophale) SiO2 
 PCOD9109746
Probable space group: P -1
;
_chemical_formula_sum "Si O2"
_cell_formula_units_Z 15
_cell_length_a 8.288758
_cell_length_b 9.094210
_cell_length_c 13.060428
_cell_angle_alpha 105.520297
_cell_angle_beta 36.298303
_cell_angle_gamma 95.718542
_cell_volume 549.819082
_symmetry_space_group_name_H-M "P -1"
_symmetry_group_IT_number 2
_symmetry_cell_setting 'triclinic'
loop_
_space_group_symop_operation_xyz
x,y,z
-x,-y,-z
loop_
_atom_site_type_symbol
_atom_site_label
_atom_site_fract_x
_atom_site_fract_y
_atom_site_fract_z
Si Si1 0.500000 0.500000 0.000000
Si Si2 0.062594 0.280779 0.519758
Si Si3 0.634475 0.134087 0.244561
Si Si4 0.965383 0.375636 0.218181
Si Si5 0.953004 0.119461 0.889940
Si Si6 0.417696 0.465052 0.228229
Si Si7 0.883643 0.149610 0.389966
Si Si8 0.311075 0.346220 0.707901
O O1 0.555932 0.369410 0.043559
O O2 0.268969 0.403944 0.044398
O O3 0.306912 0.182826 0.444466
O O4 0.233118 0.384216 0.382962
O O5 0.788598 0.406622 0.721784
O O6 0.940508 0.171491 0.483489
O O7 0.816926 0.261825 0.205499
O O8 0.795523 0.980774 0.187965
O O9 0.679575 0.117372 0.096251
O O10 0.973768 0.293413 0.309033
O O11 0.765517 0.543869 0.331356
O O12 0.046220 0.282308 0.865548
O O13 0.969396 0.014770 0.761032
O O14 0.579710 0.554686 0.240094
O O15 0.556811 0.195820 0.539226
#
# Coordination Sequence:
#
# PCOD9109746 Si02
#       8
#     1   2   2   2   2   2   2   2
#     4  12  24  36  56 100 132 146 204 274 312 368
#     4  10  20  41  67  88 124 169 210 249 319 374
#     4  10  22  42  65  86 125 173 210 251 316 381
#     4  11  23  37  64  93 123 165 210 266 316 362
#     4  10  23  39  59  92 126 169 213 254 305 375
#     4  10  22  38  62  96 127 157 205 268 313 368
#     4  10  22  41  62  92 130 165 209 260 308 382
#     4  11  22  40  66  92 126 167 212 258 315 373
#
# _framework density 27.281703
#
# number of rings (size 3 to 8) (size 9 to 14) (size 15 to 20)
#    0.000    1.600    2.667    1.600    1.867    3.733 
#    0.000    6.667    0.000    0.000    0.000    0.000 
#    0.000    0.000    0.000    0.000    0.000    0.000 
#
# Total GULP energy -83703.238837 kJ/mol
# GULP energy per Si atom -5580.215922 kJ/mol
# Density = 2.721961 g / cm^3
# Si number density = 27.281703 Si / 1000 Ang^3
#
#
#
# Elastic Constant Matrix: (Units=GPa)
#
#
# Indices 1 2 3 4 5 6 
#
# 1 106.5848 8.2729 26.9492 11.4138 -28.7433 20.0415
# 2 8.2729 71.7549 16.6586 -8.8873 -5.4489 3.1978
# 3 26.9492 16.6586 73.5409 7.3908 -20.9660 4.8832
# 4 11.4138 -8.8873 7.3908 46.2986 -5.2023 5.0640
# 5 -28.7433 -5.4489 -20.9660 -5.2023 52.5842 4.9635
# 6 20.0415 3.1978 4.8832 5.0640 4.9635 25.3711
#
#
#
# Elastic Compliance Matrix: (Units=1/GPa)
#
#
# Indices 1 2 3 4 5 6 
#
# 1 0.014591 -0.000152 -0.002033 -0.001007 0.008232 -0.012525
# 2 -0.000152 0.015383 -0.003480 0.003849 0.000698 -0.002054
# 3 -0.002033 -0.003480 0.016961 -0.002083 0.005258 -0.001833
# 4 -0.001007 0.003849 -0.002083 0.023591 0.001762 -0.004342
# 5 0.008232 0.000698 0.005258 0.001762 0.027111 -0.013258
# 6 -0.012525 -0.002054 -0.001833 -0.004342 -0.013258 0.053381
#
#
# Mechanical properties :
#
#
# Convention : Reuss Voigt Hill
#
# Bulk Modulus (GPa) = 28.08561 39.51577 33.80069
# Shear Modulus (GPa) = 28.69979 38.18409 33.44194
#
# Velocity S-wave (km/s) = 3.24694 3.74521 3.50494
# Velocity P-wave (km/s) = 4.93699 5.76350 5.36618
#
# Compressibility (1/GPa) = 0.03560543
#
# Stress axis : x y z
#
# Youngs Moduli (GPa) = 68.53604 65.00639 58.95811
#
# Poissons Ratio (x) = 0.00986 0.11985
# Poissons Ratio (y) = 0.01040 0.20520
# Poissons Ratio (z) = 0.13932 0.22625
#
# Static dielectric constant tensor:
#      x y z
#    x 2.141160 -0.119380 -0.248030 
#    y -0.119380 2.177570 0.093300 
#    z -0.248030 0.093300 1.010140 
# 
# From -- ./inp_files/157676.got.cif
#   From: 2010.05.17/outbox.cif.g08.bks.cpg/sg2_79_cif.got.tgz:157676.got - 2010.06.03 11:33:40.
