data_PCOD9109292
_publ_section_title
;
Structure prediction by ZEFSAII (Michael W. Deem and Ramdas Pophale) SiO2 
 PCOD9109292
Probable space group: P -1
;
_chemical_formula_sum "Si O2"
_cell_formula_units_Z 16
_cell_length_a 11.986097
_cell_length_b 12.323469
_cell_length_c 11.864201
_cell_angle_alpha 38.782075
_cell_angle_beta 68.933403
_cell_angle_gamma 99.690406
_cell_volume 656.780425
_symmetry_space_group_name_H-M "P -1"
_symmetry_group_IT_number 2
_symmetry_cell_setting 'triclinic'
loop_
_space_group_symop_operation_xyz
x,y,z
-x,-y,-z
loop_
_atom_site_type_symbol
_atom_site_label
_atom_site_fract_x
_atom_site_fract_y
_atom_site_fract_z
Si Si1 0.489078 0.046175 0.095885
Si Si2 0.403396 0.187966 0.716787
Si Si3 0.120712 0.403693 0.096301
Si Si4 0.749387 0.780300 0.061552
Si Si5 0.082685 0.998212 0.856865
Si Si6 0.485988 0.570844 0.132521
Si Si7 0.898460 0.461047 0.245319
Si Si8 0.747204 0.783595 0.679966
O O1 0.592606 0.007407 0.156456
O O2 0.275386 0.814580 0.402378
O O3 0.578873 0.329954 0.860582
O O4 0.500000 0.000000 0.000000
O O5 0.618586 0.488525 0.405069
O O6 0.302976 0.109939 0.935514
O O7 0.292705 0.186890 0.670814
O O8 0.242504 0.401205 0.124688
O O9 0.048263 0.484332 0.131973
O O10 0.184181 0.547256 0.834804
O O11 0.939570 0.091718 0.381075
O O12 0.653991 0.679788 0.056661
O O13 0.967166 0.989202 0.816598
O O14 0.995515 0.714257 0.083277
O O15 0.000000 0.000000 0.000000
O O16 0.596190 0.728025 0.848534
O O17 0.311196 0.276588 0.380777
#
# Coordination Sequence:
#
# PCOD9109292 Si02
#       8
#     2   2   2   2   2   2   2   2
#     4  12  24  44  67  98 144 180 216 284 350 411
#     4  10  22  38  64  97 130 180 225 268 341 401
#     4  10  23  45  70  94 137 176 233 287 340 396
#     4  10  20  41  64  92 136 174 224 280 325 412
#     4  10  22  39  68  98 132 173 235 277 334 410
#     4  11  23  41  67  98 135 178 223 277 350 403
#     4  11  23  44  68  99 135 184 222 285 340 405
#     4  10  23  43  67  99 127 179 230 289 338 398
#
# _framework density 24.361262
#
# number of rings (size 3 to 8) (size 9 to 14) (size 15 to 20)
#    0.000    1.500    3.750    0.750    3.500    0.000 
#    0.000    1.250    0.000    0.000    0.000    0.000 
#    0.000    0.000    0.000    0.000    0.000    0.000 
#
# Total GULP energy -89309.080317 kJ/mol
# GULP energy per Si atom -5581.817520 kJ/mol
# Density = 2.430581 g / cm^3
# Si number density = 24.361262 Si / 1000 Ang^3
#
#
#
# Elastic Constant Matrix: (Units=GPa)
#
#
# Indices 1 2 3 4 5 6 
#
# 1 125.6012 45.1586 14.7382 -3.1490 -12.1596 7.4767
# 2 45.1586 154.4595 2.8847 -6.8158 -2.4178 -1.8499
# 3 14.7382 2.8847 45.2087 4.8391 -15.9465 5.6256
# 4 -3.1490 -6.8158 4.8391 32.2338 -3.1080 -1.3050
# 5 -12.1596 -2.4178 -15.9465 -3.1080 41.5177 -10.2501
# 6 7.4767 -1.8499 5.6256 -1.3050 -10.2501 46.2385
#
#
#
# Elastic Compliance Matrix: (Units=1/GPa)
#
#
# Indices 1 2 3 4 5 6 
#
# 1 0.009419 -0.002662 -0.002326 0.000814 0.001528 -0.000985
# 2 -0.002662 0.007315 0.000167 0.001290 -0.000011 0.000737
# 3 -0.002326 0.000167 0.026529 -0.003341 0.009037 -0.000936
# 4 0.000814 0.001290 -0.003341 0.032121 0.001840 0.001641
# 5 0.001528 -0.000011 0.009037 0.001840 0.029433 0.005230
# 6 -0.000985 0.000737 -0.000936 0.001641 0.005230 0.023135
#
#
# Mechanical properties :
#
#
# Convention : Reuss Voigt Hill
#
# Bulk Modulus (GPa) = 29.74373 50.09251 39.91812
# Shear Modulus (GPa) = 33.60197 41.49719 37.54958
#
# Velocity S-wave (km/s) = 3.71795 4.13172 3.93028
# Velocity P-wave (km/s) = 5.53776 6.58547 6.08421
#
# Compressibility (1/GPa) = 0.03362053
#
# Stress axis : x y z
#
# Youngs Moduli (GPa) = 106.17052 136.70540 37.69467
#
# Poissons Ratio (x) = 0.36394 0.08769
# Poissons Ratio (y) = 0.28265 -0.00631
# Poissons Ratio (z) = 0.24699 -0.02290
#
# Static dielectric constant tensor:
#      x y z
#    x 2.344780 -0.194360 -0.236130 
#    y -0.194360 2.075740 0.241450 
#    z -0.236130 0.241450 2.268040 
# 
# From -- ./inp_files/427381.got.cif
#   From: 2010.05.17/outbox.cif.g08.bks.cpg/sg2_214_cif.got.tgz:427381.got - 2010.06.03 11:33:40.
