data_PCOD9109240
_publ_section_title
;
Structure prediction by ZEFSAII (Michael W. Deem and Ramdas Pophale) SiO2 
 PCOD9109240
Probable space group: P -1
;
_chemical_formula_sum "Si O2"
_cell_formula_units_Z 14
_cell_length_a 20.161691
_cell_length_b 5.437558
_cell_length_c 16.946480
_cell_angle_alpha 93.120169
_cell_angle_beta 159.356033
_cell_angle_gamma 78.242375
_cell_volume 589.178661
_symmetry_space_group_name_H-M "P -1"
_symmetry_group_IT_number 2
_symmetry_cell_setting 'triclinic'
loop_
_space_group_symop_operation_xyz
x,y,z
-x,-y,-z
loop_
_atom_site_type_symbol
_atom_site_label
_atom_site_fract_x
_atom_site_fract_y
_atom_site_fract_z
Si Si1 0.630240 0.218828 0.094773
Si Si2 0.744486 0.473135 0.010057
Si Si3 0.142050 0.112728 0.111187
Si Si4 0.771604 0.629405 0.647996
Si Si5 0.407206 0.591183 0.311125
Si Si6 0.978521 0.725483 0.545012
Si Si7 0.495134 0.889544 0.207503
O O1 0.831271 0.208250 0.270650
O O2 0.749969 0.970430 0.283658
O O3 0.500000 0.500000 0.000000
O O4 0.490774 0.180725 0.870061
O O5 0.739432 0.490319 0.909628
O O6 0.647974 0.254616 0.918515
O O7 0.608345 0.783066 0.893436
O O8 0.957371 0.374935 0.295894
O O9 0.281235 0.151016 0.336148
O O10 0.266975 0.909597 0.177914
O O11 0.999623 0.403175 0.918275
O O12 0.000000 0.000000 0.000000
O O13 0.616806 0.492667 0.491521
O O14 0.705573 0.764965 0.492039
O O15 0.500000 0.500000 0.500000
O O16 0.000000 0.500000 0.500000
#
# Coordination Sequence:
#
# PCOD9109240 Si02
#       7
#     2   2   2   2   2   2   2
#     4  10  22  39  66  94 127 167 214 258 324 383
#     4  10  22  39  65  93 123 169 215 256 317 379
#     4  11  22  39  58  90 121 160 207 260 314 367
#     4  10  23  39  63  84 126 166 207 258 317 372
#     4  11  21  39  65  87 121 167 211 254 313 376
#     4  10  20  41  64  88 132 166 205 268 317 375
#     4  10  21  41  63  93 126 165 210 263 313 377
#
# _framework density 23.761890999999999
#
# number of rings (size 3 to 8) (size 9 to 14) (size 15 to 20)
#    0.000    1.714    2.857    1.286    2.000    2.857 
#    0.000    1.429    0.000    0.000    0.000    0.000 
#    0.000    0.000    0.000    0.000    0.000    0.000 
#
# Total GULP energy -78067.384922 kJ/mol
# GULP energy per Si atom -5576.241780 kJ/mol
# Density = 2.370781 g / cm^3
# Si number density = 23.761891 Si / 1000 Ang^3
#
#
#
# Elastic Constant Matrix: (Units=GPa)
#
#
# Indices 1 2 3 4 5 6 
#
# 1 91.1904 22.3425 56.4415 3.7267 -21.7459 -13.2271
# 2 22.3425 117.3431 47.4284 -8.4968 -25.1953 -40.8671
# 3 56.4415 47.4284 172.8486 0.0893 -71.2520 -39.9826
# 4 3.7267 -8.4968 0.0893 43.1354 -7.5200 0.4786
# 5 -21.7459 -25.1953 -71.2520 -7.5200 52.2899 21.3423
# 6 -13.2271 -40.8671 -39.9826 0.4786 21.3423 49.0587
#
#
#
# Elastic Compliance Matrix: (Units=1/GPa)
#
#
# Indices 1 2 3 4 5 6 
#
# 1 0.013995 -0.001365 -0.005058 -0.001752 -0.001680 -0.000738
# 2 -0.001365 0.012667 0.000005 0.002895 0.002204 0.009201
# 3 -0.005058 0.000005 0.015974 0.003641 0.018780 0.003454
# 4 -0.001752 0.002895 0.003641 0.025454 0.008981 0.000751
# 5 -0.001680 0.002204 0.018780 0.008981 0.048141 -0.004342
# 6 -0.000738 0.009201 0.003454 0.000751 -0.004342 0.032547
#
#
# Mechanical properties :
#
#
# Convention : Reuss Voigt Hill
#
# Bulk Modulus (GPa) = 33.55545 70.42297 51.98921
# Shear Modulus (GPa) = 29.14664 45.90814 37.52739
#
# Velocity S-wave (km/s) = 3.50610 4.40023 3.97836
# Velocity P-wave (km/s) = 5.52653 7.45099 6.55972
#
# Compressibility (1/GPa) = 0.02980142
#
# Stress axis : x y z
#
# Youngs Moduli (GPa) = 71.45500 78.94419 62.60206
#
# Poissons Ratio (x) = 0.10776 0.31662
# Poissons Ratio (y) = 0.09754 -0.00034
# Poissons Ratio (z) = 0.36140 -0.00043
#
# Static dielectric constant tensor:
#      x y z
#    x 2.033000 0.071860 -0.013820 
#    y 0.071860 1.893900 0.002620 
#    z -0.013820 0.002620 1.935890 
# 
# From -- ./inp_files/44428.got.cif
#   From: 2010.05.17/outbox.cif.g08.bks.cpg/sg2_23_cif.got.tgz:44428.got - 2010.06.03 11:33:40.
