data_PCOD9109337
_publ_section_title
;
Structure prediction by ZEFSAII (Michael W. Deem and Ramdas Pophale) SiO2 
 PCOD9109337
Probable space group: P -1
;
_chemical_formula_sum "Si O2"
_cell_formula_units_Z 15
_cell_length_a 18.249348
_cell_length_b 17.394008
_cell_length_c 9.856946
_cell_angle_alpha 142.652083
_cell_angle_beta 150.274773
_cell_angle_gamma 26.814351
_cell_volume 697.067290
_symmetry_space_group_name_H-M "P -1"
_symmetry_group_IT_number 2
_symmetry_cell_setting 'triclinic'
loop_
_space_group_symop_operation_xyz
x,y,z
-x,-y,-z
loop_
_atom_site_type_symbol
_atom_site_label
_atom_site_fract_x
_atom_site_fract_y
_atom_site_fract_z
Si Si1 0.451462 0.587619 0.747603
Si Si2 0.185713 0.162539 0.296557
Si Si3 0.194379 0.756472 0.327837
Si Si4 0.000000 0.500000 0.000000
Si Si5 0.430490 0.238154 0.679241
Si Si6 0.777134 0.773016 0.248288
Si Si7 0.408561 0.386546 0.568168
Si Si8 0.646470 0.089296 0.317481
O O1 0.247676 0.703387 0.496129
O O2 0.622598 0.415994 0.699058
O O3 0.434349 0.519118 0.763102
O O4 0.520202 0.691120 0.024452
O O5 0.245035 0.255783 0.442221
O O6 0.156781 0.216413 0.483279
O O7 0.379651 0.961283 0.318890
O O8 0.004425 0.192753 0.977604
O O9 0.216973 0.892935 0.522646
O O10 0.931994 0.590647 0.171637
O O11 0.200256 0.468084 0.282791
O O12 0.405246 0.336008 0.642386
O O13 0.754025 0.902516 0.285169
O O14 0.553004 0.841016 0.986081
O O15 0.571441 0.211196 0.499379
#
# Coordination Sequence:
#
# PCOD9109337 Si02
#       8
#     2   2   2   1   2   2   2   2
#     4  10  23  43  65  88 135 169 218 269 325 373
#     4  11  25  41  66  94 133 168 219 265 325 380
#     4  10  23  42  63  98 123 177 215 268 322 387
#     4  10  24  36  66 100 124 160 220 260 326 384
#     4  11  24  43  63  96 130 173 215 269 316 389
#     4  10  20  41  64  97 125 174 208 271 318 388
#     4  10  21  41  63  94 127 171 212 272 314 382
#     4   9  19  40  67  86 133 168 212 260 327 384
#
# _framework density 21.518726999999998
#
# number of rings (size 3 to 8) (size 9 to 14) (size 15 to 20)
#    0.000    1.867    1.333    1.200    3.733    3.733 
#    0.000    0.000    0.000    0.000    0.000    0.000 
#    0.000    0.000    0.000    0.000    0.000    0.000 
#
# Total GULP energy -83511.319702 kJ/mol
# GULP energy per Si atom -5567.421313 kJ/mol
# Density = 2.146975 g / cm^3
# Si number density = 21.518727 Si / 1000 Ang^3
#
#
#
# Elastic Constant Matrix: (Units=GPa)
#
#
# Indices 1 2 3 4 5 6 
#
# 1 113.7851 28.5349 59.1533 3.7396 52.3024 46.4405
# 2 28.5349 24.2757 30.6232 -4.5358 2.6571 13.6596
# 3 59.1533 30.6232 132.5932 9.9069 63.4945 38.0776
# 4 3.7396 -4.5358 9.9069 38.2671 26.3450 3.7121
# 5 52.3024 2.6571 63.4945 26.3450 74.6197 -9.3219
# 6 46.4405 13.6596 38.0776 3.7121 -9.3219 15.0940
#
#
#
# Elastic Compliance Matrix: (Units=1/GPa)
#
#
# Indices 1 2 3 4 5 6 
#
# 1 0.005644 -0.006287 -0.008186 -0.005382 0.006956 0.014592
# 2 -0.006287 0.077804 -0.011190 0.012354 0.003861 -0.023493
# 3 -0.008186 -0.011190 0.009587 -0.005377 0.001551 0.013406
# 4 -0.005382 0.012354 -0.005377 0.029094 -0.000967 0.011190
# 5 0.006956 0.003861 0.001551 -0.000967 0.004162 -0.026000
# 6 0.014592 -0.023493 0.013406 0.011190 -0.026000 -0.010013
#
#
# Mechanical properties :
#
#
# Convention : Reuss Voigt Hill
#
# Bulk Modulus (GPa) = 23.97437 56.36406 40.16921
# Shear Modulus (GPa) = 27.54721 35.75233 31.64977
#
# Velocity S-wave (km/s) = 3.58180 4.08051 3.83926
# Velocity P-wave (km/s) = 5.31706 6.96065 6.19362
#
# Compressibility (1/GPa) = 0.04171122
#
# Stress axis : x y z
#
# Youngs Moduli (GPa) = 177.17212 12.85286 104.30490
#
# Poissons Ratio (x) = 0.08080 0.85379
# Poissons Ratio (y) = 1.11379 1.16717
# Poissons Ratio (z) = 1.45025 0.14382
#
# Static dielectric constant tensor:
#      x y z
#    x 1.788690 0.015810 -0.009780 
#    y 0.015810 1.771750 -0.006200 
#    z -0.009780 -0.006200 1.743060 
# 
# From -- ./inp_files/157623.got.cif
#   From: 2010.05.17/outbox.cif.g08.bks.cpg/sg2_79_cif.got.tgz:157623.got - 2010.06.03 11:33:40.
