data_PCOD9109317
_publ_section_title
;
Structure prediction by ZEFSAII (Michael W. Deem and Ramdas Pophale) SiO2 
 PCOD9109317
Probable space group: P -1
;
_chemical_formula_sum "Si O2"
_cell_formula_units_Z 16
_cell_length_a 10.100338
_cell_length_b 18.971175
_cell_length_c 7.815388
_cell_angle_alpha 109.579941
_cell_angle_beta 90.156656
_cell_angle_gamma 31.646351
_cell_volume 607.439057
_symmetry_space_group_name_H-M "P -1"
_symmetry_group_IT_number 2
_symmetry_cell_setting 'triclinic'
loop_
_space_group_symop_operation_xyz
x,y,z
-x,-y,-z
loop_
_atom_site_type_symbol
_atom_site_label
_atom_site_fract_x
_atom_site_fract_y
_atom_site_fract_z
Si Si1 0.757109 0.972390 0.258917
Si Si2 0.247041 0.844882 0.080176
Si Si3 0.369601 0.151584 0.055513
Si Si4 0.411518 0.278309 0.679233
Si Si5 0.745833 0.227128 0.423583
Si Si6 0.830725 0.583818 0.747627
Si Si7 0.820342 0.321129 0.759883
Si Si8 0.999753 0.239823 0.342821
O O1 0.045244 0.874776 0.119244
O O2 0.895908 0.827544 0.228319
O O3 0.533618 0.079229 0.183124
O O4 0.588728 0.111549 0.505617
O O5 0.444758 0.760721 0.182053
O O6 0.508489 0.705571 0.825136
O O7 0.021732 0.030783 0.210165
O O8 0.264116 0.283939 0.093209
O O9 0.067790 0.257959 0.196450
O O10 0.655948 0.971919 0.804311
O O11 0.488757 0.301530 0.552797
O O12 0.058717 0.438766 0.775502
O O13 0.813977 0.241418 0.609071
O O14 0.760757 0.293359 0.355750
O O15 0.000000 0.500000 0.500000
O O16 0.895871 0.330007 0.595242
O O17 0.500000 0.500000 0.000000
#
# Coordination Sequence:
#
# PCOD9109317 Si02
#       8
#     2   2   2   2   2   2   2   2
#     4  11  22  40  69  96 121 162 211 264 316 376
#     4  11  20  41  68  90 125 165 209 262 317 373
#     4  11  23  43  61  92 132 174 210 246 318 387
#     4  11  20  41  67  92 127 159 207 269 315 367
#     4   9  18  40  68  87 117 161 212 250 319 371
#     4  12  25  38  57  96 132 162 209 258 308 377
#     4  10  20  41  64  95 121 155 216 266 303 368
#     4   9  21  44  63  82 131 173 206 252 311 384
#
# _framework density 26.34009
#
# number of rings (size 3 to 8) (size 9 to 14) (size 15 to 20)
#    0.750    0.750    5.000    1.125    0.000    3.000 
#    4.500    1.250    0.000    0.000    0.000    0.000 
#    0.000    0.000    0.000    0.000    0.000    0.000 
#
# Total GULP energy -89382.740291 kJ/mol
# GULP energy per Si atom -5586.421268 kJ/mol
# Density = 2.628014 g / cm^3
# Si number density = 26.340090 Si / 1000 Ang^3
#
#
#
# Elastic Constant Matrix: (Units=GPa)
#
#
# Indices 1 2 3 4 5 6 
#
# 1 76.3878 4.4483 2.9577 4.2993 -22.3000 5.5700
# 2 4.4483 73.3112 4.7556 -0.1046 5.9353 -7.5644
# 3 2.9577 4.7556 127.9707 -5.2068 -1.4139 -5.1579
# 4 4.2993 -0.1046 -5.2068 36.3935 -5.4141 2.3946
# 5 -22.3000 5.9353 -1.4139 -5.4141 32.9813 -6.3923
# 6 5.5700 -7.5644 -5.1579 2.3946 -6.3923 33.4198
#
#
#
# Elastic Compliance Matrix: (Units=1/GPa)
#
#
# Indices 1 2 3 4 5 6 
#
# 1 0.016622 -0.002023 -0.000237 -0.000245 0.011344 -0.001078
# 2 -0.002023 0.014371 -0.000429 -0.000491 -0.003493 0.002891
# 3 -0.000237 -0.000429 0.007940 0.001185 0.000687 0.001214
# 4 -0.000245 -0.000491 0.001185 0.028404 0.004428 -0.001076
# 5 0.011344 -0.003493 0.000687 0.004428 0.040309 0.004818
# 6 -0.001078 0.002891 0.001214 -0.001076 0.004818 0.031942
#
#
# Mechanical properties :
#
#
# Convention : Reuss Voigt Hill
#
# Bulk Modulus (GPa) = 29.80191 33.55478 31.67834
# Shear Modulus (GPa) = 32.01983 38.25943 35.13963
#
# Velocity S-wave (km/s) = 3.49037 3.81532 3.65646
# Velocity P-wave (km/s) = 5.25190 5.67236 5.46617
#
# Compressibility (1/GPa) = 0.03355489
#
# Stress axis : x y z
#
# Youngs Moduli (GPa) = 60.16113 69.58226 125.93683
#
# Poissons Ratio (x) = 0.14077 0.02985
# Poissons Ratio (y) = 0.12171 0.05407
# Poissons Ratio (z) = 0.01426 0.02988
#
# Static dielectric constant tensor:
#      x y z
#    x 2.110410 0.008260 -0.002800 
#    y 0.008260 2.040140 -0.055800 
#    z -0.002800 -0.055800 2.147370 
# 
# From -- ./inp_files/282017.got.cif
#   From: 2010.05.17/outbox.cif.g08.bks.cpg/sg2_142_cif.got.tgz:282017.got - 2010.06.03 11:33:40.
