data_PCOD9109869
_publ_section_title
;
Structure prediction by ZEFSAII (Michael W. Deem and Ramdas Pophale) SiO2 
 PCOD9109869
Probable space group: P -1
;
_chemical_formula_sum "Si O2"
_cell_formula_units_Z 15
_cell_length_a 8.438803
_cell_length_b 8.497793
_cell_length_c 9.356183
_cell_angle_alpha 95.160791
_cell_angle_beta 82.745206
_cell_angle_gamma 56.596687
_cell_volume 545.230501
_symmetry_space_group_name_H-M "P -1"
_symmetry_group_IT_number 2
_symmetry_cell_setting 'triclinic'
loop_
_space_group_symop_operation_xyz
x,y,z
-x,-y,-z
loop_
_atom_site_type_symbol
_atom_site_label
_atom_site_fract_x
_atom_site_fract_y
_atom_site_fract_z
Si Si1 0.250478 0.082135 0.446181
Si Si2 0.403702 0.983417 0.736077
Si Si3 0.611430 0.280560 0.745982
Si Si4 0.587749 0.576101 0.611020
Si Si5 0.029637 0.300627 0.843789
Si Si6 0.853594 0.436662 0.181941
Si Si7 0.945305 0.003479 0.844501
Si Si8 0.000000 0.500000 0.500000
O O1 0.383166 0.064688 0.295649
O O2 0.051246 0.283690 0.478606
O O3 0.331767 0.070860 0.592743
O O4 0.273335 0.882663 0.402577
O O5 0.426301 0.783828 0.712354
O O6 0.251160 0.154737 0.868527
O O7 0.659905 0.435901 0.726850
O O8 0.378139 0.407756 0.765809
O O9 0.712862 0.153910 0.864654
O O10 0.500000 0.500000 0.500000
O O11 0.759938 0.587740 0.531601
O O12 0.035825 0.463570 0.767190
O O13 0.010953 0.131768 0.771896
O O14 0.894287 0.403061 0.004098
O O15 0.950420 0.222604 0.217343
O O16 0.000000 0.000000 0.000000
#
# Coordination Sequence:
#
# PCOD9109869 Si02
#       8
#     2   2   2   2   2   2   2   1
#     4  10  22  39  66 101 143 186 234 295 367 457
#     4  10  20  41  67  99 146 187 234 302 370 443
#     4  12  24  45  72 107 141 193 246 301 385 450
#     4  11  24  45  70 107 148 199 244 311 379 460
#     4  10  21  42  73 100 138 192 243 308 369 432
#     4  10  23  46  72 103 140 192 249 313 370 442
#     4  10  25  46  68 103 143 192 246 311 368 443
#     4  10  26  42  64 106 152 194 244 298 374 462
#
# _framework density 27.511303000000002
#
# number of rings (size 3 to 8) (size 9 to 14) (size 15 to 20)
#    0.000    1.600    2.667    0.800    1.867    5.867 
#    2.400    6.000    0.000    0.000    0.000    0.000 
#    0.000    0.000    0.000    0.000    0.000    0.000 
#
# Total GULP energy -83513.084999 kJ/mol
# GULP energy per Si atom -5567.539000 kJ/mol
# Density = 2.744869 g / cm^3
# Si number density = 27.511303 Si / 1000 Ang^3
#
#
#
# Elastic Constant Matrix: (Units=GPa)
#
#
# Indices 1 2 3 4 5 6 
#
# 1 108.1435 51.6269 29.4909 -0.2201 -3.7909 22.5874
# 2 51.6269 288.5874 36.6921 14.5187 -2.2048 12.3403
# 3 29.4909 36.6921 70.7846 12.0955 1.5774 -7.8151
# 4 -0.2201 14.5187 12.0955 43.5355 -0.6867 -3.9118
# 5 -3.7909 -2.2048 1.5774 -0.6867 40.5184 1.9563
# 6 22.5874 12.3403 -7.8151 -3.9118 1.9563 59.3009
#
#
#
# Elastic Compliance Matrix: (Units=1/GPa)
#
#
# Indices 1 2 3 4 5 6 
#
# 1 0.012507 -0.001405 -0.005354 0.001584 0.001576 -0.005124
# 2 -0.001405 0.003964 -0.001362 -0.000997 0.000146 -0.000540
# 3 -0.005354 -0.001362 0.018329 -0.004285 -0.001579 0.004508
# 4 0.001584 -0.000997 -0.004285 0.024568 0.000646 0.000639
# 5 0.001576 0.000146 -0.001579 0.000646 0.024986 -0.001621
# 6 -0.005124 -0.000540 0.004508 0.000639 -0.001621 0.019617
#
#
# Mechanical properties :
#
#
# Convention : Reuss Voigt Hill
#
# Bulk Modulus (GPa) = 53.88525 78.12615 66.00570
# Shear Modulus (GPa) = 39.55739 51.98465 45.77102
#
# Velocity S-wave (km/s) = 3.79603 4.35164 4.08329
# Velocity P-wave (km/s) = 6.23235 7.32861 6.80260
#
# Compressibility (1/GPa) = 0.01855795
#
# Stress axis : x y z
#
# Youngs Moduli (GPa) = 79.95815 252.26776 54.55860
#
# Poissons Ratio (x) = 0.35448 0.29209
# Poissons Ratio (y) = 0.11236 0.07430
# Poissons Ratio (z) = 0.42807 0.34356
#
# Static dielectric constant tensor:
#      x y z
#    x 2.483540 -0.002550 -0.041810 
#    y -0.002550 2.080740 0.207350 
#    z -0.041810 0.207350 1.927900 
# 
# From -- ./inp_files/382262.got.cif
#   From: 2010.05.17/outbox.cif.g08.bks.cpg/sg2_192_cif.got.tgz:382262.got - 2010.06.03 11:33:40.
