data_PCOD9109094
_publ_section_title
;
Structure prediction by ZEFSAII (Michael W. Deem and Ramdas Pophale) SiO2 
 PCOD9109094
Probable space group: P -1
;
_chemical_formula_sum "Si O2"
_cell_formula_units_Z 14
_cell_length_a 9.843551
_cell_length_b 21.528349
_cell_length_c 4.929409
_cell_angle_alpha 82.634797
_cell_angle_beta 91.447726
_cell_angle_gamma 149.907079
_cell_volume 511.690450
_symmetry_space_group_name_H-M "P -1"
_symmetry_group_IT_number 2
_symmetry_cell_setting 'triclinic'
loop_
_space_group_symop_operation_xyz
x,y,z
-x,-y,-z
loop_
_atom_site_type_symbol
_atom_site_label
_atom_site_fract_x
_atom_site_fract_y
_atom_site_fract_z
Si Si1 0.447421 0.712827 0.892941
Si Si2 0.708917 0.997440 0.099591
Si Si3 0.288779 0.761129 0.503113
Si Si4 0.853999 0.190157 0.126025
Si Si5 0.215555 0.179597 0.681627
Si Si6 0.777987 0.572611 0.290653
Si Si7 0.539476 0.412535 0.868671
O O1 0.289507 0.705225 0.746115
O O2 0.682292 0.787619 0.637631
O O3 0.606374 0.794675 0.128868
O O4 0.299279 0.588997 0.044293
O O5 0.843516 0.111193 0.196486
O O6 0.598375 0.903257 0.360236
O O7 0.906077 0.051433 0.843587
O O8 0.423937 0.905096 0.998352
O O9 0.170436 0.777919 0.624079
O O10 0.079049 0.660887 0.305591
O O11 0.117332 0.320730 0.898900
O O12 0.311435 0.285639 0.744760
O O13 0.656965 0.512015 0.615608
O O14 0.570848 0.456849 0.138339
#
# Coordination Sequence:
#
# PCOD9109094 Si02
#       7
#     2   2   2   2   2   2   2
#     4  10  24  40  65  98 131 167 211 248 332 376
#     4  10  24  43  69  90 131 166 219 267 314 371
#     4  11  24  40  68  97 129 166 213 267 319 373
#     4  10  23  44  66 100 119 172 215 271 314 371
#     4  10  23  44  63  95 132 172 205 258 317 383
#     4  11  21  40  67  93 131 164 215 259 318 371
#     4  10  20  41  62  95 132 168 206 257 313 390
#
# _framework density 27.360289999999999
#
# number of rings (size 3 to 8) (size 9 to 14) (size 15 to 20)
#    0.857    0.857    2.857    0.429    6.000    2.286 
#    0.000    1.429    0.000    0.000    0.000    0.000 
#    0.000    0.000    0.000    0.000    0.000    0.000 
#
# Total GULP energy -78164.357386 kJ/mol
# GULP energy per Si atom -5583.168385 kJ/mol
# Density = 2.729802 g / cm^3
# Si number density = 27.360290 Si / 1000 Ang^3
#
#
#
# Elastic Constant Matrix: (Units=GPa)
#
#
# Indices 1 2 3 4 5 6 
#
# 1 77.6735 25.8346 28.7532 7.8318 9.7851 -17.3235
# 2 25.8346 97.1887 53.8194 -13.5358 -0.5877 -9.4792
# 3 28.7532 53.8194 162.0630 -6.7459 1.3225 -13.4931
# 4 7.8318 -13.5358 -6.7459 48.3250 4.8945 -5.4208
# 5 9.7851 -0.5877 1.3225 4.8945 49.3935 -2.7355
# 6 -17.3235 -9.4792 -13.4931 -5.4208 -2.7355 37.3726
#
#
#
# Elastic Compliance Matrix: (Units=1/GPa)
#
#
# Indices 1 2 3 4 5 6 
#
# 1 0.016427 -0.003471 -0.001395 -0.002931 -0.002657 0.005611
# 2 -0.003471 0.013978 -0.003763 0.004025 0.000623 0.001207
# 3 -0.001395 -0.003763 0.007790 0.000397 0.000054 0.001273
# 4 -0.002931 0.004025 0.000397 0.022838 -0.001479 0.003010
# 5 -0.002657 0.000623 0.000054 -0.001479 0.020939 0.000264
# 6 0.005611 0.001207 0.001273 0.003010 0.000264 0.030580
#
#
# Mechanical properties :
#
#
# Convention : Reuss Voigt Hill
#
# Bulk Modulus (GPa) = 47.76425 61.52661 54.64543
# Shear Modulus (GPa) = 36.55270 42.25273 39.40272
#
# Velocity S-wave (km/s) = 3.65907 3.93403 3.79904
# Velocity P-wave (km/s) = 5.94534 6.57053 6.26574
#
# Compressibility (1/GPa) = 0.02093616
#
# Stress axis : x y z
#
# Youngs Moduli (GPa) = 60.87579 71.54178 128.37542
#
# Poissons Ratio (x) = 0.24833 0.17907
# Poissons Ratio (y) = 0.21131 0.48309
# Poissons Ratio (z) = 0.08492 0.26922
#
# Static dielectric constant tensor:
#      x y z
#    x 2.299520 0.078070 -0.064720 
#    y 0.078070 2.113170 -0.080500 
#    z -0.064720 -0.080500 2.126390 
# 
# From -- ./inp_files/83813.got.cif
#   From: 2010.05.17/outbox.cif.g08.bks.cpg/sg2_42_cif.got.tgz:83813.got - 2010.06.03 11:33:40.
