data_PCOD9109461
_publ_section_title
;
Structure prediction by ZEFSAII (Michael W. Deem and Ramdas Pophale) SiO2 
 PCOD9109461
Probable space group: P -1
;
_chemical_formula_sum "Si O2"
_cell_formula_units_Z 16
_cell_length_a 16.407974
_cell_length_b 12.846540
_cell_length_c 11.187934
_cell_angle_alpha 66.036632
_cell_angle_beta 130.444495
_cell_angle_gamma 154.907073
_cell_volume 629.626138
_symmetry_space_group_name_H-M "P -1"
_symmetry_group_IT_number 2
_symmetry_cell_setting 'triclinic'
loop_
_space_group_symop_operation_xyz
x,y,z
-x,-y,-z
loop_
_atom_site_type_symbol
_atom_site_label
_atom_site_fract_x
_atom_site_fract_y
_atom_site_fract_z
Si Si1 0.203053 0.580972 0.223085
Si Si2 0.825758 0.906159 0.674469
Si Si3 0.271148 0.186473 0.884370
Si Si4 0.268282 0.543731 0.817366
Si Si5 0.482165 0.856404 0.103244
Si Si6 0.356458 0.973694 0.199822
Si Si7 0.546784 0.345840 0.386372
Si Si8 0.138268 0.981252 0.592445
O O1 0.372949 0.750786 0.182294
O O2 0.280954 0.774840 0.273386
O O3 0.302600 0.573877 0.400084
O O4 0.885243 0.260875 0.024090
O O5 0.711208 0.813727 0.474036
O O6 0.000377 0.960506 0.806326
O O7 0.021442 0.211825 0.725679
O O8 0.630083 0.728938 0.684555
O O9 0.193176 0.103450 0.709507
O O10 0.500000 0.500000 0.000000
O O11 0.443346 0.240219 0.038166
O O12 0.333055 0.713249 0.711828
O O13 0.277327 0.591672 0.939935
O O14 0.753163 0.041423 0.277142
O O15 0.500000 0.000000 0.000000
O O16 0.364885 0.077455 0.262913
O O17 0.804852 0.645963 0.414752
#
# Coordination Sequence:
#
# PCOD9109461 Si02
#       8
#     2   2   2   2   2   2   2   2
#     4  11  23  40  63  95 132 177 223 262 326 388
#     4  11  22  43  65  93 128 169 217 268 329 385
#     4   9  21  40  71  94 122 169 217 267 331 387
#     4  10  20  41  65  93 129 170 217 268 330 381
#     4  11  21  39  64  94 126 176 218 263 322 392
#     4  11  23  41  64  92 137 174 214 278 319 384
#     4  12  25  43  65 100 132 170 223 267 324 389
#     4  11  23  42  67  93 135 166 209 277 323 381
#
# _framework density 25.411906999999999
#
# number of rings (size 3 to 8) (size 9 to 14) (size 15 to 20)
#    0.000    1.250    3.750    3.000    1.750    0.500 
#    2.250    2.500    0.000    0.000    0.000    0.000 
#    0.000    0.000    0.000    0.000    0.000    0.000 
#
# Total GULP energy -89430.898354 kJ/mol
# GULP energy per Si atom -5589.431147 kJ/mol
# Density = 2.535407 g / cm^3
# Si number density = 25.411907 Si / 1000 Ang^3
#
#
#
# Elastic Constant Matrix: (Units=GPa)
#
#
# Indices 1 2 3 4 5 6 
#
# 1 159.8894 23.7081 35.3452 18.2860 -22.0190 1.9630
# 2 23.7081 62.9504 8.2257 19.9795 -9.7662 -8.6349
# 3 35.3452 8.2257 69.8307 6.2251 -17.5535 -5.9036
# 4 18.2860 19.9795 6.2251 40.4809 -5.6445 -8.4472
# 5 -22.0190 -9.7662 -17.5535 -5.6445 42.4041 3.2718
# 6 1.9630 -8.6349 -5.9036 -8.4472 3.2718 45.3183
#
#
#
# Elastic Compliance Matrix: (Units=1/GPa)
#
#
# Indices 1 2 3 4 5 6 
#
# 1 0.007773 -0.001698 -0.003126 -0.002231 0.002181 -0.001641
# 2 -0.001698 0.019802 0.000055 -0.008227 0.002441 0.002144
# 3 -0.003126 0.000055 0.017444 -0.000121 0.005440 0.002003
# 4 -0.002231 -0.008227 -0.000121 0.030759 0.000667 0.004198
# 5 0.002181 0.002441 0.005440 0.000667 0.027679 -0.000795
# 6 -0.001641 0.002144 0.002003 0.004198 -0.000795 0.023647
#
#
# Mechanical properties :
#
#
# Convention : Reuss Voigt Hill
#
# Bulk Modulus (GPa) = 28.18405 47.46984 37.82695
# Shear Modulus (GPa) = 33.67769 40.66677 37.17223
#
# Velocity S-wave (km/s) = 3.64438 4.00472 3.82879
# Velocity P-wave (km/s) = 5.36876 6.33280 5.87061
#
# Compressibility (1/GPa) = 0.03548106
#
# Stress axis : x y z
#
# Youngs Moduli (GPa) = 128.65677 50.50098 57.32772
#
# Poissons Ratio (x) = 0.08573 0.17920
# Poissons Ratio (y) = 0.21840 -0.00315
# Poissons Ratio (z) = 0.40216 -0.00278
#
# Static dielectric constant tensor:
#      x y z
#    x 2.036510 -0.047960 0.073940 
#    y -0.047960 2.121780 -0.072370 
#    z 0.073940 -0.072370 2.097150 
# 
# From -- ./inp_files/399487.got.cif
#   From: 2010.05.17/outbox.cif.g08.bks.cpg/sg2_200_cif.got.tgz:399487.got - 2010.06.03 11:33:40.
