data_PCOD9109953
_publ_section_title
;
Structure prediction by ZEFSAII (Michael W. Deem and Ramdas Pophale) SiO2 
 PCOD9109953
Probable space group: P -1
;
_chemical_formula_sum "Si O2"
_cell_formula_units_Z 14
_cell_length_a 9.535211
_cell_length_b 12.106687
_cell_length_c 9.822009
_cell_angle_alpha 49.167631
_cell_angle_beta 50.579914
_cell_angle_gamma 63.728554
_cell_volume 662.007663
_symmetry_space_group_name_H-M "P -1"
_symmetry_group_IT_number 2
_symmetry_cell_setting 'triclinic'
loop_
_space_group_symop_operation_xyz
x,y,z
-x,-y,-z
loop_
_atom_site_type_symbol
_atom_site_label
_atom_site_fract_x
_atom_site_fract_y
_atom_site_fract_z
Si Si1 0.348996 0.981501 0.718538
Si Si2 0.148821 0.280274 0.606895
Si Si3 0.663873 0.590053 0.382661
Si Si4 0.914945 0.160335 0.391112
Si Si5 0.490693 0.888150 0.216512
Si Si6 0.853362 0.281415 0.029511
Si Si7 0.954347 0.582448 0.728995
O O1 0.292954 0.816421 0.872509
O O2 0.500000 0.000000 0.500000
O O3 0.195769 0.110482 0.681474
O O4 0.431360 0.025498 0.774493
O O5 0.315813 0.365694 0.504258
O O6 0.074722 0.362063 0.452626
O O7 0.008631 0.280161 0.818766
O O8 0.500000 0.500000 0.500000
O O9 0.625807 0.749373 0.213511
O O10 0.847229 0.497937 0.307893
O O11 0.710113 0.164287 0.578273
O O12 0.901297 0.199746 0.207700
O O13 0.040475 0.278396 0.289204
O O14 0.000000 0.000000 0.500000
O O15 0.500000 0.000000 0.000000
O O16 0.817091 0.453267 0.945472
#
# Coordination Sequence:
#
# PCOD9109953 Si02
#       7
#     2   2   2   2   2   2   2
#     4  11  23  44  67  96 137 175 224 280 335 393
#     4  10  24  42  71  99 132 179 229 267 334 408
#     4  10  20  41  68  94 135 168 222 279 327 386
#     4  12  26  42  67  98 139 174 226 275 334 407
#     4  11  26  42  67  99 131 179 227 273 335 396
#     4  11  23  43  67  96 132 176 221 277 334 395
#     4  11  24  44  71 100 130 180 229 273 336 400
#
# _framework density 21.147790000000001
#
# number of rings (size 3 to 8) (size 9 to 14) (size 15 to 20)
#    0.000    1.143    2.857    3.429    8.000    1.143 
#    0.000    0.714    3.143    0.000    0.000    0.000 
#    0.000    0.000    0.000    0.000    0.000    0.000 
#
# Total GULP energy -78119.555292 kJ/mol
# GULP energy per Si atom -5579.968235 kJ/mol
# Density = 2.109966 g / cm^3
# Si number density = 21.147790 Si / 1000 Ang^3
#
#
#
# Elastic Constant Matrix: (Units=GPa)
#
#
# Indices 1 2 3 4 5 6 
#
# 1 70.5672 26.3935 40.9956 -20.2106 -0.8875 20.8154
# 2 26.3935 109.0305 32.8973 -34.9138 2.5212 24.3456
# 3 40.9956 32.8973 113.7313 -15.7619 19.3518 13.2846
# 4 -20.2106 -34.9138 -15.7619 32.2354 7.1855 -10.0784
# 5 -0.8875 2.5212 19.3518 7.1855 46.1907 -14.0739
# 6 20.8154 24.3456 13.2846 -10.0784 -14.0739 43.7737
#
#
#
# Elastic Compliance Matrix: (Units=1/GPa)
#
#
# Indices 1 2 3 4 5 6 
#
# 1 0.022307 0.001495 -0.005932 0.010590 -0.001119 -0.007560
# 2 0.001495 0.016320 -0.001188 0.016940 -0.005192 -0.007196
# 3 -0.005932 -0.001188 0.012884 0.002091 -0.006381 -0.001999
# 4 0.010590 0.016940 0.002091 0.058001 -0.012360 -0.005712
# 5 -0.001119 -0.005192 -0.006381 -0.012360 0.030234 0.012231
# 6 -0.007560 -0.007196 -0.001999 -0.005712 0.012231 0.033666
#
#
# Mechanical properties :
#
#
# Convention : Reuss Voigt Hill
#
# Bulk Modulus (GPa) = 24.83823 54.87799 39.85811
# Shear Modulus (GPa) = 25.24224 37.30945 31.27585
#
# Velocity S-wave (km/s) = 3.45862 4.20482 3.84984
# Velocity P-wave (km/s) = 5.26497 7.04132 6.21692
#
# Compressibility (1/GPa) = 0.04026053
#
# Stress axis : x y z
#
# Youngs Moduli (GPa) = 44.82913 61.27623 77.61825
#
# Poissons Ratio (x) = -0.09162 0.46044
# Poissons Ratio (y) = -0.06703 0.09219
# Poissons Ratio (z) = 0.26593 0.07278
#
# Static dielectric constant tensor:
#      x y z
#    x 1.822520 0.020190 -0.066660 
#    y 0.020190 1.841960 -0.061850 
#    z -0.066660 -0.061850 1.790770 
# 
# From -- ./inp_files/158261.got.cif
#   From: 2010.05.17/outbox.cif.g08.bks.cpg/sg2_80_cif.got.tgz:158261.got - 2010.06.03 11:33:40.
