data_PCOD9109507
_publ_section_title
;
Structure prediction by ZEFSAII (Michael W. Deem and Ramdas Pophale) SiO2 
 PCOD9109507
Probable space group: P -1
;
_chemical_formula_sum "Si O2"
_cell_formula_units_Z 16
_cell_length_a 15.840260
_cell_length_b 10.212290
_cell_length_c 10.313893
_cell_angle_alpha 68.257591
_cell_angle_beta 24.817553
_cell_angle_gamma 63.685434
_cell_volume 625.458035
_symmetry_space_group_name_H-M "P -1"
_symmetry_group_IT_number 2
_symmetry_cell_setting 'triclinic'
loop_
_space_group_symop_operation_xyz
x,y,z
-x,-y,-z
loop_
_atom_site_type_symbol
_atom_site_label
_atom_site_fract_x
_atom_site_fract_y
_atom_site_fract_z
Si Si1 0.641743 0.344393 0.818027
Si Si2 0.819553 0.921862 0.821614
Si Si3 0.851854 0.926406 0.486358
Si Si4 0.169098 0.007777 0.873298
Si Si5 0.568038 0.727642 0.362963
Si Si6 0.575222 0.450131 0.599603
Si Si7 0.416622 0.131782 0.327046
Si Si8 0.123611 0.621692 0.277655
O O1 0.692644 0.356585 0.592431
O O2 0.833741 0.314759 0.663131
O O3 0.500000 0.500000 0.000000
O O4 0.478852 0.251036 0.108764
O O5 0.749812 0.915632 0.769725
O O6 0.762607 0.782753 0.017959
O O7 0.000000 0.000000 0.500000
O O8 0.642011 0.047748 0.094198
O O9 0.678337 0.962955 0.605191
O O10 0.997634 0.760731 0.319413
O O11 0.015031 0.024064 0.206370
O O12 0.374116 0.864455 0.635200
O O13 0.257731 0.145885 0.662933
O O14 0.000000 0.000000 0.000000
O O15 0.654026 0.586005 0.388079
O O16 0.459430 0.657741 0.424267
O O17 0.345261 0.540569 0.937648
O O18 0.000000 0.500000 0.500000
#
# Coordination Sequence:
#
# PCOD9109507 Si02
#       8
#     2   2   2   2   2   2   2   2
#     4  10  21  38  58  94 123 163 212 260 321 373
#     4  11  23  39  61  91 128 169 217 264 317 389
#     4  11  20  38  61  91 122 167 216 259 321 380
#     4   9  20  37  62  94 127 162 217 265 316 383
#     4  10  20  41  65  97 130 174 217 259 335 384
#     4  10  21  38  67  93 131 173 210 267 324 393
#     4  10  21  39  63  90 126 164 208 269 320 383
#     4  11  21  36  62  94 126 166 216 265 316 388
#
# _framework density 25.581253
#
# number of rings (size 3 to 8) (size 9 to 14) (size 15 to 20)
#    0.000    1.750    1.250    4.125    0.000    2.000 
#    4.500    1.875    0.000    9.000    0.000    0.000 
#    0.000    0.000    0.000    0.000    0.000    0.000 
#
# Total GULP energy -89162.733655 kJ/mol
# GULP energy per Si atom -5572.670853 kJ/mol
# Density = 2.552303 g / cm^3
# Si number density = 25.581253 Si / 1000 Ang^3
#
#
#
# Elastic Constant Matrix: (Units=GPa)
#
#
# Indices 1 2 3 4 5 6 
#
# 1 83.0985 21.6022 49.1349 -15.9333 8.6081 -7.8760
# 2 21.6022 98.7467 56.8048 -38.6241 5.5849 -2.1129
# 3 49.1349 56.8048 203.9798 -57.0070 11.0991 -12.0706
# 4 -15.9333 -38.6241 -57.0070 68.0632 -7.9273 7.2542
# 5 8.6081 5.5849 11.0991 -7.9273 47.8514 -5.3359
# 6 -7.8760 -2.1129 -12.0706 7.2542 -5.3359 25.3259
#
#
#
# Elastic Compliance Matrix: (Units=1/GPa)
#
#
# Indices 1 2 3 4 5 6 
#
# 1 0.014505 -0.001487 -0.002941 -0.000382 -0.001507 0.002777
# 2 -0.001487 0.013921 -0.001912 0.006150 -0.000118 -0.001998
# 3 -0.002941 -0.001912 0.007423 0.004301 -0.000123 0.001206
# 4 -0.000382 0.006150 0.004301 0.022269 0.001642 -0.003588
# 5 -0.001507 -0.000118 -0.000123 0.001642 0.021885 0.003603
# 6 0.002777 -0.001998 0.001206 -0.003588 0.003603 0.042544
#
#
# Mechanical properties :
#
#
# Convention : Reuss Voigt Hill
#
# Bulk Modulus (GPa) = 43.15558 71.21208 57.18383
# Shear Modulus (GPa) = 34.97721 45.46698 40.22210
#
# Velocity S-wave (km/s) = 3.70171 4.22044 3.96956
# Velocity P-wave (km/s) = 5.93101 7.18662 6.58879
#
# Compressibility (1/GPa) = 0.02317198
#
# Stress axis : x y z
#
# Youngs Moduli (GPa) = 68.94119 71.83200 134.70999
#
# Poissons Ratio (x) = 0.10678 0.39612
# Poissons Ratio (y) = 0.10248 0.25755
# Poissons Ratio (z) = 0.20272 0.13733
#
# Static dielectric constant tensor:
#      x y z
#    x 2.181750 0.000230 -0.004360 
#    y 0.000230 1.924930 0.232710 
#    z -0.004360 0.232710 1.778280 
# 
# From -- ./inp_files/419304.got.cif
#   From: 2010.05.17/outbox.cif.g08.bks.cpg/sg2_210_cif.got.tgz:419304.got - 2010.06.03 11:33:40.
