data_PCOD9109490
_publ_section_title
;
Structure prediction by ZEFSAII (Michael W. Deem and Ramdas Pophale) SiO2 
 PCOD9109490
Probable space group: P -1
;
_chemical_formula_sum "Si O2"
_cell_formula_units_Z 16
_cell_length_a 17.884048
_cell_length_b 12.783274
_cell_length_c 9.563471
_cell_angle_alpha 135.244543
_cell_angle_beta 55.506193
_cell_angle_gamma 149.668286
_cell_volume 770.692615
_symmetry_space_group_name_H-M "P -1"
_symmetry_group_IT_number 2
_symmetry_cell_setting 'triclinic'
loop_
_space_group_symop_operation_xyz
x,y,z
-x,-y,-z
loop_
_atom_site_type_symbol
_atom_site_label
_atom_site_fract_x
_atom_site_fract_y
_atom_site_fract_z
Si Si1 0.338923 0.900260 0.691576
Si Si2 0.743600 0.063186 0.673569
Si Si3 0.859005 0.861874 0.110227
Si Si4 0.342702 0.813175 0.913501
Si Si5 0.141579 0.788224 0.603476
Si Si6 0.610823 0.447362 0.472727
Si Si7 0.866471 0.912000 0.473543
Si Si8 0.355022 0.599503 0.295661
O O1 0.365662 0.925991 0.850672
O O2 0.223915 0.874488 0.744476
O O3 0.280629 0.662062 0.474683
O O4 0.487205 0.140675 0.682520
O O5 0.771758 0.155847 0.573568
O O6 0.566407 0.783641 0.596543
O O7 0.858854 0.080889 0.609910
O O8 0.759886 0.222480 0.912394
O O9 0.861595 0.835548 0.249175
O O10 0.861688 0.042370 0.262064
O O11 0.724893 0.601154 0.928205
O O12 0.000000 0.000000 0.000000
O O13 0.307328 0.598970 0.707233
O O14 0.500000 0.000000 0.000000
O O15 0.000000 0.500000 0.500000
O O16 0.713030 0.696204 0.519680
O O17 0.625723 0.466528 0.643225
O O18 0.000000 0.000000 0.500000
#
# Coordination Sequence:
#
# PCOD9109490 Si02
#       8
#     2   2   2   2   2   2   2   2
#     4  10  21  39  63  97 124 174 203 267 322 374
#     4  10  22  43  63  95 126 168 222 266 323 386
#     4  11  25  42  62  98 127 172 221 266 323 395
#     4   9  21  36  63  96 127 159 219 256 317 387
#     4  11  24  43  65  91 128 170 217 272 331 383
#     4  10  20  41  65  95 129 168 211 270 325 384
#     4  11  25  42  64  91 133 177 213 265 337 387
#     4  10  21  38  66  92 132 161 217 261 319 387
#
# _framework density 20.760546000000001
#
# number of rings (size 3 to 8) (size 9 to 14) (size 15 to 20)
#    0.000    1.750    1.250    1.875    5.250    6.500 
#    0.000    1.250    0.000    0.000    0.000    0.000 
#    0.000    0.000    0.000    0.000    0.000    0.000 
#
# Total GULP energy -89117.931815 kJ/mol
# GULP energy per Si atom -5569.870738 kJ/mol
# Density = 2.071329 g / cm^3
# Si number density = 20.760546 Si / 1000 Ang^3
#
#
#
# Elastic Constant Matrix: (Units=GPa)
#
#
# Indices 1 2 3 4 5 6 
#
# 1 122.6732 24.7282 46.0418 -5.3818 24.9329 -12.5122
# 2 24.7282 76.8207 23.5004 4.1765 10.4850 -12.4694
# 3 46.0418 23.5004 119.5811 -11.7754 18.4960 -8.7194
# 4 -5.3818 4.1765 -11.7754 31.6354 -0.8198 4.1007
# 5 24.9329 10.4850 18.4960 -0.8198 25.3318 -9.8667
# 6 -12.5122 -12.4694 -8.7194 4.1007 -9.8667 30.4092
#
#
#
# Elastic Compliance Matrix: (Units=1/GPa)
#
#
# Indices 1 2 3 4 5 6 
#
# 1 0.011225 -0.001677 -0.002595 0.000901 -0.008283 0.000378
# 2 -0.001677 0.015442 -0.002198 -0.003838 -0.001267 0.005118
# 3 -0.002595 -0.002198 0.010832 0.003876 -0.004671 -0.000901
# 4 0.000901 -0.003838 0.003876 0.034379 -0.003271 -0.005789
# 5 -0.008283 -0.001267 -0.004671 -0.003271 0.056750 0.013587
# 6 0.000378 0.005118 -0.000901 -0.005789 0.013587 0.040070
#
#
# Mechanical properties :
#
#
# Convention : Reuss Voigt Hill
#
# Bulk Modulus (GPa) = 40.71633 56.40175 48.55904
# Shear Modulus (GPa) = 26.34019 32.46225 29.40122
#
# Velocity S-wave (km/s) = 3.56583 3.95859 3.76733
# Velocity P-wave (km/s) = 6.05049 6.93691 6.50881
#
# Compressibility (1/GPa) = 0.02456017
#
# Stress axis : x y z
#
# Youngs Moduli (GPa) = 89.08408 64.75929 92.31871
#
# Poissons Ratio (x) = 0.10858 0.23957
# Poissons Ratio (y) = 0.14936 0.20291
# Poissons Ratio (z) = 0.23117 0.14233
#
# Static dielectric constant tensor:
#      x y z
#    x 1.724290 -0.024660 -0.095330 
#    y -0.024660 1.710930 -0.051590 
#    z -0.095330 -0.051590 1.683020 
# 
# From -- ./inp_files/190712.got.cif
#   From: 2010.05.17/outbox.cif.g08.bks.cpg/sg2_96_cif.got.tgz:190712.got - 2010.06.03 11:33:40.
