data_PCOD9109342
_publ_section_title
;
Structure prediction by ZEFSAII (Michael W. Deem and Ramdas Pophale) SiO2 
 PCOD9109342
Probable space group: P -1
;
_chemical_formula_sum "Si O2"
_cell_formula_units_Z 16
_cell_length_a 13.811079
_cell_length_b 8.856759
_cell_length_c 8.010832
_cell_angle_alpha 127.133070
_cell_angle_beta 103.905189
_cell_angle_gamma 92.216550
_cell_volume 736.628671
_symmetry_space_group_name_H-M "P -1"
_symmetry_group_IT_number 2
_symmetry_cell_setting 'triclinic'
loop_
_space_group_symop_operation_xyz
x,y,z
-x,-y,-z
loop_
_atom_site_type_symbol
_atom_site_label
_atom_site_fract_x
_atom_site_fract_y
_atom_site_fract_z
Si Si1 0.892665 0.381393 0.687865
Si Si2 0.783956 0.299526 0.938569
Si Si3 0.566374 0.214280 0.625565
Si Si4 0.725787 0.938125 0.904817
Si Si5 0.422648 0.429177 0.572764
Si Si6 0.325223 0.763020 0.674683
Si Si7 0.086797 0.192900 0.123948
Si Si8 0.929367 0.609919 0.429267
O O1 0.850248 0.318192 0.810143
O O2 0.793403 0.322113 0.485570
O O3 0.934867 0.617994 0.852755
O O4 0.983761 0.287734 0.598488
O O5 0.666922 0.288568 0.829403
O O6 0.779236 0.103355 0.907240
O O7 0.839340 0.471323 0.197840
O O8 0.491642 0.362215 0.697283
O O9 0.610128 0.203612 0.447934
O O10 0.500000 0.000000 0.500000
O O11 0.653482 0.764305 0.658832
O O12 0.818222 0.858155 0.966335
O O13 0.668887 0.042949 0.086272
O O14 0.500000 0.500000 0.500000
O O15 0.365246 0.601643 0.689801
O O16 0.116566 0.267443 0.374782
O O17 0.000000 0.000000 0.000000
O O18 0.000000 0.500000 0.500000
#
# Coordination Sequence:
#
# PCOD9109342 Si02
#       8
#     2   2   2   2   2   2   2   2
#     4  10  20  41  64  97 135 164 212 272 325 381
#     4  11  23  39  67  94 133 169 210 274 331 373
#     4  10  21  43  65  97 132 167 214 274 319 379
#     4  12  22  40  67  95 128 173 222 261 316 392
#     4  10  22  41  67  90 128 169 223 261 317 382
#     4  10  22  41  70  94 129 174 218 262 323 386
#     4  11  22  39  65  96 129 170 221 261 316 396
#     4  10  21  40  66  95 126 171 214 260 324 391
#
# _framework density 21.720578
#
# number of rings (size 3 to 8) (size 9 to 14) (size 15 to 20)
#    0.000    1.500    2.500    4.125    0.000    2.000 
#    0.000    6.875    2.750    0.000    0.000    0.000 
#    0.000    0.000    0.000    0.000    0.000    0.000 
#
# Total GULP energy -89343.642387 kJ/mol
# GULP energy per Si atom -5583.977649 kJ/mol
# Density = 2.167114 g / cm^3
# Si number density = 21.720578 Si / 1000 Ang^3
#
#
#
# Elastic Constant Matrix: (Units=GPa)
#
#
# Indices 1 2 3 4 5 6 
#
# 1 106.6576 16.8175 44.5972 1.3881 5.5988 -6.4600
# 2 16.8175 51.3445 7.1506 -5.0852 2.3870 10.5922
# 3 44.5972 7.1506 82.0227 -7.8324 -0.5155 -2.9288
# 4 1.3881 -5.0852 -7.8324 23.3825 -0.7764 4.7876
# 5 5.5988 2.3870 -0.5155 -0.7764 38.9538 4.9934
# 6 -6.4600 10.5922 -2.9288 4.7876 4.9934 44.2459
#
#
#
# Elastic Compliance Matrix: (Units=1/GPa)
#
#
# Indices 1 2 3 4 5 6 
#
# 1 0.013547 -0.004499 -0.007346 -0.005010 -0.002301 0.003370
# 2 -0.004499 0.022923 0.000868 0.006959 0.000273 -0.006871
# 3 -0.007346 0.000868 0.016701 0.006483 0.001487 -0.001044
# 4 -0.005010 0.006959 0.006483 0.048353 0.002299 -0.007460
# 5 -0.002301 0.000273 0.001487 0.002299 0.026505 -0.003543
# 6 0.003370 -0.006871 -0.001044 -0.007460 -0.003543 0.025876
#
#
# Mechanical properties :
#
#
# Convention : Reuss Voigt Hill
#
# Bulk Modulus (GPa) = 32.03209 41.90616 36.96913
# Shear Modulus (GPa) = 26.84380 32.74708 29.79544
#
# Velocity S-wave (km/s) = 3.51931 3.88706 3.70775
# Velocity P-wave (km/s) = 5.59405 6.28338 5.94871
#
# Compressibility (1/GPa) = 0.03121869
#
# Stress axis : x y z
#
# Youngs Moduli (GPa) = 73.81814 43.62487 59.87576
#
# Poissons Ratio (x) = 0.19625 0.43985
# Poissons Ratio (y) = 0.33208 -0.05200
# Poissons Ratio (z) = 0.54227 -0.03789
#
# Static dielectric constant tensor:
#      x y z
#    x 1.825110 -0.006750 -0.018590 
#    y -0.006750 1.813380 -0.011100 
#    z -0.018590 -0.011100 1.784990 
# 
# From -- ./inp_files/296846.got.cif
#   From: 2010.05.17/outbox.cif.g08.bks.cpg/sg2_149_cif.got.tgz:296846.got - 2010.06.03 11:33:40.
