data_PCOD9109236
_publ_section_title
;
Structure prediction by ZEFSAII (Michael W. Deem and Ramdas Pophale) SiO2 
 PCOD9109236
Probable space group: P -1
;
_chemical_formula_sum "Si O2"
_cell_formula_units_Z 14
_cell_length_a 7.033135
_cell_length_b 8.344944
_cell_length_c 13.297334
_cell_angle_alpha 76.031681
_cell_angle_beta 61.636489
_cell_angle_gamma 108.575475
_cell_volume 574.302739
_symmetry_space_group_name_H-M "P -1"
_symmetry_group_IT_number 2
_symmetry_cell_setting 'triclinic'
loop_
_space_group_symop_operation_xyz
x,y,z
-x,-y,-z
loop_
_atom_site_type_symbol
_atom_site_label
_atom_site_fract_x
_atom_site_fract_y
_atom_site_fract_z
Si Si1 0.114816 0.942589 0.075315
Si Si2 0.974605 0.683881 0.681057
Si Si3 0.493777 0.361479 0.933895
Si Si4 0.609001 0.683251 0.605669
Si Si5 0.868503 0.551115 0.113963
Si Si6 0.762978 0.939481 0.328866
Si Si7 0.721135 0.371165 0.545023
O O1 0.088491 0.742531 0.081311
O O2 0.941303 0.895616 0.224049
O O3 0.371712 0.134927 0.011517
O O4 0.000000 0.000000 0.000000
O O5 0.767354 0.475369 0.800929
O O6 0.825456 0.741682 0.628235
O O7 0.193871 0.666057 0.577528
O O8 0.083240 0.836343 0.720220
O O9 0.310584 0.380629 0.899445
O O10 0.500000 0.500000 0.000000
O O11 0.344225 0.618293 0.737413
O O12 0.700328 0.840148 0.470084
O O13 0.595705 0.498280 0.581859
O O14 0.000000 0.500000 0.000000
O O15 0.503475 0.846344 0.343869
O O16 0.000000 0.500000 0.500000
#
# Coordination Sequence:
#
# PCOD9109236 Si02
#       7
#     2   2   2   2   2   2   2
#     4  10  22  40  65  89 127 170 220 254 325 376
#     4  10  22  40  64  95 131 165 217 261 319 385
#     4  10  20  41  64  88 124 170 211 266 311 376
#     4  10  22  41  63  94 132 166 207 269 326 372
#     4  10  22  42  63  91 128 169 213 266 319 381
#     4  12  21  40  67  95 128 172 210 263 328 381
#     4  10  22  39  61  94 127 166 212 264 315 383
#
# _framework density 24.377385
#
# number of rings (size 3 to 8) (size 9 to 14) (size 15 to 20)
#    0.000    1.714    2.857    1.286    2.000    1.143 
#    5.143    3.571    0.000    0.000    0.000    0.000 
#    0.000    0.000    0.000    0.000    0.000    0.000 
#
# Total GULP energy -78056.508442 kJ/mol
# GULP energy per Si atom -5575.464889 kJ/mol
# Density = 2.432190 g / cm^3
# Si number density = 24.377385 Si / 1000 Ang^3
#
#
#
# Elastic Constant Matrix: (Units=GPa)
#
#
# Indices 1 2 3 4 5 6 
#
# 1 78.6277 33.3162 22.9065 -23.6095 5.0507 12.7009
# 2 33.3162 159.7621 54.0112 -3.4809 -31.9574 29.2335
# 3 22.9065 54.0112 142.3115 -15.1114 -34.4761 -5.1125
# 4 -23.6095 -3.4809 -15.1114 46.7700 4.4519 -17.4958
# 5 5.0507 -31.9574 -34.4761 4.4519 44.4285 -0.8589
# 6 12.7009 29.2335 -5.1125 -17.4958 -0.8589 38.4722
#
#
#
# Elastic Compliance Matrix: (Units=1/GPa)
#
#
# Indices 1 2 3 4 5 6 
#
# 1 0.018565 -0.004890 -0.002016 0.009712 -0.008136 0.001554
# 2 -0.004890 0.011497 -0.003036 -0.007249 0.006990 -0.010666
# 3 -0.002016 -0.003036 0.010607 0.003978 0.006000 0.006325
# 4 0.009712 -0.007249 0.003978 0.034509 -0.006334 0.018383
# 5 -0.008136 0.006990 0.006000 -0.006334 0.033675 -0.003957
# 6 0.001554 -0.010666 0.006325 0.018383 -0.003957 0.042697
#
#
# Mechanical properties :
#
#
# Convention : Reuss Voigt Hill
#
# Bulk Modulus (GPa) = 48.11108 66.79656 57.45382
# Shear Modulus (GPa) = 28.03259 43.96531 35.99895
#
# Velocity S-wave (km/s) = 3.39476 4.25140 3.84700
# Velocity P-wave (km/s) = 5.92829 7.18051 6.58424
#
# Compressibility (1/GPa) = 0.02078523
#
# Stress axis : x y z
#
# Youngs Moduli (GPa) = 53.86360 86.97547 94.27928
#
# Poissons Ratio (x) = 0.42532 0.19008
# Poissons Ratio (y) = 0.26340 0.28623
# Poissons Ratio (z) = 0.10860 0.26406
#
# Static dielectric constant tensor:
#      x y z
#    x 2.031330 0.068050 0.030190 
#    y 0.068050 1.974610 -0.062780 
#    z 0.030190 -0.062780 2.032990 
# 
# From -- ./inp_files/271132.got.cif
#   From: 2010.05.17/outbox.cif.g08.bks.cpg/sg2_136_cif.got.tgz:271132.got - 2010.06.03 11:33:40.
