data_PCOD9109959
_publ_section_title
;
Structure prediction by ZEFSAII (Michael W. Deem and Ramdas Pophale) SiO2 
 PCOD9109959
Probable space group: P -1
;
_chemical_formula_sum "Si O2"
_cell_formula_units_Z 16
_cell_length_a 11.333173
_cell_length_b 13.328997
_cell_length_c 10.648091
_cell_angle_alpha 58.828480
_cell_angle_beta 58.206550
_cell_angle_gamma 107.910863
_cell_volume 705.170071
_symmetry_space_group_name_H-M "P -1"
_symmetry_group_IT_number 2
_symmetry_cell_setting 'triclinic'
loop_
_space_group_symop_operation_xyz
x,y,z
-x,-y,-z
loop_
_atom_site_type_symbol
_atom_site_label
_atom_site_fract_x
_atom_site_fract_y
_atom_site_fract_z
Si Si1 0.618327 0.818062 0.065461
Si Si2 0.689478 0.211086 0.194072
Si Si3 0.587306 0.530631 0.229803
Si Si4 0.964257 0.200002 0.089345
Si Si5 0.244028 0.643455 0.201064
Si Si6 0.373179 0.571448 0.958758
Si Si7 0.249345 0.107260 0.780965
Si Si8 0.097883 0.067847 0.539072
O O1 0.529646 0.627553 0.203399
O O2 0.454651 0.786076 0.090230
O O3 0.614844 0.830716 0.208359
O O4 0.895442 0.003260 0.764477
O O5 0.917466 0.305463 0.061406
O O6 0.643651 0.315846 0.180032
O O7 0.500000 0.000000 0.500000
O O8 0.708061 0.230538 0.019046
O O9 0.711546 0.580012 0.996478
O O10 0.390476 0.302828 0.502947
O O11 0.764384 0.635352 0.178058
O O12 0.894504 0.058811 0.326232
O O13 0.814000 0.053181 0.153096
O O14 0.000000 0.500000 0.500000
O O15 0.252520 0.527890 0.186147
O O16 0.637683 0.715086 0.745808
O O17 0.000000 0.000000 0.000000
O O18 0.000000 0.000000 0.500000
#
# Coordination Sequence:
#
# PCOD9109959 Si02
#       8
#     2   2   2   2   2   2   2   2
#     4  11  24  39  68  98 140 182 221 292 355 404
#     4  10  20  41  68  95 134 183 233 277 338 417
#     4  11  23  39  68 102 131 178 238 280 354 406
#     4  11  23  39  66  97 132 183 224 286 339 411
#     4  10  24  43  65  99 147 182 224 291 348 418
#     4  10  21  40  69  96 136 176 232 286 336 415
#     4  12  22  40  63 102 139 175 231 286 345 419
#     4  11  18  39  64  97 131 168 230 288 342 396
#
# _framework density 22.689561999999999
#
# number of rings (size 3 to 8) (size 9 to 14) (size 15 to 20)
#    0.750    0.500    6.250    0.375    1.750    1.000 
#    0.000    1.875    0.000    0.000    0.000    0.000 
#    0.000    0.000    0.000    0.000    0.000    0.000 
#
# Total GULP energy -89131.024175 kJ/mol
# GULP energy per Si atom -5570.689011 kJ/mol
# Density = 2.263792 g / cm^3
# Si number density = 22.689562 Si / 1000 Ang^3
#
#
#
# Elastic Constant Matrix: (Units=GPa)
#
#
# Indices 1 2 3 4 5 6 
#
# 1 143.4831 24.7904 29.7317 4.6390 0.7717 15.2574
# 2 24.7904 108.7912 31.4257 1.1489 4.7990 21.4199
# 3 29.7317 31.4257 99.0350 7.0605 -5.4683 -1.3722
# 4 4.6390 1.1489 7.0605 29.9285 3.1437 6.3885
# 5 0.7717 4.7990 -5.4683 3.1437 27.1929 3.3825
# 6 15.2574 21.4199 -1.3722 6.3885 3.3825 26.7123
#
#
#
# Elastic Compliance Matrix: (Units=1/GPa)
#
#
# Indices 1 2 3 4 5 6 
#
# 1 0.007985 -0.000216 -0.002424 0.000334 -0.000146 -0.004574
# 2 -0.000216 0.012713 -0.004460 0.003124 -0.002155 -0.010774
# 3 -0.002424 -0.004460 0.012794 -0.004126 0.003133 0.006208
# 4 0.000334 0.003124 -0.004126 0.037061 -0.004278 -0.011229
# 5 -0.000146 -0.002155 0.003133 -0.004278 0.038518 -0.001882
# 6 -0.004574 -0.010774 0.006208 -0.011229 -0.001882 0.051931
#
#
# Mechanical properties :
#
#
# Convention : Reuss Voigt Hill
#
# Bulk Modulus (GPa) = 51.83630 58.13389 54.98510
# Shear Modulus (GPa) = 27.52816 34.45752 30.99284
#
# Velocity S-wave (km/s) = 3.48696 3.90121 3.69989
# Velocity P-wave (km/s) = 6.25358 6.78009 6.52215
#
# Compressibility (1/GPa) = 0.01929150
#
# Stress axis : x y z
#
# Youngs Moduli (GPa) = 125.22824 78.66003 78.16385
#
# Poissons Ratio (x) = 0.01699 0.18947
# Poissons Ratio (y) = 0.02705 0.34863
# Poissons Ratio (z) = 0.30356 0.35084
#
# Static dielectric constant tensor:
#      x y z
#    x 1.964470 -0.110140 -0.014260 
#    y -0.110140 2.006770 0.097630 
#    z -0.014260 0.097630 2.019460 
# 
# From -- ./inp_files/431184.got.cif
#   From: 2010.05.17/outbox.cif.g08.bks.cpg/sg2_216_cif.got.tgz:431184.got - 2010.06.03 11:33:40.
