data_PCOD9109775
_publ_section_title
;
Structure prediction by ZEFSAII (Michael W. Deem and Ramdas Pophale) SiO2 
 PCOD9109775
Probable space group: P -1
;
_chemical_formula_sum "Si O2"
_cell_formula_units_Z 16
_cell_length_a 15.486138
_cell_length_b 8.002799
_cell_length_c 7.215360
_cell_angle_alpha 62.085592
_cell_angle_beta 79.161098
_cell_angle_gamma 111.598455
_cell_volume 660.246632
_symmetry_space_group_name_H-M "P -1"
_symmetry_group_IT_number 2
_symmetry_cell_setting 'triclinic'
loop_
_space_group_symop_operation_xyz
x,y,z
-x,-y,-z
loop_
_atom_site_type_symbol
_atom_site_label
_atom_site_fract_x
_atom_site_fract_y
_atom_site_fract_z
Si Si1 0.935342 0.899635 0.274334
Si Si2 0.751091 0.134714 0.454444
Si Si3 0.112146 0.844194 0.300556
Si Si4 0.091776 0.700271 0.966779
Si Si5 0.321643 0.285635 0.899670
Si Si6 0.706952 0.681758 0.539950
Si Si7 0.579329 0.229457 0.444400
Si Si8 0.506514 0.231111 0.851170
O O1 0.816956 0.697524 0.456836
O O2 0.010791 0.850941 0.384486
O O3 0.915633 0.096255 0.218898
O O4 0.000000 0.000000 0.000000
O O5 0.842118 0.235434 0.517230
O O6 0.800478 0.257339 0.175420
O O7 0.665265 0.187892 0.516613
O O8 0.712448 0.876832 0.562896
O O9 0.090446 0.712916 0.182801
O O10 0.206042 0.098583 0.099205
O O11 0.000000 0.500000 0.000000
O O12 0.316196 0.277976 0.681742
O O13 0.361483 0.538092 0.808570
O O14 0.405597 0.227227 0.960564
O O15 0.613266 0.443638 0.767367
O O16 0.514770 0.263754 0.609211
O O17 0.500000 0.000000 0.500000
O O18 0.500000 0.000000 0.000000
#
# Coordination Sequence:
#
# PCOD9109775 Si02
#       8
#     2   2   2   2   2   2   2   2
#     4   9  18  39  67  92 128 178 223 262 342 404
#     4  11  23  42  66 102 134 172 232 280 334 404
#     4  11  23  41  69  98 134 178 228 278 342 406
#     4  10  23  40  66  94 140 175 220 285 335 405
#     4  11  21  42  68  92 133 182 216 281 345 398
#     4  10  20  41  67  91 133 183 218 277 340 405
#     4  11  24  40  67  97 131 182 227 272 341 412
#     4  11  24  41  65  97 135 170 226 285 336 405
#
# _framework density 24.233364999999999
#
# number of rings (size 3 to 8) (size 9 to 14) (size 15 to 20)
#    0.000    1.500    3.750    3.750    1.750    4.500 
#    0.000    7.500    0.000    0.000    0.000    0.000 
#    0.000    0.000    0.000    0.000    0.000    0.000 
#
# Total GULP energy -89339.864965 kJ/mol
# GULP energy per Si atom -5583.741560 kJ/mol
# Density = 2.417821 g / cm^3
# Si number density = 24.233365 Si / 1000 Ang^3
#
#
#
# Elastic Constant Matrix: (Units=GPa)
#
#
# Indices 1 2 3 4 5 6 
#
# 1 199.4627 26.8328 35.9824 -16.6516 -7.2733 2.1067
# 2 26.8328 107.8130 26.5387 -13.2873 -8.3071 15.1101
# 3 35.9824 26.5387 47.9274 -9.0649 -5.1950 3.9647
# 4 -16.6516 -13.2873 -9.0649 46.2789 8.3792 -4.7056
# 5 -7.2733 -8.3071 -5.1950 8.3792 36.6628 -2.7090
# 6 2.1067 15.1101 3.9647 -4.7056 -2.7090 31.0474
#
#
#
# Elastic Compliance Matrix: (Units=1/GPa)
#
#
# Indices 1 2 3 4 5 6 
#
# 1 0.005892 -0.000382 -0.003992 0.001231 0.000273 0.000506
# 2 -0.000382 0.011604 -0.005357 0.001473 0.001116 -0.004617
# 3 -0.003992 -0.005357 0.027394 0.002124 0.001377 -0.000178
# 4 0.001231 0.001473 0.002124 0.023912 -0.004426 0.002166
# 5 0.000273 0.001116 0.001377 -0.004426 0.028872 0.001111
# 6 0.000506 -0.004617 -0.000178 0.002166 0.001111 0.034869
#
#
# Mechanical properties :
#
#
# Convention : Reuss Voigt Hill
#
# Bulk Modulus (GPa) = 39.32617 59.32343 49.32480
# Shear Modulus (GPa) = 31.15671 40.52110 35.83891
#
# Velocity S-wave (km/s) = 3.58955 4.09359 3.84983
# Velocity P-wave (km/s) = 5.78301 6.84664 6.33718
#
# Compressibility (1/GPa) = 0.02542836
#
# Stress axis : x y z
#
# Youngs Moduli (GPa) = 169.71285 86.17997 36.50482
#
# Poissons Ratio (x) = 0.03294 0.14572
# Poissons Ratio (y) = 0.06486 0.19555
# Poissons Ratio (z) = 0.67744 0.46164
#
# Static dielectric constant tensor:
#      x y z
#    x 2.184480 -0.084070 -0.346280 
#    y -0.084070 2.017900 0.152070 
#    z -0.346280 0.152070 2.448100 
# 
# From -- ./inp_files/294125.got.cif
#   From: 2010.05.17/outbox.cif.g08.bks.cpg/sg2_148_cif.got.tgz:294125.got - 2010.06.03 11:33:40.
