data_PCOD9109235
_publ_section_title
;
Structure prediction by ZEFSAII (Michael W. Deem and Ramdas Pophale) SiO2 
 PCOD9109235
Probable space group: P -1
;
_chemical_formula_sum "Si O2"
_cell_formula_units_Z 16
_cell_length_a 18.319332
_cell_length_b 23.377697
_cell_length_c 5.115887
_cell_angle_alpha 106.834598
_cell_angle_beta 73.205613
_cell_angle_gamma 159.876216
_cell_volume 720.527917
_symmetry_space_group_name_H-M "P -1"
_symmetry_group_IT_number 2
_symmetry_cell_setting 'triclinic'
loop_
_space_group_symop_operation_xyz
x,y,z
-x,-y,-z
loop_
_atom_site_type_symbol
_atom_site_label
_atom_site_fract_x
_atom_site_fract_y
_atom_site_fract_z
Si Si1 0.226966 0.136637 0.396545
Si Si2 0.285069 0.661069 0.387315
Si Si3 0.232779 0.884958 0.633388
Si Si4 0.585498 0.777872 0.181910
Si Si5 0.591925 0.504644 0.503146
Si Si6 0.817425 0.282806 0.408253
Si Si7 0.495880 0.890309 0.844021
Si Si8 0.774349 0.588938 0.922821
O O1 0.295886 0.141457 0.558905
O O2 0.401169 0.317005 0.451280
O O3 0.250330 0.120755 0.076399
O O4 0.000000 0.000000 0.500000
O O5 0.475335 0.760399 0.216087
O O6 0.229392 0.686714 0.371274
O O7 0.354902 0.728393 0.704078
O O8 0.066712 0.465648 0.334313
O O9 0.236254 0.815741 0.512807
O O10 0.000618 0.734431 0.770370
O O11 0.321481 0.976093 0.393120
O O12 0.389830 0.017412 0.881497
O O13 0.391662 0.587978 0.140287
O O14 0.500000 0.500000 0.500000
O O15 0.685529 0.572323 0.786412
O O16 0.764778 0.608112 0.249818
O O17 0.669241 0.178605 0.166414
#
# Coordination Sequence:
#
# PCOD9109235 Si02
#       8
#     2   2   2   2   2   2   2   2
#     4  10  22  40  65  90 118 158 194 249 320 368
#     4   9  20  42  62  94 123 169 214 254 304 361
#     4  12  21  42  61  90 127 164 211 255 307 365
#     4  10  20  41  64  88 124 158 207 248 295 380
#     4  10  21  41  61  89 119 151 201 249 304 377
#     4   9  20  41  65  87 128 173 213 251 310 365
#     4  10  24  38  61  89 126 159 212 259 308 347
#     4  10  21  37  65  87 117 165 201 244 305 370
#
# _framework density 22.205942
#
# number of rings (size 3 to 8) (size 9 to 14) (size 15 to 20)
#    0.750    1.250    1.250    2.250    0.000    1.000 
#    6.750    5.000    0.000    0.000    0.000    0.000 
#    0.000    0.000    0.000    0.000    0.000    0.000 
#
# Total GULP energy -89324.706279 kJ/mol
# GULP energy per Si atom -5582.794142 kJ/mol
# Density = 2.215540 g / cm^3
# Si number density = 22.205942 Si / 1000 Ang^3
#
#
#
# Elastic Constant Matrix: (Units=GPa)
#
#
# Indices 1 2 3 4 5 6 
#
# 1 94.4686 21.1467 10.6307 -18.6733 -6.9839 17.0071
# 2 21.1467 93.2580 31.6310 -20.1687 1.7512 21.5799
# 3 10.6307 31.6310 76.5559 -23.2805 7.6451 -4.1940
# 4 -18.6733 -20.1687 -23.2805 23.7983 3.4496 -9.8901
# 5 -6.9839 1.7512 7.6451 3.4496 22.8165 -5.5263
# 6 17.0071 21.5799 -4.1940 -9.8901 -5.5263 24.4082
#
#
#
# Elastic Compliance Matrix: (Units=1/GPa)
#
#
# Indices 1 2 3 4 5 6 
#
# 1 0.013275 -0.000071 0.000159 0.007973 0.001454 -0.005600
# 2 -0.000071 0.017511 -0.007706 0.000525 -0.003036 -0.017231
# 3 0.000159 -0.007706 0.027688 0.031080 -0.007946 0.022254
# 4 0.007973 0.000525 0.031080 0.095665 -0.014022 0.034909
# 5 0.001454 -0.003036 -0.007946 -0.014022 0.050771 0.006119
# 6 -0.005600 -0.017231 0.022254 0.034909 0.006119 0.079460
#
#
# Mechanical properties :
#
#
# Convention : Reuss Voigt Hill
#
# Bulk Modulus (GPa) = 23.12831 43.45548 33.29190
# Shear Modulus (GPa) = 15.92261 27.59622 21.75942
#
# Velocity S-wave (km/s) = 2.68067 3.52908 3.13372
# Velocity P-wave (km/s) = 4.47429 6.01811 5.30269
#
# Compressibility (1/GPa) = 0.04323705
#
# Stress axis : x y z
#
# Youngs Moduli (GPa) = 75.32800 57.10831 36.11624
#
# Poissons Ratio (x) = 0.00407 -0.00573
# Poissons Ratio (y) = 0.00537 0.27832
# Poissons Ratio (z) = -0.01196 0.44008
#
# Static dielectric constant tensor:
#      x y z
#    x 1.810990 -0.025410 0.002240 
#    y -0.025410 1.821480 -0.016170 
#    z 0.002240 -0.016170 1.830460 
# 
# From -- ./inp_files/112895.got.cif
#   From: 2010.05.17/outbox.cif.g08.bks.cpg/sg2_57_cif.got.tgz:112895.got - 2010.06.03 11:33:40.
