data_PCOD9109595
_publ_section_title
;
Structure prediction by ZEFSAII (Michael W. Deem and Ramdas Pophale) SiO2 
 PCOD9109595
Probable space group: P -1
;
_chemical_formula_sum "Si O2"
_cell_formula_units_Z 16
_cell_length_a 11.588750
_cell_length_b 8.968966
_cell_length_c 8.839107
_cell_angle_alpha 116.717643
_cell_angle_beta 82.660072
_cell_angle_gamma 100.394272
_cell_volume 806.033706
_symmetry_space_group_name_H-M "P -1"
_symmetry_group_IT_number 2
_symmetry_cell_setting 'triclinic'
loop_
_space_group_symop_operation_xyz
x,y,z
-x,-y,-z
loop_
_atom_site_type_symbol
_atom_site_label
_atom_site_fract_x
_atom_site_fract_y
_atom_site_fract_z
Si Si1 0.015182 0.309450 0.848905
Si Si2 0.733634 0.537640 0.834370
Si Si3 0.509794 0.474642 0.665153
Si Si4 0.552197 0.873240 0.322379
Si Si5 0.001087 0.484683 0.315347
Si Si6 0.836359 0.177095 0.050789
Si Si7 0.385339 0.717991 0.011759
Si Si8 0.780731 0.869353 0.126668
O O1 0.015295 0.341235 0.685660
O O2 0.130412 0.233281 0.845127
O O3 0.000000 0.500000 0.000000
O O4 0.909067 0.188057 0.887131
O O5 0.646092 0.475171 0.685954
O O6 0.696505 0.416175 0.928087
O O7 0.869179 0.549305 0.772382
O O8 0.711192 0.723717 0.968531
O O9 0.500000 0.500000 0.500000
O O10 0.445199 0.299095 0.662743
O O11 0.458315 0.616229 0.838390
O O12 0.469354 0.829474 0.168304
O O13 0.684164 0.939545 0.277810
O O14 0.500000 0.000000 0.500000
O O15 0.899948 0.338059 0.207806
O O16 0.000000 0.500000 0.500000
O O17 0.844741 0.013814 0.075048
O O18 0.702794 0.188839 0.031328
#
# Coordination Sequence:
#
# PCOD9109595 Si02
#       8
#     2   2   2   2   2   2   2   2
#     4  10  20  41  66  91 122 168 218 264 322 398
#     4  11  20  43  67  91 129 178 219 273 326 400
#     4  11  25  40  70 101 128 172 235 273 329 402
#     4  11  26  44  66  98 139 175 221 281 338 392
#     4  11  24  40  66  96 131 169 224 272 328 396
#     4  11  24  37  68  97 127 171 220 265 335 399
#     4  11  22  45  69  94 131 183 225 269 334 404
#     4  12  22  41  69  94 134 169 219 277 341 388
#
# _framework density 19.850285
#
# number of rings (size 3 to 8) (size 9 to 14) (size 15 to 20)
#    0.000    1.000    6.250    1.875    3.500    2.500 
#    0.000    0.625    0.000    0.000    0.000    0.000 
#    0.000    0.000    0.000    0.000    0.000    0.000 
#
# Total GULP energy -89295.513315 kJ/mol
# GULP energy per Si atom -5580.969582 kJ/mol
# Density = 1.980510 g / cm^3
# Si number density = 19.850285 Si / 1000 Ang^3
#
#
#
# Elastic Constant Matrix: (Units=GPa)
#
#
# Indices 1 2 3 4 5 6 
#
# 1 102.9367 32.5866 38.2528 -12.1562 -9.0853 -15.7770
# 2 32.5866 83.4112 34.7739 -24.7132 5.5563 -16.1195
# 3 38.2528 34.7739 108.5141 -23.6883 -0.5169 -16.5747
# 4 -12.1562 -24.7132 -23.6883 31.6710 -9.6264 4.2037
# 5 -9.0853 5.5563 -0.5169 -9.6264 27.6090 -5.9165
# 6 -15.7770 -16.1195 -16.5747 4.2037 -5.9165 21.8839
#
#
#
# Elastic Compliance Matrix: (Units=1/GPa)
#
#
# Indices 1 2 3 4 5 6 
#
# 1 0.013502 -0.002546 -0.002084 0.002915 0.007599 0.007775
# 2 -0.002546 0.018672 -0.001031 0.012074 0.001576 0.009244
# 3 -0.002084 -0.001031 0.013327 0.008722 0.004386 0.007342
# 4 0.002915 0.012074 0.008722 0.052991 0.019913 0.012805
# 5 0.007599 0.001576 0.004386 0.019913 0.049618 0.019550
# 6 0.007775 0.009244 0.007342 0.012805 0.019550 0.066497
#
#
# Mechanical properties :
#
#
# Convention : Reuss Voigt Hill
#
# Bulk Modulus (GPa) = 29.25782 56.23205 42.74494
# Shear Modulus (GPa) = 21.06859 28.84936 24.95897
#
# Velocity S-wave (km/s) = 3.26141 3.81642 3.54978
# Velocity P-wave (km/s) = 5.38086 6.91445 6.19529
#
# Compressibility (1/GPa) = 0.03417890
#
# Stress axis : x y z
#
# Youngs Moduli (GPa) = 74.06561 53.55635 75.03792
#
# Poissons Ratio (x) = 0.13636 0.15634
# Poissons Ratio (y) = 0.18858 0.07736
# Poissons Ratio (z) = 0.15432 0.05521
#
# Static dielectric constant tensor:
#      x y z
#    x 1.743200 -0.000600 0.010630 
#    y -0.000600 1.710930 -0.007620 
#    z 0.010630 -0.007620 1.722290 
# 
# From -- ./inp_files/240955.got.cif
#   From: 2010.05.17/outbox.cif.g08.bks.cpg/sg2_121_cif.got.tgz:240955.got - 2010.06.03 11:33:40.
