data_PCOD9109363
_publ_section_title
;
Structure prediction by ZEFSAII (Michael W. Deem and Ramdas Pophale) SiO2 
 PCOD9109363
Probable space group: P -1
;
_chemical_formula_sum "Si O2"
_cell_formula_units_Z 14
_cell_length_a 12.445603
_cell_length_b 7.555749
_cell_length_c 12.146395
_cell_angle_alpha 62.050727
_cell_angle_beta 134.773332
_cell_angle_gamma 88.027222
_cell_volume 582.826842
_symmetry_space_group_name_H-M "P -1"
_symmetry_group_IT_number 2
_symmetry_cell_setting 'triclinic'
loop_
_space_group_symop_operation_xyz
x,y,z
-x,-y,-z
loop_
_atom_site_type_symbol
_atom_site_label
_atom_site_fract_x
_atom_site_fract_y
_atom_site_fract_z
Si Si1 0.641770 0.377394 0.305515
Si Si2 0.786393 0.665802 0.078703
Si Si3 0.283540 0.444957 0.377914
Si Si4 0.699979 0.487430 0.867284
Si Si5 0.851408 0.589299 0.484578
Si Si6 0.396304 0.862993 0.845811
Si Si7 0.725329 0.136885 0.827535
O O1 0.522281 0.343846 0.317661
O O2 0.787517 0.420682 0.447032
O O3 0.708085 0.183459 0.311308
O O4 0.481794 0.640967 0.058150
O O5 0.930283 0.536770 0.319991
O O6 0.798568 0.484617 0.048742
O O7 0.577946 0.818049 0.931331
O O8 0.814537 0.852828 0.980574
O O9 0.258539 0.411388 0.240925
O O10 0.193378 0.381243 0.424333
O O11 0.504627 0.278325 0.608422
O O12 0.216433 0.730147 0.251875
O O13 0.750752 0.227312 0.937131
O O14 0.727397 0.867544 0.271463
#
# Coordination Sequence:
#
# PCOD9109363 Si02
#       7
#     2   2   2   2   2   2   2
#     4  10  20  41  65  80 115 162 188 231 306 327
#     4  11  23  35  61  89 118 151 193 234 298 330
#     4   9  18  37  60  82 119 150 196 229 285 345
#     4   9  19  38  59  86 115 155 188 240 284 338
#     4  12  22  39  60  91 115 154 189 241 290 341
#     4  10  23  42  59  89 114 148 203 239 273 362
#     4   9  17  37  55  83 118 149 192 236 269 353
#
# _framework density 24.020859000000002
#
# number of rings (size 3 to 8) (size 9 to 14) (size 15 to 20)
#    0.857    1.143    2.857    0.429    0.000    3.429 
#    2.571    6.429    0.000    0.000    0.000    0.000 
#    0.000    0.000    0.000    0.000    0.000    0.000 
#
# Total GULP energy -78180.138941 kJ/mol
# GULP energy per Si atom -5584.295639 kJ/mol
# Density = 2.396619 g / cm^3
# Si number density = 24.020859 Si / 1000 Ang^3
#
#
#
# Elastic Constant Matrix: (Units=GPa)
#
#
# Indices 1 2 3 4 5 6 
#
# 1 69.0945 0.1565 -9.5531 -3.8576 -4.2352 -3.7126
# 2 0.1565 99.8299 38.9153 37.8918 14.6616 -7.5782
# 3 -9.5531 38.9153 68.0152 17.4180 9.6275 4.8214
# 4 -3.8576 37.8918 17.4180 37.8953 8.3562 -9.3823
# 5 -4.2352 14.6616 9.6275 8.3562 24.2547 0.6577
# 6 -3.7126 -7.5782 4.8214 -9.3823 0.6577 21.2249
#
#
#
# Elastic Compliance Matrix: (Units=1/GPa)
#
#
# Indices 1 2 3 4 5 6 
#
# 1 0.015186 -0.001988 0.002086 0.002790 0.001992 0.002644
# 2 -0.001988 0.019048 -0.006938 -0.014759 -0.004067 0.001631
# 3 0.002086 -0.006938 0.020936 -0.004152 -0.002088 -0.008639
# 4 0.002790 -0.014759 -0.004152 0.049236 -0.006398 0.018124
# 5 0.001992 -0.004067 -0.002088 -0.006398 0.047202 -0.004920
# 6 0.002644 0.001631 -0.008639 0.018124 -0.004920 0.058286
#
#
# Mechanical properties :
#
#
# Convention : Reuss Voigt Hill
#
# Bulk Modulus (GPa) = 24.10160 32.88633 28.49396
# Shear Modulus (GPa) = 21.06126 30.50303 25.78215
#
# Velocity S-wave (km/s) = 2.96428 3.56737 3.27972
# Velocity P-wave (km/s) = 4.66597 5.53973 5.12152
#
# Compressibility (1/GPa) = 0.04149103
#
# Stress axis : x y z
#
# Youngs Moduli (GPa) = 65.85067 52.50006 47.76383
#
# Poissons Ratio (x) = 0.10437 -0.09966
# Poissons Ratio (y) = 0.13091 0.33138
# Poissons Ratio (z) = -0.13739 0.36424
#
# Static dielectric constant tensor:
#      x y z
#    x 2.015910 -0.011630 -0.006400 
#    y -0.011630 1.881530 0.025590 
#    z -0.006400 0.025590 1.939820 
# 
# From -- ./inp_files/528287.got.cif
#   From: 2010.05.17/outbox.cif.g08.bks.cpg/sg2_265_cif.got.tgz:528287.got - 2010.06.03 11:33:40.
