data_PCOD9109160
_publ_section_title
;
Structure prediction by ZEFSAII (Michael W. Deem and Ramdas Pophale) SiO2 
 PCOD9109160
Probable space group: P -1
;
_chemical_formula_sum "Si O2"
_cell_formula_units_Z 14
_cell_length_a 9.234843
_cell_length_b 8.349941
_cell_length_c 11.599079
_cell_angle_alpha 123.297565
_cell_angle_beta 106.088097
_cell_angle_gamma 112.695373
_cell_volume 533.325458
_symmetry_space_group_name_H-M "P -1"
_symmetry_group_IT_number 2
_symmetry_cell_setting 'triclinic'
loop_
_space_group_symop_operation_xyz
x,y,z
-x,-y,-z
loop_
_atom_site_type_symbol
_atom_site_label
_atom_site_fract_x
_atom_site_fract_y
_atom_site_fract_z
Si Si1 0.644135 0.841918 0.962764
Si Si2 0.273379 0.561863 0.914770
Si Si3 0.917873 0.961151 0.261816
Si Si4 0.748371 0.903717 0.756759
Si Si5 0.321963 0.608775 0.437136
Si Si6 0.901833 0.237536 0.548426
Si Si7 0.448310 0.693343 0.253623
O O1 0.439159 0.757758 0.933094
O O2 0.736830 0.972910 0.911155
O O3 0.592074 0.568817 0.841401
O O4 0.812853 0.005100 0.162047
O O5 0.055732 0.423018 0.757247
O O6 0.256668 0.316067 0.828310
O O7 0.353564 0.685029 0.108368
O O8 0.012069 0.176609 0.465199
O O9 0.053869 0.919182 0.208782
O O10 0.550127 0.810859 0.613699
O O11 0.736540 0.661578 0.667819
O O12 0.174796 0.632248 0.475550
O O13 0.330440 0.673992 0.330873
O O14 0.685423 0.952560 0.418793
#
# Coordination Sequence:
#
# PCOD9109160 Si02
#       7
#     2   2   2   2   2   2   2
#     4  10  20  41  65  93 126 165 209 255 305 375
#     4  11  22  38  67  98 124 165 204 258 312 369
#     4  11  21  39  67  96 125 162 213 254 308 376
#     4  10  23  42  64  86 124 174 212 249 314 372
#     4  10  24  41  61  92 128 167 208 262 307 374
#     4  12  23  37  65  99 127 159 210 259 317 364
#     4  10  20  41  63  92 131 159 210 257 306 370
#
# _framework density 26.250387
#
# number of rings (size 3 to 8) (size 9 to 14) (size 15 to 20)
#    0.000    1.429    2.857    3.000    6.000    1.143 
#    0.000    5.000    0.000    0.000    0.000    0.000 
#    0.000    0.000    0.000    0.000    0.000    0.000 
#
# Total GULP energy -78293.010314 kJ/mol
# GULP energy per Si atom -5592.357880 kJ/mol
# Density = 2.619064 g / cm^3
# Si number density = 26.250387 Si / 1000 Ang^3
#
#
#
# Elastic Constant Matrix: (Units=GPa)
#
#
# Indices 1 2 3 4 5 6 
#
# 1 100.9914 39.2105 52.3691 -18.0256 9.2341 19.4885
# 2 39.2105 87.7206 46.6566 -4.7499 -9.7670 14.9660
# 3 52.3691 46.6566 118.6840 -11.2249 22.1840 3.0467
# 4 -18.0256 -4.7499 -11.2249 35.1469 -3.6252 -3.8522
# 5 9.2341 -9.7670 22.1840 -3.6252 46.3238 4.6245
# 6 19.4885 14.9660 3.0467 -3.8522 4.6245 31.5234
#
#
#
# Elastic Compliance Matrix: (Units=1/GPa)
#
#
# Indices 1 2 3 4 5 6 
#
# 1 0.016163 -0.002872 -0.005277 0.005386 -0.000136 -0.007441
# 2 -0.002872 0.019209 -0.007907 -0.001348 0.009111 -0.008081
# 3 -0.005277 -0.007907 0.015387 0.001011 -0.008595 0.006914
# 4 0.005386 -0.001348 0.001011 0.031517 0.000526 0.000987
# 5 -0.000136 0.009111 -0.008595 0.000526 0.028443 -0.007519
# 6 -0.007441 -0.008081 0.006914 0.000987 -0.007519 0.040714
#
#
# Mechanical properties :
#
#
# Convention : Reuss Voigt Hill
#
# Bulk Modulus (GPa) = 53.62738 64.87426 59.25082
# Shear Modulus (GPa) = 26.34868 33.87616 30.11242
#
# Velocity S-wave (km/s) = 3.17163 3.59625 3.39059
# Velocity P-wave (km/s) = 5.82115 6.48161 6.16024
#
# Compressibility (1/GPa) = 0.01864719
#
# Stress axis : x y z
#
# Youngs Moduli (GPa) = 61.86995 52.05777 64.98868
#
# Poissons Ratio (x) = 0.14952 0.34294
# Poissons Ratio (y) = 0.17770 0.51388
# Poissons Ratio (z) = 0.32648 0.41163
#
# Static dielectric constant tensor:
#      x y z
#    x 2.053750 0.027020 -0.041230 
#    y 0.027020 2.089260 -0.005360 
#    z -0.041230 -0.005360 2.004350 
# 
# From -- ./inp_files/213283.got.cif
#   From: 2010.05.17/outbox.cif.g08.bks.cpg/sg2_107_cif.got.tgz:213283.got - 2010.06.03 11:33:40.
