data_PCOD9109358
_publ_section_title
;
Structure prediction by ZEFSAII (Michael W. Deem and Ramdas Pophale) SiO2 
 PCOD9109358
Probable space group: P -1
;
_chemical_formula_sum "Si O2"
_cell_formula_units_Z 16
_cell_length_a 19.456614
_cell_length_b 12.061351
_cell_length_c 11.577878
_cell_angle_alpha 151.775925
_cell_angle_beta 148.651690
_cell_angle_gamma 33.124992
_cell_volume 627.313085
_symmetry_space_group_name_H-M "P -1"
_symmetry_group_IT_number 2
_symmetry_cell_setting 'triclinic'
loop_
_space_group_symop_operation_xyz
x,y,z
-x,-y,-z
loop_
_atom_site_type_symbol
_atom_site_label
_atom_site_fract_x
_atom_site_fract_y
_atom_site_fract_z
Si Si1 0.082845 0.272257 0.326499
Si Si2 0.987238 0.200957 0.562657
Si Si3 0.371055 0.994194 0.394259
Si Si4 0.228027 0.231420 0.043772
Si Si5 0.294528 0.775742 0.880181
Si Si6 0.399575 0.846030 0.744251
Si Si7 0.129692 0.901171 0.265271
Si Si8 0.459051 0.439362 0.619382
O O1 0.000000 0.500000 0.500000
O O2 0.235931 0.235023 0.454219
O O3 0.125297 0.041627 0.266447
O O4 0.966737 0.264711 0.057905
O O5 0.076368 0.358830 0.886237
O O6 0.824849 0.334043 0.426272
O O7 0.046973 0.077376 0.413002
O O8 0.000000 0.000000 0.500000
O O9 0.445972 0.841710 0.473951
O O10 0.500000 0.000000 0.500000
O O11 0.310881 0.806801 0.066520
O O12 0.242017 0.064770 0.025628
O O13 0.300773 0.010873 0.854568
O O14 0.313596 0.414933 0.344240
O O15 0.429741 0.605794 0.847096
O O16 0.289346 0.811509 0.460933
O O17 0.503999 0.406391 0.286909
O O18 0.500000 0.000000 0.000000
#
# Coordination Sequence:
#
# PCOD9109358 Si02
#       8
#     2   2   2   2   2   2   2   2
#     4  11  27  51  78 107 152 216 260 319 398 469
#     4   9  18  38  72  99 149 197 250 323 374 457
#     4  12  25  47  76 113 161 198 265 326 382 473
#     4   9  20  39  60 106 144 186 254 310 384 456
#     4  10  20  41  65 102 152 193 245 318 388 448
#     4  10  24  45  72 101 148 200 259 318 387 473
#     4  10  23  49  71 107 152 200 267 325 381 482
#     4  11  24  41  70 111 146 200 244 318 400 455
#
# _framework density 25.505607000000001
#
# number of rings (size 3 to 8) (size 9 to 14) (size 15 to 20)
#    0.000    1.750    2.500    1.125    1.750    4.000 
#    9.000    0.000    0.000    0.000    0.000    0.000 
#    0.000    0.000    0.000    0.000    0.000    0.000 
#
# Total GULP energy -89343.280314 kJ/mol
# GULP energy per Si atom -5583.955020 kJ/mol
# Density = 2.544755 g / cm^3
# Si number density = 25.505607 Si / 1000 Ang^3
#
#
#
# Elastic Constant Matrix: (Units=GPa)
#
#
# Indices 1 2 3 4 5 6 
#
# 1 107.3842 57.5780 30.1814 -11.2959 -0.6469 -5.4337
# 2 57.5780 97.9270 42.4514 -8.1049 5.5936 -19.9303
# 3 30.1814 42.4514 121.0159 -22.3684 -8.1626 -12.1479
# 4 -11.2959 -8.1049 -22.3684 37.3537 -4.9701 -6.2509
# 5 -0.6469 5.5936 -8.1626 -4.9701 42.6716 7.8836
# 6 -5.4337 -19.9303 -12.1479 -6.2509 7.8836 51.2805
#
#
#
# Elastic Compliance Matrix: (Units=1/GPa)
#
#
# Indices 1 2 3 4 5 6 
#
# 1 0.014074 -0.008505 -0.000171 0.002248 0.001903 -0.001873
# 2 -0.008505 0.018422 -0.004185 -0.000697 -0.004511 0.005876
# 3 -0.000171 -0.004185 0.011321 0.006471 0.003219 0.001331
# 4 0.002248 -0.000697 0.006471 0.032547 0.004265 0.004812
# 5 0.001903 -0.004511 0.003219 0.004265 0.025954 -0.004259
# 6 -0.001873 0.005876 0.001331 0.004812 -0.004259 0.023142
#
#
# Mechanical properties :
#
#
# Convention : Reuss Voigt Hill
#
# Bulk Modulus (GPa) = 55.25987 65.19428 60.22707
# Shear Modulus (GPa) = 31.80413 39.33558 35.56986
#
# Velocity S-wave (km/s) = 3.53504 3.93139 3.73847
# Velocity P-wave (km/s) = 6.19474 6.79882 6.50380
#
# Compressibility (1/GPa) = 0.01809632
#
# Stress axis : x y z
#
# Youngs Moduli (GPa) = 71.05485 54.28283 88.33423
#
# Poissons Ratio (x) = 0.46166 0.01507
# Poissons Ratio (y) = 0.60430 0.36964
# Poissons Ratio (z) = 0.01213 0.22715
#
# Static dielectric constant tensor:
#      x y z
#    x 2.154050 -0.014870 0.053740 
#    y -0.014870 2.036440 -0.042700 
#    z 0.053740 -0.042700 2.002330 
# 
# From -- ./inp_files/472029.got.cif
#   From: 2010.05.17/outbox.cif.g08.bks.cpg/sg2_237_cif.got.tgz:472029.got - 2010.06.03 11:33:40.
