data_PCOD9109452
_publ_section_title
;
Structure prediction by ZEFSAII (Michael W. Deem and Ramdas Pophale) SiO2 
 PCOD9109452
Probable space group: P -1
;
_chemical_formula_sum "Si O2"
_cell_formula_units_Z 14
_cell_length_a 11.503083
_cell_length_b 9.427647
_cell_length_c 16.696529
_cell_angle_alpha 58.865491
_cell_angle_beta 22.904006
_cell_angle_gamma 57.590805
_cell_volume 593.433065
_symmetry_space_group_name_H-M "P -1"
_symmetry_group_IT_number 2
_symmetry_cell_setting 'triclinic'
loop_
_space_group_symop_operation_xyz
x,y,z
-x,-y,-z
loop_
_atom_site_type_symbol
_atom_site_label
_atom_site_fract_x
_atom_site_fract_y
_atom_site_fract_z
Si Si1 0.739995 0.469153 0.736671
Si Si2 0.832090 0.307142 0.895580
Si Si3 0.430284 0.851647 0.144144
Si Si4 0.214679 0.062211 0.967363
Si Si5 0.511749 0.673483 0.485928
Si Si6 0.769969 0.995630 0.514153
Si Si7 0.457617 0.839095 0.629405
O O1 0.849390 0.422000 0.772346
O O2 0.591769 0.316788 0.839900
O O3 0.000000 0.500000 0.500000
O O4 0.458930 0.621459 0.886688
O O5 0.144404 0.292120 0.750809
O O6 0.803057 0.123918 0.934911
O O7 0.679909 0.825977 0.062390
O O8 0.092069 0.927774 0.369088
O O9 0.500000 0.000000 0.000000
O O10 0.484431 0.032954 0.742140
O O11 0.878159 0.130353 0.129976
O O12 0.500000 0.500000 0.500000
O O13 0.261898 0.825902 0.564578
O O14 0.474997 0.684593 0.602427
O O15 0.706394 0.851833 0.534444
O O16 0.500000 0.000000 0.500000
#
# Coordination Sequence:
#
# PCOD9109452 Si02
#       7
#     2   2   2   2   2   2   2
#     4  11  26  46  69  99 141 183 225 283 354 410
#     4  11  24  44  69  98 138 182 227 284 347 410
#     4  12  24  42  72 100 133 179 233 281 338 405
#     4  12  23  42  69 104 133 174 237 283 337 411
#     4  11  25  41  66  96 133 178 226 281 342 406
#     4  11  24  42  68 100 135 176 227 281 339 416
#     4  10  20  41  65  92 131 178 220 267 340 405
#
# _framework density 23.591540999999999
#
# number of rings (size 3 to 8) (size 9 to 14) (size 15 to 20)
#    0.000    0.857    4.286    4.286    4.000    1.143 
#    0.000    0.714    0.000    0.000    0.000    0.000 
#    0.000    0.000    0.000    0.000    0.000    0.000 
#
# Total GULP energy -78282.245916 kJ/mol
# GULP energy per Si atom -5591.588994 kJ/mol
# Density = 2.353785 g / cm^3
# Si number density = 23.591541 Si / 1000 Ang^3
#
#
#
# Elastic Constant Matrix: (Units=GPa)
#
#
# Indices 1 2 3 4 5 6 
#
# 1 45.6898 26.0847 13.7388 -12.1810 -5.6771 13.3980
# 2 26.0847 111.7823 11.6561 2.3478 -9.6483 29.2781
# 3 13.7388 11.6561 129.8685 16.1316 7.9219 6.6450
# 4 -12.1810 2.3478 16.1316 37.1648 4.0639 -6.4201
# 5 -5.6771 -9.6483 7.9219 4.0639 46.8531 2.0239
# 6 13.3980 29.2781 6.6450 -6.4201 2.0239 40.8120
#
#
#
# Elastic Compliance Matrix: (Units=1/GPa)
#
#
# Indices 1 2 3 4 5 6 
#
# 1 0.030857 -0.005867 -0.004116 0.011391 0.002393 -0.003578
# 2 -0.005867 0.012724 0.000298 -0.004539 0.002602 -0.008093
# 3 -0.004116 0.000298 0.008905 -0.005260 -0.001441 -0.001068
# 4 0.011391 -0.004539 -0.005260 0.034435 -0.001906 0.005884
# 5 0.002393 0.002602 -0.001441 -0.001906 0.022744 -0.003846
# 6 -0.003578 -0.008093 -0.001068 0.005884 -0.003846 0.032773
#
#
# Mechanical properties :
#
#
# Convention : Reuss Voigt Hill
#
# Bulk Modulus (GPa) = 30.19710 43.36664 36.78187
# Shear Modulus (GPa) = 28.92733 40.69007 34.80870
#
# Velocity S-wave (km/s) = 3.50548 4.15754 3.84536
# Velocity P-wave (km/s) = 5.40483 6.43965 5.94480
#
# Compressibility (1/GPa) = 0.03311577
#
# Stress axis : x y z
#
# Youngs Moduli (GPa) = 32.40739 78.59319 112.30079
#
# Poissons Ratio (x) = 0.46111 0.46219
# Poissons Ratio (y) = 0.19014 -0.03345
# Poissons Ratio (z) = 0.13338 -0.02341
#
# Static dielectric constant tensor:
#      x y z
#    x 1.914910 -0.043230 0.039100 
#    y -0.043230 1.906530 0.022330 
#    z 0.039100 0.022330 1.909780 
# 
# From -- ./inp_files/445585.got.cif
#   From: 2010.05.17/outbox.cif.g08.bks.cpg/sg2_223_cif.got.tgz:445585.got - 2010.06.03 11:33:40.
