data_PCOD9109003
_publ_section_title
;
Structure prediction by ZEFSAII (Michael W. Deem and Ramdas Pophale) SiO2 
 PCOD9109003
Probable space group: P -1
;
_chemical_formula_sum "Si O2"
_cell_formula_units_Z 16
_cell_length_a 9.203045
_cell_length_b 7.734504
_cell_length_c 14.226681
_cell_angle_alpha 87.277315
_cell_angle_beta 75.443028
_cell_angle_gamma 48.764272
_cell_volume 727.305391
_symmetry_space_group_name_H-M "P -1"
_symmetry_group_IT_number 2
_symmetry_cell_setting 'triclinic'
loop_
_space_group_symop_operation_xyz
x,y,z
-x,-y,-z
loop_
_atom_site_type_symbol
_atom_site_label
_atom_site_fract_x
_atom_site_fract_y
_atom_site_fract_z
Si Si1 0.026107 0.177750 0.456169
Si Si2 0.400025 0.455961 0.440065
Si Si3 0.615900 0.013602 0.067105
Si Si4 0.552565 0.447537 0.100126
Si Si5 0.343796 0.782204 0.291255
Si Si6 0.967719 0.342408 0.066929
Si Si7 0.691569 0.934506 0.418471
Si Si8 0.263060 0.309065 0.761910
O O1 0.810976 0.439605 0.479979
O O2 0.158744 0.049604 0.343427
O O3 0.153052 0.159949 0.520487
O O4 0.000000 0.000000 0.500000
O O5 0.500000 0.500000 0.500000
O O6 0.330005 0.616830 0.357101
O O7 0.581198 0.190661 0.390389
O O8 0.535767 0.252732 0.122006
O O9 0.658153 0.854432 0.153209
O O10 0.500000 0.000000 0.000000
O O11 0.826079 0.910015 0.986605
O O12 0.394164 0.681407 0.181179
O O13 0.771419 0.373735 0.078746
O O14 0.500000 0.500000 0.000000
O O15 0.547926 0.717433 0.295604
O O16 0.928164 0.435369 0.177020
O O17 0.000000 0.500000 0.000000
O O18 0.500000 0.000000 0.500000
O O19 0.782859 0.771139 0.317805
#
# Coordination Sequence:
#
# PCOD9109003 Si02
#       8
#     2   2   2   2   2   2   2   2
#     4  10  21  41  63  92 125 167 214 256 316 375
#     4  11  21  40  64  88 126 168 210 258 312 375
#     4  11  22  42  63  93 129 161 210 261 314 381
#     4  11  22  40  66  91 122 168 206 259 319 373
#     4  10  20  41  61  91 124 162 214 255 316 385
#     4   9  20  40  62  87 126 156 206 256 307 375
#     4  12  22  41  64  92 133 161 209 267 313 375
#     4  10  21  40  63  92 124 164 202 262 320 364
#
# _framework density 21.999010999999999
#
# number of rings (size 3 to 8) (size 9 to 14) (size 15 to 20)
#    0.000    1.500    3.750    3.375    0.000    0.500 
#   15.750    6.250    0.000    0.000    0.000    0.000 
#    0.000    0.000    0.000    0.000    0.000    0.000 
#
# Total GULP energy -89128.387886 kJ/mol
# GULP energy per Si atom -5570.524243 kJ/mol
# Density = 2.194894 g / cm^3
# Si number density = 21.999011 Si / 1000 Ang^3
#
#
#
# Elastic Constant Matrix: (Units=GPa)
#
#
# Indices 1 2 3 4 5 6 
#
# 1 98.2290 8.3188 47.8228 11.7185 22.0721 -8.1348
# 2 8.3188 41.2094 28.4102 11.6857 13.1705 -4.7867
# 3 47.8228 28.4102 149.2649 34.2771 29.5284 -15.9605
# 4 11.7185 11.6857 34.2771 41.7465 3.7512 -4.6008
# 5 22.0721 13.1705 29.5284 3.7512 42.5225 1.6476
# 6 -8.1348 -4.7867 -15.9605 -4.6008 1.6476 32.4916
#
#
#
# Elastic Compliance Matrix: (Units=1/GPa)
#
#
# Indices 1 2 3 4 5 6 
#
# 1 0.012944 0.001604 -0.002995 -0.000926 -0.005137 0.002135
# 2 0.001604 0.030483 -0.003278 -0.005283 -0.007645 0.002922
# 3 -0.002995 -0.003278 0.011089 -0.006536 -0.004690 0.003527
# 4 -0.000926 -0.005283 -0.006536 0.030697 0.003951 -0.000075
# 5 -0.005137 -0.007645 -0.004690 0.003951 0.031683 -0.005764
# 6 0.002135 0.002922 0.003527 -0.000075 -0.005764 0.033756
#
#
# Mechanical properties :
#
#
# Convention : Reuss Voigt Hill
#
# Bulk Modulus (GPa) = 22.13436 50.86743 36.50090
# Shear Modulus (GPa) = 28.56327 36.96222 32.76274
#
# Velocity S-wave (km/s) = 3.60723 4.10344 3.86331
# Velocity P-wave (km/s) = 5.23763 6.75454 6.04386
#
# Compressibility (1/GPa) = 0.04517863
#
# Stress axis : x y z
#
# Youngs Moduli (GPa) = 77.25417 32.80496 90.17857
#
# Poissons Ratio (x) = -0.05263 0.27012
# Poissons Ratio (y) = -0.12395 0.29561
# Poissons Ratio (z) = 0.23140 0.10754
#
# Static dielectric constant tensor:
#      x y z
#    x 1.894890 0.153500 -0.048890 
#    y 0.153500 2.118890 0.026790 
#    z -0.048890 0.026790 1.841590 
# 
# From -- ./inp_files/493175.got.cif
#   From: 2010.05.17/outbox.cif.g08.bks.cpg/sg2_247_cif.got.tgz:493175.got - 2010.06.03 11:33:40.
