data_PCOD9109910
_publ_section_title
;
Structure prediction by ZEFSAII (Michael W. Deem and Ramdas Pophale) SiO2 
 PCOD9109910
Probable space group: P -1
;
_chemical_formula_sum "Si O2"
_cell_formula_units_Z 16
_cell_length_a 7.740947
_cell_length_b 19.195523
_cell_length_c 5.451427
_cell_angle_alpha 102.430445
_cell_angle_beta 58.290781
_cell_angle_gamma 120.248562
_cell_volume 593.941045
_symmetry_space_group_name_H-M "P -1"
_symmetry_group_IT_number 2
_symmetry_cell_setting 'triclinic'
loop_
_space_group_symop_operation_xyz
x,y,z
-x,-y,-z
loop_
_atom_site_type_symbol
_atom_site_label
_atom_site_fract_x
_atom_site_fract_y
_atom_site_fract_z
Si Si1 0.053050 0.206938 0.384376
Si Si2 0.734495 0.491206 0.353506
Si Si3 0.929651 0.733354 0.079403
Si Si4 0.410820 0.689404 0.499690
Si Si5 0.359131 0.058983 0.903096
Si Si6 0.438333 0.751441 0.023568
Si Si7 0.794716 0.024177 0.543883
Si Si8 0.774713 0.553023 0.869474
O O1 0.974643 0.243212 0.697480
O O2 0.327816 0.258595 0.187635
O O3 0.988872 0.116040 0.433053
O O4 0.947991 0.207675 0.196643
O O5 0.500000 0.500000 0.500000
O O6 0.663218 0.401494 0.431703
O O7 0.864383 0.548800 0.529333
O O8 0.836538 0.511903 0.018635
O O9 0.686794 0.736235 0.299689
O O10 0.850924 0.643043 0.973588
O O11 0.334668 0.726829 0.809847
O O12 0.319741 0.699172 0.312017
O O13 0.564077 0.035177 0.729799
O O14 0.233641 0.029839 0.714483
O O15 0.471695 0.154942 0.916930
O O16 0.208234 0.015773 0.223232
O O17 0.500000 0.500000 0.000000
#
# Coordination Sequence:
#
# PCOD9109910 Si02
#       8
#     2   2   2   2   2   2   2   2
#     4  10  21  32  49  75 106 136 157 208 254 309
#     4  10  17  24  41  63  95 143 167 201 234 297
#     4  10  18  29  43  68 107 139 162 198 255 296
#     4  10  18  29  43  68 107 139 162 198 255 296
#     4  10  21  38  58  76  97 129 173 214 247 296
#     4  10  21  32  49  75 106 136 157 208 254 309
#     4  10  21  38  58  76  97 129 173 214 247 296
#     4  10  17  24  41  63  95 143 167 201 234 297
#
# _framework density 26.938697999999999
#
# number of rings (size 3 to 8) (size 9 to 14) (size 15 to 20)
#    0.000    2.000    2.500    3.000    7.000    1.000 
#    0.000    0.000    0.000    0.000    0.000    0.000 
#    0.000   20.000    0.000    0.000    0.000    0.000 
#
# Total GULP energy -89650.814567 kJ/mol
# GULP energy per Si atom -5603.175910 kJ/mol
# Density = 2.687738 g / cm^3
# Si number density = 26.938698 Si / 1000 Ang^3
#
#
#
# Elastic Constant Matrix: (Units=GPa)
#
#
# Indices 1 2 3 4 5 6 
#
# 1 91.2251 31.4130 55.2197 -8.8489 32.4127 -4.4939
# 2 31.4130 170.4232 101.5168 6.0162 34.3568 -10.5082
# 3 55.2197 101.5168 262.0556 11.3744 62.7453 -7.8038
# 4 -8.8489 6.0162 11.3744 56.9544 -1.2307 7.1535
# 5 32.4127 34.3568 62.7453 -1.2307 58.6265 -13.2710
# 6 -4.4939 -10.5082 -7.8038 7.1535 -13.2710 41.2800
#
#
#
# Elastic Compliance Matrix: (Units=1/GPa)
#
#
# Indices 1 2 3 4 5 6 
#
# 1 0.014510 -0.000734 -0.001412 0.002649 -0.006335 -0.001370
# 2 -0.000734 0.007852 -0.002529 -0.000609 -0.001242 0.001147
# 3 -0.001412 -0.002529 0.006226 -0.001182 -0.004631 -0.000904
# 4 0.002649 -0.000609 -0.001182 0.018692 -0.000220 -0.003400
# 5 -0.006335 -0.001242 -0.004631 -0.000220 0.027848 0.007110
# 6 -0.001370 0.001147 -0.000904 -0.003400 0.007110 0.027072
#
#
# Mechanical properties :
#
#
# Convention : Reuss Voigt Hill
#
# Bulk Modulus (GPa) = 51.98160 100.00032 75.99096
# Shear Modulus (GPa) = 42.38597 53.74247 48.06422
#
# Velocity S-wave (km/s) = 3.97094 4.47138 4.22857
# Velocity P-wave (km/s) = 6.35316 7.99122 7.21881
#
# Compressibility (1/GPa) = 0.01923758
#
# Stress axis : x y z
#
# Youngs Moduli (GPa) = 68.91916 127.35181 160.60739
#
# Poissons Ratio (x) = 0.09351 0.22677
# Poissons Ratio (y) = 0.05061 0.40620
# Poissons Ratio (z) = 0.09731 0.32209
#
# Static dielectric constant tensor:
#      x y z
#    x 2.441330 0.010640 -0.280830 
#    y 0.010640 1.962440 -0.014800 
#    z -0.280830 -0.014800 2.400470 
# 
# From -- ./inp_files/80778.got.cif
#   From: 2010.05.17/outbox.cif.g08.bks.cpg/sg2_41_cif.got.tgz:80778.got - 2010.06.03 11:33:40.
