data_PCOD9109573
_publ_section_title
;
Structure prediction by ZEFSAII (Michael W. Deem and Ramdas Pophale) SiO2 
 PCOD9109573
Probable space group: P -1
;
_chemical_formula_sum "Si O2"
_cell_formula_units_Z 14
_cell_length_a 12.209012
_cell_length_b 9.620701
_cell_length_c 8.717252
_cell_angle_alpha 71.586397
_cell_angle_beta 121.829259
_cell_angle_gamma 133.754161
_cell_volume 626.381551
_symmetry_space_group_name_H-M "P -1"
_symmetry_group_IT_number 2
_symmetry_cell_setting 'triclinic'
loop_
_space_group_symop_operation_xyz
x,y,z
-x,-y,-z
loop_
_atom_site_type_symbol
_atom_site_label
_atom_site_fract_x
_atom_site_fract_y
_atom_site_fract_z
Si Si1 0.133130 0.546483 0.453048
Si Si2 0.521583 0.855528 0.637576
Si Si3 0.000175 0.824425 0.716740
Si Si4 0.333806 0.180883 0.938046
Si Si5 0.665063 0.707863 0.609197
Si Si6 0.012113 0.640700 0.080097
Si Si7 0.697418 0.552855 0.997546
O O1 0.327960 0.657852 0.602994
O O2 0.000000 0.500000 0.500000
O O3 0.053960 0.347514 0.375217
O O4 0.146356 0.687383 0.287537
O O5 0.627985 0.895069 0.857789
O O6 0.606303 0.824724 0.573636
O O7 0.500000 0.000000 0.500000
O O8 0.839697 0.815855 0.606289
O O9 0.024331 0.785968 0.924625
O O10 0.191453 0.022457 0.768968
O O11 0.280585 0.306886 0.905655
O O12 0.518122 0.340208 0.946465
O O13 0.500000 0.500000 0.500000
O O14 0.700459 0.652698 0.813721
O O15 0.845146 0.545070 0.091278
O O16 0.000000 0.500000 0.000000
#
# Coordination Sequence:
#
# PCOD9109573 Si02
#       7
#     2   2   2   2   2   2   2
#     4  11  22  39  59  90 130 163 197 260 320 364
#     4  11  23  39  64  94 127 162 205 259 317 367
#     4  10  21  40  66  89 117 165 218 251 301 383
#     4  10  21  40  63  93 122 161 209 257 310 372
#     4  10  20  41  66  89 123 163 208 258 310 368
#     4   9  19  36  60  87 116 164 208 246 299 374
#     4   9  20  38  65  87 123 164 205 258 311 363
#
# _framework density 22.350595999999999
#
# number of rings (size 3 to 8) (size 9 to 14) (size 15 to 20)
#    0.000    2.000    1.429    1.714    0.000    6.286 
#    2.571    4.286    0.000    0.000    0.000    0.000 
#    0.000    0.000    0.000    0.000    0.000    0.000 
#
# Total GULP energy -78030.069076 kJ/mol
# GULP energy per Si atom -5573.576363 kJ/mol
# Density = 2.229972 g / cm^3
# Si number density = 22.350596 Si / 1000 Ang^3
#
#
#
# Elastic Constant Matrix: (Units=GPa)
#
#
# Indices 1 2 3 4 5 6 
#
# 1 142.1839 41.4662 57.9313 17.8516 28.6223 -16.4255
# 2 41.4662 89.7138 49.3405 13.9761 17.7788 -6.8400
# 3 57.9313 49.3405 91.1580 14.6532 19.8141 1.2406
# 4 17.8516 13.9761 14.6532 47.9733 11.4336 10.6524
# 5 28.6223 17.7788 19.8141 11.4336 28.0083 -8.0387
# 6 -16.4255 -6.8400 1.2406 10.6524 -8.0387 15.4558
#
#
#
# Elastic Compliance Matrix: (Units=1/GPa)
#
#
# Indices 1 2 3 4 5 6 
#
# 1 0.013285 0.000979 -0.008175 -0.007437 0.000538 0.020614
# 2 0.000979 0.017907 -0.009806 -0.006148 0.001286 0.014658
# 3 -0.008175 -0.009806 0.023390 0.007836 -0.012925 -0.027028
# 4 -0.007437 -0.006148 0.007836 0.040971 -0.025978 -0.053003
# 5 0.000538 0.001286 -0.012925 -0.025978 0.070352 0.056674
# 6 0.020614 0.014658 -0.027028 -0.053003 0.056674 0.161271
#
#
# Mechanical properties :
#
#
# Convention : Reuss Voigt Hill
#
# Bulk Modulus (GPa) = 48.59044 68.94798 58.76921
# Shear Modulus (GPa) = 13.58551 29.90867 21.74709
#
# Velocity S-wave (km/s) = 2.46811 3.66206 3.12268
# Velocity P-wave (km/s) = 5.46895 6.98543 6.27318
#
# Compressibility (1/GPa) = 0.02058018
#
# Stress axis : x y z
#
# Youngs Moduli (GPa) = 75.27182 55.84313 42.75342
#
# Poissons Ratio (x) = -0.05467 0.34949
# Poissons Ratio (y) = -0.07370 0.41922
# Poissons Ratio (z) = 0.61532 0.54758
#
# Static dielectric constant tensor:
#      x y z
#    x 1.894440 0.010580 -0.003610 
#    y 0.010580 1.877630 -0.053410 
#    z -0.003610 -0.053410 1.842930 
# 
# From -- ./inp_files/243676.got.cif
#   From: 2010.05.17/outbox.cif.g08.bks.cpg/sg2_122_cif.got.tgz:243676.got - 2010.06.03 11:33:40.
