data_PCOD9109278
_publ_section_title
;
Structure prediction by ZEFSAII (Michael W. Deem and Ramdas Pophale) SiO2 
 PCOD9109278
Probable space group: P -1
;
_chemical_formula_sum "Si O2"
_cell_formula_units_Z 16
_cell_length_a 8.165731
_cell_length_b 15.444319
_cell_length_c 14.937925
_cell_angle_alpha 142.933450
_cell_angle_beta 63.630741
_cell_angle_gamma 90.560011
_cell_volume 783.245595
_symmetry_space_group_name_H-M "P -1"
_symmetry_group_IT_number 2
_symmetry_cell_setting 'triclinic'
loop_
_space_group_symop_operation_xyz
x,y,z
-x,-y,-z
loop_
_atom_site_type_symbol
_atom_site_label
_atom_site_fract_x
_atom_site_fract_y
_atom_site_fract_z
Si Si1 0.882093 0.182995 0.289249
Si Si2 0.519255 0.708796 0.099513
Si Si3 0.826935 0.364224 0.838526
Si Si4 0.262678 0.042118 0.562789
Si Si5 0.625096 0.092893 0.156507
Si Si6 0.745130 0.560329 0.584962
Si Si7 0.501919 0.167014 0.973470
Si Si8 0.938397 0.129547 0.436321
O O1 0.733176 0.122499 0.239567
O O2 0.791111 0.367790 0.408962
O O3 0.856262 0.220902 0.433003
O O4 0.159031 0.018374 0.060214
O O5 0.370541 0.635964 0.064816
O O6 0.625551 0.719669 0.993102
O O7 0.331868 0.913593 0.353506
O O8 0.714850 0.572671 0.013600
O O9 0.878167 0.263184 0.645505
O O10 0.054848 0.249414 0.750762
O O11 0.500000 0.000000 0.500000
O O12 0.171751 0.970774 0.597120
O O13 0.390613 0.292657 0.342202
O O14 0.566703 0.957629 0.081128
O O15 0.000000 0.500000 0.500000
O O16 0.571236 0.683294 0.810554
O O17 0.779545 0.029052 0.770954
#
# Coordination Sequence:
#
# PCOD9109278 Si02
#       8
#     2   2   2   2   2   2   2   2
#     4  11  24  43  62  94 132 165 210 266 329 370
#     4  10  21  38  65  92 121 160 216 256 304 377
#     4  10  20  41  64  92 122 163 210 263 306 370
#     4  11  23  40  63  93 133 162 197 263 324 371
#     4  11  25  41  64  92 133 167 206 275 322 370
#     4  12  23  42  65  95 125 172 220 263 309 378
#     4  12  21  40  68  94 123 172 221 256 310 384
#     4  11  21  40  68  89 121 170 212 257 310 385
#
# _framework density 20.427820000000001
#
# number of rings (size 3 to 8) (size 9 to 14) (size 15 to 20)
#    0.000    1.000    5.000    3.000    1.750    0.500 
#    0.000    0.000    2.750    0.000    0.000    0.000 
#    0.000    0.000    0.000    0.000    0.000    0.000 
#
# Total GULP energy -89352.373092 kJ/mol
# GULP energy per Si atom -5584.523318 kJ/mol
# Density = 2.038133 g / cm^3
# Si number density = 20.427820 Si / 1000 Ang^3
#
#
#
# Elastic Constant Matrix: (Units=GPa)
#
#
# Indices 1 2 3 4 5 6 
#
# 1 76.6847 22.3577 11.5131 4.1108 -24.0663 1.8521
# 2 22.3577 84.9856 2.9845 9.9702 -13.5435 -21.1547
# 3 11.5131 2.9845 62.6133 9.4574 -16.8551 -3.1157
# 4 4.1108 9.9702 9.4574 38.7275 -7.0964 -7.7188
# 5 -24.0663 -13.5435 -16.8551 -7.0964 31.9805 3.8307
# 6 1.8521 -21.1547 -3.1157 -7.7188 3.8307 20.2808
#
#
#
# Elastic Compliance Matrix: (Units=1/GPa)
#
#
# Indices 1 2 3 4 5 6 
#
# 1 0.018971 -0.005337 -0.000183 -0.000166 0.013064 -0.009858
# 2 -0.005337 0.018314 0.001726 -0.000305 0.002269 0.019311
# 3 -0.000183 0.001726 0.019090 -0.002938 0.009789 0.001783
# 4 -0.000166 -0.000305 -0.002938 0.029213 0.003518 0.009699
# 5 0.013064 0.002269 0.009789 0.003518 0.048619 -0.005167
# 6 -0.009858 0.019311 0.001783 0.009699 -0.005167 0.075293
#
#
# Mechanical properties :
#
#
# Convention : Reuss Voigt Hill
#
# Bulk Modulus (GPa) = 20.49673 33.11049 26.80361
# Shear Modulus (GPa) = 21.42705 30.69298 26.06002
#
# Velocity S-wave (km/s) = 3.24221 3.88043 3.57559
# Velocity P-wave (km/s) = 4.90626 6.02666 5.49509
#
# Compressibility (1/GPa) = 0.04878828
#
# Stress axis : x y z
#
# Youngs Moduli (GPa) = 52.71311 54.60170 52.38329
#
# Poissons Ratio (x) = 0.29140 0.00957
# Poissons Ratio (y) = 0.28132 -0.09042
# Poissons Ratio (z) = 0.00963 -0.09425
#
# Static dielectric constant tensor:
#      x y z
#    x 1.778970 -0.018280 -0.004910 
#    y -0.018280 1.765130 0.011800 
#    z -0.004910 0.011800 1.724520 
# 
# From -- ./inp_files/273027.got.cif
#   From: 2010.05.17/outbox.cif.g08.bks.cpg/sg2_137_cif.got.tgz:273027.got - 2010.06.03 11:33:40.
