data_PCOD9109908
_publ_section_title
;
Structure prediction by ZEFSAII (Michael W. Deem and Ramdas Pophale) SiO2 
 PCOD9109908
Probable space group: P -1
;
_chemical_formula_sum "Si O2"
_cell_formula_units_Z 14
_cell_length_a 10.253268
_cell_length_b 23.954834
_cell_length_c 5.051185
_cell_angle_alpha 74.925768
_cell_angle_beta 110.064650
_cell_angle_gamma 146.102923
_cell_volume 649.195327
_symmetry_space_group_name_H-M "P -1"
_symmetry_group_IT_number 2
_symmetry_cell_setting 'triclinic'
loop_
_space_group_symop_operation_xyz
x,y,z
-x,-y,-z
loop_
_atom_site_type_symbol
_atom_site_label
_atom_site_fract_x
_atom_site_fract_y
_atom_site_fract_z
Si Si1 0.215887 0.941144 0.120352
Si Si2 0.505319 0.543080 0.201620
Si Si3 0.730429 0.273641 0.506117
Si Si4 0.429966 0.672503 0.396962
Si Si5 0.015517 0.593893 0.011837
Si Si6 0.691988 0.719143 0.006808
Si Si7 0.459308 0.063790 0.638911
O O1 0.361527 0.930149 0.239455
O O2 0.249656 0.978850 0.387732
O O3 0.945621 0.834688 0.982059
O O4 0.344228 0.026780 0.894578
O O5 0.500000 0.500000 0.500000
O O6 0.266390 0.501745 0.110504
O O7 0.500000 0.500000 0.000000
O O8 0.719626 0.662143 0.189140
O O9 0.544041 0.256966 0.521888
O O10 0.604486 0.169621 0.524448
O O11 0.844792 0.336833 0.237502
O O12 0.933465 0.343503 0.790613
O O13 0.524336 0.661087 0.699231
O O14 0.574112 0.713084 0.177985
O O15 0.147426 0.580877 0.230219
#
# Coordination Sequence:
#
# PCOD9109908 Si02
#       7
#     2   2   2   2   2   2   2
#     4  10  23  38  62  93 125 165 211 255 321 366
#     4  12  28  44  64 102 124 165 210 255 324 380
#     4  10  20  41  68  90 125 164 216 262 291 379
#     4  10  22  42  64  94 124 173 213 243 322 365
#     4  10  22  41  67  90 129 162 214 252 303 386
#     4  12  24  43  64  91 137 159 205 275 305 367
#     4  10  21  41  63  91 122 169 214 252 313 380
#
# _framework density 21.565158
#
# number of rings (size 3 to 8) (size 9 to 14) (size 15 to 20)
#    0.857    0.571    1.429    3.429    4.000    1.143 
#    0.000    4.286    0.000    0.000    0.000    0.000 
#    0.000    0.000    0.000    0.000    0.000    0.000 
#
# Total GULP energy -78144.337329 kJ/mol
# GULP energy per Si atom -5581.738381 kJ/mol
# Density = 2.151608 g / cm^3
# Si number density = 21.565158 Si / 1000 Ang^3
#
#
#
# Elastic Constant Matrix: (Units=GPa)
#
#
# Indices 1 2 3 4 5 6 
#
# 1 45.5642 2.9868 20.1848 -1.0945 -8.1349 8.9796
# 2 2.9868 66.0152 17.7172 -7.1062 5.2272 5.1729
# 3 20.1848 17.7172 126.3144 -7.5502 -17.3537 16.6009
# 4 -1.0945 -7.1062 -7.5502 26.8375 6.3078 -0.6682
# 5 -8.1349 5.2272 -17.3537 6.3078 25.7852 3.5029
# 6 8.9796 5.1729 16.6009 -0.6682 3.5029 24.3180
#
#
#
# Elastic Compliance Matrix: (Units=1/GPa)
#
#
# Indices 1 2 3 4 5 6 
#
# 1 0.026249 -0.000930 -0.001642 -0.002040 0.009189 -0.009754
# 2 -0.000930 0.017097 -0.002863 0.005315 -0.006960 -0.000190
# 3 -0.001642 -0.002863 0.010664 0.000066 0.008208 -0.007246
# 4 -0.002040 0.005315 0.000066 0.041526 -0.012171 0.002472
# 5 0.009189 -0.006960 0.008208 -0.012171 0.053711 -0.015587
# 6 -0.009754 -0.000190 -0.007246 0.002472 -0.015587 0.052023
#
#
# Mechanical properties :
#
#
# Convention : Reuss Voigt Hill
#
# Bulk Modulus (GPa) = 23.17985 35.51904 29.34945
# Shear Modulus (GPa) = 22.07310 28.52181 25.29745
#
# Velocity S-wave (km/s) = 3.20277 3.64068 3.42873
# Velocity P-wave (km/s) = 4.94460 5.84629 5.41425
#
# Compressibility (1/GPa) = 0.04314091
#
# Stress axis : x y z
#
# Youngs Moduli (GPa) = 38.09660 58.49109 93.76907
#
# Poissons Ratio (x) = 0.05439 0.15394
# Poissons Ratio (y) = 0.03543 0.26846
# Poissons Ratio (z) = 0.06254 0.16746
#
# Static dielectric constant tensor:
#      x y z
#    x 1.800420 -0.007090 0.037200 
#    y -0.007090 1.763650 0.035380 
#    z 0.037200 0.035380 1.806280 
# 
# From -- ./inp_files/50348.got.cif
#   From: 2010.05.17/outbox.cif.g08.bks.cpg/sg2_26_cif.got.tgz:50348.got - 2010.06.03 11:33:40.
