data_PCOD9109726
_publ_section_title
;
Structure prediction by ZEFSAII (Michael W. Deem and Ramdas Pophale) SiO2 
 PCOD9109726
Probable space group: P -1
;
_chemical_formula_sum "Si O2"
_cell_formula_units_Z 16
_cell_length_a 7.299624
_cell_length_b 14.533638
_cell_length_c 10.801348
_cell_angle_alpha 127.619370
_cell_angle_beta 48.484476
_cell_angle_gamma 131.686755
_cell_volume 610.590442
_symmetry_space_group_name_H-M "P -1"
_symmetry_group_IT_number 2
_symmetry_cell_setting 'triclinic'
loop_
_space_group_symop_operation_xyz
x,y,z
-x,-y,-z
loop_
_atom_site_type_symbol
_atom_site_label
_atom_site_fract_x
_atom_site_fract_y
_atom_site_fract_z
Si Si1 0.963282 0.706684 0.755607
Si Si2 0.570479 0.329505 0.621749
Si Si3 0.853617 0.319111 0.104020
Si Si4 0.986943 0.159848 0.703215
Si Si5 0.656623 0.926994 0.807344
Si Si6 0.460101 0.534556 0.688137
Si Si7 0.318599 0.804431 0.344113
Si Si8 0.180304 0.955512 0.745472
O O1 0.172615 0.657469 0.562774
O O2 0.919467 0.652834 0.869533
O O3 0.099028 0.862893 0.824751
O O4 0.712573 0.660581 0.735488
O O5 0.469834 0.430408 0.695213
O O6 0.659307 0.320638 0.715659
O O7 0.299485 0.196015 0.616596
O O8 0.565381 0.221667 0.219653
O O9 0.801109 0.436653 0.174298
O O10 0.906721 0.239931 0.906414
O O11 0.934273 0.210594 0.638177
O O12 0.792375 0.009103 0.690750
O O13 0.912312 0.948874 0.796145
O O14 0.500000 0.000000 0.000000
O O15 0.500000 0.500000 0.500000
O O16 0.291550 0.880429 0.539358
O O17 0.587753 0.899523 0.227073
#
# Coordination Sequence:
#
# PCOD9109726 Si02
#       8
#     2   2   2   2   2   2   2   2
#     4  11  24  43  71  99 130 170 232 279 330 394
#     4  11  25  41  69  98 128 176 222 281 330 388
#     4  11  25  45  68 101 135 181 222 273 336 395
#     4  11  25  44  67 100 143 176 216 274 339 407
#     4  10  21  42  65  99 138 176 217 268 333 405
#     4  12  26  45  73  98 128 176 232 282 331 389
#     4  10  23  40  66 101 139 170 218 276 337 392
#     4  10  20  41  67 102 131 175 221 277 332 394
#
# _framework density 26.204146999999999
#
# number of rings (size 3 to 8) (size 9 to 14) (size 15 to 20)
#    0.000    1.250    3.750    1.125    5.250    2.000 
#    0.000    3.750    0.000    0.000    0.000    0.000 
#    0.000    0.000    0.000    0.000    0.000    0.000 
#
# Total GULP energy -89592.470037 kJ/mol
# GULP energy per Si atom -5599.529377 kJ/mol
# Density = 2.614450 g / cm^3
# Si number density = 26.204147 Si / 1000 Ang^3
#
#
#
# Elastic Constant Matrix: (Units=GPa)
#
#
# Indices 1 2 3 4 5 6 
#
# 1 174.6301 12.2626 18.5064 9.2245 -8.6708 -34.0556
# 2 12.2626 64.7343 6.0780 4.5638 -0.8370 -25.1277
# 3 18.5064 6.0780 60.0453 5.2528 -6.8551 -5.0766
# 4 9.2245 4.5638 5.2528 19.7293 -0.7815 -4.9731
# 5 -8.6708 -0.8370 -6.8551 -0.7815 32.1036 6.7648
# 6 -34.0556 -25.1277 -5.0766 -4.9731 6.7648 52.1996
#
#
#
# Elastic Compliance Matrix: (Units=1/GPa)
#
#
# Indices 1 2 3 4 5 6 
#
# 1 0.006824 0.000693 -0.001581 -0.001802 0.000555 0.004388
# 2 0.000693 0.019309 -0.001365 -0.002065 -0.001681 0.009636
# 3 -0.001581 -0.001365 0.017938 -0.003774 0.003434 -0.000749
# 4 -0.001802 -0.002065 -0.003774 0.053656 -0.000599 0.002653
# 5 0.000555 -0.001681 0.003434 -0.000599 0.032908 -0.004435
# 6 0.004388 0.009636 -0.000749 0.002653 -0.004435 0.027413
#
#
# Mechanical properties :
#
#
# Convention : Reuss Voigt Hill
#
# Bulk Modulus (GPa) = 25.27465 41.45597 33.36531
# Shear Modulus (GPa) = 28.45074 38.31068 33.38071
#
# Velocity S-wave (km/s) = 3.29862 3.82777 3.57301
# Velocity P-wave (km/s) = 4.91672 5.94899 5.45732
#
# Compressibility (1/GPa) = 0.03956533
#
# Stress axis : x y z
#
# Youngs Moduli (GPa) = 146.54575 51.79041 55.74611
#
# Poissons Ratio (x) = -0.03591 0.08815
# Poissons Ratio (y) = -0.10162 0.07609
# Poissons Ratio (z) = 0.23174 0.07069
#
# Static dielectric constant tensor:
#      x y z
#    x 2.007390 -0.019020 0.012010 
#    y -0.019020 2.187720 -0.018590 
#    z 0.012010 -0.018590 2.007830 
# 
# From -- ./inp_files/367913.got.cif
#   From: 2010.05.17/outbox.cif.g08.bks.cpg/sg2_184_cif.got.tgz:367913.got - 2010.06.03 11:33:40.
