data_PCOD9109283
_publ_section_title
;
Structure prediction by ZEFSAII (Michael W. Deem and Ramdas Pophale) SiO2 
 PCOD9109283
Probable space group: P -1
;
_chemical_formula_sum "Si O2"
_cell_formula_units_Z 16
_cell_length_a 13.110693
_cell_length_b 7.243851
_cell_length_c 7.826847
_cell_angle_alpha 104.006639
_cell_angle_beta 60.997240
_cell_angle_gamma 105.671024
_cell_volume 620.479770
_symmetry_space_group_name_H-M "P -1"
_symmetry_group_IT_number 2
_symmetry_cell_setting 'triclinic'
loop_
_space_group_symop_operation_xyz
x,y,z
-x,-y,-z
loop_
_atom_site_type_symbol
_atom_site_label
_atom_site_fract_x
_atom_site_fract_y
_atom_site_fract_z
Si Si1 0.930268 0.193267 0.292404
Si Si2 0.152050 0.061814 0.978784
Si Si3 0.208798 0.315477 0.647484
Si Si4 0.029253 0.592085 0.185365
Si Si5 0.244677 0.749388 0.255894
Si Si6 0.590148 0.857591 0.759412
Si Si7 0.338090 0.367465 0.060531
Si Si8 0.401801 0.585650 0.703036
O O1 0.013677 0.400980 0.270331
O O2 0.840523 0.187211 0.517181
O O3 0.857562 0.136431 0.162575
O O4 0.027128 0.054471 0.173270
O O5 0.172964 0.211429 0.834297
O O6 0.248895 0.165361 0.053344
O O7 0.085526 0.315988 0.653276
O O8 0.302622 0.210821 0.449968
O O9 0.281484 0.529263 0.680584
O O10 0.158623 0.712581 0.150636
O O11 0.000000 0.500000 0.000000
O O12 0.281847 0.543605 0.224628
O O13 0.359273 0.919681 0.189246
O O14 0.573324 0.710230 0.900436
O O15 0.466951 0.803116 0.742186
O O16 0.379772 0.457346 0.863976
O O17 0.500000 0.500000 0.500000
#
# Coordination Sequence:
#
# PCOD9109283 Si02
#       8
#     2   2   2   2   2   2   2   2
#     4  11  22  39  60  89 136 178 215 262 320 387
#     4  10  21  39  60  86 131 180 214 257 323 388
#     4  10  20  41  64  92 127 172 217 264 326 387
#     4  12  23  38  61  95 134 173 213 268 327 390
#     4  12  26  41  65 102 140 167 216 274 324 389
#     4  11  24  41  70  95 126 173 222 270 327 384
#     4  11  23  43  67  98 129 169 215 273 332 387
#     4   9  21  45  72  91 127 171 216 273 331 384
#
# _framework density 25.786494999999999
#
# number of rings (size 3 to 8) (size 9 to 14) (size 15 to 20)
#    0.000    1.250    3.750    2.250    3.500    1.000 
#    0.000    0.000    2.750    3.750    0.000    0.000 
#    0.000    0.000    0.000    0.000    0.000    0.000 
#
# Total GULP energy -89381.903127 kJ/mol
# GULP energy per Si atom -5586.368945 kJ/mol
# Density = 2.572780 g / cm^3
# Si number density = 25.786495 Si / 1000 Ang^3
#
#
#
# Elastic Constant Matrix: (Units=GPa)
#
#
# Indices 1 2 3 4 5 6 
#
# 1 80.3330 55.5203 -4.4724 23.9797 1.4368 25.1237
# 2 55.5203 148.7770 10.3573 17.8016 7.6046 57.1971
# 3 -4.4724 10.3573 135.6448 11.4239 -15.4714 -8.1465
# 4 23.9797 17.8016 11.4239 31.7233 6.2283 12.8471
# 5 1.4368 7.6046 -15.4714 6.2283 30.0304 8.1050
# 6 25.1237 57.1971 -8.1465 12.8471 8.1050 45.5757
#
#
#
# Elastic Compliance Matrix: (Units=1/GPa)
#
#
# Indices 1 2 3 4 5 6 
#
# 1 0.021605 -0.007075 0.003148 -0.014841 0.005247 0.000782
# 2 -0.007075 0.015862 -0.003109 0.005041 -0.001546 -0.017708
# 3 0.003148 -0.003109 0.009222 -0.006987 0.005542 0.004799
# 4 -0.014841 0.005041 -0.006987 0.049210 -0.011336 -0.011250
# 5 0.005247 -0.001546 0.005542 -0.011336 0.039678 -0.003822
# 6 0.000782 -0.017708 0.004799 -0.011250 -0.003822 0.048443
#
#
# Mechanical properties :
#
#
# Convention : Reuss Voigt Hill
#
# Bulk Modulus (GPa) = 30.65852 54.17390 42.41621
# Shear Modulus (GPa) = 23.92773 41.68919 32.80846
#
# Velocity S-wave (km/s) = 3.04948 4.02519 3.57082
# Velocity P-wave (km/s) = 4.93095 6.53124 5.78668
#
# Compressibility (1/GPa) = 0.03261736
#
# Stress axis : x y z
#
# Youngs Moduli (GPa) = 46.28636 63.04496 108.43491
#
# Poissons Ratio (x) = 0.44602 -0.34134
# Poissons Ratio (y) = 0.32746 0.33710
# Poissons Ratio (z) = -0.14570 0.19600
#
# Static dielectric constant tensor:
#      x y z
#    x 2.064810 0.011880 0.016870 
#    y 0.011880 2.131230 0.041640 
#    z 0.016870 0.041640 2.045100 
# 
# From -- ./inp_files/299472.got.cif
#   From: 2010.05.17/outbox.cif.g08.bks.cpg/sg2_150_cif.got.tgz:299472.got - 2010.06.03 11:33:40.
