data_PCOD9109038
_publ_section_title
;
Structure prediction by ZEFSAII (Michael W. Deem and Ramdas Pophale) SiO2 
 PCOD9109038
Probable space group: P -1
;
_chemical_formula_sum "Si O2"
_cell_formula_units_Z 16
_cell_length_a 10.826371
_cell_length_b 7.552269
_cell_length_c 14.243366
_cell_angle_alpha 37.582840
_cell_angle_beta 68.823292
_cell_angle_gamma 63.803372
_cell_volume 637.195874
_symmetry_space_group_name_H-M "P -1"
_symmetry_group_IT_number 2
_symmetry_cell_setting 'triclinic'
loop_
_space_group_symop_operation_xyz
x,y,z
-x,-y,-z
loop_
_atom_site_type_symbol
_atom_site_label
_atom_site_fract_x
_atom_site_fract_y
_atom_site_fract_z
Si Si1 0.669767 0.212187 0.642498
Si Si2 0.609562 0.477644 0.343967
Si Si3 0.064494 0.203294 0.329449
Si Si4 0.662736 0.902356 0.014977
Si Si5 0.263116 0.045104 0.624118
Si Si6 0.748854 0.492967 0.721286
Si Si7 0.109057 0.617640 0.865345
Si Si8 0.504258 0.760591 0.814505
O O1 0.657370 0.382070 0.475230
O O2 0.557366 0.432741 0.648939
O O3 0.828292 0.015156 0.681322
O O4 0.586762 0.963222 0.757794
O O5 0.669984 0.193272 0.378123
O O6 0.500000 0.000000 0.000000
O O7 0.662495 0.760044 0.177785
O O8 0.144478 0.400126 0.284649
O O9 0.939739 0.401150 0.219952
O O10 0.000000 0.000000 0.500000
O O11 0.748524 0.142758 0.872346
O O12 0.741806 0.608497 0.057776
O O13 0.127021 0.950653 0.732210
O O14 0.366311 0.965001 0.717237
O O15 0.231597 0.365762 0.445363
O O16 0.600644 0.631436 0.752852
O O17 0.000000 0.500000 0.000000
O O18 0.500000 0.500000 0.000000
#
# Coordination Sequence:
#
# PCOD9109038 Si02
#       8
#     2   2   2   2   2   2   2   2
#     4  10  22  36  68 100 137 174 232 290 353 408
#     4  10  20  41  62 104 131 178 222 290 350 408
#     4  11  21  43  69  95 136 187 233 275 357 429
#     4  11  25  42  70  99 137 173 239 289 351 406
#     4  11  22  43  71  98 137 185 235 283 360 421
#     4  11  22  41  70  98 132 184 231 290 351 415
#     4  11  26  44  68  97 137 188 229 285 348 423
#     4  11  23  37  64 103 136 174 234 298 349 406
#
# _framework density 25.110019000000001
#
# number of rings (size 3 to 8) (size 9 to 14) (size 15 to 20)
#    0.000    1.250    3.750    3.375    7.000    0.500 
#    0.000    0.625    2.750    0.000    0.000    0.000 
#    0.000    0.000    0.000    0.000    0.000    0.000 
#
# Total GULP energy -89369.724130 kJ/mol
# GULP energy per Si atom -5585.607758 kJ/mol
# Density = 2.505287 g / cm^3
# Si number density = 25.110019 Si / 1000 Ang^3
#
#
#
# Elastic Constant Matrix: (Units=GPa)
#
#
# Indices 1 2 3 4 5 6 
#
# 1 132.3078 -0.1236 59.2039 2.2996 -1.0409 -7.1401
# 2 -0.1236 42.6055 8.6157 0.2747 -2.4946 -14.7522
# 3 59.2039 8.6157 238.1450 6.5218 -22.9094 8.0773
# 4 2.2996 0.2747 6.5218 39.4705 5.9422 -6.7784
# 5 -1.0409 -2.4946 -22.9094 5.9422 48.1514 -0.2688
# 6 -7.1401 -14.7522 8.0773 -6.7784 -0.2688 32.8883
#
#
#
# Elastic Compliance Matrix: (Units=1/GPa)
#
#
# Indices 1 2 3 4 5 6 
#
# 1 0.008833 0.001636 -0.002479 0.000608 -0.000960 0.003378
# 2 0.001636 0.028819 -0.001964 0.002422 0.000375 0.014267
# 3 -0.002479 -0.001964 0.005277 -0.001616 0.002538 -0.003027
# 4 0.000608 0.002422 -0.001616 0.027389 -0.003970 0.007228
# 5 -0.000960 0.000375 0.002538 -0.003970 0.022457 -0.001298
# 6 0.003378 0.014267 -0.003027 0.007228 -0.001298 0.039761
#
#
# Mechanical properties :
#
#
# Convention : Reuss Voigt Hill
#
# Bulk Modulus (GPa) = 26.79682 60.93891 43.86786
# Shear Modulus (GPa) = 33.20319 47.12619 40.16469
#
# Velocity S-wave (km/s) = 3.64030 4.33689 4.00377
# Velocity P-wave (km/s) = 5.32578 7.02849 6.23553
#
# Compressibility (1/GPa) = 0.03731786
#
# Stress axis : x y z
#
# Youngs Moduli (GPa) = 113.21224 34.69903 189.48474
#
# Poissons Ratio (x) = -0.05678 0.46967
# Poissons Ratio (y) = -0.18526 0.37207
# Poissons Ratio (z) = 0.28062 0.06814
#
# Static dielectric constant tensor:
#      x y z
#    x 2.014140 0.009020 0.029150 
#    y 0.009020 2.114910 -0.092720 
#    z 0.029150 -0.092720 1.972530 
# 
# From -- ./inp_files/514794.got.cif
#   From: 2010.05.17/outbox.cif.g08.bks.cpg/sg2_258_cif.got.tgz:514794.got - 2010.06.03 11:33:40.
