data_PCOD9109741
_publ_section_title
;
Structure prediction by ZEFSAII (Michael W. Deem and Ramdas Pophale) SiO2 
 PCOD9109741
Probable space group: P -1
;
_chemical_formula_sum "Si O2"
_cell_formula_units_Z 12
_cell_length_a 17.650778
_cell_length_b 5.195615
_cell_length_c 15.035210
_cell_angle_alpha 100.988262
_cell_angle_beta 158.327925
_cell_angle_gamma 83.098150
_cell_volume 493.647833
_symmetry_space_group_name_H-M "P -1"
_symmetry_group_IT_number 2
_symmetry_cell_setting 'triclinic'
loop_
_space_group_symop_operation_xyz
x,y,z
-x,-y,-z
loop_
_atom_site_type_symbol
_atom_site_label
_atom_site_fract_x
_atom_site_fract_y
_atom_site_fract_z
Si Si1 0.172279 0.360683 0.778932
Si Si2 0.342374 0.992868 0.246371
Si Si3 0.626840 0.791185 0.169141
Si Si4 0.691786 0.054622 0.982340
Si Si5 0.070902 0.456244 0.975092
Si Si6 0.113912 0.871859 0.401646
O O1 0.166997 0.238395 0.666668
O O2 0.330875 0.202342 0.996213
O O3 0.268767 0.667448 0.906251
O O4 0.961076 0.303724 0.602768
O O5 0.500000 0.000000 0.500000
O O6 0.439252 0.959078 0.251867
O O7 0.172021 0.735010 0.062536
O O8 0.691717 0.913949 0.344201
O O9 0.500000 0.500000 0.000000
O O10 0.500000 0.000000 0.000000
O O11 0.105858 0.687138 0.294838
O O12 0.244320 0.262938 0.156556
O O13 0.077761 0.967327 0.807299
O O14 0.000000 0.500000 0.000000
#
# Coordination Sequence:
#
# PCOD9109741 Si02
#       6
#     2   2   2   2   2   2
#     4  10  20  41  67  83 120 165 219 237 302 389
#     4  11  21  41  65  96 128 160 220 273 307 373
#     4  12  27  41  60  98 133 156 204 273 324 356
#     4   9  19  37  68  88 113 163 222 241 295 376
#     4  11  23  43  65  96 130 171 210 263 323 386
#     4   9  23  42  68  84 125 171 219 239 306 391
#
# _framework density 24.308827000000001
#
# number of rings (size 3 to 8) (size 9 to 14) (size 15 to 20)
#    1.000    0.667    1.667    2.500    2.333    0.667 
#    9.000    0.000    0.000    0.000    0.000    0.000 
#    0.000    0.000    0.000    0.000    0.000    0.000 
#
# Total GULP energy -67015.023219 kJ/mol
# GULP energy per Si atom -5584.585268 kJ/mol
# Density = 2.425350 g / cm^3
# Si number density = 24.308827 Si / 1000 Ang^3
#
#
#
# Elastic Constant Matrix: (Units=GPa)
#
#
# Indices 1 2 3 4 5 6 
#
# 1 117.6629 9.2379 17.7662 17.7201 -36.9826 -14.7163
# 2 9.2379 111.0276 1.1274 18.2206 -0.9075 2.5809
# 3 17.7662 1.1274 90.2364 25.9006 -33.4647 4.6577
# 4 17.7201 18.2206 25.9006 39.6301 -0.0380 -6.2446
# 5 -36.9826 -0.9075 -33.4647 -0.0380 46.0033 7.3196
# 6 -14.7163 2.5809 4.6577 -6.2446 7.3196 35.4158
#
#
#
# Elastic Compliance Matrix: (Units=1/GPa)
#
#
# Indices 1 2 3 4 5 6 
#
# 1 0.014064 0.000638 0.006126 -0.010592 0.015788 -0.000139
# 2 0.000638 0.010309 0.003570 -0.007847 0.003804 -0.003125
# 3 0.006126 0.003570 0.026944 -0.023677 0.026305 -0.010870
# 4 -0.010592 -0.007847 -0.023677 0.051251 -0.028099 0.014129
# 5 0.015788 0.003804 0.026305 -0.028099 0.055790 -0.013661
# 6 -0.000139 -0.003125 -0.010870 0.014129 -0.013661 0.035150
#
#
# Mechanical properties :
#
#
# Convention : Reuss Voigt Hill
#
# Bulk Modulus (GPa) = 13.89195 41.68777 27.78986
# Shear Modulus (GPa) = 25.40190 43.59620 34.49905
#
# Velocity S-wave (km/s) = 3.23610 4.23949 3.77131
# Velocity P-wave (km/s) = 4.43738 6.41489 5.51548
#
# Compressibility (1/GPa) = 0.07198414
#
# Stress axis : x y z
#
# Youngs Moduli (GPa) = 71.10348 97.00309 37.11434
#
# Poissons Ratio (x) = -0.06190 -0.22734
# Poissons Ratio (y) = -0.04537 -0.13250
# Poissons Ratio (z) = -0.43555 -0.34631
#
# Static dielectric constant tensor:
#      x y z
#    x 2.117400 0.046560 0.055680 
#    y 0.046560 1.875460 -0.002170 
#    z 0.055680 -0.002170 1.994730 
# 
# From -- ./inp_files/442029.got.cif
#   From: 2010.05.17/outbox.cif.g08.bks.cpg/sg2_222_cif.got.tgz:442029.got - 2010.06.03 11:33:40.
