data_PCOD9109079
_publ_section_title
;
Structure prediction by ZEFSAII (Michael W. Deem and Ramdas Pophale) SiO2 
 PCOD9109079
Probable space group: P -1
;
_chemical_formula_sum "Si O2"
_cell_formula_units_Z 16
_cell_length_a 9.806986
_cell_length_b 15.169914
_cell_length_c 8.088184
_cell_angle_alpha 58.362242
_cell_angle_beta 102.536830
_cell_angle_gamma 57.491347
_cell_volume 621.203945
_symmetry_space_group_name_H-M "P -1"
_symmetry_group_IT_number 2
_symmetry_cell_setting 'triclinic'
loop_
_space_group_symop_operation_xyz
x,y,z
-x,-y,-z
loop_
_atom_site_type_symbol
_atom_site_label
_atom_site_fract_x
_atom_site_fract_y
_atom_site_fract_z
Si Si1 0.882837 0.919515 0.092697
Si Si2 0.770437 0.657684 0.691123
Si Si3 0.180618 0.253359 0.871500
Si Si4 0.241558 0.141161 0.345125
Si Si5 0.291575 0.395317 0.640703
Si Si6 0.668986 0.270104 0.702203
Si Si7 0.109228 0.760867 0.663305
Si Si8 0.523658 0.625522 0.804307
O O1 0.739608 0.902241 0.026234
O O2 0.104220 0.796451 0.154144
O O3 0.982421 0.853419 0.366890
O O4 0.753761 0.102315 0.862504
O O5 0.761562 0.785832 0.564646
O O6 0.744261 0.626603 0.533750
O O7 0.587135 0.707519 0.710337
O O8 0.000000 0.500000 0.000000
O O9 0.333528 0.266397 0.881872
O O10 0.946041 0.417344 0.556363
O O11 0.126839 0.262726 0.038558
O O12 0.086887 0.133753 0.355942
O O13 0.500000 0.000000 0.500000
O O14 0.489163 0.363976 0.708831
O O15 0.545869 0.374399 0.397852
O O16 0.306394 0.731970 0.755079
O O17 0.260524 0.567201 0.894886
#
# Coordination Sequence:
#
# PCOD9109079 Si02
#       8
#     2   2   2   2   2   2   2   2
#     4  10  22  38  66  89 122 155 204 250 307 361
#     4  11  19  40  63  86 116 162 200 247 301 364
#     4  11  24  39  57  94 123 155 200 257 300 353
#     4  12  26  38  57  90 128 156 198 252 306 359
#     4  10  22  39  63  87 122 155 205 248 297 364
#     4   9  20  40  61  90 118 164 198 245 304 371
#     4  10  20  41  62  92 118 161 210 245 299 371
#     4   9  19  35  69  88 112 158 214 247 285 367
#
# _framework density 25.756437999999999
#
# number of rings (size 3 to 8) (size 9 to 14) (size 15 to 20)
#    0.000    1.750    2.500    1.500    5.250    1.000 
#    0.000    1.875    0.000    0.000    0.000    0.000 
#    0.000    0.000    0.000    0.000    0.000    0.000 
#
# Total GULP energy -89419.787307 kJ/mol
# GULP energy per Si atom -5588.736707 kJ/mol
# Density = 2.569781 g / cm^3
# Si number density = 25.756438 Si / 1000 Ang^3
#
#
#
# Elastic Constant Matrix: (Units=GPa)
#
#
# Indices 1 2 3 4 5 6 
#
# 1 144.2009 19.6049 26.7286 -0.5744 1.0797 -53.5057
# 2 19.6049 42.8704 19.7832 5.8440 4.3092 -6.8091
# 3 26.7286 19.7832 97.9906 8.0709 2.3047 -2.3897
# 4 -0.5744 5.8440 8.0709 31.2971 -8.3053 2.6728
# 5 1.0797 4.3092 2.3047 -8.3053 35.6910 -8.9947
# 6 -53.5057 -6.8091 -2.3897 2.6728 -8.9947 52.5248
#
#
#
# Elastic Compliance Matrix: (Units=1/GPa)
#
#
# Indices 1 2 3 4 5 6 
#
# 1 0.012616 -0.003031 -0.002717 0.001387 0.003734 0.012904
# 2 -0.003031 0.027799 -0.004255 -0.005265 -0.004250 -0.000137
# 3 -0.002717 -0.004255 0.011975 -0.002490 -0.001488 -0.002902
# 4 0.001387 -0.005265 -0.002490 0.036020 0.009228 0.000364
# 5 0.003734 -0.004250 -0.001488 0.009228 0.032760 0.008326
# 6 0.012904 -0.000137 -0.002902 0.000364 0.008326 0.033441
#
#
# Mechanical properties :
#
#
# Convention : Reuss Voigt Hill
#
# Bulk Modulus (GPa) = 30.87949 46.36614 38.62281
# Shear Modulus (GPa) = 26.96709 38.49893 32.73301
#
# Velocity S-wave (km/s) = 3.23925 3.87037 3.56879
# Velocity P-wave (km/s) = 5.09955 6.16554 5.65771
#
# Compressibility (1/GPa) = 0.03238396
#
# Stress axis : x y z
#
# Youngs Moduli (GPa) = 79.26468 35.97273 83.51048
#
# Poissons Ratio (x) = 0.10902 0.22688
# Poissons Ratio (y) = 0.24022 0.35537
# Poissons Ratio (z) = 0.21534 0.15308
#
# Static dielectric constant tensor:
#      x y z
#    x 2.051130 -0.049010 -0.004570 
#    y -0.049010 2.059890 -0.042590 
#    z -0.004570 -0.042590 2.033600 
# 
# From -- ./inp_files/279230.got.cif
#   From: 2010.05.17/outbox.cif.g08.bks.cpg/sg2_140_cif.got.tgz:279230.got - 2010.06.03 11:33:40.
