data_PCOD9109028
_publ_section_title
;
Structure prediction by ZEFSAII (Michael W. Deem and Ramdas Pophale) SiO2 
 PCOD9109028
Probable space group: P -1
;
_chemical_formula_sum "Si O2"
_cell_formula_units_Z 12
_cell_length_a 5.521878
_cell_length_b 6.670060
_cell_length_c 16.230214
_cell_angle_alpha 79.725722
_cell_angle_beta 62.073495
_cell_angle_gamma 66.032827
_cell_volume 482.575501
_symmetry_space_group_name_H-M "P -1"
_symmetry_group_IT_number 2
_symmetry_cell_setting 'triclinic'
loop_
_space_group_symop_operation_xyz
x,y,z
-x,-y,-z
loop_
_atom_site_type_symbol
_atom_site_label
_atom_site_fract_x
_atom_site_fract_y
_atom_site_fract_z
Si Si1 0.350958 0.470802 0.364198
Si Si2 0.854201 0.184711 0.750815
Si Si3 0.419393 0.793186 0.503745
Si Si4 0.871420 0.269871 0.187309
Si Si5 0.585404 0.572908 0.894198
Si Si6 0.266244 0.034539 0.350936
O O1 0.098831 0.675161 0.345054
O O2 0.376381 0.420148 0.461593
O O3 0.659930 0.446777 0.273238
O O4 0.325375 0.249884 0.347605
O O5 0.735653 0.358578 0.828717
O O6 0.658259 0.066052 0.744278
O O7 0.092752 0.970289 0.767408
O O8 0.401314 0.826731 0.405988
O O9 0.500000 0.000000 0.500000
O O10 0.087761 0.866882 0.585938
O O11 0.179055 0.310149 0.135592
O O12 0.706018 0.299847 0.123681
O O13 0.500000 0.500000 0.000000
#
# Coordination Sequence:
#
# PCOD9109028 Si02
#       6
#     2   2   2   2   2   2
#     4  10  22  40  65  97 136 177 226 277 326 391
#     4  11  23  40  70  97 130 181 220 268 342 397
#     4   9  19  38  63  89 137 174 222 289 317 377
#     4  11  24  45  70 102 137 170 221 277 329 400
#     4  11  27  48  71 102 136 170 219 278 333 402
#     4  10  20  41  61  94 135 178 227 278 326 382
#
# _framework density 24.866572999999999
#
# number of rings (size 3 to 8) (size 9 to 14) (size 15 to 20)
#    0.000    1.667    1.667    2.500    0.000    7.333 
#    0.000    7.500    0.000    0.000    0.000    0.000 
#    0.000    0.000    0.000    0.000    0.000    0.000 
#
# Total GULP energy -66994.578410 kJ/mol
# GULP energy per Si atom -5582.881534 kJ/mol
# Density = 2.480998 g / cm^3
# Si number density = 24.866573 Si / 1000 Ang^3
#
#
#
# Elastic Constant Matrix: (Units=GPa)
#
#
# Indices 1 2 3 4 5 6 
#
# 1 155.4794 50.6779 68.4509 -23.8899 20.0892 -3.2432
# 2 50.6779 143.6663 45.9474 -33.9310 16.1825 -35.4620
# 3 68.4509 45.9474 138.0249 -31.2426 34.9527 -14.1524
# 4 -23.8899 -33.9310 -31.2426 36.4992 -0.5386 15.1600
# 5 20.0892 16.1825 34.9527 -0.5386 53.9403 -16.7387
# 6 -3.2432 -35.4620 -14.1524 15.1600 -16.7387 39.6541
#
#
#
# Elastic Compliance Matrix: (Units=1/GPa)
#
#
# Indices 1 2 3 4 5 6 
#
# 1 0.009195 -0.002460 -0.002974 0.003060 -0.002153 -0.004588
# 2 -0.002460 0.011065 -0.000699 0.004840 0.000523 0.007815
# 3 -0.002974 -0.000699 0.012790 0.009611 -0.007903 -0.003314
# 4 0.003060 0.004840 0.009611 0.048677 -0.013375 -0.016247
# 5 -0.002153 0.000523 -0.007903 -0.013375 0.028737 0.014715
# 6 -0.004588 0.007815 -0.003314 -0.016247 0.014715 0.043072
#
#
# Mechanical properties :
#
#
# Convention : Reuss Voigt Hill
#
# Bulk Modulus (GPa) = 48.11415 85.25811 66.68613
# Shear Modulus (GPa) = 28.94677 44.15834 36.55256
#
# Velocity S-wave (km/s) = 3.41557 4.21861 3.83815
# Velocity P-wave (km/s) = 5.91149 7.62165 6.82038
#
# Compressibility (1/GPa) = 0.02078391
#
# Stress axis : x y z
#
# Youngs Moduli (GPa) = 108.74955 90.37495 78.18816
#
# Poissons Ratio (x) = 0.22229 0.23254
# Poissons Ratio (y) = 0.26749 0.05468
# Poissons Ratio (z) = 0.32344 0.06320
#
# Static dielectric constant tensor:
#      x y z
#    x 2.124680 0.029940 0.040020 
#    y 0.029940 1.999170 -0.017960 
#    z 0.040020 -0.017960 1.956760 
# 
# From -- ./inp_files/8529.got.cif
#   From: 2010.05.17/outbox.cif.g08.bks.cpg/sg2_5_cif.got.tgz:8529.got - 2010.06.03 11:33:40.
