data_PCOD9109613
_publ_section_title
;
Structure prediction by ZEFSAII (Michael W. Deem and Ramdas Pophale) SiO2 
 PCOD9109613
Probable space group: P -1
;
_chemical_formula_sum "Si O2"
_cell_formula_units_Z 16
_cell_length_a 6.170297
_cell_length_b 18.020218
_cell_length_c 8.542020
_cell_angle_alpha 127.182052
_cell_angle_beta 77.732797
_cell_angle_gamma 91.265821
_cell_volume 732.509440
_symmetry_space_group_name_H-M "P -1"
_symmetry_group_IT_number 2
_symmetry_cell_setting 'triclinic'
loop_
_space_group_symop_operation_xyz
x,y,z
-x,-y,-z
loop_
_atom_site_type_symbol
_atom_site_label
_atom_site_fract_x
_atom_site_fract_y
_atom_site_fract_z
Si Si1 0.425937 0.315005 0.556846
Si Si2 0.893453 0.908338 0.456607
Si Si3 0.216683 0.353584 0.321556
Si Si4 0.255530 0.542028 0.431864
Si Si5 0.281886 0.845433 0.510378
Si Si6 0.460561 0.005914 0.829866
Si Si7 0.367921 0.184419 0.866391
Si Si8 0.756777 0.536231 0.999103
O O1 0.268229 0.303357 0.417839
O O2 0.564899 0.394791 0.573035
O O3 0.599881 0.227280 0.474440
O O4 0.297935 0.359527 0.787353
O O5 0.838643 0.847784 0.238808
O O6 0.038767 0.841609 0.472899
O O7 0.670042 0.950863 0.634478
O O8 0.000000 0.000000 0.500000
O O9 0.311121 0.453717 0.425358
O O10 0.952593 0.385215 0.383693
O O11 0.319750 0.285584 0.081484
O O12 0.183292 0.488467 0.219730
O O13 0.433798 0.830885 0.311230
O O14 0.267906 0.947991 0.722990
O O15 0.423290 0.110634 0.904148
O O16 0.500000 0.000000 0.000000
O O17 0.500000 0.500000 0.000000
O O18 0.000000 0.500000 0.000000
#
# Coordination Sequence:
#
# PCOD9109613 Si02
#       8
#     2   2   2   2   2   2   2   2
#     4  11  23  40  66  96 131 169 233 280 337 413
#     4  11  21  45  69  89 135 176 221 270 334 420
#     4  11  23  42  64  92 136 171 221 280 348 407
#     4  10  23  42  63  94 130 179 220 280 347 406
#     4  11  23  42  66  95 128 176 219 276 337 408
#     4  11  23  41  66  98 133 167 213 282 345 396
#     4  11  23  41  66  96 130 174 221 273 343 408
#     4  10  20  41  66  92 129 179 229 284 343 410
#
# _framework density 21.842722999999999
#
# number of rings (size 3 to 8) (size 9 to 14) (size 15 to 20)
#    0.000    1.250    3.750    2.625    0.000    4.500 
#    6.750    0.000    0.000    0.000    0.000    0.000 
#    0.000    0.000    0.000    0.000    0.000    0.000 
#
# Total GULP energy -89156.578749 kJ/mol
# GULP energy per Si atom -5572.286172 kJ/mol
# Density = 2.179301 g / cm^3
# Si number density = 21.842723 Si / 1000 Ang^3
#
#
#
# Elastic Constant Matrix: (Units=GPa)
#
#
# Indices 1 2 3 4 5 6 
#
# 1 50.0897 17.9408 11.5665 4.0446 7.6524 -16.0343
# 2 17.9408 112.2504 5.0855 -1.7617 4.9234 -29.4084
# 3 11.5665 5.0855 69.0237 -1.0124 -7.1246 -7.2219
# 4 4.0446 -1.7617 -1.0124 37.3305 -7.1991 -4.6375
# 5 7.6524 4.9234 -7.1246 -7.1991 17.9294 -1.0259
# 6 -16.0343 -29.4084 -7.2219 -4.6375 -1.0259 28.7756
#
#
#
# Elastic Compliance Matrix: (Units=1/GPa)
#
#
# Indices 1 2 3 4 5 6 
#
# 1 0.027924 -0.000318 -0.004919 -0.004452 -0.014843 0.012754
# 2 -0.000318 0.012410 0.000342 0.001909 -0.001635 0.012841
# 3 -0.004919 0.000342 0.016657 0.003280 0.010095 0.002677
# 4 -0.004452 0.001909 0.003280 0.031174 0.015532 0.005872
# 5 -0.014843 -0.001635 0.010095 0.015532 0.072674 -0.002314
# 6 0.012754 0.012841 0.002677 0.005872 -0.002314 0.056517
#
#
# Mechanical properties :
#
#
# Convention : Reuss Voigt Hill
#
# Bulk Modulus (GPa) = 21.18601 33.39438 27.29019
# Shear Modulus (GPa) = 20.58638 29.92517 25.25577
#
# Velocity S-wave (km/s) = 3.07332 3.70541 3.40406
# Velocity P-wave (km/s) = 4.72378 5.79901 5.28879
#
# Compressibility (1/GPa) = 0.04720097
#
# Stress axis : x y z
#
# Youngs Moduli (GPa) = 35.81198 80.58165 60.03450
#
# Poissons Ratio (x) = 0.02559 0.29530
# Poissons Ratio (y) = 0.01137 -0.02051
# Poissons Ratio (z) = 0.17615 -0.02753
#
# Static dielectric constant tensor:
#      x y z
#    x 1.956810 0.032420 0.059880 
#    y 0.032420 1.854480 0.020580 
#    z 0.059880 0.020580 1.776780 
# 
# From -- ./inp_files/37335.got.cif
#   From: 2010.05.17/outbox.cif.g08.bks.cpg/sg2_19_cif.got.tgz:37335.got - 2010.06.03 11:33:40.
