data_PCOD9109262
_publ_section_title
;
Structure prediction by ZEFSAII (Michael W. Deem and Ramdas Pophale) SiO2 
 PCOD9109262
Probable space group: P -1
;
_chemical_formula_sum "Si O2"
_cell_formula_units_Z 14
_cell_length_a 12.618088
_cell_length_b 8.367269
_cell_length_c 11.896427
_cell_angle_alpha 123.897339
_cell_angle_beta 136.468857
_cell_angle_gamma 42.129239
_cell_volume 579.752807
_symmetry_space_group_name_H-M "P -1"
_symmetry_group_IT_number 2
_symmetry_cell_setting 'triclinic'
loop_
_space_group_symop_operation_xyz
x,y,z
-x,-y,-z
loop_
_atom_site_type_symbol
_atom_site_label
_atom_site_fract_x
_atom_site_fract_y
_atom_site_fract_z
Si Si1 0.239905 0.356905 0.041004
Si Si2 0.564198 0.385572 0.285630
Si Si3 0.765150 0.349513 0.026442
Si Si4 0.738316 0.934516 0.864248
Si Si5 0.288591 0.304752 0.692263
Si Si6 0.755547 0.604434 0.567550
Si Si7 0.841764 0.865483 0.292534
O O1 0.425293 0.335783 0.219754
O O2 0.140624 0.599113 0.984513
O O3 0.168995 0.275835 0.055047
O O4 0.283939 0.170713 0.903504
O O5 0.455162 0.491407 0.124706
O O6 0.586039 0.573793 0.435622
O O7 0.769035 0.135281 0.329125
O O8 0.820618 0.088541 0.981056
O O9 0.782665 0.463886 0.195662
O O10 0.517137 0.124574 0.805651
O O11 0.728832 0.822035 0.697438
O O12 0.230142 0.369042 0.543823
O O13 0.201508 0.179958 0.634402
O O14 0.944503 0.355409 0.658516
#
# Coordination Sequence:
#
# PCOD9109262 Si02
#       7
#     2   2   2   2   2   2   2
#     4   9  21  40  70  90 116 171 222 248 304 371
#     4  10  20  41  64  91 121 167 219 260 292 383
#     4   9  21  39  70  96 113 163 238 250 286 378
#     4  12  22  41  67  96 129 166 209 268 310 377
#     4  11  20  41  66  91 121 172 217 255 300 392
#     4  12  27  36  61 102 136 157 199 271 343 354
#     4  11  22  43  63  94 127 167 213 264 311 378
#
# _framework density 24.148223000000002
#
# number of rings (size 3 to 8) (size 9 to 14) (size 15 to 20)
#    0.857    0.571    2.857    3.000    2.000    1.143 
#    2.571    2.857    0.000    0.000    0.000    0.000 
#    0.000    0.000    0.000    0.000    0.000    0.000 
#
# Total GULP energy -78188.134953 kJ/mol
# GULP energy per Si atom -5584.866782 kJ/mol
# Density = 2.409326 g / cm^3
# Si number density = 24.148223 Si / 1000 Ang^3
#
#
#
# Elastic Constant Matrix: (Units=GPa)
#
#
# Indices 1 2 3 4 5 6 
#
# 1 97.9588 31.4488 35.9159 9.4297 -21.0931 28.2839
# 2 31.4488 124.5573 50.5946 11.5930 -22.6203 13.1693
# 3 35.9159 50.5946 98.8722 22.2001 -16.0684 18.1852
# 4 9.4297 11.5930 22.2001 35.3509 -1.7894 2.5080
# 5 -21.0931 -22.6203 -16.0684 -1.7894 29.4647 -10.3547
# 6 28.2839 13.1693 18.1852 2.5080 -10.3547 29.9385
#
#
#
# Elastic Compliance Matrix: (Units=1/GPa)
#
#
# Indices 1 2 3 4 5 6 
#
# 1 0.015818 -0.000842 -0.001969 -0.001623 0.005523 -0.011331
# 2 -0.000842 0.011046 -0.004467 -0.000352 0.005642 0.000630
# 3 -0.001969 -0.004467 0.015964 -0.007618 0.001782 -0.004618
# 4 -0.001623 -0.000352 -0.007618 0.033301 -0.002647 0.002610
# 5 0.005523 0.005642 0.001782 -0.002647 0.045565 0.007199
# 6 -0.011331 0.000630 -0.004618 0.002610 0.007199 0.048905
#
#
# Mechanical properties :
#
#
# Convention : Reuss Voigt Hill
#
# Bulk Modulus (GPa) = 35.36946 61.92297 48.64622
# Shear Modulus (GPa) = 25.69659 32.51277 29.10468
#
# Velocity S-wave (km/s) = 3.26562 3.67329 3.47544
# Velocity P-wave (km/s) = 5.37566 6.60979 6.02441
#
# Compressibility (1/GPa) = 0.02827298
#
# Stress axis : x y z
#
# Youngs Moduli (GPa) = 63.22067 90.53053 62.63982
#
# Poissons Ratio (x) = 0.07621 0.12334
# Poissons Ratio (y) = 0.05322 0.27979
# Poissons Ratio (z) = 0.12448 0.40437
#
# Static dielectric constant tensor:
#      x y z
#    x 1.980220 -0.016390 0.043890 
#    y -0.016390 1.931690 -0.050360 
#    z 0.043890 -0.050360 1.893600 
# 
# From -- ./inp_files/445252.got.cif
#   From: 2010.05.17/outbox.cif.g08.bks.cpg/sg2_223_cif.got.tgz:445252.got - 2010.06.03 11:33:40.
