data_PCOD9109597
_publ_section_title
;
Structure prediction by ZEFSAII (Michael W. Deem and Ramdas Pophale) SiO2 
 PCOD9109597
Probable space group: P -1
;
_chemical_formula_sum "Si O2"
_cell_formula_units_Z 14
_cell_length_a 5.423921
_cell_length_b 8.512997
_cell_length_c 20.076992
_cell_angle_alpha 138.997709
_cell_angle_beta 84.701614
_cell_angle_gamma 79.918775
_cell_volume 561.514860
_symmetry_space_group_name_H-M "P -1"
_symmetry_group_IT_number 2
_symmetry_cell_setting 'triclinic'
loop_
_space_group_symop_operation_xyz
x,y,z
-x,-y,-z
loop_
_atom_site_type_symbol
_atom_site_label
_atom_site_fract_x
_atom_site_fract_y
_atom_site_fract_z
Si Si1 0.187505 0.671087 0.548571
Si Si2 0.795264 0.519510 0.737931
Si Si3 0.680018 0.995010 0.116066
Si Si4 0.092189 0.742045 0.714593
Si Si5 0.020319 0.701325 0.911935
Si Si6 0.384361 0.777583 0.442712
Si Si7 0.302693 0.411350 0.933795
O O1 0.500000 0.500000 0.500000
O O2 0.085835 0.844098 0.673024
O O3 0.203133 0.808030 0.522767
O O4 0.000000 0.500000 0.500000
O O5 0.513216 0.747397 0.831407
O O6 0.989791 0.543333 0.798189
O O7 0.755549 0.263710 0.634788
O O8 0.883338 0.614137 0.697018
O O9 0.924403 0.053899 0.161779
O O10 0.577369 0.895534 0.152745
O O11 0.756086 0.774508 0.988236
O O12 0.370831 0.498231 0.640689
O O13 0.258873 0.523620 0.896427
O O14 0.000000 0.000000 0.000000
O O15 0.500000 0.000000 0.500000
O O16 0.500000 0.500000 0.000000
O O17 0.000000 0.500000 0.000000
#
# Coordination Sequence:
#
# PCOD9109597 Si02
#       7
#     2   2   2   2   2   2   2
#     4  10  20  41  66  91 125 179 227 281 352 424
#     4  11  21  39  69  99 138 180 242 291 362 427
#     4  10  22  40  64  94 137 183 231 285 345 426
#     4  10  21  40  65  96 130 181 237 286 358 434
#     4  11  21  39  67  99 137 188 227 286 361 420
#     4  10  23  43  66  99 140 182 236 307 365 427
#     4  10  23  42  62  92 133 182 233 278 336 413
#
# _framework density 24.932554
#
# number of rings (size 3 to 8) (size 9 to 14) (size 15 to 20)
#    0.000    1.714    2.857    1.286    2.000    1.714 
#    2.571    0.000    0.000    0.000    0.000    0.000 
#    0.000    0.000    0.000    0.000    0.000    0.000 
#
# Total GULP energy -78023.230992 kJ/mol
# GULP energy per Si atom -5573.087928 kJ/mol
# Density = 2.487581 g / cm^3
# Si number density = 24.932554 Si / 1000 Ang^3
#
#
#
# Elastic Constant Matrix: (Units=GPa)
#
#
# Indices 1 2 3 4 5 6 
#
# 1 117.5048 45.8643 36.1569 -3.4717 31.0753 1.6904
# 2 45.8643 148.4049 65.9436 -7.9806 30.5997 -6.4154
# 3 36.1569 65.9436 104.2970 -32.4209 31.2043 0.3814
# 4 -3.4717 -7.9806 -32.4209 38.7861 1.4241 -2.3298
# 5 31.0753 30.5997 31.2043 1.4241 52.9168 2.0301
# 6 1.6904 -6.4154 0.3814 -2.3298 2.0301 45.3328
#
#
#
# Elastic Compliance Matrix: (Units=1/GPa)
#
#
# Indices 1 2 3 4 5 6 
#
# 1 0.010830 -0.001861 -0.001384 -0.000436 -0.004437 -0.000479
# 2 -0.001861 0.010370 -0.006764 -0.003568 -0.000875 0.001450
# 3 -0.001384 -0.006764 0.022549 0.017678 -0.009057 0.000219
# 4 -0.000436 -0.003568 0.017678 0.040237 -0.009259 0.001845
# 5 -0.004437 -0.000875 -0.009057 -0.009259 0.027660 -0.001597
# 6 -0.000479 0.001450 0.000219 0.001845 -0.001597 0.022447
#
#
# Mechanical properties :
#
#
# Convention : Reuss Voigt Hill
#
# Bulk Modulus (GPa) = 42.14026 74.01514 58.07770
# Shear Modulus (GPa) = 30.85992 42.22327 36.54159
#
# Velocity S-wave (km/s) = 3.52196 4.11968 3.83249
# Velocity P-wave (km/s) = 5.78596 7.23738 6.55198
#
# Compressibility (1/GPa) = 0.02373028
#
# Stress axis : x y z
#
# Youngs Moduli (GPa) = 92.33467 96.42825 44.34834
#
# Poissons Ratio (x) = 0.17949 0.06137
# Poissons Ratio (y) = 0.17187 0.29999
# Poissons Ratio (z) = 0.12778 0.65227
#
# Static dielectric constant tensor:
#      x y z
#    x 1.957230 0.061070 0.031040 
#    y 0.061070 2.134640 -0.014050 
#    z 0.031040 -0.014050 2.028930 
# 
# From -- ./inp_files/138941.got.cif
#   From: 2010.05.17/outbox.cif.g08.bks.cpg/sg2_70_cif.got.tgz:138941.got - 2010.06.03 11:33:40.
