data_PCOD9109109
_publ_section_title
;
Structure prediction by ZEFSAII (Michael W. Deem and Ramdas Pophale) SiO2 
 PCOD9109109
Probable space group: P -1
;
_chemical_formula_sum "Si O2"
_cell_formula_units_Z 16
_cell_length_a 22.743924
_cell_length_b 16.591499
_cell_length_c 12.651676
_cell_angle_alpha 157.266075
_cell_angle_beta 153.611904
_cell_angle_gamma 22.801827
_cell_volume 681.112017
_symmetry_space_group_name_H-M "P -1"
_symmetry_group_IT_number 2
_symmetry_cell_setting 'triclinic'
loop_
_space_group_symop_operation_xyz
x,y,z
-x,-y,-z
loop_
_atom_site_type_symbol
_atom_site_label
_atom_site_fract_x
_atom_site_fract_y
_atom_site_fract_z
Si Si1 0.447684 0.401910 0.200497
Si Si2 0.822709 0.912853 0.770799
Si Si3 0.796231 0.064867 0.306975
Si Si4 0.866877 0.401229 0.972877
Si Si5 0.255684 0.672244 0.683081
Si Si6 0.923949 0.563994 0.811513
Si Si7 0.614433 0.329161 0.793551
Si Si8 0.334527 0.253235 0.557152
O O1 0.500000 0.500000 0.500000
O O2 0.613122 0.150623 0.130043
O O3 0.302854 0.396310 0.005817
O O4 0.393507 0.597339 0.252750
O O5 0.743567 0.142910 0.006429
O O6 0.760959 0.053514 0.729874
O O7 0.003464 0.735500 0.889126
O O8 0.742329 0.760185 0.474907
O O9 0.847501 0.192287 0.630295
O O10 0.796327 0.185451 0.340873
O O11 0.900398 0.765437 0.103335
O O12 0.923473 0.515467 0.111764
O O13 0.127935 0.615700 0.448237
O O14 0.434785 0.421770 0.652009
O O15 0.783196 0.723117 0.692804
O O16 0.646629 0.518427 0.134151
O O17 0.500000 0.000000 0.500000
#
# Coordination Sequence:
#
# PCOD9109109 Si02
#       8
#     2   2   2   2   2   2   2   2
#     4   9  21  42  67  81 113 163 202 239 293 355
#     4  11  21  34  57  89 128 150 192 250 292 354
#     4  10  20  41  63  85 118 160 200 246 293 345
#     4  10  22  40  60  85 123 163 196 242 299 347
#     4  11  20  34  59  92 122 151 195 246 297 349
#     4  11  21  33  60  92 120 151 197 244 301 347
#     4  11  21  36  62  88 119 159 195 242 297 348
#     4  11  18  32  56  88 121 157 189 238 298 348
#
# _framework density 23.490995999999999
#
# number of rings (size 3 to 8) (size 9 to 14) (size 15 to 20)
#    0.000    1.500    5.000    2.250    0.000    1.000 
#    0.000    2.500    8.250   10.500    0.000    0.000 
#    0.000    0.000    0.000    0.000    0.000    0.000 
#
# Total GULP energy -89396.125594 kJ/mol
# GULP energy per Si atom -5587.257850 kJ/mol
# Density = 2.343753 g / cm^3
# Si number density = 23.490996 Si / 1000 Ang^3
#
#
#
# Elastic Constant Matrix: (Units=GPa)
#
#
# Indices 1 2 3 4 5 6 
#
# 1 105.6823 29.0887 38.1769 -13.7163 26.3479 -24.5268
# 2 29.0887 56.3395 16.6150 -15.3764 23.4396 -3.6148
# 3 38.1769 16.6150 84.6158 -8.9964 19.5131 -1.5111
# 4 -13.7163 -15.3764 -8.9964 32.3109 1.3285 6.9942
# 5 26.3479 23.4396 19.5131 1.3285 47.0159 -13.7556
# 6 -24.5268 -3.6148 -1.5111 6.9942 -13.7556 29.3669
#
#
#
# Elastic Compliance Matrix: (Units=1/GPa)
#
#
# Indices 1 2 3 4 5 6 
#
# 1 0.016053 -0.005841 -0.005913 -0.000312 0.000027 0.012471
# 2 -0.005841 0.030975 0.002040 0.016340 -0.017263 -0.012938
# 3 -0.005913 0.002040 0.016073 0.005021 -0.006948 -0.008310
# 4 -0.000312 0.016340 0.005021 0.044106 -0.015976 -0.015979
# 5 0.000027 -0.017263 -0.006948 -0.015976 0.038923 0.019577
# 6 0.012471 -0.012938 -0.008310 -0.015979 0.019577 0.055423
#
#
# Mechanical properties :
#
#
# Convention : Reuss Voigt Hill
#
# Bulk Modulus (GPa) = 22.89674 46.04430 34.47052
# Shear Modulus (GPa) = 21.22803 32.58922 26.90863
#
# Velocity S-wave (km/s) = 3.00937 3.72870 3.38818
# Velocity P-wave (km/s) = 4.67367 6.17907 5.47833
#
# Compressibility (1/GPa) = 0.04367434
#
# Stress axis : x y z
#
# Youngs Moduli (GPa) = 62.29422 32.28392 62.21742
#
# Poissons Ratio (x) = 0.18857 0.36786
# Poissons Ratio (y) = 0.36386 -0.12694
# Poissons Ratio (z) = 0.36832 -0.06587
#
# Static dielectric constant tensor:
#      x y z
#    x 3.036690 1.565990 0.208670 
#    y 1.565990 4.105050 0.231370 
#    z 0.208670 0.231370 1.894490 
# 
# From -- ./inp_files/471811.got.cif
#   From: 2010.05.17/outbox.cif.g08.bks.cpg/sg2_236_cif.got.tgz:471811.got - 2010.06.03 11:33:40.
