data_PCOD9109304
_publ_section_title
;
Structure prediction by ZEFSAII (Michael W. Deem and Ramdas Pophale) SiO2 
 PCOD9109304
Probable space group: P -1
;
_chemical_formula_sum "Si O2"
_cell_formula_units_Z 15
_cell_length_a 8.043930
_cell_length_b 6.721730
_cell_length_c 14.513345
_cell_angle_alpha 70.845381
_cell_angle_beta 82.364322
_cell_angle_gamma 58.732201
_cell_volume 632.927331
_symmetry_space_group_name_H-M "P -1"
_symmetry_group_IT_number 2
_symmetry_cell_setting 'triclinic'
loop_
_space_group_symop_operation_xyz
x,y,z
-x,-y,-z
loop_
_atom_site_type_symbol
_atom_site_label
_atom_site_fract_x
_atom_site_fract_y
_atom_site_fract_z
Si Si1 0.768434 0.294266 0.200332
Si Si2 0.687135 0.726518 0.022798
Si Si3 0.763805 0.214888 0.584418
Si Si4 0.357349 0.465308 0.133771
Si Si5 0.566224 0.294118 0.389972
Si Si6 0.899830 0.989441 0.915271
Si Si7 0.000000 0.500000 0.500000
Si Si8 0.231049 0.256866 0.334672
O O1 0.582453 0.298024 0.167235
O O2 0.732366 0.264896 0.313248
O O3 0.959049 0.082351 0.170788
O O4 0.741639 0.557102 0.134656
O O5 0.664593 0.574602 0.964983
O O6 0.851771 0.779559 0.968791
O O7 0.500000 0.000000 0.000000
O O8 0.657975 0.219758 0.495011
O O9 0.601881 0.423161 0.630765
O O10 0.919623 0.299004 0.539868
O O11 0.813176 0.953863 0.658051
O O12 0.234077 0.394138 0.221263
O O13 0.288726 0.743962 0.120065
O O14 0.446646 0.168291 0.378715
O O15 0.000000 0.000000 0.000000
O O16 0.918375 0.584399 0.598423
#
# Coordination Sequence:
#
# PCOD9109304 Si02
#       8
#     2   2   2   2   2   2   1   2
#     4  11  23  44  67  97 131 175 224 273 336 393
#     4  12  24  41  70  93 134 177 217 278 332 392
#     4  10  20  41  64  93 131 167 215 274 329 395
#     4  11  25  44  64 100 129 176 222 272 337 391
#     4   9  22  40  63  95 124 168 224 268 328 399
#     4  12  25  44  64  93 137 173 223 279 321 396
#     4  10  22  38  62  92 128 166 210 268 326 392
#     4  10  22  39  66  90 130 170 218 270 333 395
#
# _framework density 23.699403
#
# number of rings (size 3 to 8) (size 9 to 14) (size 15 to 20)
#    0.000    1.333    2.667    2.400    1.867    3.200 
#    0.000    1.333    0.000    0.000    0.000    0.000 
#    0.000    0.000    0.000    0.000    0.000    0.000 
#
# Total GULP energy -83627.910872 kJ/mol
# GULP energy per Si atom -5575.194058 kJ/mol
# Density = 2.364546 g / cm^3
# Si number density = 23.699403 Si / 1000 Ang^3
#
#
#
# Elastic Constant Matrix: (Units=GPa)
#
#
# Indices 1 2 3 4 5 6 
#
# 1 72.1886 32.3180 21.9027 7.1360 -14.5136 20.2476
# 2 32.3180 108.0945 35.9748 6.5831 -19.6723 12.6514
# 3 21.9027 35.9748 101.8363 16.9340 -35.0199 10.7066
# 4 7.1360 6.5831 16.9340 31.9153 -6.9811 -20.0484
# 5 -14.5136 -19.6723 -35.0199 -6.9811 37.3609 -4.6511
# 6 20.2476 12.6514 10.7066 -20.0484 -4.6511 35.6783
#
#
#
# Elastic Compliance Matrix: (Units=1/GPa)
#
#
# Indices 1 2 3 4 5 6 
#
# 1 0.024357 -0.003493 0.003568 -0.021747 0.003743 -0.025387
# 2 -0.003493 0.011737 -0.002227 -0.001107 0.002301 -0.001834
# 3 0.003568 -0.002227 0.018392 -0.016294 0.012633 -0.014263
# 4 -0.021747 -0.001107 -0.016294 0.086860 0.000200 0.066458
# 5 0.003743 0.002301 0.012633 0.000200 0.041154 -0.001254
# 6 -0.025387 -0.001834 -0.014263 0.066458 -0.001254 0.084547
#
#
# Mechanical properties :
#
#
# Convention : Reuss Voigt Hill
#
# Bulk Modulus (GPa) = 19.92730 51.39004 35.65867
# Shear Modulus (GPa) = 17.35635 33.78582 25.57109
#
# Velocity S-wave (km/s) = 2.70914 3.77981 3.28834
# Velocity P-wave (km/s) = 4.26761 6.38595 5.43107
#
# Compressibility (1/GPa) = 0.05018242
#
# Stress axis : x y z
#
# Youngs Moduli (GPa) = 41.05673 85.19816 54.37048
#
# Poissons Ratio (x) = 0.29756 -0.19398
# Poissons Ratio (y) = 0.14339 0.12108
# Poissons Ratio (z) = -0.14648 0.18974
#
# Static dielectric constant tensor:
#      x y z
#    x 1.954570 -0.014960 0.007250 
#    y -0.014960 1.908860 -0.029640 
#    z 0.007250 -0.029640 1.859760 
# 
# From -- ./inp_files/350677.got.cif
#   From: 2010.05.17/outbox.cif.g08.bks.cpg/sg2_176_cif.got.tgz:350677.got - 2010.06.03 11:33:40.
