data_PCOD9109426
_publ_section_title
;
Structure prediction by ZEFSAII (Michael W. Deem and Ramdas Pophale) SiO2 
 PCOD9109426
Probable space group: P -1
;
_chemical_formula_sum "Si O2"
_cell_formula_units_Z 16
_cell_length_a 21.069718
_cell_length_b 11.353815
_cell_length_c 17.681296
_cell_angle_alpha 41.303696
_cell_angle_beta 159.919898
_cell_angle_gamma 150.544986
_cell_volume 656.217652
_symmetry_space_group_name_H-M "P -1"
_symmetry_group_IT_number 2
_symmetry_cell_setting 'triclinic'
loop_
_space_group_symop_operation_xyz
x,y,z
-x,-y,-z
loop_
_atom_site_type_symbol
_atom_site_label
_atom_site_fract_x
_atom_site_fract_y
_atom_site_fract_z
Si Si1 0.388666 0.293810 0.804872
Si Si2 0.377602 0.336656 0.351447
Si Si3 0.796294 0.906836 0.139139
Si Si4 0.684388 0.393108 0.363345
Si Si5 0.066273 0.324570 0.115832
Si Si6 0.335676 0.119759 0.661320
Si Si7 0.547211 0.115589 0.578245
Si Si8 0.178895 0.647240 0.703135
O O1 0.243085 0.115588 0.803803
O O2 0.343827 0.474338 0.668997
O O3 0.320928 0.155554 0.716394
O O4 0.695168 0.452175 0.086406
O O5 0.107041 0.190106 0.166011
O O6 0.617352 0.424659 0.631673
O O7 0.478555 0.595487 0.304300
O O8 0.389385 0.190325 0.373284
O O9 0.510509 0.677958 0.888533
O O10 0.928001 0.163614 0.116613
O O11 0.033529 0.930253 0.381150
O O12 0.989773 0.584351 0.588482
O O13 0.583190 0.125579 0.397884
O O14 0.868166 0.330826 0.854313
O O15 0.403758 0.962421 0.795785
O O16 0.500000 0.000000 0.500000
O O17 0.000000 0.500000 0.500000
#
# Coordination Sequence:
#
# PCOD9109426 Si02
#       8
#     2   2   2   2   2   2   2   2
#     4  12  23  42  64  95 135 166 210 269 320 379
#     4  10  22  45  67  92 129 169 214 269 309 378
#     4  10  20  41  65  91 127 167 209 264 314 378
#     4  11  24  42  65  95 128 173 215 257 320 384
#     4   9  22  42  65  93 120 170 221 259 314 377
#     4  11  24  42  66  98 131 167 212 265 327 377
#     4  11  24  42  65  98 129 168 214 263 325 376
#     4  12  25  42  65  96 129 171 212 258 322 391
#
# _framework density 24.382152999999999
#
# number of rings (size 3 to 8) (size 9 to 14) (size 15 to 20)
#    0.000    1.250    2.500    3.000    0.000    6.500 
#    4.500    0.000    0.000    0.000    0.000    0.000 
#    0.000    0.000    0.000    0.000    0.000    0.000 
#
# Total GULP energy -89312.694359 kJ/mol
# GULP energy per Si atom -5582.043397 kJ/mol
# Density = 2.432666 g / cm^3
# Si number density = 24.382153 Si / 1000 Ang^3
#
#
#
# Elastic Constant Matrix: (Units=GPa)
#
#
# Indices 1 2 3 4 5 6 
#
# 1 89.1525 38.8096 -16.2643 -7.7308 1.8820 -6.5010
# 2 38.8096 99.6523 4.8050 -10.5687 21.1563 -6.2492
# 3 -16.2643 4.8050 47.6922 -3.8205 17.0275 2.0195
# 4 -7.7308 -10.5687 -3.8205 19.6170 -14.9211 3.8802
# 5 1.8820 21.1563 17.0275 -14.9211 38.5444 -10.1487
# 6 -6.5010 -6.2492 2.0195 3.8802 -10.1487 36.7952
#
#
#
# Elastic Compliance Matrix: (Units=1/GPa)
#
#
# Indices 1 2 3 4 5 6 
#
# 1 0.015402 -0.006174 0.005204 0.005695 0.002965 0.001604
# 2 -0.006174 0.013941 -0.000911 -0.000548 -0.007328 -0.000637
# 3 0.005204 -0.000911 0.027939 -0.003133 -0.014476 -0.004431
# 4 0.005695 -0.000548 -0.003133 0.075670 0.031146 0.001696
# 5 0.002965 -0.007328 -0.014476 0.031146 0.051142 0.010895
# 6 0.001604 -0.000637 -0.004431 0.001696 0.010895 0.030422
#
#
# Mechanical properties :
#
#
# Convention : Reuss Voigt Hill
#
# Bulk Modulus (GPa) = 18.68412 32.35529 25.51971
# Shear Modulus (GPa) = 21.17576 32.93444 27.05510
#
# Velocity S-wave (km/s) = 2.95022 3.67926 3.33472
# Velocity P-wave (km/s) = 4.39144 5.59894 5.03154
#
# Compressibility (1/GPa) = 0.05352138
#
# Stress axis : x y z
#
# Youngs Moduli (GPa) = 64.92628 71.73071 35.79169
#
# Poissons Ratio (x) = 0.44288 -0.18627
# Poissons Ratio (y) = 0.40086 0.03260
# Poissons Ratio (z) = -0.33790 0.06533
#
# Static dielectric constant tensor:
#      x y z
#    x 2.005110 -0.090050 0.015500 
#    y -0.090050 1.253420 0.234590 
#    z 0.015500 0.234590 1.914390 
# 
# From -- ./inp_files/577966.got.cif
#   From: 2010.05.17/outbox.cif.g08.bks.cpg/sg2_289_cif.got.tgz:577966.got - 2010.06.03 11:33:40.
