data_PCOD9109619
_publ_section_title
;
Structure prediction by ZEFSAII (Michael W. Deem and Ramdas Pophale) SiO2 
 PCOD9109619
Probable space group: P -1
;
_chemical_formula_sum "Si O2"
_cell_formula_units_Z 16
_cell_length_a 8.972502
_cell_length_b 16.235295
_cell_length_c 8.905960
_cell_angle_alpha 140.396818
_cell_angle_beta 53.241028
_cell_angle_gamma 111.186744
_cell_volume 649.825780
_symmetry_space_group_name_H-M "P -1"
_symmetry_group_IT_number 2
_symmetry_cell_setting 'triclinic'
loop_
_space_group_symop_operation_xyz
x,y,z
-x,-y,-z
loop_
_atom_site_type_symbol
_atom_site_label
_atom_site_fract_x
_atom_site_fract_y
_atom_site_fract_z
Si Si1 0.122399 0.304239 0.927127
Si Si2 0.598790 0.796937 0.150434
Si Si3 0.542313 0.542416 0.369054
Si Si4 0.111139 0.589623 0.215534
Si Si5 0.853346 0.398961 0.457421
Si Si6 0.289859 0.227320 0.298667
Si Si7 0.756707 0.047595 0.534622
Si Si8 0.811150 0.953560 0.683105
O O1 0.311856 0.302801 0.911939
O O2 0.155748 0.181832 0.624459
O O3 0.066136 0.444047 0.074265
O O4 0.955945 0.290543 0.125675
O O5 0.373346 0.832723 0.308380
O O6 0.678474 0.924336 0.340225
O O7 0.677746 0.765371 0.889668
O O8 0.500000 0.500000 0.500000
O O9 0.353895 0.542733 0.391678
O O10 0.583286 0.689083 0.567476
O O11 0.719326 0.445025 0.052344
O O12 0.164451 0.640851 0.417095
O O13 0.923249 0.691380 0.430500
O O14 0.000000 0.500000 0.500000
O O15 0.304083 0.081169 0.152164
O O16 0.982264 0.029594 0.361530
O O17 0.725066 0.056255 0.747988
#
# Coordination Sequence:
#
# PCOD9109619 Si02
#       8
#     2   2   2   2   2   2   2   2
#     4  10  20  41  66  92 135 176 210 264 321 397
#     4  10  22  42  69  97 128 171 221 264 338 390
#     4  12  26  39  63  94 136 183 219 262 316 377
#     4  11  23  44  60  95 143 176 213 262 315 398
#     4  10  22  41  61  87 131 180 212 261 309 380
#     4  12  25  41  65 104 131 174 217 270 323 403
#     4   9  22  46  70  94 123 170 216 287 331 388
#     4  10  22  42  69  96 130 167 216 278 338 377
#
# _framework density 24.621984999999999
#
# number of rings (size 3 to 8) (size 9 to 14) (size 15 to 20)
#    0.000    1.500    2.500    2.250    5.250    1.000 
#    2.250    0.000    0.000    0.000    0.000    0.000 
#    0.000    0.000    0.000    0.000    0.000    0.000 
#
# Total GULP energy -89451.976861 kJ/mol
# GULP energy per Si atom -5590.748554 kJ/mol
# Density = 2.456594 g / cm^3
# Si number density = 24.621985 Si / 1000 Ang^3
#
#
#
# Elastic Constant Matrix: (Units=GPa)
#
#
# Indices 1 2 3 4 5 6 
#
# 1 174.0107 28.3174 23.9485 1.4090 -6.0623 3.8050
# 2 28.3174 68.8189 -7.7856 -6.8258 -0.3985 0.2159
# 3 23.9485 -7.7856 74.1343 -24.5220 0.3565 -2.7902
# 4 1.4090 -6.8258 -24.5220 34.7792 -3.7638 -1.6503
# 5 -6.0623 -0.3985 0.3565 -3.7638 36.5175 -1.8526
# 6 3.8050 0.2159 -2.7902 -1.6503 -1.8526 32.3544
#
#
#
# Elastic Compliance Matrix: (Units=1/GPa)
#
#
# Indices 1 2 3 4 5 6 
#
# 1 0.006970 -0.003678 -0.003935 -0.003763 0.000702 -0.001286
# 2 -0.003678 0.017427 0.005575 0.007597 0.000369 0.001206
# 3 -0.003935 0.005575 0.020811 0.016186 0.001030 0.003105
# 4 -0.003763 0.007597 0.016186 0.042427 0.003885 0.004174
# 5 0.000702 0.000369 0.001030 0.003885 0.027987 0.001804
# 6 -0.001286 0.001206 0.003105 0.004174 0.001804 0.031635
#
#
# Mechanical properties :
#
#
# Convention : Reuss Voigt Hill
#
# Bulk Modulus (GPa) = 24.31143 45.10272 34.70708
# Shear Modulus (GPa) = 30.29503 38.89579 34.59541
#
# Velocity S-wave (km/s) = 3.51152 3.97888 3.75248
# Velocity P-wave (km/s) = 5.13189 6.28223 5.73597
#
# Compressibility (1/GPa) = 0.04113291
#
# Stress axis : x y z
#
# Youngs Moduli (GPa) = 143.47405 57.38221 48.05047
#
# Poissons Ratio (x) = 0.21107 0.18906
# Poissons Ratio (y) = 0.52773 -0.26788
# Poissons Ratio (z) = 0.56450 -0.31991
#
# Static dielectric constant tensor:
#      x y z
#    x 1.969020 -0.029620 0.014170 
#    y -0.029620 2.054160 0.024150 
#    z 0.014170 0.024150 2.014660 
# 
# From -- ./inp_files/218496.got.cif
#   From: 2010.05.17/outbox.cif.g08.bks.cpg/sg2_110_cif.got.tgz:218496.got - 2010.06.03 11:33:40.
