data_PCOD9109704
_publ_section_title
;
Structure prediction by ZEFSAII (Michael W. Deem and Ramdas Pophale) SiO2 
 PCOD9109704
Probable space group: P -1
;
_chemical_formula_sum "Si O2"
_cell_formula_units_Z 13
_cell_length_a 18.431051
_cell_length_b 12.868943
_cell_length_c 8.447923
_cell_angle_alpha 115.658618
_cell_angle_beta 56.558159
_cell_angle_gamma 161.532395
_cell_volume 498.211119
_symmetry_space_group_name_H-M "P -1"
_symmetry_group_IT_number 2
_symmetry_cell_setting 'triclinic'
loop_
_space_group_symop_operation_xyz
x,y,z
-x,-y,-z
loop_
_atom_site_type_symbol
_atom_site_label
_atom_site_fract_x
_atom_site_fract_y
_atom_site_fract_z
Si Si1 0.357092 0.685065 0.633294
Si Si2 0.025077 0.053193 0.688342
Si Si3 0.757872 0.014565 0.198808
Si Si4 0.788578 0.284712 0.735947
Si Si5 0.500000 0.500000 0.500000
Si Si6 0.715886 0.700656 0.100697
Si Si7 0.104040 0.739009 0.134095
O O1 0.186555 0.374379 0.724457
O O2 0.151877 0.507854 0.669113
O O3 0.557441 0.861574 0.401222
O O4 0.526543 0.973089 0.742965
O O5 0.202666 0.169782 0.607906
O O6 0.000000 0.000000 0.500000
O O7 0.746808 0.717777 0.888448
O O8 0.050774 0.411559 0.172968
O O9 0.687739 0.805104 0.226565
O O10 0.758860 0.016894 0.009162
O O11 0.000000 0.500000 0.500000
O O12 0.745102 0.132962 0.820814
O O13 0.489219 0.386745 0.288586
O O14 0.000000 0.000000 0.000000
O O15 0.000000 0.500000 0.000000
#
# Coordination Sequence:
#
# PCOD9109704 Si02
#       7
#     2   2   2   2   1   2   2
#     4  11  22  43  67  93 136 177 214 276 337 390
#     4  11  24  42  67  96 133 177 228 280 331 400
#     4  10  20  41  66  98 133 173 222 273 333 407
#     4   9  22  40  68  97 133 169 218 266 331 405
#     4  10  22  44  70  92 132 172 226 278 344 384
#     4  10  21  42  68  99 134 174 229 282 330 404
#     4  10  22  40  65  98 134 169 219 272 324 406
#
# _framework density 26.093357000000001
#
# number of rings (size 3 to 8) (size 9 to 14) (size 15 to 20)
#    0.000    1.846    3.077    0.000    0.000    9.846 
#    2.769    4.615    0.000    0.000    0.000    0.000 
#    0.000    0.000    0.000    0.000    0.000    0.000 
#
# Total GULP energy -72388.114362 kJ/mol
# GULP energy per Si atom -5568.316489 kJ/mol
# Density = 2.603397 g / cm^3
# Si number density = 26.093357 Si / 1000 Ang^3
#
#
#
# Elastic Constant Matrix: (Units=GPa)
#
#
# Indices 1 2 3 4 5 6 
#
# 1 75.3977 -5.3702 -3.5013 6.1564 -19.1369 7.2848
# 2 -5.3702 86.1208 5.3006 -8.3879 -3.0430 -9.5633
# 3 -3.5013 5.3006 181.0667 -12.7520 -29.6332 23.5220
# 4 6.1564 -8.3879 -12.7520 24.3654 16.8308 -4.4479
# 5 -19.1369 -3.0430 -29.6332 16.8308 45.8389 1.9572
# 6 7.2848 -9.5633 23.5220 -4.4479 1.9572 28.7059
#
#
#
# Elastic Compliance Matrix: (Units=1/GPa)
#
#
# Indices 1 2 3 4 5 6 
#
# 1 0.020953 -0.001620 0.003904 -0.019218 0.018788 -0.013315
# 2 -0.001620 0.013119 -0.001495 0.008424 -0.004189 0.007597
# 3 0.003904 -0.001495 0.007977 -0.005294 0.009035 -0.009461
# 4 -0.019218 0.008424 -0.005294 0.079454 -0.041219 0.027143
# 5 0.018788 -0.004189 0.009035 -0.041219 0.051358 -0.023456
# 6 -0.013315 0.007597 -0.009461 0.027143 -0.023456 0.054304
#
#
# Mechanical properties :
#
#
# Convention : Reuss Voigt Hill
#
# Bulk Modulus (GPa) = 22.92162 37.27149 30.09655
# Shear Modulus (GPa) = 20.82213 42.85910 31.84062
#
# Velocity S-wave (km/s) = 2.82793 4.05721 3.49701
# Velocity P-wave (km/s) = 4.41208 6.02186 5.27870
#
# Compressibility (1/GPa) = 0.04362694
#
# Stress axis : x y z
#
# Youngs Moduli (GPa) = 47.72524 76.22764 125.36008
#
# Poissons Ratio (x) = 0.12350 -0.48937
# Poissons Ratio (y) = 0.07732 0.18736
# Poissons Ratio (z) = -0.18631 0.11393
#
# Static dielectric constant tensor:
#      x y z
#    x 2.359020 0.224520 0.289610 
#    y 0.224520 2.185270 0.266770 
#    z 0.289610 0.266770 2.277900 
# 
# From -- ./inp_files/347016.got.cif
#   From: 2010.05.17/outbox.cif.g08.bks.cpg/sg2_174_cif.got.tgz:347016.got - 2010.06.03 11:33:40.
