data_PCOD9109175
_publ_section_title
;
Structure prediction by ZEFSAII (Michael W. Deem and Ramdas Pophale) SiO2 
 PCOD9109175
Probable space group: P -1
;
_chemical_formula_sum "Si O2"
_cell_formula_units_Z 14
_cell_length_a 8.930689
_cell_length_b 10.808571
_cell_length_c 12.657704
_cell_angle_alpha 120.602668
_cell_angle_beta 132.488347
_cell_angle_gamma 92.260967
_cell_volume 618.113424
_symmetry_space_group_name_H-M "P -1"
_symmetry_group_IT_number 2
_symmetry_cell_setting 'triclinic'
loop_
_space_group_symop_operation_xyz
x,y,z
-x,-y,-z
loop_
_atom_site_type_symbol
_atom_site_label
_atom_site_fract_x
_atom_site_fract_y
_atom_site_fract_z
Si Si1 0.684500 0.382615 0.160872
Si Si2 0.951439 0.704549 0.740967
Si Si3 0.395579 0.371794 0.657082
Si Si4 0.264260 0.059979 0.940760
Si Si5 0.475694 0.891855 0.339549
Si Si6 0.096805 0.286322 0.039918
Si Si7 0.251672 0.044499 0.691723
O O1 0.705058 0.557883 0.273727
O O2 0.944434 0.412677 0.271607
O O3 0.547356 0.245832 0.138068
O O4 0.474592 0.258140 0.916288
O O5 0.758903 0.664757 0.539782
O O6 0.838863 0.689883 0.795067
O O7 0.204112 0.910958 0.930687
O O8 0.401657 0.209654 0.621687
O O9 0.688189 0.539293 0.846151
O O10 0.195631 0.970720 0.752493
O O11 0.095115 0.124716 0.921219
O O12 0.623680 0.009428 0.356901
O O13 0.500000 0.000000 0.500000
O O14 0.176755 0.756999 0.115441
O O15 0.000000 0.000000 0.500000
#
# Coordination Sequence:
#
# PCOD9109175 Si02
#       7
#     2   2   2   2   2   2   2
#     4   9  22  40  63  90 128 160 209 256 309 368
#     4  12  20  41  64  94 125 169 211 249 309 370
#     4  11  25  41  62  91 131 168 203 260 310 372
#     4   9  21  38  65  91 124 164 207 258 305 364
#     4  12  25  43  67  94 122 164 212 261 315 372
#     4  11  22  43  60  94 130 165 207 258 309 369
#     4  10  20  41  63  94 124 159 211 260 309 366
#
# _framework density 22.649564999999999
#
# number of rings (size 3 to 8) (size 9 to 14) (size 15 to 20)
#    0.857    0.571    1.429    4.714    0.000    0.571 
#    0.000    2.857    0.000    0.000    0.000    0.000 
#    0.000    0.000    0.000    0.000    0.000    0.000 
#
# Total GULP energy -78203.289225 kJ/mol
# GULP energy per Si atom -5585.949230 kJ/mol
# Density = 2.259801 g / cm^3
# Si number density = 22.649565 Si / 1000 Ang^3
#
#
#
# Elastic Constant Matrix: (Units=GPa)
#
#
# Indices 1 2 3 4 5 6 
#
# 1 132.5914 31.1631 14.4697 0.3896 -20.7264 -14.4625
# 2 31.1631 69.4177 8.6147 3.3546 -13.7835 -19.1634
# 3 14.4697 8.6147 71.9215 -15.2566 -6.4588 -13.9541
# 4 0.3896 3.3546 -15.2566 27.7500 -6.7244 1.0634
# 5 -20.7264 -13.7835 -6.4588 -6.7244 42.8863 -5.6022
# 6 -14.4625 -19.1634 -13.9541 1.0634 -5.6022 27.6467
#
#
#
# Elastic Compliance Matrix: (Units=1/GPa)
#
#
# Indices 1 2 3 4 5 6 
#
# 1 0.009200 -0.002151 -0.000212 0.000924 0.004399 0.004070
# 2 -0.002151 0.021223 0.001682 -0.000266 0.008094 0.016085
# 3 -0.000212 0.001682 0.018994 0.011398 0.006593 0.011539
# 4 0.000924 -0.000266 0.011398 0.044472 0.009880 0.006344
# 5 0.004399 0.008094 0.006593 0.009880 0.032876 0.017521
# 6 0.004070 0.016085 0.011539 0.006344 0.017521 0.058580
#
#
# Mechanical properties :
#
#
# Convention : Reuss Voigt Hill
#
# Bulk Modulus (GPa) = 20.81014 42.49172 31.65093
# Shear Modulus (GPa) = 24.66394 34.30215 29.48305
#
# Velocity S-wave (km/s) = 3.30348 3.89584 3.61183
# Velocity P-wave (km/s) = 4.87427 6.24804 5.60342
#
# Compressibility (1/GPa) = 0.04805349
#
# Stress axis : x y z
#
# Youngs Moduli (GPa) = 108.69973 47.11915 52.64832
#
# Poissons Ratio (x) = 0.10136 0.01118
# Poissons Ratio (y) = 0.23382 -0.08855
# Poissons Ratio (z) = 0.02308 -0.07925
#
# Static dielectric constant tensor:
#      x y z
#    x 1.855460 0.026280 0.017650 
#    y 0.026280 1.867180 0.005170 
#    z 0.017650 0.005170 1.877990 
# 
# From -- ./inp_files/391488.got.cif
#   From: 2010.05.17/outbox.cif.g08.bks.cpg/sg2_196_cif.got.tgz:391488.got - 2010.06.03 11:33:40.
