data_PCOD9109932
_publ_section_title
;
Structure prediction by ZEFSAII (Michael W. Deem and Ramdas Pophale) SiO2 
 PCOD9109932
Probable space group: P -1
;
_chemical_formula_sum "Si O2"
_cell_formula_units_Z 16
_cell_length_a 10.121611
_cell_length_b 18.494918
_cell_length_c 22.862498
_cell_angle_alpha 18.120133
_cell_angle_beta 36.255060
_cell_angle_gamma 36.238340
_cell_volume 768.170901
_symmetry_space_group_name_H-M "P -1"
_symmetry_group_IT_number 2
_symmetry_cell_setting 'triclinic'
loop_
_space_group_symop_operation_xyz
x,y,z
-x,-y,-z
loop_
_atom_site_type_symbol
_atom_site_label
_atom_site_fract_x
_atom_site_fract_y
_atom_site_fract_z
Si Si1 0.412908 0.212788 0.090339
Si Si2 0.116124 0.899210 0.933358
Si Si3 0.362276 0.769174 0.710011
Si Si4 0.648263 0.670562 0.104833
Si Si5 0.996884 0.038756 0.209603
Si Si6 0.856325 0.602262 0.634572
Si Si7 0.181643 0.611391 0.313556
Si Si8 0.931582 0.171928 0.338086
O O1 0.630885 0.083823 0.148597
O O2 0.169328 0.154742 0.233173
O O3 0.378288 0.488419 0.908434
O O4 0.454600 0.189594 0.024475
O O5 0.091277 0.941814 0.840181
O O6 0.076836 0.639077 0.166125
O O7 0.936788 0.111732 0.864035
O O8 0.201257 0.824798 0.781063
O O9 0.631576 0.770466 0.615520
O O10 0.244016 0.888559 0.600812
O O11 0.427168 0.595261 0.269373
O O12 0.823777 0.433495 0.201534
O O13 0.787613 0.837169 0.960161
O O14 0.033824 0.767890 0.429201
O O15 0.781832 0.519963 0.660959
O O16 0.000000 0.500000 0.500000
O O17 0.000000 0.000000 0.500000
#
# Coordination Sequence:
#
# PCOD9109932 Si02
#       8
#     2   2   2   2   2   2   2   2
#     4  10  20  41  68  93 130 176 224 267 331 401
#     4  11  26  42  70 100 132 180 231 271 331 402
#     4  10  20  42  64  95 139 176 209 275 340 403
#     4  11  23  45  67  94 134 180 220 282 335 391
#     4  12  24  43  67 102 145 171 212 283 358 388
#     4  11  24  44  68 100 134 178 229 276 332 403
#     4  12  24  47  74  90 131 185 240 271 322 407
#     4  11  21  35  68 101 131 172 233 269 330 406
#
# _framework density 20.828699
#
# number of rings (size 3 to 8) (size 9 to 14) (size 15 to 20)
#    0.000    1.000    7.500    1.500    3.500    3.500 
#    0.000    0.625    0.000    0.000    0.000    0.000 
#    0.000    0.000    0.000    0.000    0.000    0.000 
#
# Total GULP energy -89293.941982 kJ/mol
# GULP energy per Si atom -5580.871374 kJ/mol
# Density = 2.078129 g / cm^3
# Si number density = 20.828699 Si / 1000 Ang^3
#
#
#
# Elastic Constant Matrix: (Units=GPa)
#
#
# Indices 1 2 3 4 5 6 
#
# 1 88.2859 24.9503 24.4209 -1.8451 -6.1699 -8.5733
# 2 24.9503 94.0170 29.7087 2.0690 -1.6545 -13.9567
# 3 24.4209 29.7087 95.0783 13.0019 -1.5494 -11.2667
# 4 -1.8451 2.0690 13.0019 27.2960 -1.2554 -1.6141
# 5 -6.1699 -1.6545 -1.5494 -1.2554 26.6636 6.9245
# 6 -8.5733 -13.9567 -11.2667 -1.6141 6.9245 21.4777
#
#
#
# Elastic Compliance Matrix: (Units=1/GPa)
#
#
# Indices 1 2 3 4 5 6 
#
# 1 0.013147 -0.002387 -0.002748 0.002589 0.002423 0.001669
# 2 -0.002387 0.013098 -0.002785 0.000492 -0.001606 0.006653
# 3 -0.002748 -0.002785 0.013403 -0.006180 -0.001387 0.004107
# 4 0.002589 0.000492 -0.006180 0.039837 0.002029 0.000451
# 5 0.002423 -0.001606 -0.001387 0.002029 0.041636 -0.014075
# 6 0.001669 0.006653 0.004107 0.000451 -0.014075 0.058276
#
#
# Mechanical properties :
#
#
# Convention : Reuss Voigt Hill
#
# Bulk Modulus (GPa) = 42.00141 48.39343 45.19742
# Shear Modulus (GPa) = 24.60977 28.30754 26.45865
#
# Velocity S-wave (km/s) = 3.44107 3.69055 3.56799
# Velocity P-wave (km/s) = 5.99974 6.43775 6.22260
#
# Compressibility (1/GPa) = 0.02380872
#
# Stress axis : x y z
#
# Youngs Moduli (GPa) = 76.06289 76.34537 74.61205
#
# Poissons Ratio (x) = 0.18226 0.20501
# Poissons Ratio (y) = 0.18159 0.20777
# Poissons Ratio (z) = 0.20899 0.21260
#
# Static dielectric constant tensor:
#      x y z
#    x 1.770070 -0.018730 -0.065140 
#    y -0.018730 1.785150 0.048930 
#    z -0.065140 0.048930 1.887040 
# 
# From -- ./inp_files/591166.got.cif
#   From: 2010.05.17/outbox.cif.g08.bks.cpg/sg2_296_cif.got.tgz:591166.got - 2010.06.03 11:33:40.
