data_PCOD9109879
_publ_section_title
;
Structure prediction by ZEFSAII (Michael W. Deem and Ramdas Pophale) SiO2 
 PCOD9109879
Probable space group: P -1
;
_chemical_formula_sum "Si O2"
_cell_formula_units_Z 16
_cell_length_a 16.328210
_cell_length_b 18.109223
_cell_length_c 13.835008
_cell_angle_alpha 134.358258
_cell_angle_beta 27.230024
_cell_angle_gamma 153.929149
_cell_volume 714.738207
_symmetry_space_group_name_H-M "P -1"
_symmetry_group_IT_number 2
_symmetry_cell_setting 'triclinic'
loop_
_space_group_symop_operation_xyz
x,y,z
-x,-y,-z
loop_
_atom_site_type_symbol
_atom_site_label
_atom_site_fract_x
_atom_site_fract_y
_atom_site_fract_z
Si Si1 0.377559 0.827032 0.940861
Si Si2 0.679715 0.576686 0.484501
Si Si3 0.622977 0.057565 0.534869
Si Si4 0.485227 0.290391 0.171842
Si Si5 0.659372 0.720863 0.272206
Si Si6 0.580478 0.830543 0.083216
Si Si7 0.780290 0.794446 0.003273
Si Si8 0.743311 0.272554 0.243164
O O1 0.537725 0.812128 0.819687
O O2 0.406900 0.823633 0.792907
O O3 0.983733 0.645182 0.214737
O O4 0.500000 0.000000 0.000000
O O5 0.500000 0.500000 0.500000
O O6 0.764215 0.735543 0.571584
O O7 0.448737 0.417234 0.664378
O O8 0.654127 0.187319 0.662672
O O9 0.964907 0.160430 0.271493
O O10 0.500000 0.000000 0.500000
O O11 0.356407 0.866223 0.705227
O O12 0.452295 0.228308 0.043092
O O13 0.861251 0.519502 0.993597
O O14 0.423762 0.705091 0.520362
O O15 0.629973 0.673760 0.148087
O O16 0.040306 0.941207 0.094630
O O17 0.537875 0.722583 0.111165
O O18 0.000000 0.000000 0.000000
#
# Coordination Sequence:
#
# PCOD9109879 Si02
#       8
#     2   2   2   2   2   2   2   2
#     4  12  28  47  69 102 134 175 229 278 335 406
#     4  12  26  46  71  98 134 180 225 274 343 401
#     4  12  21  40  75  98 134 181 229 272 334 401
#     4  12  27  45  68 102 140 175 226 280 340 400
#     4  11  22  44  73  94 135 179 224 276 336 397
#     4  11  24  42  69 104 133 178 230 274 335 402
#     4  10  20  41  68 101 130 173 229 273 326 399
#     4  12  23  45  70  96 141 179 217 285 337 393
#
# _framework density 22.385819000000001
#
# number of rings (size 3 to 8) (size 9 to 14) (size 15 to 20)
#    0.000    0.500    7.500    2.625    3.500    1.500 
#    0.000    3.125    0.000    0.000    0.000    0.000 
#    0.000    0.000    0.000    0.000    0.000    0.000 
#
# Total GULP energy -89578.637616 kJ/mol
# GULP energy per Si atom -5598.664851 kJ/mol
# Density = 2.233487 g / cm^3
# Si number density = 22.385819 Si / 1000 Ang^3
#
#
#
# Elastic Constant Matrix: (Units=GPa)
#
#
# Indices 1 2 3 4 5 6 
#
# 1 163.9791 47.4519 10.2963 5.2072 36.2469 -22.4549
# 2 47.4519 41.2841 7.9827 10.5784 13.2314 -8.1210
# 3 10.2963 7.9827 82.5360 18.0285 0.3040 -13.5933
# 4 5.2072 10.5784 18.0285 37.5396 -10.9126 3.0696
# 5 36.2469 13.2314 0.3040 -10.9126 48.4417 2.7640
# 6 -22.4549 -8.1210 -13.5933 3.0696 2.7640 28.6580
#
#
#
# Elastic Compliance Matrix: (Units=1/GPa)
#
#
# Indices 1 2 3 4 5 6 
#
# 1 0.011270 -0.008783 0.001293 -0.002399 -0.007032 0.007890
# 2 -0.008783 0.042181 0.001606 -0.014652 -0.008731 0.008245
# 3 0.001293 0.001606 0.015813 -0.010377 -0.004443 0.010509
# 4 -0.002399 -0.014652 -0.010377 0.042230 0.016348 -0.017054
# 5 -0.007032 -0.008731 -0.004443 0.016348 0.032857 -0.015012
# 6 0.007890 0.008245 0.010509 -0.017054 -0.015012 0.051672
#
#
# Mechanical properties :
#
#
# Convention : Reuss Voigt Hill
#
# Bulk Modulus (GPa) = 17.39239 46.58455 31.98847
# Shear Modulus (GPa) = 22.03063 37.73241 29.88152
#
# Velocity S-wave (km/s) = 3.14049 4.11000 3.65751
# Velocity P-wave (km/s) = 4.57564 6.58618 5.67073
#
# Compressibility (1/GPa) = 0.05749643
#
# Stress axis : x y z
#
# Youngs Moduli (GPa) = 88.73220 23.70728 63.23884
#
# Poissons Ratio (x) = 0.20822 -0.08176
# Poissons Ratio (y) = 0.77934 -0.10159
# Poissons Ratio (z) = -0.11472 -0.03808
#
# Static dielectric constant tensor:
#      x y z
#    x 1.811130 -0.019280 -0.023360 
#    y -0.019280 1.859680 -0.026990 
#    z -0.023360 -0.026990 1.849870 
# 
# From -- ./inp_files/456974.got.cif
#   From: 2010.05.17/outbox.cif.g08.bks.cpg/sg2_229_cif.got.tgz:456974.got - 2010.06.03 11:33:40.
