data_PCOD9109412
_publ_section_title
;
Structure prediction by ZEFSAII (Michael W. Deem and Ramdas Pophale) SiO2 
 PCOD9109412
Probable space group: P -1
;
_chemical_formula_sum "Si O2"
_cell_formula_units_Z 14
_cell_length_a 10.426859
_cell_length_b 5.715714
_cell_length_c 11.511486
_cell_angle_alpha 93.888955
_cell_angle_beta 119.912996
_cell_angle_gamma 68.516354
_cell_volume 547.706030
_symmetry_space_group_name_H-M "P -1"
_symmetry_group_IT_number 2
_symmetry_cell_setting 'triclinic'
loop_
_space_group_symop_operation_xyz
x,y,z
-x,-y,-z
loop_
_atom_site_type_symbol
_atom_site_label
_atom_site_fract_x
_atom_site_fract_y
_atom_site_fract_z
Si Si1 0.164732 0.480584 0.125624
Si Si2 0.406063 0.245880 0.394474
Si Si3 0.545640 0.812064 0.122131
Si Si4 0.272614 0.675347 0.964388
Si Si5 0.987441 0.139299 0.735571
Si Si6 0.151634 0.418394 0.651865
Si Si7 0.282924 0.685645 0.542563
O O1 0.270224 0.245996 0.244267
O O2 0.121453 0.720119 0.199898
O O3 0.254212 0.504668 0.053142
O O4 0.000000 0.500000 0.000000
O O5 0.317292 0.450676 0.460670
O O6 0.543335 0.298639 0.385096
O O7 0.500000 0.000000 0.500000
O O8 0.640366 0.530921 0.101549
O O9 0.675207 0.825945 0.273531
O O10 0.374941 0.815076 0.078172
O O11 0.500000 0.000000 0.000000
O O12 0.119223 0.883225 0.839550
O O13 0.071201 0.326511 0.725170
O O14 0.870017 0.098541 0.583078
O O15 0.223171 0.622175 0.636030
O O16 0.000000 0.500000 0.500000
#
# Coordination Sequence:
#
# PCOD9109412 Si02
#       7
#     2   2   2   2   2   2   2
#     4  11  24  40  66  96 127 167 214 261 321 373
#     4  10  22  42  62  93 124 167 215 256 313 380
#     4  11  23  42  66  91 131 164 210 266 311 379
#     4  11  24  41  66  95 126 171 214 257 324 371
#     4  10  21  42  65  94 130 167 211 265 313 381
#     4  10  20  41  65  90 125 167 204 259 320 369
#     4   9  21  41  65  88 131 165 207 265 313 369
#
# _framework density 25.561157999999999
#
# number of rings (size 3 to 8) (size 9 to 14) (size 15 to 20)
#    0.000    1.714    1.429    2.143    2.000    1.143 
#    5.143    1.429    0.000    0.000    0.000    0.000 
#    0.000    0.000    0.000    0.000    0.000    0.000 
#
# Total GULP energy -77981.501976 kJ/mol
# GULP energy per Si atom -5570.107284 kJ/mol
# Density = 2.550298 g / cm^3
# Si number density = 25.561158 Si / 1000 Ang^3
#
#
#
# Elastic Constant Matrix: (Units=GPa)
#
#
# Indices 1 2 3 4 5 6 
#
# 1 44.2289 -18.7206 22.4560 11.5913 5.0709 3.7472
# 2 -18.7206 49.2999 29.1533 -11.2945 -0.9688 -28.1968
# 3 22.4560 29.1533 222.0785 -38.6139 27.1638 -14.4454
# 4 11.5913 -11.2945 -38.6139 36.9801 -14.2314 1.4192
# 5 5.0709 -0.9688 27.1638 -14.2314 46.0041 -2.6535
# 6 3.7472 -28.1968 -14.4454 1.4192 -2.6535 34.0592
#
#
#
# Elastic Compliance Matrix: (Units=1/GPa)
#
#
# Indices 1 2 3 4 5 6 
#
# 1 0.040952 0.023718 -0.008998 -0.016662 -0.003178 0.011761
# 2 0.023718 0.060220 -0.007563 0.004022 0.006925 0.044410
# 3 -0.008998 -0.007563 0.007858 0.008274 -0.001386 -0.002391
# 4 -0.016662 0.004022 0.008274 0.046390 0.011828 0.007661
# 5 -0.003178 0.006925 -0.001386 0.011828 0.027121 0.007115
# 6 0.011761 0.044410 -0.002391 0.007661 0.007115 0.064053
#
#
# Mechanical properties :
#
#
# Convention : Reuss Voigt Hill
#
# Bulk Modulus (GPa) = 8.10731 42.37608 25.24169
# Shear Modulus (GPa) = 18.28856 42.25661 30.27258
#
# Velocity S-wave (km/s) = 2.67775 4.07031 3.44513
# Velocity P-wave (km/s) = 3.56919 6.22127 5.07165
#
# Compressibility (1/GPa) = 0.12334552
#
# Stress axis : x y z
#
# Youngs Moduli (GPa) = 24.41892 16.60574 127.25468
#
# Poissons Ratio (x) = -0.39386 1.14503
# Poissons Ratio (y) = -0.57918 0.96240
# Poissons Ratio (z) = 0.21972 0.12559
#
# Static dielectric constant tensor:
#      x y z
#    x 2.085440 -0.018410 -0.044580 
#    y -0.018410 1.948590 -0.320290 
#    z -0.044580 -0.320290 1.209010 
# 
# From -- ./inp_files/72142.got.cif
#   From: 2010.05.17/outbox.cif.g08.bks.cpg/sg2_37_cif.got.tgz:72142.got - 2010.06.03 11:33:40.
