data_PCOD9109441
_publ_section_title
;
Structure prediction by ZEFSAII (Michael W. Deem and Ramdas Pophale) SiO2 
 PCOD9109441
Probable space group: P -1
;
_chemical_formula_sum "Si O2"
_cell_formula_units_Z 16
_cell_length_a 17.944464
_cell_length_b 11.933613
_cell_length_c 6.688640
_cell_angle_alpha 87.827565
_cell_angle_beta 121.473920
_cell_angle_gamma 49.511456
_cell_volume 756.120426
_symmetry_space_group_name_H-M "P -1"
_symmetry_group_IT_number 2
_symmetry_cell_setting 'triclinic'
loop_
_space_group_symop_operation_xyz
x,y,z
-x,-y,-z
loop_
_atom_site_type_symbol
_atom_site_label
_atom_site_fract_x
_atom_site_fract_y
_atom_site_fract_z
Si Si1 0.972207 0.126189 0.291234
Si Si2 0.458028 0.617999 0.122305
Si Si3 0.095375 0.557436 0.687396
Si Si4 0.646374 0.952216 0.271326
Si Si5 0.604613 0.869175 0.841640
Si Si6 0.911097 0.572759 0.675371
Si Si7 0.262758 0.913153 0.527907
Si Si8 0.699592 0.312605 0.723053
O O1 0.913191 0.302533 0.287025
O O2 0.856660 0.196909 0.970971
O O3 0.000000 0.000000 0.500000
O O4 0.117284 0.009823 0.394084
O O5 0.598209 0.501435 0.452191
O O6 0.360366 0.651363 0.142557
O O7 0.500000 0.500000 0.000000
O O8 0.370117 0.800778 0.875325
O O9 0.068634 0.559491 0.416082
O O10 0.968965 0.616664 0.614683
O O11 0.246278 0.345917 0.970516
O O12 0.745027 0.746324 0.474276
O O13 0.493729 0.103427 0.146572
O O14 0.735853 0.957159 0.510735
O O15 0.636809 0.947623 0.017039
O O16 0.500000 0.000000 0.500000
O O17 0.000000 0.500000 0.000000
O O18 0.309401 0.792366 0.412586
#
# Coordination Sequence:
#
# PCOD9109441 Si02
#       8
#     2   2   2   2   2   2   2   2
#     4  12  24  43  63  94 139 181 225 274 331 389
#     4   9  20  40  62  87 120 170 220 274 322 378
#     4  10  23  40  64  93 130 164 217 276 321 398
#     4  10  22  39  64  95 128 160 214 270 339 398
#     4  10  22  42  66  97 128 161 213 284 339 399
#     4  10  20  41  65  92 121 165 216 268 339 393
#     4  11  22  41  63  92 130 176 221 273 329 399
#     4  10  22  39  62  88 129 173 224 270 320 388
#
# _framework density 21.160651999999999
#
# number of rings (size 3 to 8) (size 9 to 14) (size 15 to 20)
#    0.000    1.750    2.500    1.125    0.000    6.000 
#    2.250    0.000    0.000    0.000    0.000    0.000 
#    0.000    0.000    0.000    0.000    0.000    0.000 
#
# Total GULP energy -89127.550827 kJ/mol
# GULP energy per Si atom -5570.471927 kJ/mol
# Density = 2.111249 g / cm^3
# Si number density = 21.160652 Si / 1000 Ang^3
#
#
#
# Elastic Constant Matrix: (Units=GPa)
#
#
# Indices 1 2 3 4 5 6 
#
# 1 54.2478 28.7499 -1.7597 6.6235 11.7554 -10.5934
# 2 28.7499 102.5500 28.4592 13.5896 0.6532 -2.6654
# 3 -1.7597 28.4592 112.0693 12.5624 3.0614 -3.3939
# 4 6.6235 13.5896 12.5624 32.5545 -7.2727 11.5841
# 5 11.7554 0.6532 3.0614 -7.2727 25.6002 0.8216
# 6 -10.5934 -2.6654 -3.3939 11.5841 0.8216 32.1966
#
#
#
# Elastic Compliance Matrix: (Units=1/GPa)
#
#
# Indices 1 2 3 4 5 6 
#
# 1 0.032457 -0.007912 0.005372 -0.015926 -0.020410 0.016841
# 2 -0.007912 0.013018 -0.003438 -0.001180 0.003426 -0.001551
# 3 0.005372 -0.003438 0.011002 -0.007125 -0.005891 0.005356
# 4 -0.015926 -0.001180 -0.007125 0.051444 0.023619 -0.025201
# 5 -0.020410 0.003426 -0.005891 0.023619 0.056306 -0.016987
# 6 0.016841 -0.001551 0.005356 -0.025201 -0.016987 0.046537
#
#
# Mechanical properties :
#
#
# Convention : Reuss Voigt Hill
#
# Bulk Modulus (GPa) = 22.46164 42.19622 32.32893
# Shear Modulus (GPa) = 21.04711 32.29808 26.67260
#
# Velocity S-wave (km/s) = 3.15720 3.91106 3.55418
# Velocity P-wave (km/s) = 4.89167 6.35448 5.67044
#
# Compressibility (1/GPa) = 0.04452035
#
# Stress axis : x y z
#
# Youngs Moduli (GPa) = 30.80981 76.81735 90.88956
#
# Poissons Ratio (x) = 0.60777 -0.48822
# Poissons Ratio (y) = 0.24376 0.31250
# Poissons Ratio (z) = -0.16550 0.26412
#
# Static dielectric constant tensor:
#      x y z
#    x 1.483620 -0.414890 0.016190 
#    y -0.414890 1.302400 0.025730 
#    z 0.016190 0.025730 1.815410 
# 
# From -- ./inp_files/109739.got.cif
#   From: 2010.05.17/outbox.cif.g08.bks.cpg/sg2_55_cif.got.tgz:109739.got - 2010.06.03 11:33:40.
