data_PCOD9109301
_publ_section_title
;
Structure prediction by ZEFSAII (Michael W. Deem and Ramdas Pophale) SiO2 
 PCOD9109301
Probable space group: P -1
;
_chemical_formula_sum "Si O2"
_cell_formula_units_Z 13
_cell_length_a 17.754049
_cell_length_b 7.771931
_cell_length_c 6.229333
_cell_angle_alpha 114.845433
_cell_angle_beta 59.168682
_cell_angle_gamma 135.506254
_cell_volume 515.132506
_symmetry_space_group_name_H-M "P -1"
_symmetry_group_IT_number 2
_symmetry_cell_setting 'triclinic'
loop_
_space_group_symop_operation_xyz
x,y,z
-x,-y,-z
loop_
_atom_site_type_symbol
_atom_site_label
_atom_site_fract_x
_atom_site_fract_y
_atom_site_fract_z
Si Si1 0.500000 0.500000 0.500000
Si Si2 0.095963 0.146783 0.618736
Si Si3 0.652841 0.033635 0.288139
Si Si4 0.033140 0.320042 0.148365
Si Si5 0.699433 0.819417 0.727770
Si Si6 0.453073 0.798676 0.775393
Si Si7 0.160842 0.679374 0.491652
O O1 0.583741 0.627799 0.666433
O O2 0.403701 0.529377 0.769773
O O3 0.219494 0.252630 0.414046
O O4 0.081819 0.324733 0.854360
O O5 0.000000 0.000000 0.500000
O O6 0.057959 0.951515 0.762710
O O7 0.609910 0.148974 0.267247
O O8 0.755007 0.239799 0.395729
O O9 0.555242 0.837251 0.502068
O O10 0.680404 0.899865 0.022060
O O11 0.133236 0.475059 0.258468
O O12 0.961500 0.414832 0.296827
O O13 0.773884 0.074934 0.618076
O O14 0.500000 0.000000 0.000000
#
# Coordination Sequence:
#
# PCOD9109301 Si02
#       7
#     1   2   2   2   2   2   2
#     4  12  24  46  66  96 136 176 216 280 336 388
#     4  10  21  40  62  97 128 168 222 276 327 404
#     4  11  22  42  67  94 127 177 225 270 333 410
#     4   9  21  38  64  92 130 170 215 275 339 384
#     4  11  24  40  64  93 136 174 220 280 333 392
#     4  11  24  45  66  93 132 170 223 280 327 395
#     4  10  20  41  64  93 129 174 219 277 333 398
#
# _framework density 25.236227
#
# number of rings (size 3 to 8) (size 9 to 14) (size 15 to 20)
#    0.000    1.538    3.077    0.923    0.000    5.538 
#    0.000    4.615    0.000    0.000    0.000    0.000 
#    0.000    0.000    0.000    0.000    0.000    0.000 
#
# Total GULP energy -72533.390103 kJ/mol
# GULP energy per Si atom -5579.491546 kJ/mol
# Density = 2.517879 g / cm^3
# Si number density = 25.236227 Si / 1000 Ang^3
#
#
#
# Elastic Constant Matrix: (Units=GPa)
#
#
# Indices 1 2 3 4 5 6 
#
# 1 143.2311 4.4272 85.9622 1.4804 13.4969 17.7199
# 2 4.4272 73.1794 33.7232 -0.8844 4.6721 1.4469
# 3 85.9622 33.7232 220.6082 30.8353 -4.3718 21.2271
# 4 1.4804 -0.8844 30.8353 39.4002 6.3756 8.0478
# 5 13.4969 4.6721 -4.3718 6.3756 31.9065 9.9398
# 6 17.7199 1.4469 21.2271 8.0478 9.9398 46.3198
#
#
#
# Elastic Compliance Matrix: (Units=1/GPa)
#
#
# Indices 1 2 3 4 5 6 
#
# 1 0.010740 0.002237 -0.005220 0.005003 -0.006171 -0.001331
# 2 0.002237 0.015723 -0.004015 0.004027 -0.004864 0.000837
# 3 -0.005220 -0.004015 0.008465 -0.007113 0.005937 -0.001795
# 4 0.005003 0.004027 -0.007113 0.032887 -0.009486 -0.002458
# 5 -0.006171 -0.004864 0.005937 -0.009486 0.039570 -0.007051
# 6 -0.001331 0.000837 -0.001795 -0.002458 -0.007051 0.024835
#
#
# Mechanical properties :
#
#
# Convention : Reuss Voigt Hill
#
# Bulk Modulus (GPa) = 47.77562 76.13822 61.95692
# Shear Modulus (GPa) = 32.63837 44.38572 38.51204
#
# Velocity S-wave (km/s) = 3.60017 4.19837 3.91072
# Velocity P-wave (km/s) = 6.02114 7.33058 6.70789
#
# Compressibility (1/GPa) = 0.02093118
#
# Stress axis : x y z
#
# Youngs Moduli (GPa) = 93.10852 63.60304 118.12764
#
# Poissons Ratio (x) = -0.14226 0.61667
# Poissons Ratio (y) = -0.20826 0.47426
# Poissons Ratio (z) = 0.48606 0.25535
#
# Static dielectric constant tensor:
#      x y z
#    x 2.368240 -0.899550 -0.128540 
#    y -0.899550 4.002380 0.115740 
#    z -0.128540 0.115740 2.019550 
# 
# From -- ./inp_files/31666.got.cif
#   From: 2010.05.17/outbox.cif.g08.bks.cpg/sg2_16_cif.got.tgz:31666.got - 2010.06.03 11:33:40.
