data_PCOD9109708
_publ_section_title
;
Structure prediction by ZEFSAII (Michael W. Deem and Ramdas Pophale) SiO2 
 PCOD9109708
Probable space group: P -1
;
_chemical_formula_sum "Si O2"
_cell_formula_units_Z 15
_cell_length_a 11.245667
_cell_length_b 20.158406
_cell_length_c 13.416932
_cell_angle_alpha 25.082867
_cell_angle_beta 44.047162
_cell_angle_gamma 30.967385
_cell_volume 639.719549
_symmetry_space_group_name_H-M "P -1"
_symmetry_group_IT_number 2
_symmetry_cell_setting 'triclinic'
loop_
_space_group_symop_operation_xyz
x,y,z
-x,-y,-z
loop_
_atom_site_type_symbol
_atom_site_label
_atom_site_fract_x
_atom_site_fract_y
_atom_site_fract_z
Si Si1 0.154554 0.337825 0.279443
Si Si2 0.787464 0.452366 0.498600
Si Si3 0.706591 0.816995 0.805022
Si Si4 0.000000 0.000000 0.000000
Si Si5 0.340680 0.285150 0.596839
Si Si6 0.354976 0.918884 0.025297
Si Si7 0.848338 0.959090 0.692317
Si Si8 0.299657 0.491043 0.133917
O O1 0.276411 0.176371 0.331985
O O2 0.321707 0.353405 0.216459
O O3 0.020665 0.319777 0.467265
O O4 0.932106 0.572418 0.042773
O O5 0.556665 0.679107 0.277957
O O6 0.819290 0.534725 0.466791
O O7 0.780600 0.273254 0.765217
O O8 0.735018 0.950345 0.674788
O O9 0.462947 0.893085 0.885372
O O10 0.105872 0.997321 0.046807
O O11 0.298151 0.400554 0.361587
O O12 0.620480 0.146561 0.641022
O O13 0.330701 0.103210 0.842816
O O14 0.000000 0.000000 0.500000
O O15 0.035571 0.731321 0.947025
O O16 0.500000 0.500000 0.000000
#
# Coordination Sequence:
#
# PCOD9109708 Si02
#       8
#     2   2   2   1   2   2   2   2
#     4   9  19  40  66  90 129 178 221 270 338 403
#     4  11  25  47  68  97 137 185 231 282 341 412
#     4   8  18  39  67  93 123 171 221 273 333 399
#     4  12  26  44  64 102 138 176 228 286 346 410
#     4  11  24  44  72  98 137 184 230 280 341 410
#     4  10  23  45  71  98 136 178 232 282 344 414
#     4  10  20  41  66  99 131 171 224 274 340 399
#     4  11  22  38  64 103 138 172 225 287 335 403
#
# _framework density 23.447773000000002
#
# number of rings (size 3 to 8) (size 9 to 14) (size 15 to 20)
#    0.000    1.867    1.333    2.400    0.000    4.267 
#    9.600    6.000    0.000    0.000    0.000    0.000 
#    0.000    0.000    0.000    0.000    0.000    0.000 
#
# Total GULP energy -83586.445992 kJ/mol
# GULP energy per Si atom -5572.429733 kJ/mol
# Density = 2.339441 g / cm^3
# Si number density = 23.447773 Si / 1000 Ang^3
#
#
#
# Elastic Constant Matrix: (Units=GPa)
#
#
# Indices 1 2 3 4 5 6 
#
# 1 92.6412 37.1727 43.2784 -0.6478 17.2464 4.2052
# 2 37.1727 71.4584 34.6455 -3.7531 11.0137 15.5388
# 3 43.2784 34.6455 118.7256 -27.5225 15.9207 -10.0751
# 4 -0.6478 -3.7531 -27.5225 26.6356 -6.8799 2.1675
# 5 17.2464 11.0137 15.9207 -6.8799 40.5359 -0.8574
# 6 4.2052 15.5388 -10.0751 2.1675 -0.8574 44.1513
#
#
#
# Elastic Compliance Matrix: (Units=1/GPa)
#
#
# Indices 1 2 3 4 5 6 
#
# 1 0.016346 -0.005367 -0.005497 -0.007164 -0.004567 -0.000659
# 2 -0.005367 0.021258 -0.005216 -0.002389 -0.002020 -0.008083
# 3 -0.005497 -0.005216 0.015882 0.015168 0.000203 0.005243
# 4 -0.007164 -0.002389 0.015168 0.054318 0.007010 0.002454
# 5 -0.004567 -0.002020 0.000203 0.007010 0.028301 0.001398
# 6 -0.000659 -0.008083 0.005243 0.002454 0.001398 0.026660
#
#
# Mechanical properties :
#
#
# Convention : Reuss Voigt Hill
#
# Bulk Modulus (GPa) = 46.88713 57.00204 51.94458
# Shear Modulus (GPa) = 24.74837 33.44646 29.09742
#
# Velocity S-wave (km/s) = 3.25232 3.78090 3.52653
# Velocity P-wave (km/s) = 5.84322 6.58963 6.22762
#
# Compressibility (1/GPa) = 0.02132782
#
# Stress axis : x y z
#
# Youngs Moduli (GPa) = 61.17782 47.04002 62.96295
#
# Poissons Ratio (x) = 0.25247 0.34608
# Poissons Ratio (y) = 0.32835 0.32840
# Poissons Ratio (z) = 0.33627 0.24535
#
# Static dielectric constant tensor:
#      x y z
#    x 1.332480 0.090040 0.016900 
#    y 0.090040 1.942020 0.009060 
#    z 0.016900 0.009060 1.970620 
# 
# From -- ./inp_files/430303.got.cif
#   From: 2010.05.17/outbox.cif.g08.bks.cpg/sg2_216_cif.got.tgz:430303.got - 2010.06.03 11:33:40.
