data_PCOD9109252
_publ_section_title
;
Structure prediction by ZEFSAII (Michael W. Deem and Ramdas Pophale) SiO2 
 PCOD9109252
Probable space group: P -1
;
_chemical_formula_sum "Si O2"
_cell_formula_units_Z 16
_cell_length_a 11.368181
_cell_length_b 8.468038
_cell_length_c 11.807593
_cell_angle_alpha 127.860489
_cell_angle_beta 131.728556
_cell_angle_gamma 53.661160
_cell_volume 636.230491
_symmetry_space_group_name_H-M "P -1"
_symmetry_group_IT_number 2
_symmetry_cell_setting 'triclinic'
loop_
_space_group_symop_operation_xyz
x,y,z
-x,-y,-z
loop_
_atom_site_type_symbol
_atom_site_label
_atom_site_fract_x
_atom_site_fract_y
_atom_site_fract_z
Si Si1 0.173481 0.113731 0.220628
Si Si2 0.546483 0.676345 0.457021
Si Si3 0.145395 0.880622 0.878317
Si Si4 0.744663 0.240457 0.514912
Si Si5 0.910628 0.513522 0.830020
Si Si6 0.393126 0.438155 0.805954
Si Si7 0.319438 0.124934 0.783641
Si Si8 0.327571 0.192174 0.053848
O O1 0.334707 0.173642 0.389171
O O2 0.062289 0.325890 0.174633
O O3 0.051300 0.075812 0.220587
O O4 0.202106 0.929451 0.063899
O O5 0.649020 0.443092 0.465955
O O6 0.381714 0.765020 0.465929
O O7 0.518618 0.637030 0.289890
O O8 0.237678 0.650137 0.788712
O O9 0.210464 0.044569 0.923493
O O10 0.905437 0.295837 0.683663
O O11 0.787567 0.023994 0.380172
O O12 0.722081 0.633024 0.804910
O O13 0.000000 0.500000 0.000000
O O14 0.337110 0.251519 0.740884
O O15 0.500000 0.500000 0.000000
O O16 0.291477 0.279141 0.942047
O O17 0.491619 0.954313 0.860483
#
# Coordination Sequence:
#
# PCOD9109252 Si02
#       8
#     2   2   2   2   2   2   2   2
#     4   9  21  41  67  89 124 169 213 256 320 378
#     4  10  22  42  65  94 124 165 215 262 315 374
#     4  10  20  41  64  90 123 171 207 258 318 378
#     4  10  21  41  68  90 126 168 209 259 317 377
#     4  10  22  39  65  98 122 164 211 264 311 375
#     4  12  26  38  61  99 131 164 212 266 312 372
#     4  11  23  40  62  97 125 167 213 262 315 369
#     4  10  21  40  66  88 128 168 213 254 320 383
#
# _framework density 25.148119000000001
#
# number of rings (size 3 to 8) (size 9 to 14) (size 15 to 20)
#    0.000    1.750    1.250    3.750    5.250    1.000 
#    6.750    0.625    0.000    0.000    0.000    0.000 
#    0.000    0.000    0.000    0.000    0.000    0.000 
#
# Total GULP energy -89484.581779 kJ/mol
# GULP energy per Si atom -5592.786361 kJ/mol
# Density = 2.509088 g / cm^3
# Si number density = 25.148119 Si / 1000 Ang^3
#
#
#
# Elastic Constant Matrix: (Units=GPa)
#
#
# Indices 1 2 3 4 5 6 
#
# 1 65.6847 3.8720 34.6210 4.1913 -16.2722 6.4881
# 2 3.8720 51.9885 40.4161 8.8903 -0.3919 1.7274
# 3 34.6210 40.4161 121.0110 19.2504 3.6397 16.0580
# 4 4.1913 8.8903 19.2504 40.6012 4.4056 -3.2788
# 5 -16.2722 -0.3919 3.6397 4.4056 46.5704 4.8991
# 6 6.4881 1.7274 16.0580 -3.2788 4.8991 29.2472
#
#
#
# Elastic Compliance Matrix: (Units=1/GPa)
#
#
# Indices 1 2 3 4 5 6 
#
# 1 0.021187 0.004403 -0.007340 -0.000771 0.008341 -0.002414
# 2 0.004403 0.027307 -0.010569 -0.001477 0.002457 0.002636
# 3 -0.007340 -0.010569 0.015531 -0.004500 -0.002778 -0.006314
# 4 -0.000771 -0.001477 -0.004500 0.028038 -0.003258 0.006418
# 5 0.008341 0.002457 -0.002778 -0.003258 0.025470 -0.005102
# 6 -0.002414 0.002636 -0.006314 0.006418 -0.005102 0.039612
#
#
# Mechanical properties :
#
#
# Convention : Reuss Voigt Hill
#
# Bulk Modulus (GPa) = 27.01706 44.05583 35.53644
# Shear Modulus (GPa) = 25.44612 33.93544 29.69078
#
# Velocity S-wave (km/s) = 3.18441 3.67743 3.43977
# Velocity P-wave (km/s) = 4.92820 5.96556 5.47152
#
# Compressibility (1/GPa) = 0.03701365
#
# Stress axis : x y z
#
# Youngs Moduli (GPa) = 47.19778 36.62120 64.38827
#
# Poissons Ratio (x) = -0.16125 0.47262
# Poissons Ratio (y) = -0.20782 0.68049
# Poissons Ratio (z) = 0.34644 0.38703
#
# Static dielectric constant tensor:
#      x y z
#    x 2.045270 -0.065460 -0.010330 
#    y -0.065460 2.110870 -0.026050 
#    z -0.010330 -0.026050 2.002360 
# 
# From -- ./inp_files/420126.got.cif
#   From: 2010.05.17/outbox.cif.g08.bks.cpg/sg2_211_cif.got.tgz:420126.got - 2010.06.03 11:33:40.
