data_PCOD9109948
_publ_section_title
;
Structure prediction by ZEFSAII (Michael W. Deem and Ramdas Pophale) SiO2 
 PCOD9109948
Probable space group: P -1
;
_chemical_formula_sum "Si O2"
_cell_formula_units_Z 16
_cell_length_a 11.205277
_cell_length_b 11.625855
_cell_length_c 13.904810
_cell_angle_alpha 59.686994
_cell_angle_beta 147.192112
_cell_angle_gamma 96.441144
_cell_volume 631.190661
_symmetry_space_group_name_H-M "P -1"
_symmetry_group_IT_number 2
_symmetry_cell_setting 'triclinic'
loop_
_space_group_symop_operation_xyz
x,y,z
-x,-y,-z
loop_
_atom_site_type_symbol
_atom_site_label
_atom_site_fract_x
_atom_site_fract_y
_atom_site_fract_z
Si Si1 0.480380 0.654275 0.640337
Si Si2 0.051319 0.928908 0.916341
Si Si3 0.894671 0.195493 0.343417
Si Si4 0.414163 0.332201 0.493722
Si Si5 0.142682 0.152836 0.348864
Si Si6 0.442672 0.267174 0.141755
Si Si7 0.418640 0.147944 0.808943
Si Si8 0.161171 0.517637 0.453120
O O1 0.651784 0.566730 0.693158
O O2 0.647658 0.634177 0.857981
O O3 0.290700 0.598461 0.551012
O O4 0.245053 0.865851 0.367215
O O5 0.962060 0.835745 0.833907
O O6 0.233919 0.814915 0.181930
O O7 0.288263 0.922698 0.018907
O O8 0.640527 0.296810 0.207508
O O9 0.857521 0.247065 0.185132
O O10 0.163528 0.182562 0.558775
O O11 0.000000 0.000000 0.500000
O O12 0.293871 0.232266 0.435368
O O13 0.285017 0.443957 0.458265
O O14 0.369406 0.941500 0.618904
O O15 0.184913 0.335356 0.864748
O O16 0.264590 0.346677 0.654738
O O17 0.500000 0.000000 0.000000
#
# Coordination Sequence:
#
# PCOD9109948 Si02
#       8
#     2   2   2   2   2   2   2   2
#     4  11  24  43  66  98 138 176 220 280 331 392
#     4  10  22  40  69 100 131 170 231 272 327 391
#     4  10  20  41  68  94 130 173 216 276 324 391
#     4  11  23  42  67  98 133 179 230 271 329 391
#     4  10  20  42  69  96 130 181 225 277 321 386
#     4  10  24  42  64  99 136 176 225 271 336 396
#     4  11  22  43  66  94 128 171 224 268 331 401
#     4  11  25  42  64  96 137 175 220 275 339 399
#
# _framework density 25.348915999999999
#
# number of rings (size 3 to 8) (size 9 to 14) (size 15 to 20)
#    0.000    1.500    2.500    3.750    1.750    6.000 
#    4.500    2.500    0.000    0.000    0.000    0.000 
#    0.000    0.000    0.000    0.000    0.000    0.000 
#
# Total GULP energy -89528.455503 kJ/mol
# GULP energy per Si atom -5595.528469 kJ/mol
# Density = 2.529122 g / cm^3
# Si number density = 25.348916 Si / 1000 Ang^3
#
#
#
# Elastic Constant Matrix: (Units=GPa)
#
#
# Indices 1 2 3 4 5 6 
#
# 1 41.8001 10.5198 14.7256 -9.1903 -13.5482 1.3229
# 2 10.5198 108.3690 20.6197 16.9517 -20.7496 7.8546
# 3 14.7256 20.6197 92.8508 1.0655 -12.6638 3.3683
# 4 -9.1903 16.9517 1.0655 43.1574 1.7017 0.2818
# 5 -13.5482 -20.7496 -12.6638 1.7017 26.0260 1.5749
# 6 1.3229 7.8546 3.3683 0.2818 1.5749 23.8436
#
#
#
# Elastic Compliance Matrix: (Units=1/GPa)
#
#
# Indices 1 2 3 4 5 6 
#
# 1 0.031110 -0.000644 -0.002880 0.006411 0.013989 -0.002107
# 2 -0.000644 0.012540 -0.001129 -0.005389 0.009739 -0.004515
# 3 -0.002880 -0.001129 0.012022 -0.000599 0.003574 -0.001396
# 4 0.006411 -0.005389 -0.000599 0.026780 -0.003086 0.001392
# 5 0.013989 0.009739 0.003574 -0.003086 0.055904 -0.008145
# 6 -0.002107 -0.004515 -0.001396 0.001392 -0.008145 0.044263
#
#
# Mechanical properties :
#
#
# Convention : Reuss Voigt Hill
#
# Bulk Modulus (GPa) = 21.56692 37.19446 29.38069
# Shear Modulus (GPa) = 24.11023 31.74906 27.92964
#
# Velocity S-wave (km/s) = 3.08739 3.54288 3.32295
# Velocity P-wave (km/s) = 4.60823 5.60722 5.13209
#
# Compressibility (1/GPa) = 0.04636732
#
# Stress axis : x y z
#
# Youngs Moduli (GPa) = 32.14379 79.74449 83.17803
#
# Poissons Ratio (x) = 0.05133 0.23957
# Poissons Ratio (y) = 0.02069 0.09389
# Poissons Ratio (z) = 0.09258 0.09001
#
# Static dielectric constant tensor:
#      x y z
#    x 2.117190 -0.066110 0.018310 
#    y -0.066110 1.957330 -0.050090 
#    z 0.018310 -0.050090 1.994660 
# 
# From -- ./inp_files/519649.got.cif
#   From: 2010.05.17/outbox.cif.g08.bks.cpg/sg2_260_cif.got.tgz:519649.got - 2010.06.03 11:33:40.
