data_PCOD9109789
_publ_section_title
;
Structure prediction by ZEFSAII (Michael W. Deem and Ramdas Pophale) SiO2 
 PCOD9109789
Probable space group: P -1
;
_chemical_formula_sum "Si O2"
_cell_formula_units_Z 12
_cell_length_a 14.308737
_cell_length_b 7.743605
_cell_length_c 5.383703
_cell_angle_alpha 119.805306
_cell_angle_beta 67.434937
_cell_angle_gamma 102.725095
_cell_volume 477.661651
_symmetry_space_group_name_H-M "P -1"
_symmetry_group_IT_number 2
_symmetry_cell_setting 'triclinic'
loop_
_space_group_symop_operation_xyz
x,y,z
-x,-y,-z
loop_
_atom_site_type_symbol
_atom_site_label
_atom_site_fract_x
_atom_site_fract_y
_atom_site_fract_z
Si Si1 0.612434 0.804802 0.151560
Si Si2 0.087181 0.288001 0.141265
Si Si3 0.276111 0.587251 0.218822
Si Si4 0.213627 0.910794 0.917673
Si Si5 0.029852 0.773870 0.288455
Si Si6 0.585295 0.084766 0.792982
O O1 0.491960 0.814684 0.254155
O O2 0.687130 0.951698 0.015336
O O3 0.635330 0.901087 0.469107
O O4 0.647696 0.585349 0.911729
O O5 0.177313 0.453391 0.155989
O O6 0.014695 0.313230 0.472127
O O7 0.027266 0.302742 0.955495
O O8 0.139469 0.071883 0.974746
O O9 0.245586 0.738821 0.574935
O O10 0.339667 0.734635 0.075693
O O11 0.147952 0.802610 0.123257
O O12 0.000000 0.000000 0.500000
O O13 0.500000 0.000000 0.000000
#
# Coordination Sequence:
#
# PCOD9109789 Si02
#       6
#     2   2   2   2   2   2
#     4   9  20  41  61  89 126 159 214 262 322 387
#     4  10  22  42  63  96 131 174 219 264 318 381
#     4  10  21  41  60  95 128 163 213 269 323 386
#     4   9  19  38  62  90 125 171 209 264 321 378
#     4  10  20  41  67  92 131 177 217 263 317 381
#     4  10  21  41  65  89 119 167 210 264 328 386
#
# _framework density 25.122385999999999
#
# number of rings (size 3 to 8) (size 9 to 14) (size 15 to 20)
#    0.000    2.333    0.000    2.500    0.000    2.000 
#   42.000    0.000    0.000    0.000    0.000    0.000 
#    0.000    0.000    0.000    0.000    0.000    0.000 
#
# Total GULP energy -67052.377791 kJ/mol
# GULP energy per Si atom -5587.698149 kJ/mol
# Density = 2.506521 g / cm^3
# Si number density = 25.122386 Si / 1000 Ang^3
#
#
#
# Elastic Constant Matrix: (Units=GPa)
#
#
# Indices 1 2 3 4 5 6 
#
# 1 115.4619 38.1955 33.6137 6.3338 -9.2351 25.8896
# 2 38.1955 210.7068 79.1565 -3.7620 -4.0298 12.8645
# 3 33.6137 79.1565 140.8294 5.8980 -16.1241 -0.3554
# 4 6.3338 -3.7620 5.8980 58.1379 -2.8303 -6.8554
# 5 -9.2351 -4.0298 -16.1241 -2.8303 42.6612 4.1572
# 6 25.8896 12.8645 -0.3554 -6.8554 4.1572 47.7154
#
#
#
# Elastic Compliance Matrix: (Units=1/GPa)
#
#
# Indices 1 2 3 4 5 6 
#
# 1 0.011176 -0.000944 -0.001836 -0.001726 0.002131 -0.006257
# 2 -0.000944 0.006260 -0.003411 0.000695 -0.000755 -0.001035
# 3 -0.001836 -0.003411 0.009808 -0.000686 0.002781 0.001648
# 4 -0.001726 0.000695 -0.000686 0.017906 0.000300 0.003291
# 5 0.002131 -0.000755 0.002781 0.000300 0.025202 -0.003085
# 6 -0.006257 -0.001035 0.001648 0.003291 -0.003085 0.025385
#
#
# Mechanical properties :
#
#
# Convention : Reuss Voigt Hill
#
# Bulk Modulus (GPa) = 67.29499 85.43662 76.36580
# Shear Modulus (GPa) = 44.21908 50.77172 47.49540
#
# Velocity S-wave (km/s) = 4.19996 4.50040 4.35278
# Velocity P-wave (km/s) = 7.09680 7.81581 7.46497
#
# Compressibility (1/GPa) = 0.01485995
#
# Stress axis : x y z
#
# Youngs Moduli (GPa) = 89.47863 159.75023 101.95962
#
# Poissons Ratio (x) = 0.15082 0.18723
# Poissons Ratio (y) = 0.08448 0.34782
# Poissons Ratio (z) = 0.16431 0.54496
#
# Static dielectric constant tensor:
#      x y z
#    x 2.095210 -0.274600 0.070800 
#    y -0.274600 1.170870 0.064420 
#    z 0.070800 0.064420 1.940190 
# 
# From -- ./inp_files/105893.got.cif
#   From: 2010.05.17/outbox.cif.g08.bks.cpg/sg2_53_cif.got.tgz:105893.got - 2010.06.03 11:33:40.
