data_PCOD9109062
_publ_section_title
;
Structure prediction by ZEFSAII (Michael W. Deem and Ramdas Pophale) SiO2 
 PCOD9109062
Probable space group: P -1
;
_chemical_formula_sum "Si O2"
_cell_formula_units_Z 16
_cell_length_a 7.742227
_cell_length_b 9.072616
_cell_length_c 12.384484
_cell_angle_alpha 125.101877
_cell_angle_beta 97.606681
_cell_angle_gamma 67.261100
_cell_volume 651.711840
_symmetry_space_group_name_H-M "P -1"
_symmetry_group_IT_number 2
_symmetry_cell_setting 'triclinic'
loop_
_space_group_symop_operation_xyz
x,y,z
-x,-y,-z
loop_
_atom_site_type_symbol
_atom_site_label
_atom_site_fract_x
_atom_site_fract_y
_atom_site_fract_z
Si Si1 0.759249 0.382116 0.968313
Si Si2 0.635922 0.174851 0.258977
Si Si3 0.816602 0.742011 0.063246
Si Si4 0.977183 0.219381 0.408038
Si Si5 0.203780 0.350191 0.324625
Si Si6 0.362449 0.477001 0.747739
Si Si7 0.016898 0.383363 0.734875
Si Si8 0.754875 0.164499 0.666230
O O1 0.737056 0.571930 0.973809
O O2 0.642790 0.451440 0.097434
O O3 0.738566 0.225857 0.818369
O O4 0.979083 0.296209 0.986216
O O5 0.425787 0.250186 0.320565
O O6 0.644042 0.343260 0.250878
O O7 0.810029 0.143636 0.341456
O O8 0.679486 0.961320 0.123507
O O9 0.878024 0.699114 0.177740
O O10 0.085203 0.233305 0.313491
O O11 0.876771 0.437458 0.535855
O O12 0.146522 0.066859 0.427594
O O13 0.151166 0.406307 0.219364
O O14 0.185552 0.412075 0.694052
O O15 0.548258 0.287436 0.657485
O O16 0.898563 0.246095 0.656472
#
# Coordination Sequence:
#
# PCOD9109062 Si02
#       8
#     2   2   2   2   2   2   2   2
#     4   9  19  39  62  89 129 162 208 251 303 364
#     4  12  22  43  64  93 128 163 206 256 316 364
#     4   9  20  38  65  90 126 168 201 255 307 363
#     4  11  25  44  65  92 124 164 209 256 318 365
#     4  11  25  43  65  93 126 161 206 265 308 370
#     4  11  23  37  66  94 126 166 208 250 307 373
#     4  10  20  41  62  89 129 157 203 263 297 365
#     4  11  22  43  65  91 124 170 207 252 310 368
#
# _framework density 24.550727999999999
#
# number of rings (size 3 to 8) (size 9 to 14) (size 15 to 20)
#    0.000    1.500    5.000    1.500    3.500    1.000 
#    0.000    1.250    0.000    0.000    0.000    0.000 
#    0.000    0.000    0.000    0.000    0.000    0.000 
#
# Total GULP energy -89275.906889 kJ/mol
# GULP energy per Si atom -5579.744181 kJ/mol
# Density = 2.449485 g / cm^3
# Si number density = 24.550728 Si / 1000 Ang^3
#
#
#
# Elastic Constant Matrix: (Units=GPa)
#
#
# Indices 1 2 3 4 5 6 
#
# 1 129.0477 28.0590 25.2719 18.3530 -23.3857 -17.7974
# 2 28.0590 109.5080 17.8392 33.2634 -23.7617 -16.5436
# 3 25.2719 17.8392 64.0745 24.4764 -15.3608 -9.4219
# 4 18.3530 33.2634 24.4764 51.9921 -5.8614 -9.2587
# 5 -23.3857 -23.7617 -15.3608 -5.8614 35.2933 6.1156
# 6 -17.7974 -16.5436 -9.4219 -9.2587 6.1156 11.1611
#
#
#
# Elastic Compliance Matrix: (Units=1/GPa)
#
#
# Indices 1 2 3 4 5 6 
#
# 1 0.010667 0.000810 -0.000932 -0.000789 0.004609 0.014244
# 2 0.000810 0.014643 0.002399 -0.007288 0.007669 0.014773
# 3 -0.000932 0.002399 0.021874 -0.009074 0.007465 0.008917
# 4 -0.000789 -0.007288 -0.009074 0.029152 -0.005868 0.007678
# 5 0.004609 0.007669 0.007465 -0.005868 0.039041 -0.001241
# 6 0.014244 0.014773 0.008917 0.007678 -0.001241 0.148784
#
#
# Mechanical properties :
#
#
# Convention : Reuss Voigt Hill
#
# Bulk Modulus (GPa) = 19.32844 49.44117 34.38480
# Shear Modulus (GPa) = 18.06004 35.11996 26.59000
#
# Velocity S-wave (km/s) = 2.71518 3.78631 3.29456
# Velocity P-wave (km/s) = 4.20946 6.26872 5.33931
#
# Compressibility (1/GPa) = 0.05173723
#
# Stress axis : x y z
#
# Youngs Moduli (GPa) = 93.74437 68.29123 45.71722
#
# Poissons Ratio (x) = -0.05532 0.04261
# Poissons Ratio (y) = -0.07594 -0.10966
# Poissons Ratio (z) = 0.08738 -0.16380
#
# Static dielectric constant tensor:
#      x y z
#    x 1.950220 -0.044190 0.017110 
#    y -0.044190 1.941930 -0.116650 
#    z 0.017110 -0.116650 2.226110 
# 
# From -- ./inp_files/493634.got.cif
#   From: 2010.05.17/outbox.cif.g08.bks.cpg/sg2_247_cif.got.tgz:493634.got - 2010.06.03 11:33:40.
