data_PCOD9109950
_publ_section_title
;
Structure prediction by ZEFSAII (Michael W. Deem and Ramdas Pophale) SiO2 
 PCOD9109950
Probable space group: P -1
;
_chemical_formula_sum "Si O2"
_cell_formula_units_Z 14
_cell_length_a 18.616736
_cell_length_b 12.713209
_cell_length_c 5.693908
_cell_angle_alpha 108.637451
_cell_angle_beta 68.785930
_cell_angle_gamma 154.461148
_cell_volume 541.541100
_symmetry_space_group_name_H-M "P -1"
_symmetry_group_IT_number 2
_symmetry_cell_setting 'triclinic'
loop_
_space_group_symop_operation_xyz
x,y,z
-x,-y,-z
loop_
_atom_site_type_symbol
_atom_site_label
_atom_site_fract_x
_atom_site_fract_y
_atom_site_fract_z
Si Si1 0.819421 0.679282 0.600997
Si Si2 0.329753 0.268231 0.180799
Si Si3 0.533439 0.753513 0.752455
Si Si4 0.037992 0.731114 0.045886
Si Si5 0.117853 0.601494 0.636812
Si Si6 0.546132 0.882680 0.335916
Si Si7 0.143745 0.320268 0.943247
O O1 0.734720 0.690806 0.683313
O O2 0.660152 0.388688 0.601789
O O3 0.922092 0.791397 0.321385
O O4 0.920432 0.800847 0.813590
O O5 0.386560 0.265381 0.329846
O O6 0.189847 0.012685 0.036786
O O7 0.500000 0.500000 0.000000
O O8 0.588391 0.867686 0.514728
O O9 0.330415 0.506631 0.835263
O O10 0.579720 0.880220 0.028373
O O11 0.969254 0.619263 0.309335
O O12 0.883409 0.581032 0.964637
O O13 0.103235 0.694053 0.877429
O O14 0.000000 0.500000 0.500000
O O15 0.322601 0.848279 0.575532
#
# Coordination Sequence:
#
# PCOD9109950 Si02
#       7
#     2   2   2   2   2   2   2
#     4  10  23  42  69  99 140 175 225 268 337 405
#     4  12  21  43  72 101 133 186 225 276 330 406
#     4  10  21  40  67  98 134 174 225 268 325 396
#     4  11  26  43  68  98 139 175 226 280 343 394
#     4  11  24  44  68  99 131 180 230 281 332 403
#     4  10  20  41  68  94 133 172 223 279 318 395
#     4  10  23  44  64 101 142 174 216 280 337 401
#
# _framework density 25.852145
#
# number of rings (size 3 to 8) (size 9 to 14) (size 15 to 20)
#    0.000    1.429    4.286    0.857    4.000    4.571 
#    2.571    5.714    0.000    0.000    0.000    0.000 
#    0.000    0.000    0.000    0.000    0.000    0.000 
#
# Total GULP energy -77985.915259 kJ/mol
# GULP energy per Si atom -5570.422518 kJ/mol
# Density = 2.579330 g / cm^3
# Si number density = 25.852145 Si / 1000 Ang^3
#
#
#
# Elastic Constant Matrix: (Units=GPa)
#
#
# Indices 1 2 3 4 5 6 
#
# 1 113.9172 12.4714 20.7394 -6.9262 16.7290 -6.9449
# 2 12.4714 149.4237 39.9713 6.8179 3.0643 -1.5628
# 3 20.7394 39.9713 150.1048 -2.8325 45.7376 -5.6359
# 4 -6.9262 6.8179 -2.8325 20.7809 0.0794 7.8252
# 5 16.7290 3.0643 45.7376 0.0794 46.7871 -8.3621
# 6 -6.9449 -1.5628 -5.6359 7.8252 -8.3621 40.0884
#
#
#
# Elastic Compliance Matrix: (Units=1/GPa)
#
#
# Indices 1 2 3 4 5 6 
#
# 1 0.009587 -0.000884 -0.000002 0.003396 -0.003326 0.000269
# 2 -0.000884 0.007622 -0.002760 -0.003564 0.002703 0.001015
# 3 -0.000002 -0.002760 0.010569 0.002896 -0.010398 -0.001356
# 4 0.003396 -0.003564 0.002896 0.055024 -0.005892 -0.011113
# 5 -0.003326 0.002703 -0.010398 -0.005892 0.033676 0.006242
# 6 0.000269 0.001015 -0.001356 -0.011113 0.006242 0.028312
#
#
# Mechanical properties :
#
#
# Convention : Reuss Voigt Hill
#
# Bulk Modulus (GPa) = 48.81076 62.20111 55.50593
# Shear Modulus (GPa) = 31.46412 44.21551 37.83982
#
# Velocity S-wave (km/s) = 3.49245 4.14009 3.82999
# Velocity P-wave (km/s) = 5.93167 6.85320 6.40902
#
# Compressibility (1/GPa) = 0.02048728
#
# Stress axis : x y z
#
# Youngs Moduli (GPa) = 104.31152 131.19315 94.61264
#
# Poissons Ratio (x) = 0.11593 0.00015
# Poissons Ratio (y) = 0.09217 0.26116
# Poissons Ratio (z) = 0.00017 0.36213
#
# Static dielectric constant tensor:
#      x y z
#    x 2.147780 0.018580 -0.068940 
#    y 0.018580 2.191780 -0.021450 
#    z -0.068940 -0.021450 2.254760 
# 
# From -- ./inp_files/101634.got.cif
#   From: 2010.05.17/outbox.cif.g08.bks.cpg/sg2_51_cif.got.tgz:101634.got - 2010.06.03 11:33:40.
