data_PCOD9109373
_publ_section_title
;
Structure prediction by ZEFSAII (Michael W. Deem and Ramdas Pophale) SiO2 
 PCOD9109373
Probable space group: P -1
;
_chemical_formula_sum "Si O2"
_cell_formula_units_Z 16
_cell_length_a 7.932472
_cell_length_b 8.106016
_cell_length_c 17.900836
_cell_angle_alpha 83.857826
_cell_angle_beta 59.202397
_cell_angle_gamma 128.432528
_cell_volume 600.217459
_symmetry_space_group_name_H-M "P -1"
_symmetry_group_IT_number 2
_symmetry_cell_setting 'triclinic'
loop_
_space_group_symop_operation_xyz
x,y,z
-x,-y,-z
loop_
_atom_site_type_symbol
_atom_site_label
_atom_site_fract_x
_atom_site_fract_y
_atom_site_fract_z
Si Si1 0.118909 0.185652 0.190824
Si Si2 0.489151 0.881662 0.373740
Si Si3 0.246820 0.520921 0.009206
Si Si4 0.718277 0.340482 0.734699
Si Si5 0.730683 0.102759 0.026718
Si Si6 0.279733 0.336223 0.788558
Si Si7 0.728286 0.918268 0.609204
Si Si8 0.198724 0.421996 0.565655
O O1 0.200731 0.367318 0.096128
O O2 0.467859 0.344016 0.118356
O O3 0.859611 0.108424 0.303394
O O4 0.895299 0.885454 0.225978
O O5 0.447792 0.847099 0.294741
O O6 0.286127 0.593198 0.465668
O O7 0.359671 0.974258 0.420884
O O8 0.919323 0.289487 0.049492
O O9 0.334863 0.765027 0.004129
O O10 0.585017 0.438679 0.747045
O O11 0.063282 0.477649 0.647085
O O12 0.565782 0.189348 0.855695
O O13 0.990307 0.167957 0.920727
O O14 0.423664 0.602839 0.712287
O O15 0.000000 0.000000 0.500000
O O16 0.905565 0.099501 0.634962
O O17 0.500000 0.500000 0.500000
#
# Coordination Sequence:
#
# PCOD9109373 Si02
#       8
#     2   2   2   2   2   2   2   2
#     4  10  21  40  61  89 126 162 205 251 302 364
#     4  10  20  41  65  87 118 164 206 242 310 376
#     4  10  22  37  61  88 125 162 211 243 298 365
#     4  10  21  41  61  90 123 169 201 247 308 376
#     4  11  22  37  63  91 124 164 209 249 303 365
#     4  11  22  37  65  93 127 162 206 251 309 361
#     4  11  22  41  67  92 121 166 208 251 309 371
#     4  11  25  42  69  91 119 157 211 262 305 359
#
# _framework density 26.657005000000002
#
# number of rings (size 3 to 8) (size 9 to 14) (size 15 to 20)
#    0.000    1.500    2.500    4.875    7.000    0.500 
#    0.000    3.750    0.000    0.000    0.000    0.000 
#    0.000    0.000    0.000    0.000    0.000    0.000 
#
# Total GULP energy -89440.698522 kJ/mol
# GULP energy per Si atom -5590.043658 kJ/mol
# Density = 2.659633 g / cm^3
# Si number density = 26.657005 Si / 1000 Ang^3
#
#
#
# Elastic Constant Matrix: (Units=GPa)
#
#
# Indices 1 2 3 4 5 6 
#
# 1 110.4494 33.6516 42.6268 -4.2415 -18.0424 -25.3156
# 2 33.6516 77.7973 25.9484 -0.5281 -5.0133 -25.0690
# 3 42.6268 25.9484 148.1409 5.3679 -9.1628 -19.5407
# 4 -4.2415 -0.5281 5.3679 48.5802 -11.8430 -9.8417
# 5 -18.0424 -5.0133 -9.1628 -11.8430 45.4015 6.2697
# 6 -25.3156 -25.0690 -19.5407 -9.8417 6.2697 43.9034
#
#
#
# Elastic Compliance Matrix: (Units=1/GPa)
#
#
# Indices 1 2 3 4 5 6 
#
# 1 0.012832 -0.002887 -0.002397 0.003431 0.004528 0.004806
# 2 -0.002887 0.017054 -0.001179 0.001630 -0.000173 0.007938
# 3 -0.002397 -0.001179 0.007847 -0.000809 0.000119 0.001239
# 4 0.003431 0.001630 -0.000809 0.024036 0.006686 0.006982
# 5 0.004528 -0.000173 0.000119 0.006686 0.025516 0.000420
# 6 0.004806 0.007938 0.001239 0.006982 0.000420 0.032138
#
#
# Mechanical properties :
#
#
# Convention : Reuss Voigt Hill
#
# Bulk Modulus (GPa) = 40.31266 60.09346 50.20306
# Shear Modulus (GPa) = 35.55768 43.18775 39.37272
#
# Velocity S-wave (km/s) = 3.65622 4.02945 3.84736
# Velocity P-wave (km/s) = 5.74277 6.65137 6.21370
#
# Compressibility (1/GPa) = 0.02480610
#
# Stress axis : x y z
#
# Youngs Moduli (GPa) = 77.93216 58.63754 127.44389
#
# Poissons Ratio (x) = 0.16930 0.30546
# Poissons Ratio (y) = 0.22500 0.15026
# Poissons Ratio (z) = 0.18679 0.06914
#
# Static dielectric constant tensor:
#      x y z
#    x 2.219960 0.039460 -0.049710 
#    y 0.039460 2.183060 0.036820 
#    z -0.049710 0.036820 2.016950 
# 
# From -- ./inp_files/606725.got.cif
#   From: 2010.05.17/outbox.cif.g08.bks.cpg/sg2_304_cif.got.tgz:606725.got - 2010.06.03 11:33:40.
