data_PCOD9109557
_publ_section_title
;
Structure prediction by ZEFSAII (Michael W. Deem and Ramdas Pophale) SiO2 
 PCOD9109557
Probable space group: P -1
;
_chemical_formula_sum "Si O2"
_cell_formula_units_Z 16
_cell_length_a 15.273901
_cell_length_b 7.791567
_cell_length_c 9.252254
_cell_angle_alpha 120.606130
_cell_angle_beta 59.341816
_cell_angle_gamma 82.563429
_cell_volume 693.611298
_symmetry_space_group_name_H-M "P -1"
_symmetry_group_IT_number 2
_symmetry_cell_setting 'triclinic'
loop_
_space_group_symop_operation_xyz
x,y,z
-x,-y,-z
loop_
_atom_site_type_symbol
_atom_site_label
_atom_site_fract_x
_atom_site_fract_y
_atom_site_fract_z
Si Si1 0.355563 0.242279 0.590868
Si Si2 0.443445 0.858352 0.126068
Si Si3 0.713402 0.995740 0.946670
Si Si4 0.881743 0.436317 0.511604
Si Si5 0.333065 0.618040 0.299990
Si Si6 0.099407 0.436172 0.765922
Si Si7 0.922992 0.894947 0.570706
Si Si8 0.589359 0.189424 0.434325
O O1 0.217097 0.401284 0.731911
O O2 0.445058 0.326800 0.597209
O O3 0.416448 0.086669 0.330739
O O4 0.371379 0.051165 0.614736
O O5 0.365253 0.765443 0.229470
O O6 0.396801 0.919046 0.030830
O O7 0.579216 0.650412 0.935099
O O8 0.793892 0.711770 0.743678
O O9 0.804089 0.066737 0.834656
O O10 0.663469 0.102882 0.188748
O O11 0.800353 0.323707 0.553508
O O12 0.922139 0.411717 0.297999
O O13 0.988379 0.312150 0.482991
O O14 0.374579 0.657615 0.436997
O O15 0.115282 0.204838 0.574550
O O16 0.000000 0.500000 0.000000
O O17 0.000000 0.000000 0.500000
#
# Coordination Sequence:
#
# PCOD9109557 Si02
#       8
#     2   2   2   2   2   2   2   2
#     4  10  21  43  63  91 129 173 208 253 325 381
#     4  10  20  41  66  87 133 165 215 250 328 374
#     4  11  22  41  67  95 125 169 213 268 312 387
#     4  11  24  42  68  94 129 170 219 257 322 383
#     4  10  23  41  62  98 130 169 206 269 316 382
#     4  11  25  44  67  95 128 170 214 266 316 385
#     4  11  25  46  67  96 126 172 217 267 318 381
#     4  10  24  38  65  96 132 163 210 268 315 378
#
# _framework density 23.067674
#
# number of rings (size 3 to 8) (size 9 to 14) (size 15 to 20)
#    0.000    1.500    2.500    3.000    7.000    3.500 
#    2.250    1.250    0.000    0.000    0.000    0.000 
#    0.000    0.000    0.000    0.000    0.000    0.000 
#
# Total GULP energy -89454.851798 kJ/mol
# GULP energy per Si atom -5590.928237 kJ/mol
# Density = 2.301517 g / cm^3
# Si number density = 23.067674 Si / 1000 Ang^3
#
#
#
# Elastic Constant Matrix: (Units=GPa)
#
#
# Indices 1 2 3 4 5 6 
#
# 1 116.7817 8.3114 29.1791 -9.1977 -21.3693 -4.9214
# 2 8.3114 59.8681 20.6566 -21.3519 -11.3566 -8.9722
# 3 29.1791 20.6566 116.2455 -39.7203 -8.8257 -9.3112
# 4 -9.1977 -21.3519 -39.7203 35.3827 2.7145 -6.2257
# 5 -21.3693 -11.3566 -8.8257 2.7145 27.5425 -4.2298
# 6 -4.9214 -8.9722 -9.3112 -6.2257 -4.2298 43.0483
#
#
#
# Elastic Compliance Matrix: (Units=1/GPa)
#
#
# Indices 1 2 3 4 5 6 
#
# 1 0.010647 0.001707 -0.001483 0.001886 0.008668 0.002377
# 2 0.001707 0.027457 0.004552 0.023117 0.013604 0.011582
# 3 -0.001483 0.004552 0.016827 0.022289 0.005174 0.008151
# 4 0.001886 0.023117 0.022289 0.070388 0.014496 0.021459
# 5 0.008668 0.013604 0.005174 0.014496 0.050718 0.012025
# 6 0.002377 0.011582 0.008151 0.021459 0.012025 0.031963
#
#
# Mechanical properties :
#
#
# Convention : Reuss Voigt Hill
#
# Bulk Modulus (GPa) = 15.50791 45.46550 30.48671
# Shear Modulus (GPa) = 22.73315 36.84459 29.78887
#
# Velocity S-wave (km/s) = 3.14267 4.00088 3.59746
# Velocity P-wave (km/s) = 4.46160 6.41055 5.52273
#
# Compressibility (1/GPa) = 0.06448320
#
# Stress axis : x y z
#
# Youngs Moduli (GPa) = 93.92429 36.42076 59.42654
#
# Poissons Ratio (x) = -0.06216 0.08812
# Poissons Ratio (y) = -0.16030 -0.27051
# Poissons Ratio (z) = 0.13927 -0.16579
#
# Static dielectric constant tensor:
#      x y z
#    x 1.885230 0.027080 -0.009380 
#    y 0.027080 1.951450 -0.002290 
#    z -0.009380 -0.002290 1.826340 
# 
# From -- ./inp_files/225855.got.cif
#   From: 2010.05.17/outbox.cif.g08.bks.cpg/sg2_113_cif.got.tgz:225855.got - 2010.06.03 11:33:40.
