data_PCOD9109749
_publ_section_title
;
Structure prediction by ZEFSAII (Michael W. Deem and Ramdas Pophale) SiO2 
 PCOD9109749
Probable space group: P -1
;
_chemical_formula_sum "Si O2"
_cell_formula_units_Z 16
_cell_length_a 25.477896
_cell_length_b 18.702601
_cell_length_c 6.609703
_cell_angle_alpha 110.757198
_cell_angle_beta 120.660719
_cell_angle_gamma 18.572385
_cell_volume 761.286626
_symmetry_space_group_name_H-M "P -1"
_symmetry_group_IT_number 2
_symmetry_cell_setting 'triclinic'
loop_
_space_group_symop_operation_xyz
x,y,z
-x,-y,-z
loop_
_atom_site_type_symbol
_atom_site_label
_atom_site_fract_x
_atom_site_fract_y
_atom_site_fract_z
Si Si1 0.844334 0.114728 0.325160
Si Si2 0.070322 0.703879 0.560820
Si Si3 0.877418 0.463935 0.878760
Si Si4 0.287081 0.231076 0.414765
Si Si5 0.226164 0.021261 0.431994
Si Si6 0.444353 0.615105 0.306795
Si Si7 0.774956 0.799641 0.400965
Si Si8 0.361852 0.265845 0.922182
O O1 0.641326 0.380404 0.314982
O O2 0.971073 0.900760 0.489017
O O3 0.747129 0.192618 0.005369
O O4 0.000000 0.000000 0.500000
O O5 0.145080 0.571219 0.374838
O O6 0.264886 0.461399 0.848438
O O7 0.893806 0.870165 0.503198
O O8 0.876053 0.547459 0.849266
O O9 0.704329 0.665792 0.909150
O O10 0.076729 0.204903 0.131325
O O11 0.271240 0.168280 0.424596
O O12 0.262762 0.317828 0.644847
O O13 0.500000 0.000000 0.500000
O O14 0.394622 0.759605 0.433643
O O15 0.265373 0.063389 0.585005
O O16 0.500000 0.500000 0.500000
O O17 0.000000 0.500000 0.500000
O O18 0.602224 0.968958 0.089814
#
# Coordination Sequence:
#
# PCOD9109749 Si02
#       8
#     2   2   2   2   2   2   2   2
#     4  11  25  45  74 110 139 186 245 286 359 445
#     4  10  21  44  68  95 132 179 223 279 346 417
#     4  10  20  41  67  88 131 179 216 274 343 400
#     4  11  23  42  65  88 126 179 229 281 337 392
#     4  11  24  43  67  98 139 179 221 284 358 406
#     4  11  24  48  75 103 155 183 224 310 362 419
#     4  12  25  42  64 100 135 177 233 282 342 420
#     4  10  23  41  65  91 134 180 227 282 341 411
#
# _framework density 21.017050000000001
#
# number of rings (size 3 to 8) (size 9 to 14) (size 15 to 20)
#    0.000    1.250    3.750    2.625    1.750    3.000 
#    2.250    0.000    0.000    0.000    0.000    0.000 
#    0.000    0.000    0.000    0.000    0.000    0.000 
#
# Total GULP energy -89225.259186 kJ/mol
# GULP energy per Si atom -5576.578699 kJ/mol
# Density = 2.096921 g / cm^3
# Si number density = 21.017050 Si / 1000 Ang^3
#
#
#
# Elastic Constant Matrix: (Units=GPa)
#
#
# Indices 1 2 3 4 5 6 
#
# 1 138.6204 35.6542 56.1052 -8.9045 -24.3748 17.9209
# 2 35.6542 107.7818 35.4347 0.2995 -2.2853 9.5907
# 3 56.1052 35.4347 92.2108 -9.5891 -15.8812 0.6310
# 4 -8.9045 0.2995 -9.5891 40.9336 0.8772 -8.2293
# 5 -24.3748 -2.2853 -15.8812 0.8772 31.6055 -3.2852
# 6 17.9209 9.5907 0.6310 -8.2293 -3.2852 34.3448
#
#
#
# Elastic Compliance Matrix: (Units=1/GPa)
#
#
# Indices 1 2 3 4 5 6 
#
# 1 0.011353 -0.001442 -0.005370 0.000126 0.005443 -0.004872
# 2 -0.001442 0.011325 -0.004104 -0.001914 -0.002618 -0.003044
# 3 -0.005370 -0.004104 0.016800 0.003698 0.004415 0.004948
# 4 0.000126 -0.001914 0.003698 0.026700 0.001800 0.006970
# 5 0.005443 -0.002618 0.004415 0.001800 0.038013 0.001877
# 6 -0.004872 -0.003044 0.004948 0.006970 0.001877 0.034267
#
#
# Mechanical properties :
#
#
# Convention : Reuss Voigt Hill
#
# Bulk Modulus (GPa) = 56.66553 65.88903 61.27728
# Shear Modulus (GPa) = 30.08942 35.47137 32.78040
#
# Velocity S-wave (km/s) = 3.78784 4.11267 3.95359
# Velocity P-wave (km/s) = 6.79342 7.34646 7.07534
#
# Compressibility (1/GPa) = 0.01764741
#
# Stress axis : x y z
#
# Youngs Moduli (GPa) = 88.08036 88.30234 59.52354
#
# Poissons Ratio (x) = 0.12730 0.31963
# Poissons Ratio (y) = 0.12698 0.24427
# Poissons Ratio (z) = 0.47298 0.36238
#
# Static dielectric constant tensor:
#      x y z
#    x 1.829700 0.029760 0.047670 
#    y 0.029760 1.809060 0.007680 
#    z 0.047670 0.007680 1.831170 
# 
# From -- ./inp_files/124838.got.cif
#   From: 2010.05.17/outbox.cif.g08.bks.cpg/sg2_63_cif.got.tgz:124838.got - 2010.06.03 11:33:40.
