data_PCOD9109178
_publ_section_title
;
Structure prediction by ZEFSAII (Michael W. Deem and Ramdas Pophale) SiO2 
 PCOD9109178
Probable space group: P -1
;
_chemical_formula_sum "Si O2"
_cell_formula_units_Z 12
_cell_length_a 8.127397
_cell_length_b 5.362028
_cell_length_c 18.832545
_cell_angle_alpha 114.290720
_cell_angle_beta 135.614394
_cell_angle_gamma 61.288228
_cell_volume 500.382580
_symmetry_space_group_name_H-M "P -1"
_symmetry_group_IT_number 2
_symmetry_cell_setting 'triclinic'
loop_
_space_group_symop_operation_xyz
x,y,z
-x,-y,-z
loop_
_atom_site_type_symbol
_atom_site_label
_atom_site_fract_x
_atom_site_fract_y
_atom_site_fract_z
Si Si1 0.206587 0.431273 0.724152
Si Si2 0.566444 0.757145 0.087207
Si Si3 0.162418 0.197993 0.542386
Si Si4 0.958289 0.081548 0.772571
Si Si5 0.942232 0.838566 0.032804
Si Si6 0.705831 0.264061 0.579519
O O1 0.414915 0.297968 0.829666
O O2 0.301581 0.294509 0.661582
O O3 0.964218 0.329875 0.651531
O O4 0.100694 0.772809 0.744653
O O5 0.840582 0.747123 0.149843
O O6 0.500000 0.500000 0.000000
O O7 0.353897 0.039644 0.034884
O O8 0.000000 0.500000 0.500000
O O9 0.290666 0.027553 0.493201
O O10 0.000000 0.000000 0.500000
O O11 0.928619 0.071398 0.847016
O O12 0.727437 0.227182 0.667298
O O13 0.000000 0.500000 0.000000
O O14 0.000000 0.000000 0.000000
O O15 0.500000 0.500000 0.500000
#
# Coordination Sequence:
#
# PCOD9109178 Si02
#       6
#     2   2   2   2   2   2
#     4  10  22  40  70  97 134 185 245 280 346 430
#     4  11  23  44  73  98 135 194 242 281 349 439
#     4  10  20  41  63  94 130 173 225 284 334 412
#     4  11  23  44  73  98 140 194 242 282 357 437
#     4  12  28  45  67 106 148 179 232 305 360 410
#     4  10  23  42  68 103 142 182 231 298 362 416
#
# _framework density 23.981649000000001
#
# number of rings (size 3 to 8) (size 9 to 14) (size 15 to 20)
#    0.000    1.333    3.333    1.500    4.667    2.000 
#    0.000    0.000    0.000    0.000    0.000    0.000 
#    0.000    0.000    0.000    0.000    0.000    0.000 
#
# Total GULP energy -67058.047020 kJ/mol
# GULP energy per Si atom -5588.170585 kJ/mol
# Density = 2.392707 g / cm^3
# Si number density = 23.981649 Si / 1000 Ang^3
#
#
#
# Elastic Constant Matrix: (Units=GPa)
#
#
# Indices 1 2 3 4 5 6 
#
# 1 87.3563 18.2656 57.6125 0.7587 -21.2240 8.4258
# 2 18.2656 171.6691 81.8987 -4.4928 -15.5662 -7.1262
# 3 57.6125 81.8987 244.7809 -15.8951 -46.0786 -4.1912
# 4 0.7587 -4.4928 -15.8951 58.1660 5.8923 1.8160
# 5 -21.2240 -15.5662 -46.0786 5.8923 60.5374 0.2360
# 6 8.4258 -7.1262 -4.1912 1.8160 0.2360 32.6471
#
#
#
# Elastic Compliance Matrix: (Units=1/GPa)
#
#
# Indices 1 2 3 4 5 6 
#
# 1 0.014559 -0.000051 -0.003004 -0.001184 0.002936 -0.004110
# 2 -0.000051 0.006982 -0.002305 -0.000132 0.000031 0.001248
# 3 -0.003004 -0.002305 0.006218 0.001230 0.002963 0.000981
# 4 -0.001184 -0.000132 0.001230 0.017675 -0.001231 -0.000540
# 5 0.002936 0.000031 0.002963 -0.001231 0.019933 -0.000446
# 6 -0.004110 0.001248 0.000981 -0.000540 -0.000446 0.032123
#
#
# Mechanical properties :
#
#
# Convention : Reuss Voigt Hill
#
# Bulk Modulus (GPa) = 58.69377 91.03997 74.86687
# Shear Modulus (GPa) = 43.90172 53.33872 48.62022
#
# Velocity S-wave (km/s) = 4.28324 4.72120 4.50754
# Velocity P-wave (km/s) = 6.99922 8.23192 7.64047
#
# Compressibility (1/GPa) = 0.01703758
#
# Stress axis : x y z
#
# Youngs Moduli (GPa) = 68.68434 143.23511 160.81956
#
# Poissons Ratio (x) = 0.00735 0.48313
# Poissons Ratio (y) = 0.00352 0.37073
# Poissons Ratio (z) = 0.20634 0.33019
#
# Static dielectric constant tensor:
#      x y z
#    x 2.067330 0.041240 -0.069830 
#    y 0.041240 1.924460 -0.020460 
#    z -0.069830 -0.020460 1.917180 
# 
# From -- ./inp_files/36453.got.cif
#   From: 2010.05.17/outbox.cif.g08.bks.cpg/sg2_19_cif.got.tgz:36453.got - 2010.06.03 11:33:40.
