data_PCOD9109963
_publ_section_title
;
Structure prediction by ZEFSAII (Michael W. Deem and Ramdas Pophale) SiO2 
 PCOD9109963
Probable space group: P -1
;
_chemical_formula_sum "Si O2"
_cell_formula_units_Z 15
_cell_length_a 10.430641
_cell_length_b 11.461019
_cell_length_c 7.649209
_cell_angle_alpha 36.703708
_cell_angle_beta 81.931788
_cell_angle_gamma 78.473883
_cell_volume 535.205005
_symmetry_space_group_name_H-M "P -1"
_symmetry_group_IT_number 2
_symmetry_cell_setting 'triclinic'
loop_
_space_group_symop_operation_xyz
x,y,z
-x,-y,-z
loop_
_atom_site_type_symbol
_atom_site_label
_atom_site_fract_x
_atom_site_fract_y
_atom_site_fract_z
Si Si1 0.909567 0.402667 0.772883
Si Si2 0.063369 0.046876 0.614639
Si Si3 0.000000 0.000000 0.000000
Si Si4 0.853293 0.640406 0.988514
Si Si5 0.324413 0.667848 0.696343
Si Si6 0.526419 0.285586 0.091624
Si Si7 0.752194 0.766866 0.238873
Si Si8 0.495970 0.064243 0.711390
O O1 0.778814 0.551146 0.587800
O O2 0.000000 0.500000 0.500000
O O3 0.994010 0.405317 0.929890
O O4 0.909763 0.165269 0.023552
O O5 0.959907 0.139756 0.664742
O O6 0.161345 0.191212 0.360658
O O7 0.000000 0.000000 0.500000
O O8 0.139189 0.107137 0.861569
O O9 0.790526 0.451931 0.175275
O O10 0.780327 0.727173 0.075447
O O11 0.331086 0.715398 0.845981
O O12 0.361956 0.865972 0.367540
O O13 0.449753 0.502946 0.824068
O O14 0.459671 0.182253 0.390872
O O15 0.519057 0.155392 0.080498
O O16 0.607951 0.858653 0.215441
#
# Coordination Sequence:
#
# PCOD9109963 Si02
#       8
#     2   2   1   2   2   2   2   2
#     4   9  18  42  66  93 138 192 239 288 355 427
#     4  10  20  41  68  95 142 191 240 300 348 430
#     4  12  22  38  70  94 144 194 240 292 370 420
#     4  10  21  40  70 106 149 183 238 311 359 430
#     4   9  18  38  69  99 139 180 237 297 373 426
#     4   8  18  39  65  98 138 177 242 297 361 435
#     4  11  23  41  71 100 146 195 242 295 363 442
#     4   9  19  40  67  99 137 186 238 290 362 434
#
# _framework density 28.026643
#
# number of rings (size 3 to 8) (size 9 to 14) (size 15 to 20)
#    0.800    1.600    4.000    0.000    1.867    0.533 
#    2.400    6.000    5.867    0.000    0.000    0.000 
#    0.000    3.200    0.000    0.000    0.000    0.000 
#
# Total GULP energy -83650.109711 kJ/mol
# GULP energy per Si atom -5576.673981 kJ/mol
# Density = 2.796285 g / cm^3
# Si number density = 28.026643 Si / 1000 Ang^3
#
#
#
# Elastic Constant Matrix: (Units=GPa)
#
#
# Indices 1 2 3 4 5 6 
#
# 1 91.4420 60.6826 55.4291 -18.6584 -17.4901 1.7061
# 2 60.6826 179.3379 88.8927 -16.4306 -26.5834 20.1514
# 3 55.4291 88.8927 194.4433 -2.4279 -30.8977 10.3090
# 4 -18.6584 -16.4306 -2.4279 63.6254 -12.0426 -15.3956
# 5 -17.4901 -26.5834 -30.8977 -12.0426 40.5049 -5.1998
# 6 1.7061 20.1514 10.3090 -15.3956 -5.1998 39.0823
#
#
#
# Elastic Compliance Matrix: (Units=1/GPa)
#
#
# Indices 1 2 3 4 5 6 
#
# 1 0.017176 -0.003748 -0.002488 0.006247 0.005563 0.005040
# 2 -0.003748 0.008783 -0.002438 0.000705 0.002089 -0.003166
# 3 -0.002488 -0.002438 0.007416 -0.000683 0.002716 -0.000498
# 4 0.006247 0.000705 -0.000683 0.021997 0.010411 0.009594
# 5 0.005563 0.002089 0.002716 0.010411 0.034483 0.006653
# 6 0.005040 -0.003166 -0.000498 0.009594 0.006653 0.031795
#
#
# Mechanical properties :
#
#
# Convention : Reuss Voigt Hill
#
# Bulk Modulus (GPa) = 62.39614 97.24802 79.82208
# Shear Modulus (GPa) = 34.64038 45.99042 40.31540
#
# Velocity S-wave (km/s) = 3.51947 4.05526 3.79683
# Velocity P-wave (km/s) = 6.23113 7.52998 6.91114
#
# Compressibility (1/GPa) = 0.01602663
#
# Stress axis : x y z
#
# Youngs Moduli (GPa) = 58.22121 113.85844 134.83984
#
# Poissons Ratio (x) = 0.42674 0.33549
# Poissons Ratio (y) = 0.21821 0.32876
# Poissons Ratio (z) = 0.14486 0.27760
#
# Static dielectric constant tensor:
#      x y z
#    x 2.079560 0.653470 0.158480 
#    y 0.653470 0.839120 0.030080 
#    z 0.158480 0.030080 2.312670 
# 
# From -- ./inp_files/308974.got.cif
#   From: 2010.05.17/outbox.cif.g08.bks.cpg/sg2_155_cif.got.tgz:308974.got - 2010.06.03 11:33:40.
