data_PCOD9109550
_publ_section_title
;
Structure prediction by ZEFSAII (Michael W. Deem and Ramdas Pophale) SiO2 
 PCOD9109550
Probable space group: P -1
;
_chemical_formula_sum "Si O2"
_cell_formula_units_Z 16
_cell_length_a 14.280734
_cell_length_b 8.456616
_cell_length_c 11.388580
_cell_angle_alpha 142.136527
_cell_angle_beta 62.784750
_cell_angle_gamma 103.694747
_cell_volume 730.991019
_symmetry_space_group_name_H-M "P -1"
_symmetry_group_IT_number 2
_symmetry_cell_setting 'triclinic'
loop_
_space_group_symop_operation_xyz
x,y,z
-x,-y,-z
loop_
_atom_site_type_symbol
_atom_site_label
_atom_site_fract_x
_atom_site_fract_y
_atom_site_fract_z
Si Si1 0.119785 0.063527 0.226884
Si Si2 0.250370 0.971988 0.868520
Si Si3 0.293050 0.005293 0.433409
Si Si4 0.376229 0.046133 0.639554
Si Si5 0.940031 0.752863 0.389736
Si Si6 0.044467 0.138941 0.944770
Si Si7 0.611244 0.495853 0.371656
Si Si8 0.693138 0.346630 0.003559
O O1 0.095481 0.273684 0.468821
O O2 0.188924 0.120107 0.106090
O O3 0.193545 0.807863 0.098224
O O4 0.009905 0.987884 0.203906
O O5 0.284500 0.670229 0.714818
O O6 0.361352 0.000283 0.759449
O O7 0.169824 0.048399 0.850376
O O8 0.322687 0.892884 0.480761
O O9 0.167442 0.152458 0.572161
O O10 0.363870 0.220642 0.496382
O O11 0.323062 0.791173 0.188482
O O12 0.315045 0.349773 0.836802
O O13 0.500000 0.000000 0.500000
O O14 0.007047 0.458423 0.146194
O O15 0.000000 0.000000 0.500000
O O16 0.000000 0.000000 0.000000
O O17 0.500000 0.500000 0.500000
O O18 0.611114 0.348895 0.159938
#
# Coordination Sequence:
#
# PCOD9109550 Si02
#       8
#     2   2   2   2   2   2   2   2
#     4   9  21  41  61  90 127 167 209 259 306 384
#     4  10  21  36  62  90 121 162 200 261 321 361
#     4  10  22  41  62  87 123 162 209 260 301 381
#     4  11  23  40  61  89 126 160 209 264 320 371
#     4  11  24  39  66  96 127 174 219 249 315 393
#     4  10  21  38  60  92 131 165 205 263 323 373
#     4  10  20  41  66  87 118 164 216 261 312 373
#     4   9  20  39  62  86 121 160 207 255 307 374
#
# _framework density 21.888093999999999
#
# number of rings (size 3 to 8) (size 9 to 14) (size 15 to 20)
#    0.000    2.000    0.000    4.500    5.250    3.500 
#    0.000    8.750    0.000    0.000    0.000    0.000 
#    0.000    0.000    0.000    0.000    0.000    0.000 
#
# Total GULP energy -89116.765079 kJ/mol
# GULP energy per Si atom -5569.797817 kJ/mol
# Density = 2.183828 g / cm^3
# Si number density = 21.888094 Si / 1000 Ang^3
#
#
#
# Elastic Constant Matrix: (Units=GPa)
#
#
# Indices 1 2 3 4 5 6 
#
# 1 83.5552 12.1044 23.3162 -12.1978 4.4459 -11.9739
# 2 12.1044 64.6061 17.6443 -23.4165 2.5412 1.6818
# 3 23.3162 17.6443 60.0702 -22.2527 5.4982 -11.6410
# 4 -12.1978 -23.4165 -22.2527 34.2753 3.5999 0.2222
# 5 4.4459 2.5412 5.4982 3.5999 20.2476 -12.4638
# 6 -11.9739 1.6818 -11.6410 0.2222 -12.4638 32.5868
#
#
#
# Elastic Compliance Matrix: (Units=1/GPa)
#
#
# Indices 1 2 3 4 5 6 
#
# 1 0.013970 -0.001062 -0.003699 0.001802 0.000160 0.003916
# 2 -0.001062 0.021693 -0.000668 0.014877 -0.007968 -0.004898
# 3 -0.003699 -0.000668 0.025539 0.015324 -0.005267 0.005679
# 4 0.001802 0.014877 0.015324 0.051658 -0.016376 -0.001247
# 5 0.000160 -0.007968 -0.005267 -0.016376 0.070492 0.025662
# 6 0.003916 -0.004898 0.005679 -0.001247 0.025662 0.044231
#
#
# Mechanical properties :
#
#
# Convention : Reuss Voigt Hill
#
# Bulk Modulus (GPa) = 19.86349 34.92903 27.39626
# Shear Modulus (GPa) = 19.59081 27.76639 23.67860
#
# Velocity S-wave (km/s) = 2.99497 3.56555 3.29265
# Velocity P-wave (km/s) = 4.58852 5.73964 5.19606
#
# Compressibility (1/GPa) = 0.05034363
#
# Stress axis : x y z
#
# Youngs Moduli (GPa) = 71.58270 46.09772 39.15656
#
# Poissons Ratio (x) = 0.04896 0.14482
# Poissons Ratio (y) = 0.07604 0.02616
# Poissons Ratio (z) = 0.26475 0.03080
#
# Static dielectric constant tensor:
#      x y z
#    x 1.915640 -0.015520 -0.029500 
#    y -0.015520 1.926580 -0.092610 
#    z -0.029500 -0.092610 1.835340 
# 
# From -- ./inp_files/446465.got.cif
#   From: 2010.05.17/outbox.cif.g08.bks.cpg/sg2_224_cif.got.tgz:446465.got - 2010.06.03 11:33:40.
