data_PCOD9109340
_publ_section_title
;
Structure prediction by ZEFSAII (Michael W. Deem and Ramdas Pophale) SiO2 
 PCOD9109340
Probable space group: P -1
;
_chemical_formula_sum "Si O2"
_cell_formula_units_Z 16
_cell_length_a 13.204598
_cell_length_b 14.222079
_cell_length_c 8.361847
_cell_angle_alpha 53.041675
_cell_angle_beta 126.688045
_cell_angle_gamma 145.723322
_cell_volume 688.796289
_symmetry_space_group_name_H-M "P -1"
_symmetry_group_IT_number 2
_symmetry_cell_setting 'triclinic'
loop_
_space_group_symop_operation_xyz
x,y,z
-x,-y,-z
loop_
_atom_site_type_symbol
_atom_site_label
_atom_site_fract_x
_atom_site_fract_y
_atom_site_fract_z
Si Si1 0.856799 0.875026 0.216406
Si Si2 0.160673 0.633972 0.394969
Si Si3 0.302934 0.977452 0.150243
Si Si4 0.711142 0.628561 0.627816
Si Si5 0.449378 0.167845 0.394327
Si Si6 0.956206 0.589898 0.777931
Si Si7 0.620229 0.058680 0.209047
Si Si8 0.244713 0.247544 0.104861
O O1 0.821113 0.788741 0.441208
O O2 0.793736 0.756884 0.117822
O O3 0.069196 0.049815 0.199259
O O4 0.756260 0.936042 0.063259
O O5 0.172782 0.776792 0.195039
O O6 0.350806 0.740842 0.554421
O O7 0.000000 0.500000 0.500000
O O8 0.140773 0.520485 0.360547
O O9 0.302594 0.001273 0.314908
O O10 0.508816 0.073428 0.203147
O O11 0.500000 0.500000 0.500000
O O12 0.725422 0.654100 0.808430
O O13 0.811317 0.573323 0.746716
O O14 0.424078 0.287121 0.227290
O O15 0.419170 0.101397 0.611209
O O16 0.160936 0.781679 0.752884
O O17 0.000000 0.500000 0.000000
O O18 0.500000 0.000000 0.000000
#
# Coordination Sequence:
#
# PCOD9109340 Si02
#       8
#     2   2   2   2   2   2   2   2
#     4  10  24  45  74 105 132 186 248 294 350 429
#     4  11  22  40  67  97 140 180 223 290 356 420
#     4  10  22  40  68  99 131 178 237 288 347 417
#     4  12  28  47  72 105 150 190 231 296 368 427
#     4  10  20  41  64  97 132 173 236 280 344 417
#     4  12  27  44  63 103 142 179 232 282 356 424
#     4  11  23  37  66  93 133 182 227 284 339 414
#     4  10  23  44  73  99 137 182 241 297 348 423
#
# _framework density 23.228929000000001
#
# number of rings (size 3 to 8) (size 9 to 14) (size 15 to 20)
#    0.000    1.250    0.000    6.375    7.000    2.500 
#    0.000    0.000    0.000    0.000    0.000    0.000 
#    0.000    0.000    0.000    0.000    0.000    0.000 
#
# Total GULP energy -89211.287201 kJ/mol
# GULP energy per Si atom -5575.705450 kJ/mol
# Density = 2.317606 g / cm^3
# Si number density = 23.228929 Si / 1000 Ang^3
#
#
#
# Elastic Constant Matrix: (Units=GPa)
#
#
# Indices 1 2 3 4 5 6 
#
# 1 129.4070 36.3303 20.0009 8.1228 9.0279 -23.4683
# 2 36.3303 86.1354 -1.0055 15.1089 -3.6092 -3.6838
# 3 20.0009 -1.0055 45.8633 12.0659 10.1559 -11.8780
# 4 8.1228 15.1089 12.0659 25.6097 -2.3662 -13.8925
# 5 9.0279 -3.6092 10.1559 -2.3662 37.8731 9.8054
# 6 -23.4683 -3.6838 -11.8780 -13.8925 9.8054 43.2811
#
#
#
# Elastic Compliance Matrix: (Units=1/GPa)
#
#
# Indices 1 2 3 4 5 6 
#
# 1 0.010992 -0.005372 -0.003572 0.004759 -0.003658 0.006879
# 2 -0.005372 0.015920 0.004138 -0.012028 0.002173 -0.004775
# 3 -0.003572 0.004138 0.030189 -0.014080 -0.008811 0.004177
# 4 0.004759 -0.012028 -0.014080 0.060528 0.000896 0.016918
# 5 -0.003658 0.002173 -0.008811 0.000896 0.032845 -0.011370
# 6 0.006879 -0.004775 0.004177 0.016918 -0.011370 0.035581
#
#
# Mechanical properties :
#
#
# Convention : Reuss Voigt Hill
#
# Bulk Modulus (GPa) = 21.05671 41.33967 31.19819
# Shear Modulus (GPa) = 23.64102 35.09145 29.36623
#
# Velocity S-wave (km/s) = 3.19367 3.89096 3.55943
# Velocity P-wave (km/s) = 4.76276 6.16615 5.50932
#
# Compressibility (1/GPa) = 0.04749080
#
# Stress axis : x y z
#
# Youngs Moduli (GPa) = 90.97844 62.81322 33.12418
#
# Poissons Ratio (x) = 0.33741 0.11831
# Poissons Ratio (y) = 0.48870 -0.13707
# Poissons Ratio (z) = 0.32495 -0.25993
#
# Static dielectric constant tensor:
#      x y z
#    x 1.896220 -0.052170 0.007880 
#    y -0.052170 2.016350 -0.014790 
#    z 0.007880 -0.014790 1.913310 
# 
# From -- ./inp_files/314738.got.cif
#   From: 2010.05.17/outbox.cif.g08.bks.cpg/sg2_158_cif.got.tgz:314738.got - 2010.06.03 11:33:40.
