data_PCOD9109553
_publ_section_title
;
Structure prediction by ZEFSAII (Michael W. Deem and Ramdas Pophale) SiO2 
 PCOD9109553
Probable space group: P -1
;
_chemical_formula_sum "Si O2"
_cell_formula_units_Z 16
_cell_length_a 11.956588
_cell_length_b 8.557197
_cell_length_c 7.815735
_cell_angle_alpha 83.608867
_cell_angle_beta 72.542114
_cell_angle_gamma 122.924741
_cell_volume 601.543803
_symmetry_space_group_name_H-M "P -1"
_symmetry_group_IT_number 2
_symmetry_cell_setting 'triclinic'
loop_
_space_group_symop_operation_xyz
x,y,z
-x,-y,-z
loop_
_atom_site_type_symbol
_atom_site_label
_atom_site_fract_x
_atom_site_fract_y
_atom_site_fract_z
Si Si1 0.650711 0.280015 0.764093
Si Si2 0.781249 0.508850 0.021465
Si Si3 0.460195 0.899991 0.713140
Si Si4 0.052947 0.860065 0.996460
Si Si5 0.676457 0.762310 0.084292
Si Si6 0.920884 0.282911 0.638302
Si Si7 0.732543 0.889945 0.650308
Si Si8 0.616154 0.516375 0.572305
O O1 0.757635 0.217927 0.753621
O O2 0.690582 0.406813 0.552792
O O3 0.499474 0.062571 0.817509
O O4 0.711439 0.435302 0.874752
O O5 0.705249 0.299120 0.172958
O O6 0.720309 0.618442 0.124370
O O7 0.956320 0.677167 0.933004
O O8 0.577103 0.851913 0.690402
O O9 0.500000 0.000000 0.500000
O O10 0.025946 0.753379 0.205586
O O11 0.228465 0.034995 0.875038
O O12 0.000000 0.000000 0.000000
O O13 0.501435 0.627713 0.204816
O O14 0.721160 0.824521 0.860013
O O15 0.000000 0.500000 0.500000
O O16 0.880632 0.113360 0.542103
O O17 0.731912 0.740571 0.545230
O O18 0.500000 0.500000 0.500000
#
# Coordination Sequence:
#
# PCOD9109553 Si02
#       8
#     2   2   2   2   2   2   2   2
#     4  11  25  40  63 102 130 167 228 272 337 384
#     4  11  21  40  68  91 134 170 224 269 319 402
#     4  11  23  37  61  96 132 169 212 271 338 384
#     4   9  22  40  69  96 121 182 232 255 323 405
#     4  10  20  41  67  91 127 174 215 267 327 390
#     4  10  24  45  68  93 139 174 215 276 343 400
#     4  10  20  41  66  87 124 176 215 249 339 398
#     4  12  23  39  66 101 132 166 225 284 324 391
#
# _framework density 26.598227999999999
#
# number of rings (size 3 to 8) (size 9 to 14) (size 15 to 20)
#    0.000    1.500    2.500    2.250    3.500    3.500 
#    2.250    0.625    0.000    0.000    0.000    0.000 
#    0.000    0.000    0.000    0.000    0.000    0.000 
#
# Total GULP energy -89336.938100 kJ/mol
# GULP energy per Si atom -5583.558631 kJ/mol
# Density = 2.653769 g / cm^3
# Si number density = 26.598228 Si / 1000 Ang^3
#
#
#
# Elastic Constant Matrix: (Units=GPa)
#
#
# Indices 1 2 3 4 5 6 
#
# 1 69.3527 30.6981 20.4601 -5.4022 26.8255 17.5873
# 2 30.6981 239.9924 58.0215 -24.0238 9.9805 38.5913
# 3 20.4601 58.0215 110.0600 -19.7656 34.4710 18.1585
# 4 -5.4022 -24.0238 -19.7656 36.2933 -2.5772 6.3165
# 5 26.8255 9.9805 34.4710 -2.5772 40.0327 -10.8458
# 6 17.5873 38.5913 18.1585 6.3165 -10.8458 47.6765
#
#
#
# Elastic Compliance Matrix: (Units=1/GPa)
#
#
# Indices 1 2 3 4 5 6 
#
# 1 0.037290 0.000288 0.015997 0.016871 -0.046670 -0.032934
# 2 0.000288 0.005705 -0.000671 0.004258 -0.002267 -0.005548
# 3 0.015997 -0.000671 0.026570 0.018280 -0.039540 -0.026894
# 4 0.016871 0.004258 0.018280 0.045740 -0.033367 -0.030283
# 5 -0.046670 -0.002267 -0.039540 -0.033367 0.105668 0.062569
# 6 -0.032934 -0.005548 -0.026894 -0.030283 0.062569 0.066104
#
#
# Mechanical properties :
#
#
# Convention : Reuss Voigt Hill
#
# Bulk Modulus (GPa) = 9.92136 70.86273 40.39204
# Shear Modulus (GPa) = 17.27433 45.48220 31.37827
#
# Velocity S-wave (km/s) = 2.55120 4.13967 3.43842
# Velocity P-wave (km/s) = 3.52369 7.03909 5.56620
#
# Compressibility (1/GPa) = 0.10079268
#
# Stress axis : x y z
#
# Youngs Moduli (GPa) = 26.81678 175.28837 37.63637
#
# Poissons Ratio (x) = -0.05053 -0.60205
# Poissons Ratio (y) = -0.00773 0.02525
# Poissons Ratio (z) = -0.42898 0.11761
#
# Static dielectric constant tensor:
#      x y z
#    x -2.597910 0.363600 -2.795710 
#    y 0.363600 2.227960 0.321130 
#    z -2.795710 0.321130 0.595320 
# 
# From -- ./inp_files/294882.got.cif
#   From: 2010.05.17/outbox.cif.g08.bks.cpg/sg2_148_cif.got.tgz:294882.got - 2010.06.03 11:33:40.
