data_PCOD9109786
_publ_section_title
;
Structure prediction by ZEFSAII (Michael W. Deem and Ramdas Pophale) SiO2 
 PCOD9109786
Probable space group: P -1
;
_chemical_formula_sum "Si O2"
_cell_formula_units_Z 13
_cell_length_a 13.644971
_cell_length_b 13.258565
_cell_length_c 9.694817
_cell_angle_alpha 35.770798
_cell_angle_beta 34.268239
_cell_angle_gamma 29.181449
_cell_volume 455.007043
_symmetry_space_group_name_H-M "P -1"
_symmetry_group_IT_number 2
_symmetry_cell_setting 'triclinic'
loop_
_space_group_symop_operation_xyz
x,y,z
-x,-y,-z
loop_
_atom_site_type_symbol
_atom_site_label
_atom_site_fract_x
_atom_site_fract_y
_atom_site_fract_z
Si Si1 0.133828 0.688973 0.323964
Si Si2 0.127607 0.079127 0.876340
Si Si3 0.500000 0.000000 0.500000
Si Si4 0.835426 0.258725 0.321115
Si Si5 0.757182 0.651076 0.820914
Si Si6 0.415706 0.376016 0.556931
Si Si7 0.308740 0.059108 0.967961
O O1 0.078312 0.730033 0.180717
O O2 0.952301 0.664198 0.617527
O O3 0.362566 0.492485 0.341361
O O4 0.092118 0.913952 0.163162
O O5 0.278886 0.098248 0.789337
O O6 0.334922 0.950186 0.673351
O O7 0.669946 0.744851 0.665374
O O8 0.666378 0.231581 0.476383
O O9 0.722966 0.415256 0.410585
O O10 0.840912 0.411638 0.030327
O O11 0.097807 0.079667 0.238578
O O12 0.537611 0.820765 0.977989
O O13 0.327040 0.235374 0.814181
#
# Coordination Sequence:
#
# PCOD9109786 Si02
#       7
#     2   2   1   2   2   2   2
#     4  10  20  41  67  92 131 172 200 264 321 374
#     4   9  20  37  65  95 127 165 212 251 323 375
#     4   8  16  36  58  86 122 164 194 252 306 368
#     4  11  25  46  62  92 131 170 208 268 314 375
#     4  10  21  40  65  89 129 166 206 256 320 367
#     4  11  24  43  65  92 129 167 215 262 320 365
#     4  11  23  41  67  97 123 166 218 258 310 384
#
# _framework density 28.570985
#
# number of rings (size 3 to 8) (size 9 to 14) (size 15 to 20)
#    0.000    1.846    1.538    2.308    2.154    1.231 
#    2.769    3.077    0.000    0.000    0.000    0.000 
#    0.000    0.000    0.000    0.000    0.000    0.000 
#
# Total GULP energy -72617.283017 kJ/mol
# GULP energy per Si atom -5585.944847 kJ/mol
# Density = 2.850596 g / cm^3
# Si number density = 28.570985 Si / 1000 Ang^3
#
#
#
# Elastic Constant Matrix: (Units=GPa)
#
#
# Indices 1 2 3 4 5 6 
#
# 1 178.6101 49.7221 42.3252 -7.6179 -16.0459 -30.9228
# 2 49.7221 97.8223 -14.7351 31.7036 -8.8224 -26.7258
# 3 42.3252 -14.7351 110.0381 33.8092 -30.0507 -6.7925
# 4 -7.6179 31.7036 33.8092 11.6272 -15.1920 2.0096
# 5 -16.0459 -8.8224 -30.0507 -15.1920 57.0371 -5.5118
# 6 -30.9228 -26.7258 -6.7925 2.0096 -5.5118 51.0300
#
#
#
# Elastic Compliance Matrix: (Units=1/GPa)
#
#
# Indices 1 2 3 4 5 6 
#
# 1 0.004853 0.002647 0.002147 -0.010309 0.000652 0.005089
# 2 0.002647 0.001211 -0.006696 0.022195 0.003397 0.000840
# 3 0.002147 -0.006696 0.003112 0.018836 0.006043 -0.001880
# 4 -0.010309 0.022195 0.018836 -0.034996 0.002052 0.009485
# 5 0.000652 0.003397 0.006043 0.002052 0.022487 0.005327
# 6 0.005089 0.000840 -0.001880 0.009485 0.005327 0.023072
#
#
# Mechanical properties :
#
#
# Convention : Reuss Voigt Hill
#
# Bulk Modulus (GPa) = 186.12056 60.12165 123.12111
# Shear Modulus (GPa) = 197.36983 44.54942 120.95962
#
# Velocity S-wave (km/s) = 8.32049 3.95302 6.51371
# Velocity P-wave (km/s) = 12.55356 6.47486 9.98789
#
# Compressibility (1/GPa) = 0.00537286
#
# Stress axis : x y z
#
# Youngs Moduli (GPa) = 206.05130 825.69056 321.31088
#
# Poissons Ratio (x) = -2.18543 -0.68993
# Poissons Ratio (y) = -0.54537 2.15145
# Poissons Ratio (z) = -0.44244 5.52870
#
# Static dielectric constant tensor:
#      x y z
#    x 2.320370 0.161010 0.153600 
#    y 0.161010 2.335780 0.126900 
#    z 0.153600 0.126900 2.436970 
# 
# From -- ./inp_files/302904.got.cif
#   From: 2010.05.17/outbox.cif.g08.bks.cpg/sg2_152_cif.got.tgz:302904.got - 2010.06.03 11:33:40.
