data_PCOD9109540
_publ_section_title
;
Structure prediction by ZEFSAII (Michael W. Deem and Ramdas Pophale) SiO2 
 PCOD9109540
Probable space group: P -1
;
_chemical_formula_sum "Si O2"
_cell_formula_units_Z 16
_cell_length_a 9.030722
_cell_length_b 7.951553
_cell_length_c 11.547392
_cell_angle_alpha 61.619619
_cell_angle_beta 65.769909
_cell_angle_gamma 66.024162
_cell_volume 641.787392
_symmetry_space_group_name_H-M "P -1"
_symmetry_group_IT_number 2
_symmetry_cell_setting 'triclinic'
loop_
_space_group_symop_operation_xyz
x,y,z
-x,-y,-z
loop_
_atom_site_type_symbol
_atom_site_label
_atom_site_fract_x
_atom_site_fract_y
_atom_site_fract_z
Si Si1 0.658165 0.507114 0.101117
Si Si2 0.878411 0.789349 0.864999
Si Si3 0.421971 0.868072 0.411562
Si Si4 0.030194 0.622882 0.320753
Si Si5 0.745031 0.757486 0.510661
Si Si6 0.172781 0.627573 0.662878
Si Si7 0.107419 0.780524 0.007219
Si Si8 0.412965 0.857902 0.147340
O O1 0.732119 0.470417 0.219359
O O2 0.471730 0.642964 0.140137
O O3 0.750733 0.649387 0.953594
O O4 0.708418 0.295972 0.087380
O O5 0.997894 0.763148 0.724956
O O6 0.779590 0.018600 0.833687
O O7 0.991426 0.722464 0.964342
O O8 0.588275 0.790929 0.462068
O O9 0.706948 0.262661 0.476116
O O10 0.464405 0.853403 0.267036
O O11 0.327607 0.089176 0.412815
O O12 0.910649 0.796066 0.380712
O O13 0.887466 0.520907 0.352269
O O14 0.108104 0.676101 0.161998
O O15 0.173297 0.462665 0.395013
O O16 0.000000 0.000000 0.000000
O O17 0.500000 0.000000 0.000000
#
# Coordination Sequence:
#
# PCOD9109540 Si02
#       8
#     2   2   2   2   2   2   2   2
#     4  10  20  41  66 102 132 178 230 282 355 398
#     4  10  20  41  67 103 129 179 236 284 348 404
#     4  11  25  46  67 104 144 178 231 286 353 411
#     4  11  22  44  69  98 135 190 230 278 350 408
#     4  10  26  43  66  99 144 186 215 284 360 420
#     4  11  21  40  74  97 136 182 235 291 328 412
#     4  11  23  40  67  98 139 180 230 289 341 413
#     4  10  23  40  70 101 133 176 232 287 347 409
#
# _framework density 24.930375000000002
#
# number of rings (size 3 to 8) (size 9 to 14) (size 15 to 20)
#    0.000    1.500    2.500    2.250    7.000    4.000 
#    4.500    0.625    0.000    0.000    0.000    0.000 
#    0.000    0.000    0.000    0.000    0.000    0.000 
#
# Total GULP energy -89437.484272 kJ/mol
# GULP energy per Si atom -5589.842767 kJ/mol
# Density = 2.487363 g / cm^3
# Si number density = 24.930375 Si / 1000 Ang^3
#
#
#
# Elastic Constant Matrix: (Units=GPa)
#
#
# Indices 1 2 3 4 5 6 
#
# 1 65.0766 31.1386 32.1112 -0.7712 -2.5908 -12.2890
# 2 31.1386 165.8331 46.7392 39.1472 -4.5897 -44.9483
# 3 32.1112 46.7392 157.1463 16.0549 6.2989 -7.5573
# 4 -0.7712 39.1472 16.0549 39.8931 -11.9494 -3.0445
# 5 -2.5908 -4.5897 6.2989 -11.9494 30.6647 0.3852
# 6 -12.2890 -44.9483 -7.5573 -3.0445 0.3852 41.7603
#
#
#
# Elastic Compliance Matrix: (Units=1/GPa)
#
#
# Indices 1 2 3 4 5 6 
#
# 1 0.019540 -0.003746 -0.003707 0.007031 0.004573 0.001518
# 2 -0.003746 0.013201 -0.001171 -0.012584 -0.003155 0.012006
# 3 -0.003707 -0.001171 0.007873 -0.003174 -0.003328 -0.001128
# 4 0.007031 -0.012584 -0.003174 0.042999 0.016232 -0.009065
# 5 0.004573 -0.003155 -0.003328 0.016232 0.039557 -0.001834
# 6 0.001518 0.012006 -0.001128 -0.009065 -0.001834 0.036468
#
#
# Mechanical properties :
#
#
# Convention : Reuss Voigt Hill
#
# Bulk Modulus (GPa) = 42.79952 67.55933 55.17943
# Shear Modulus (GPa) = 27.07436 41.00142 34.03789
#
# Velocity S-wave (km/s) = 3.29902 4.05981 3.69903
# Velocity P-wave (km/s) = 5.63172 7.00957 6.35808
#
# Compressibility (1/GPa) = 0.02336475
#
# Stress axis : x y z
#
# Youngs Moduli (GPa) = 51.17625 75.74966 127.01863
#
# Poissons Ratio (x) = 0.28377 0.47090
# Poissons Ratio (y) = 0.19171 0.14879
# Poissons Ratio (z) = 0.18973 0.08873
#
# Static dielectric constant tensor:
#      x y z
#    x 1.994400 0.031840 -0.008690 
#    y 0.031840 2.121430 0.019660 
#    z -0.008690 0.019660 1.958000 
# 
# From -- ./inp_files/218567.got.cif
#   From: 2010.05.17/outbox.cif.g08.bks.cpg/sg2_110_cif.got.tgz:218567.got - 2010.06.03 11:33:40.
