data_PCOD9109107
_publ_section_title
;
Structure prediction by ZEFSAII (Michael W. Deem and Ramdas Pophale) SiO2 
 PCOD9109107
Probable space group: P -1
;
_chemical_formula_sum "Si O2"
_cell_formula_units_Z 16
_cell_length_a 11.664968
_cell_length_b 12.185602
_cell_length_c 6.992481
_cell_angle_alpha 97.496468
_cell_angle_beta 56.047410
_cell_angle_gamma 121.381448
_cell_volume 685.585754
_symmetry_space_group_name_H-M "P -1"
_symmetry_group_IT_number 2
_symmetry_cell_setting 'triclinic'
loop_
_space_group_symop_operation_xyz
x,y,z
-x,-y,-z
loop_
_atom_site_type_symbol
_atom_site_label
_atom_site_fract_x
_atom_site_fract_y
_atom_site_fract_z
Si Si1 0.385487 0.117329 0.507953
Si Si2 0.983446 0.062073 0.229996
Si Si3 0.953333 0.689851 0.974111
Si Si4 0.635038 0.649167 0.371015
Si Si5 0.277954 0.822152 0.961814
Si Si6 0.500807 0.371050 0.915197
Si Si7 0.163840 0.558488 0.238322
Si Si8 0.298788 0.078999 0.037375
O O1 0.411289 0.257539 0.467503
O O2 0.546982 0.124937 0.290610
O O3 0.353188 0.089274 0.761589
O O4 0.207821 0.016743 0.558313
O O5 0.031726 0.209699 0.179160
O O6 0.118825 0.055683 0.222105
O O7 0.000000 0.000000 0.000000
O O8 0.879495 0.546630 0.916793
O O9 0.128818 0.757708 0.930106
O O10 0.816171 0.680826 0.243962
O O11 0.500000 0.500000 0.500000
O O12 0.610485 0.669424 0.178477
O O13 0.292571 0.948669 0.075480
O O14 0.226891 0.701335 0.124243
O O15 0.693623 0.426655 0.753292
O O16 0.421510 0.223915 0.043908
O O17 0.500000 0.500000 0.000000
O O18 0.000000 0.500000 0.500000
#
# Coordination Sequence:
#
# PCOD9109107 Si02
#       8
#     2   2   2   2   2   2   2   2
#     4  10  20  35  63 106 131 159 208 282 331 380
#     4  10  16  37  64 102 128 156 210 281 333 373
#     4  12  22  43  70  97 130 170 229 274 327 388
#     4  11  22  38  70  97 122 171 227 279 317 381
#     4  12  25  41  68 101 135 171 225 276 329 402
#     4  11  23  46  67  91 134 179 220 266 329 396
#     4  12  30  46  61  93 140 187 215 267 340 400
#     4  10  20  39  70  99 132 171 217 278 334 379
#
# _framework density 23.337706000000001
#
# number of rings (size 3 to 8) (size 9 to 14) (size 15 to 20)
#    0.000    1.000    7.500    1.500    5.250    0.500 
#    0.000    0.000    0.000    2.250    0.000    0.000 
#    0.000    0.000    0.000    0.000    0.000    0.000 
#
# Total GULP energy -89306.762273 kJ/mol
# GULP energy per Si atom -5581.672642 kJ/mol
# Density = 2.328459 g / cm^3
# Si number density = 23.337706 Si / 1000 Ang^3
#
#
#
# Elastic Constant Matrix: (Units=GPa)
#
#
# Indices 1 2 3 4 5 6 
#
# 1 113.0771 33.5188 72.2742 -2.3815 -48.2061 -0.6246
# 2 33.5188 180.2941 38.7164 -16.7403 -16.0761 -33.2444
# 3 72.2742 38.7164 95.6055 -5.5061 -38.5256 -3.8394
# 4 -2.3815 -16.7403 -5.5061 32.3481 10.9140 -0.9526
# 5 -48.2061 -16.0761 -38.5256 10.9140 55.8916 -3.6602
# 6 -0.6246 -33.2444 -3.8394 -0.9526 -3.6602 45.9509
#
#
#
# Elastic Compliance Matrix: (Units=1/GPa)
#
#
# Indices 1 2 3 4 5 6 
#
# 1 0.020862 -0.001036 -0.011309 -0.004571 0.010750 -0.000649
# 2 -0.001036 0.007440 -0.002020 0.003766 -0.000538 0.005235
# 3 -0.011309 -0.002020 0.021730 0.000277 0.004628 0.000575
# 4 -0.004571 0.003766 0.000277 0.035855 -0.009495 0.002672
# 5 0.010750 -0.000538 0.004628 -0.009495 0.032218 0.002513
# 6 -0.000649 0.005235 0.000575 0.002672 0.002513 0.025844
#
#
# Mechanical properties :
#
#
# Convention : Reuss Voigt Hill
#
# Bulk Modulus (GPa) = 46.93955 75.33285 61.13620
# Shear Modulus (GPa) = 27.81219 43.13596 35.47408
#
# Velocity S-wave (km/s) = 3.45589 4.30389 3.90299
# Velocity P-wave (km/s) = 6.00675 7.55298 6.82380
#
# Compressibility (1/GPa) = 0.02130400
#
# Stress axis : x y z
#
# Youngs Moduli (GPa) = 47.93505 134.41548 46.01910
#
# Poissons Ratio (x) = 0.13919 0.52041
# Poissons Ratio (y) = 0.04964 0.09294
# Poissons Ratio (z) = 0.54208 0.27146
#
# Static dielectric constant tensor:
#      x y z
#    x 1.673080 0.057400 -0.093700 
#    y 0.057400 1.909240 0.054860 
#    z -0.093700 0.054860 1.797510 
# 
# From -- ./inp_files/262671.got.cif
#   From: 2010.05.17/outbox.cif.g08.bks.cpg/sg2_132_cif.got.tgz:262671.got - 2010.06.03 11:33:40.
