data_PCOD9109774
_publ_section_title
;
Structure prediction by ZEFSAII (Michael W. Deem and Ramdas Pophale) SiO2 
 PCOD9109774
Probable space group: P -1
;
_chemical_formula_sum "Si O2"
_cell_formula_units_Z 14
_cell_length_a 19.727461
_cell_length_b 11.739850
_cell_length_c 9.261163
_cell_angle_alpha 39.006559
_cell_angle_beta 151.788964
_cell_angle_gamma 143.042388
_cell_volume 589.190638
_symmetry_space_group_name_H-M "P -1"
_symmetry_group_IT_number 2
_symmetry_cell_setting 'triclinic'
loop_
_space_group_symop_operation_xyz
x,y,z
-x,-y,-z
loop_
_atom_site_type_symbol
_atom_site_label
_atom_site_fract_x
_atom_site_fract_y
_atom_site_fract_z
Si Si1 0.330168 0.894459 0.719752
Si Si2 0.841198 0.064050 0.218218
Si Si3 0.523694 0.493253 0.880789
Si Si4 0.852191 0.836964 0.179071
Si Si5 0.123924 0.096604 0.280665
Si Si6 0.343175 0.517303 0.252158
Si Si7 0.509074 0.953898 0.729789
O O1 0.369760 0.959020 0.563216
O O2 0.215716 0.976027 0.501280
O O3 0.298025 0.674946 0.925417
O O4 0.500000 0.000000 0.000000
O O5 0.011590 0.219667 0.429999
O O6 0.826073 0.980289 0.110737
O O7 0.837553 0.887888 0.489743
O O8 0.689199 0.097083 0.952557
O O9 0.402028 0.546639 0.501140
O O10 0.500000 0.500000 0.000000
O O11 0.698233 0.654778 0.027876
O O12 0.504735 0.268220 0.043374
O O13 0.942627 0.960858 0.087394
O O14 0.196016 0.317293 0.150554
O O15 0.500000 0.500000 0.500000
O O16 0.500000 0.000000 0.500000
#
# Coordination Sequence:
#
# PCOD9109774 Si02
#       7
#     2   2   2   2   2   2   2
#     4  12  22  40  68  96 128 172 218 265 328 391
#     4   9  17  40  64  90 131 172 206 260 333 386
#     4  12  22  39  68 100 122 167 228 274 314 382
#     4   9  19  38  66  92 135 170 214 267 328 389
#     4  10  20  41  67  91 132 177 206 262 332 392
#     4  12  22  40  69  95 130 169 223 264 322 395
#     4  12  25  41  64  99 129 163 224 279 319 388
#
# _framework density 23.761409
#
# number of rings (size 3 to 8) (size 9 to 14) (size 15 to 20)
#    0.857    0.286    7.143    0.000    2.000    0.000 
#    0.000    3.571    0.000    0.000    0.000    0.000 
#    0.000    0.000    0.000    0.000    0.000    0.000 
#
# Total GULP energy -78006.047422 kJ/mol
# GULP energy per Si atom -5571.860530 kJ/mol
# Density = 2.370733 g / cm^3
# Si number density = 23.761409 Si / 1000 Ang^3
#
#
#
# Elastic Constant Matrix: (Units=GPa)
#
#
# Indices 1 2 3 4 5 6 
#
# 1 172.3317 50.1668 51.9467 -9.4081 4.6800 20.1958
# 2 50.1668 137.0716 48.4691 0.8663 10.9920 37.6201
# 3 51.9467 48.4691 105.6494 9.6630 -18.4817 8.8941
# 4 -9.4081 0.8663 9.6630 43.9454 2.7601 0.1478
# 5 4.6800 10.9920 -18.4817 2.7601 40.2846 6.0796
# 6 20.1958 37.6201 8.8941 0.1478 6.0796 36.7749
#
#
#
# Elastic Compliance Matrix: (Units=1/GPa)
#
#
# Indices 1 2 3 4 5 6 
#
# 1 0.007644 -0.000615 -0.003949 0.002674 -0.002379 -0.002231
# 2 -0.000615 0.012738 -0.005523 0.001145 -0.004412 -0.010633
# 3 -0.003949 -0.005523 0.015768 -0.004787 0.009148 0.002512
# 4 0.002674 0.001145 -0.004787 0.024636 -0.004378 -0.000857
# 5 -0.002379 -0.004412 0.009148 -0.004378 0.031028 -0.001505
# 6 -0.002231 -0.010633 0.002512 -0.000857 -0.001505 0.038940
#
#
# Mechanical properties :
#
#
# Convention : Reuss Voigt Hill
#
# Bulk Modulus (GPa) = 62.59519 79.57979 71.08749
# Shear Modulus (GPa) = 31.99941 41.83232 36.91587
#
# Velocity S-wave (km/s) = 3.67372 4.20040 3.94586
# Velocity P-wave (km/s) = 6.66298 7.55569 7.12333
#
# Compressibility (1/GPa) = 0.01597567
#
# Stress axis : x y z
#
# Youngs Moduli (GPa) = 130.81618 78.50370 63.42137
#
# Poissons Ratio (x) = 0.04828 0.25047
# Poissons Ratio (y) = 0.08046 0.35027
# Poissons Ratio (z) = 0.51663 0.43357
#
# Static dielectric constant tensor:
#      x y z
#    x 2.067450 -0.018530 -0.038010 
#    y -0.018530 1.878470 0.061280 
#    z -0.038010 0.061280 1.988510 
# 
# From -- ./inp_files/345023.got.cif
#   From: 2010.05.17/outbox.cif.g08.bks.cpg/sg2_173_cif.got.tgz:345023.got - 2010.06.03 11:33:40.
