data_PCOD9109380
_publ_section_title
;
Structure prediction by ZEFSAII (Michael W. Deem and Ramdas Pophale) SiO2 
 PCOD9109380
Probable space group: P -1
;
_chemical_formula_sum "Si O2"
_cell_formula_units_Z 16
_cell_length_a 15.261110
_cell_length_b 12.136508
_cell_length_c 9.329113
_cell_angle_alpha 115.953679
_cell_angle_beta 59.033194
_cell_angle_gamma 150.281045
_cell_volume 734.334591
_symmetry_space_group_name_H-M "P -1"
_symmetry_group_IT_number 2
_symmetry_cell_setting 'triclinic'
loop_
_space_group_symop_operation_xyz
x,y,z
-x,-y,-z
loop_
_atom_site_type_symbol
_atom_site_label
_atom_site_fract_x
_atom_site_fract_y
_atom_site_fract_z
Si Si1 0.518967 0.944121 0.276288
Si Si2 0.866048 0.537607 0.061067
Si Si3 0.601016 0.621087 0.830171
Si Si4 0.228310 0.859370 0.396121
Si Si5 0.919802 0.013526 0.959337
Si Si6 0.551489 0.847151 0.898232
Si Si7 0.606419 0.813804 0.309863
Si Si8 0.096702 0.553672 0.722846
O O1 0.694534 0.192401 0.333926
O O2 0.347364 0.859337 0.339142
O O3 0.483553 0.793679 0.323087
O O4 0.589274 0.960209 0.074850
O O5 0.649279 0.313990 0.081297
O O6 0.896438 0.532184 0.197489
O O7 0.936475 0.743859 0.082449
O O8 0.977618 0.551522 0.877797
O O9 0.551840 0.704013 0.855090
O O10 0.522295 0.432456 0.692727
O O11 0.500000 0.500000 0.000000
O O12 0.816612 0.840523 0.817698
O O13 0.013315 0.612717 0.413378
O O14 0.300540 0.973717 0.244969
O O15 0.287474 0.022004 0.551843
O O16 0.762971 0.932424 0.130948
O O17 0.000000 0.000000 0.000000
#
# Coordination Sequence:
#
# PCOD9109380 Si02
#       8
#     2   2   2   2   2   2   2   2
#     4  12  22  44  64  97 129 174 219 256 312 390
#     4  11  20  37  64  97 121 162 219 269 301 371
#     4  10  20  41  65  88 120 167 213 266 311 370
#     4  12  26  41  63  99 135 172 204 264 332 377
#     4  11  22  39  65  96 120 164 222 266 311 380
#     4  12  21  40  72  92 125 171 220 263 314 379
#     4  11  25  44  62  93 134 167 212 263 328 383
#     4  11  22  37  63  91 132 162 210 265 311 370
#
# _framework density 21.788432
#
# number of rings (size 3 to 8) (size 9 to 14) (size 15 to 20)
#    0.000    0.750    6.250    4.500    0.000    1.000 
#    2.250    0.000    0.000    3.000    0.000    0.000 
#    0.000    0.000    0.000    0.000    0.000    0.000 
#
# Total GULP energy -89553.531424 kJ/mol
# GULP energy per Si atom -5597.095714 kJ/mol
# Density = 2.173884 g / cm^3
# Si number density = 21.788432 Si / 1000 Ang^3
#
#
#
# Elastic Constant Matrix: (Units=GPa)
#
#
# Indices 1 2 3 4 5 6 
#
# 1 140.3669 45.8376 12.6601 13.3946 11.5626 -7.2741
# 2 45.8376 99.2678 21.6118 31.0755 5.5019 -2.8065
# 3 12.6601 21.6118 72.6333 33.2423 12.4743 -5.2280
# 4 13.3946 31.0755 33.2423 42.6316 3.1698 7.7946
# 5 11.5626 5.5019 12.4743 3.1698 23.4281 1.2474
# 6 -7.2741 -2.8065 -5.2280 7.7946 1.2474 42.6050
#
#
#
# Elastic Compliance Matrix: (Units=1/GPa)
#
#
# Indices 1 2 3 4 5 6 
#
# 1 0.008731 -0.003772 0.000535 -0.000406 -0.003732 0.001491
# 2 -0.003772 0.015265 0.002004 -0.011923 -0.001327 0.002828
# 3 0.000535 0.002004 0.025953 -0.022414 -0.011939 0.007858
# 4 -0.000406 -0.011923 -0.022414 0.051538 0.008669 -0.013288
# 5 -0.003732 -0.001327 -0.011939 0.008669 0.050301 -0.005248
# 6 0.001491 0.002828 0.007858 -0.013288 -0.005248 0.027461
#
#
# Mechanical properties :
#
#
# Convention : Reuss Voigt Hill
#
# Bulk Modulus (GPa) = 21.06084 52.49856 36.77970
# Shear Modulus (GPa) = 25.31077 37.21018 31.26048
#
# Velocity S-wave (km/s) = 3.41201 4.13703 3.79189
# Velocity P-wave (km/s) = 5.02090 6.85325 6.00735
#
# Compressibility (1/GPa) = 0.04748149
#
# Stress axis : x y z
#
# Youngs Moduli (GPa) = 114.53167 65.50842 38.53122
#
# Poissons Ratio (x) = 0.24710 -0.02060
# Poissons Ratio (y) = 0.43202 -0.07720
# Poissons Ratio (z) = -0.06122 -0.13125
#
# Static dielectric constant tensor:
#      x y z
#    x 1.785040 0.002540 -0.002970 
#    y 0.002540 1.824710 0.023740 
#    z -0.002970 0.023740 1.817690 
# 
# From -- ./inp_files/272486.got.cif
#   From: 2010.05.17/outbox.cif.g08.bks.cpg/sg2_137_cif.got.tgz:272486.got - 2010.06.03 11:33:40.
