data_PCOD9109807
_publ_section_title
;
Structure prediction by ZEFSAII (Michael W. Deem and Ramdas Pophale) SiO2 
 PCOD9109807
Probable space group: P -1
;
_chemical_formula_sum "Si O2"
_cell_formula_units_Z 14
_cell_length_a 7.150524
_cell_length_b 8.704411
_cell_length_c 11.494262
_cell_angle_alpha 117.887865
_cell_angle_beta 115.023286
_cell_angle_gamma 77.689928
_cell_volume 572.872131
_symmetry_space_group_name_H-M "P -1"
_symmetry_group_IT_number 2
_symmetry_cell_setting 'triclinic'
loop_
_space_group_symop_operation_xyz
x,y,z
-x,-y,-z
loop_
_atom_site_type_symbol
_atom_site_label
_atom_site_fract_x
_atom_site_fract_y
_atom_site_fract_z
Si Si1 0.469168 0.298029 0.387381
Si Si2 0.028050 0.729944 0.143850
Si Si3 0.361149 0.031864 0.590064
Si Si4 0.189484 0.409077 0.176593
Si Si5 0.096183 0.572035 0.669879
Si Si6 0.368259 0.370285 0.839470
Si Si7 0.910319 0.877475 0.639681
O O1 0.500000 0.500000 0.500000
O O2 0.392380 0.307518 0.237268
O O3 0.279230 0.220211 0.383186
O O4 0.646372 0.156001 0.416137
O O5 0.829733 0.678760 0.150704
O O6 0.207091 0.591591 0.178777
O O7 0.958127 0.701037 0.983344
O O8 0.082792 0.924584 0.251050
O O9 0.449228 0.180094 0.750402
O O10 0.148527 0.112999 0.508965
O O11 0.500000 0.000000 0.500000
O O12 0.067052 0.450344 0.277283
O O13 0.294171 0.475074 0.741265
O O14 0.000000 0.500000 0.500000
O O15 0.105829 0.774003 0.708621
O O16 0.500000 0.500000 0.000000
#
# Coordination Sequence:
#
# PCOD9109807 Si02
#       7
#     2   2   2   2   2   2   2
#     4  10  21  37  61  95 128 168 214 266 320 381
#     4  10  22  41  63  94 126 172 217 262 325 392
#     4  10  22  40  65  95 129 170 215 270 328 387
#     4   9  21  40  64  91 130 169 211 263 324 391
#     4  10  20  41  67  94 125 167 215 267 318 382
#     4  11  25  44  67  95 135 172 215 275 333 388
#     4  10  21  39  66  92 125 167 220 264 317 389
#
# _framework density 24.438265000000001
#
# number of rings (size 3 to 8) (size 9 to 14) (size 15 to 20)
#    0.000    2.000    1.429    0.857    0.000   13.143 
#    5.143    1.429    0.000    0.000    0.000    0.000 
#    0.000    0.000    0.000    0.000    0.000    0.000 
#
# Total GULP energy -78169.730583 kJ/mol
# GULP energy per Si atom -5583.552184 kJ/mol
# Density = 2.438264 g / cm^3
# Si number density = 24.438265 Si / 1000 Ang^3
#
#
#
# Elastic Constant Matrix: (Units=GPa)
#
#
# Indices 1 2 3 4 5 6 
#
# 1 79.4394 16.8697 16.4608 -0.1106 -1.1773 17.3232
# 2 16.8697 213.9148 101.3348 0.6241 32.7099 -13.7914
# 3 16.4608 101.3348 184.1438 1.3073 -3.3268 1.0963
# 4 -0.1106 0.6241 1.3073 59.6344 0.1118 8.6699
# 5 -1.1773 32.7099 -3.3268 0.1118 28.1648 -1.4059
# 6 17.3232 -13.7914 1.0963 8.6699 -1.4059 41.8283
#
#
#
# Elastic Compliance Matrix: (Units=1/GPa)
#
#
# Indices 1 2 3 4 5 6 
#
# 1 0.014535 -0.001856 -0.000202 0.001029 0.002398 -0.006759
# 2 -0.001856 0.009186 -0.005109 -0.000499 -0.011165 0.003660
# 3 -0.000202 -0.005109 0.008393 0.000090 0.006836 -0.001610
# 4 0.001029 -0.000499 0.000090 0.017382 0.000355 -0.004184
# 5 0.002398 -0.011165 0.006836 0.000355 0.049215 -0.003273
# 6 -0.006759 0.003660 -0.001610 -0.004184 -0.003273 0.028713
#
#
# Mechanical properties :
#
#
# Convention : Reuss Voigt Hill
#
# Bulk Modulus (GPa) = 56.24347 82.98095 69.61221
# Shear Modulus (GPa) = 33.85629 48.78102 41.31866
#
# Velocity S-wave (km/s) = 3.72611 4.47261 4.11632
# Velocity P-wave (km/s) = 6.44797 7.79111 7.15114
#
# Compressibility (1/GPa) = 0.01777984
#
# Stress axis : x y z
#
# Youngs Moduli (GPa) = 68.79902 108.86090 119.15319
#
# Poissons Ratio (x) = 0.20207 0.02401
# Poissons Ratio (y) = 0.12771 0.60877
# Poissons Ratio (z) = 0.01387 0.55618
#
# Static dielectric constant tensor:
#      x y z
#    x 2.245300 -0.160230 0.037520 
#    y -0.160230 2.031920 -0.018720 
#    z 0.037520 -0.018720 1.932890 
# 
# From -- ./inp_files/185099.got.cif
#   From: 2010.05.17/outbox.cif.g08.bks.cpg/sg2_93_cif.got.tgz:185099.got - 2010.06.03 11:33:40.
