data_PCOD9109776
_publ_section_title
;
Structure prediction by ZEFSAII (Michael W. Deem and Ramdas Pophale) SiO2 
 PCOD9109776
Probable space group: P -1
;
_chemical_formula_sum "Si O2"
_cell_formula_units_Z 15
_cell_length_a 17.478942
_cell_length_b 6.125111
_cell_length_c 8.631135
_cell_angle_alpha 97.186458
_cell_angle_beta 140.392276
_cell_angle_gamma 76.094431
_cell_volume 569.145952
_symmetry_space_group_name_H-M "P -1"
_symmetry_group_IT_number 2
_symmetry_cell_setting 'triclinic'
loop_
_space_group_symop_operation_xyz
x,y,z
-x,-y,-z
loop_
_atom_site_type_symbol
_atom_site_label
_atom_site_fract_x
_atom_site_fract_y
_atom_site_fract_z
Si Si1 0.500000 0.500000 0.500000
Si Si2 0.354274 0.587734 0.594848
Si Si3 0.381629 0.116546 0.188722
Si Si4 0.788486 0.200665 0.111951
Si Si5 0.180908 0.029675 0.383215
Si Si6 0.959513 0.847531 0.153738
Si Si7 0.279774 0.393415 0.748982
Si Si8 0.813224 0.534998 0.907612
O O1 0.446610 0.499607 0.592253
O O2 0.493643 0.220210 0.437300
O O3 0.314869 0.857176 0.572399
O O4 0.371968 0.460100 0.773210
O O5 0.224797 0.537246 0.323280
O O6 0.277854 0.233951 0.161841
O O7 0.349874 0.251758 0.988729
O O8 0.335855 0.886955 0.063736
O O9 0.799030 0.374810 0.278657
O O10 0.899592 0.994055 0.222039
O O11 0.777478 0.356102 0.954472
O O12 0.084712 0.916908 0.314610
O O13 0.199797 0.242547 0.527486
O O14 0.123596 0.083319 0.127172
O O15 0.946167 0.589786 0.133239
#
# Coordination Sequence:
#
# PCOD9109776 Si02
#       8
#     1   2   2   2   2   2   2   2
#     4  10  24  46  76 100 122 170 230 270 338 404
#     4  11  22  41  66  97 132 170 215 278 337 389
#     4   9  21  42  66  96 128 169 218 275 326 397
#     4  10  20  41  67  91 135 182 213 267 329 388
#     4  11  23  38  64 102 136 175 223 276 319 386
#     4  10  21  38  65  99 134 180 231 260 317 393
#     4  11  23  41  64  96 144 170 212 279 333 387
#     4   9  18  37  64  93 129 171 222 267 316 383
#
# _framework density 26.355278999999999
#
# number of rings (size 3 to 8) (size 9 to 14) (size 15 to 20)
#    0.000    1.867    2.667    0.800    0.000    2.667 
#    0.000   22.667    0.000    0.000    0.000    0.000 
#    0.000    0.000    0.000    0.000    0.000    0.000 
#
# Total GULP energy -83531.711067 kJ/mol
# GULP energy per Si atom -5568.780738 kJ/mol
# Density = 2.629529 g / cm^3
# Si number density = 26.355279 Si / 1000 Ang^3
#
#
#
# Elastic Constant Matrix: (Units=GPa)
#
#
# Indices 1 2 3 4 5 6 
#
# 1 153.1428 44.6060 36.4938 14.7326 -23.1209 8.0450
# 2 44.6060 117.8331 40.0563 49.7322 1.7329 3.7709
# 3 36.4938 40.0563 88.2353 26.0585 -16.8247 0.4953
# 4 14.7326 49.7322 26.0585 44.9746 -3.2113 -4.9101
# 5 -23.1209 1.7329 -16.8247 -3.2113 26.2687 2.4175
# 6 8.0450 3.7709 0.4953 -4.9101 2.4175 52.9174
#
#
#
# Elastic Compliance Matrix: (Units=1/GPa)
#
#
# Indices 1 2 3 4 5 6 
#
# 1 0.009056 -0.004393 -0.001091 0.002972 0.008030 -0.001145
# 2 -0.004393 0.019540 -0.003139 -0.019239 -0.009329 -0.002054
# 3 -0.001091 -0.003139 0.016494 -0.005141 0.009243 -0.000664
# 4 0.002972 -0.019239 -0.005141 0.046477 0.005812 0.005014
# 5 0.008030 -0.009329 0.009243 0.005812 0.052613 -0.002507
# 6 -0.001145 -0.002054 -0.000664 0.005014 -0.002507 0.019804
#
#
# Mechanical properties :
#
#
# Convention : Reuss Voigt Hill
#
# Bulk Modulus (GPa) = 35.91503 66.83593 51.37548
# Shear Modulus (GPa) = 26.24522 40.70248 33.47385
#
# Velocity S-wave (km/s) = 3.15909 3.93412 3.56771
# Velocity P-wave (km/s) = 5.19262 6.78609 6.04212
#
# Compressibility (1/GPa) = 0.02784350
#
# Stress axis : x y z
#
# Youngs Moduli (GPa) = 110.42307 51.17833 60.62738
#
# Poissons Ratio (x) = 0.22483 0.06616
# Poissons Ratio (y) = 0.48509 0.19030
# Poissons Ratio (z) = 0.12050 0.16064
#
# Static dielectric constant tensor:
#      x y z
#    x 2.030000 -0.009070 0.109110 
#    y -0.009070 2.305430 -0.122520 
#    z 0.109110 -0.122520 2.184470 
# 
# From -- ./inp_files/323932.got.cif
#   From: 2010.05.17/outbox.cif.g08.bks.cpg/sg2_162_cif.got.tgz:323932.got - 2010.06.03 11:33:40.
