data_PCOD9109675
_publ_section_title
;
Structure prediction by ZEFSAII (Michael W. Deem and Ramdas Pophale) SiO2 
 PCOD9109675
Probable space group: P -1
;
_chemical_formula_sum "Si O2"
_cell_formula_units_Z 14
_cell_length_a 10.810026
_cell_length_b 16.336900
_cell_length_c 7.731884
_cell_angle_alpha 102.413757
_cell_angle_beta 57.433006
_cell_angle_gamma 145.896489
_cell_volume 563.063422
_symmetry_space_group_name_H-M "P -1"
_symmetry_group_IT_number 2
_symmetry_cell_setting 'triclinic'
loop_
_space_group_symop_operation_xyz
x,y,z
-x,-y,-z
loop_
_atom_site_type_symbol
_atom_site_label
_atom_site_fract_x
_atom_site_fract_y
_atom_site_fract_z
Si Si1 0.161722 0.795789 0.872850
Si Si2 0.468884 0.446350 0.690978
Si Si3 0.280844 0.693211 0.927433
Si Si4 0.571479 0.923906 0.369141
Si Si5 0.133204 0.228745 0.316719
Si Si6 0.636535 0.814012 0.025527
Si Si7 0.760087 0.822904 0.433479
O O1 0.221803 0.761750 0.968592
O O2 0.264733 0.793001 0.628231
O O3 0.354443 0.975739 0.798169
O O4 0.829355 0.661043 0.059604
O O5 0.500000 0.500000 0.500000
O O6 0.736307 0.615199 0.676219
O O7 0.415755 0.323402 0.632528
O O8 0.548503 0.789889 0.653370
O O9 0.373307 0.717611 0.062593
O O10 0.000000 0.500000 0.000000
O O11 0.608926 0.848668 0.241439
O O12 0.818712 0.070055 0.391331
O O13 0.148235 0.188263 0.472419
O O14 0.338052 0.273176 0.056631
O O15 0.941526 0.997640 0.795142
#
# Coordination Sequence:
#
# PCOD9109675 Si02
#       7
#     2   2   2   2   2   2   2
#     4  11  23  44  62  95 139 164 214 265 328 384
#     4  10  21  42  66  95 123 166 221 270 314 372
#     4  11  23  42  68  96 128 166 220 279 317 371
#     4  11  24  41  62  98 136 175 206 262 332 395
#     4  10  21  39  67  93 130 169 219 267 317 381
#     4  11  21  41  66  94 124 173 224 260 315 387
#     4  10  20  41  66  96 119 169 225 268 308 378
#
# _framework density 24.863985
#
# number of rings (size 3 to 8) (size 9 to 14) (size 15 to 20)
#    0.000    1.429    1.429    6.429    0.000    1.143 
#   15.429    2.857    0.000    0.000    0.000    0.000 
#    0.000    0.000    0.000    0.000    0.000    0.000 
#
# Total GULP energy -78406.629623 kJ/mol
# GULP energy per Si atom -5600.473545 kJ/mol
# Density = 2.480739 g / cm^3
# Si number density = 24.863985 Si / 1000 Ang^3
#
#
#
# Elastic Constant Matrix: (Units=GPa)
#
#
# Indices 1 2 3 4 5 6 
#
# 1 112.1997 31.2284 -8.2021 0.2623 -12.1232 -3.3589
# 2 31.2284 165.5246 21.2168 21.2239 -3.7564 -0.1734
# 3 -8.2021 21.2168 94.9634 8.0650 -3.6863 8.0247
# 4 0.2623 21.2239 8.0650 33.8342 -3.4585 -0.3700
# 5 -12.1232 -3.7564 -3.6863 -3.4585 27.8227 2.7826
# 6 -3.3589 -0.1734 8.0247 -0.3700 2.7826 38.8791
#
#
#
# Elastic Compliance Matrix: (Units=1/GPa)
#
#
# Indices 1 2 3 4 5 6 
#
# 1 0.010100 -0.002162 0.001386 0.001405 0.004440 0.000273
# 2 -0.002162 0.007160 -0.001471 -0.004194 -0.000708 0.000160
# 3 0.001386 -0.001471 0.011395 -0.001631 0.001952 -0.002394
# 4 0.001405 -0.004194 -0.001631 0.032967 0.003880 0.000475
# 5 0.004440 -0.000708 0.001952 0.003880 0.038798 -0.002762
# 6 0.000273 0.000160 -0.002394 0.000475 -0.002762 0.026441
#
#
# Mechanical properties :
#
#
# Convention : Reuss Voigt Hill
#
# Bulk Modulus (GPa) = 41.39106 51.24153 46.31630
# Shear Modulus (GPa) = 35.86526 42.00351 38.93438
#
# Velocity S-wave (km/s) = 3.80209 4.11461 3.96143
# Velocity P-wave (km/s) = 5.99647 6.57471 6.29224
#
# Compressibility (1/GPa) = 0.02415980
#
# Stress axis : x y z
#
# Youngs Moduli (GPa) = 99.00605 139.66820 87.75553
#
# Poissons Ratio (x) = 0.30199 -0.12159
# Poissons Ratio (y) = 0.21407 0.12910
# Poissons Ratio (z) = -0.13717 0.20547
#
# Static dielectric constant tensor:
#      x y z
#    x 2.080160 -0.015610 0.071100 
#    y -0.015610 1.941930 0.021840 
#    z 0.071100 0.021840 1.951040 
# 
# From -- ./inp_files/279592.got.cif
#   From: 2010.05.17/outbox.cif.g08.bks.cpg/sg2_140_cif.got.tgz:279592.got - 2010.06.03 11:33:40.
