data_PCOD9109267
_publ_section_title
;
Structure prediction by ZEFSAII (Michael W. Deem and Ramdas Pophale) SiO2 
 PCOD9109267
Probable space group: P -1
;
_chemical_formula_sum "Si O2"
_cell_formula_units_Z 16
_cell_length_a 26.885201
_cell_length_b 15.057310
_cell_length_c 12.875514
_cell_angle_alpha 148.852125
_cell_angle_beta 155.125086
_cell_angle_gamma 17.892454
_cell_volume 672.456749
_symmetry_space_group_name_H-M "P -1"
_symmetry_group_IT_number 2
_symmetry_cell_setting 'triclinic'
loop_
_space_group_symop_operation_xyz
x,y,z
-x,-y,-z
loop_
_atom_site_type_symbol
_atom_site_label
_atom_site_fract_x
_atom_site_fract_y
_atom_site_fract_z
Si Si1 0.960687 0.919295 0.689335
Si Si2 0.621616 0.134488 0.362121
Si Si3 0.279358 0.324125 0.805369
Si Si4 0.578080 0.271563 0.065590
Si Si5 0.006265 0.699648 0.339511
Si Si6 0.328811 0.465818 0.584742
Si Si7 0.332983 0.085669 0.451754
Si Si8 0.716605 0.203794 0.821623
O O1 0.065452 0.975608 0.970558
O O2 0.413758 0.312616 0.101188
O O3 0.002786 0.838587 0.567271
O O4 0.736830 0.127757 0.497290
O O5 0.731031 0.824169 0.284340
O O6 0.842460 0.622770 0.655495
O O7 0.619139 0.235620 0.567496
O O8 0.366596 0.147862 0.685569
O O9 0.664637 0.358417 0.284546
O O10 0.423816 0.488361 0.083625
O O11 0.447825 0.354111 0.806404
O O12 0.773841 0.928582 0.113023
O O13 0.110171 0.656585 0.391517
O O14 0.539636 0.821714 0.518751
O O15 0.077015 0.645997 0.707211
O O16 0.265113 0.972791 0.239390
#
# Coordination Sequence:
#
# PCOD9109267 Si02
#       8
#     2   2   2   2   2   2   2   2
#     4  11  22  37  64  91 128 166 205 261 312 371
#     4  10  21  40  65  90 125 166 212 254 316 371
#     4   9  21  41  62  92 125 163 207 263 312 367
#     4  10  22  39  64  91 128 164 205 260 319 369
#     4  11  22  38  64  94 123 168 212 253 312 382
#     4  10  20  41  64  91 127 163 204 267 313 367
#     4   9  21  40  67  90 131 165 209 264 313 365
#     4  10  21  42  62  94 130 167 207 263 311 371
#
# _framework density 23.793351999999999
#
# number of rings (size 3 to 8) (size 9 to 14) (size 15 to 20)
#    0.000    2.000    1.250    1.500    1.750    1.000 
#    2.250    2.500   11.000    0.000    0.000    0.000 
#    0.000    0.000    0.000    0.000    0.000    0.000 
#
# Total GULP energy -89516.972600 kJ/mol
# GULP energy per Si atom -5594.810787 kJ/mol
# Density = 2.373920 g / cm^3
# Si number density = 23.793352 Si / 1000 Ang^3
#
#
#
# Elastic Constant Matrix: (Units=GPa)
#
#
# Indices 1 2 3 4 5 6 
#
# 1 68.9779 10.8095 29.9140 6.7184 22.3883 -6.0162
# 2 10.8095 59.0548 27.7762 3.9023 10.4060 3.4310
# 3 29.9140 27.7762 116.9588 -3.0342 18.1390 -3.8850
# 4 6.7184 3.9023 -3.0342 23.5962 2.8050 -2.2984
# 5 22.3883 10.4060 18.1390 2.8050 31.2740 -4.7452
# 6 -6.0162 3.4310 -3.8850 -2.2984 -4.7452 24.9980
#
#
#
# Elastic Compliance Matrix: (Units=1/GPa)
#
#
# Indices 1 2 3 4 5 6 
#
# 1 0.020490 0.000234 -0.003497 -0.004731 -0.012046 0.001634
# 2 0.000234 0.020327 -0.004409 -0.003888 -0.004735 -0.004675
# 3 -0.003497 -0.004409 0.011022 0.003573 -0.002543 0.001323
# 4 -0.004731 -0.003888 0.003573 0.045316 -0.000856 0.003954
# 5 -0.012046 -0.004735 -0.002543 -0.000856 0.044597 0.005742
# 6 0.001634 -0.004675 0.001323 0.003954 0.005742 0.042697
#
#
# Mechanical properties :
#
#
# Convention : Reuss Voigt Hill
#
# Bulk Modulus (GPa) = 27.39951 42.44341 34.92146
# Shear Modulus (GPa) = 23.58943 27.73975 25.66459
#
# Velocity S-wave (km/s) = 3.15211 3.41818 3.28784
# Velocity P-wave (km/s) = 4.97879 5.78409 5.39648
#
# Compressibility (1/GPa) = 0.03649700
#
# Stress axis : x y z
#
# Youngs Moduli (GPa) = 48.80367 49.19513 90.72418
#
# Poissons Ratio (x) = -0.01153 0.31723
# Poissons Ratio (y) = -0.01144 0.40003
# Poissons Ratio (z) = 0.17065 0.21691
#
# Static dielectric constant tensor:
#      x y z
#    x 1.912770 0.012380 0.015320 
#    y 0.012380 1.915900 0.018310 
#    z 0.015320 0.018310 1.852450 
# 
# From -- ./inp_files/544175.got.cif
#   From: 2010.05.17/outbox.cif.g08.bks.cpg/sg2_273_cif.got.tgz:544175.got - 2010.06.03 11:33:40.
