data_PCOD9109620
_publ_section_title
;
Structure prediction by ZEFSAII (Michael W. Deem and Ramdas Pophale) SiO2 
 PCOD9109620
Probable space group: P -1
;
_chemical_formula_sum "Si O2"
_cell_formula_units_Z 14
_cell_length_a 20.697463
_cell_length_b 19.476623
_cell_length_c 5.015878
_cell_angle_alpha 112.920888
_cell_angle_beta 110.029958
_cell_angle_gamma 17.440473
_cell_volume 555.071339
_symmetry_space_group_name_H-M "P -1"
_symmetry_group_IT_number 2
_symmetry_cell_setting 'triclinic'
loop_
_space_group_symop_operation_xyz
x,y,z
-x,-y,-z
loop_
_atom_site_type_symbol
_atom_site_label
_atom_site_fract_x
_atom_site_fract_y
_atom_site_fract_z
Si Si1 0.578713 0.262714 0.281936
Si Si2 0.752949 0.231438 0.588500
Si Si3 0.011761 0.628462 0.042798
Si Si4 0.609719 0.849470 0.178326
Si Si5 0.558937 0.119661 0.242698
Si Si6 0.312812 0.564109 0.857163
Si Si7 0.842925 0.431385 0.343534
O O1 0.755082 0.139719 0.451329
O O2 0.516707 0.336606 0.997513
O O3 0.618131 0.137167 0.220146
O O4 0.368625 0.497820 0.526164
O O5 0.500000 0.500000 0.500000
O O6 0.736631 0.299889 0.931977
O O7 0.000000 0.000000 0.500000
O O8 0.080973 0.622463 0.338857
O O9 0.779995 0.848855 0.175914
O O10 0.133384 0.424095 0.880081
O O11 0.033236 0.645901 0.811779
O O12 0.500000 0.000000 0.500000
O O13 0.500000 0.000000 0.000000
O O14 0.565728 0.806031 0.023090
O O15 0.413062 0.285050 0.545533
O O16 0.146610 0.667849 0.844895
#
# Coordination Sequence:
#
# PCOD9109620 Si02
#       7
#     2   2   2   2   2   2   2
#     4  10  22  42  67  97 131 179 227 285 346 413
#     4  10  23  44  68 103 143 192 241 298 359 423
#     4  11  24  41  68  98 129 175 224 271 348 409
#     4  11  24  43  66  96 132 170 218 280 341 415
#     4  10  24  44  69  97 136 175 228 279 348 410
#     4  10  20  41  66  92 137 178 230 281 346 399
#     4  10  22  41  64  98 136 174 228 281 331 407
#
# _framework density 25.221983999999999
#
# number of rings (size 3 to 8) (size 9 to 14) (size 15 to 20)
#    0.000    1.714    0.000    4.714    2.000    8.000 
#    5.143    5.714    0.000    0.000    0.000    0.000 
#    0.000    0.000    0.000    0.000    0.000    0.000 
#
# Total GULP energy -77976.418541 kJ/mol
# GULP energy per Si atom -5569.744181 kJ/mol
# Density = 2.516458 g / cm^3
# Si number density = 25.221984 Si / 1000 Ang^3
#
#
#
# Elastic Constant Matrix: (Units=GPa)
#
#
# Indices 1 2 3 4 5 6 
#
# 1 105.5992 3.6509 23.9535 -4.9639 5.7981 -7.3185
# 2 3.6509 39.9474 26.2346 19.0617 -7.1689 -5.2547
# 3 23.9535 26.2346 135.9900 0.3324 14.9579 1.5788
# 4 -4.9639 19.0617 0.3324 35.1485 0.0102 -3.7628
# 5 5.7981 -7.1689 14.9579 0.0102 43.4394 -2.3797
# 6 -7.3185 -5.2547 1.5788 -3.7628 -2.3797 21.3369
#
#
#
# Elastic Compliance Matrix: (Units=1/GPa)
#
#
# Indices 1 2 3 4 5 6 
#
# 1 0.010273 -0.000442 -0.001703 0.002118 -0.000648 0.003842
# 2 -0.000442 0.046789 -0.010297 -0.024363 0.011834 0.009156
# 3 -0.001703 -0.010297 0.010241 0.004863 -0.005197 -0.003600
# 4 0.002118 -0.024363 0.004863 0.042038 -0.005927 0.001119
# 5 -0.000648 0.011834 -0.005197 -0.005927 0.027128 0.005057
# 6 0.003842 0.009156 -0.003600 0.001119 0.005057 0.051468
#
#
# Mechanical properties :
#
#
# Convention : Reuss Voigt Hill
#
# Bulk Modulus (GPa) = 23.57412 43.24604 33.41008
# Shear Modulus (GPa) = 22.03036 35.16479 28.59757
#
# Velocity S-wave (km/s) = 2.95864 3.73797 3.37090
# Velocity P-wave (km/s) = 4.58676 5.98442 5.33158
#
# Compressibility (1/GPa) = 0.04241939
#
# Stress axis : x y z
#
# Youngs Moduli (GPa) = 97.34555 21.37261 97.64379
#
# Poissons Ratio (x) = 0.00945 0.16625
# Poissons Ratio (y) = 0.04306 1.00541
# Poissons Ratio (z) = 0.16574 0.22007
#
# Static dielectric constant tensor:
#      x y z
#    x 2.085190 -0.075720 0.022810 
#    y -0.075720 2.543610 0.084950 
#    z 0.022810 0.084950 1.909510 
# 
# From -- ./inp_files/120333.got.cif
#   From: 2010.05.17/outbox.cif.g08.bks.cpg/sg2_61_cif.got.tgz:120333.got - 2010.06.03 11:33:40.
