data_PCOD9109059
_publ_section_title
;
Structure prediction by ZEFSAII (Michael W. Deem and Ramdas Pophale) SiO2 
 PCOD9109059
Probable space group: P -1
;
_chemical_formula_sum "Si O2"
_cell_formula_units_Z 14
_cell_length_a 11.983630
_cell_length_b 16.417082
_cell_length_c 18.135003
_cell_angle_alpha 21.761253
_cell_angle_beta 147.852731
_cell_angle_gamma 150.926226
_cell_volume 630.534377
_symmetry_space_group_name_H-M "P -1"
_symmetry_group_IT_number 2
_symmetry_cell_setting 'triclinic'
loop_
_space_group_symop_operation_xyz
x,y,z
-x,-y,-z
loop_
_atom_site_type_symbol
_atom_site_label
_atom_site_fract_x
_atom_site_fract_y
_atom_site_fract_z
Si Si1 0.313850 0.756183 0.663269
Si Si2 0.492824 0.367616 0.860827
Si Si3 0.079535 0.446410 0.510475
Si Si4 0.032936 0.623029 0.098858
Si Si5 0.184023 0.281683 0.375934
Si Si6 0.586265 0.167806 0.740627
Si Si7 0.658199 0.752765 0.747185
O O1 0.174956 0.554170 0.814857
O O2 0.546514 0.754159 0.763076
O O3 0.138435 0.700472 0.541696
O O4 0.362363 0.024232 0.493518
O O5 0.244967 0.313508 0.730200
O O6 0.606809 0.731723 0.448777
O O7 0.506383 0.494677 0.839920
O O8 0.695450 0.577589 0.749887
O O9 0.242755 0.692696 0.349301
O O10 0.000000 0.500000 0.500000
O O11 0.079630 0.448329 0.215642
O O12 0.260545 0.765784 0.155542
O O13 0.924517 0.793192 0.861468
O O14 0.523519 0.122528 0.088566
O O15 0.000000 0.000000 0.500000
#
# Coordination Sequence:
#
# PCOD9109059 Si02
#       7
#     2   2   2   2   2   2   2
#     4  10  22  40  60  88 124 162 203 247 304 358
#     4  11  23  40  63  96 122 159 209 247 307 361
#     4  10  20  41  62  89 124 161 200 250 302 359
#     4  11  23  41  61  89 123 162 204 247 304 363
#     4  11  24  42  65  90 123 161 205 258 302 357
#     4  10  24  41  63  93 121 162 205 251 306 364
#     4  11  22  38  61  89 123 163 200 252 299 363
#
# _framework density 22.203389000000001
#
# number of rings (size 3 to 8) (size 9 to 14) (size 15 to 20)
#    0.000    1.429    1.429    3.429    0.000    5.714 
#    2.571    0.000    0.000    0.000    0.000    0.000 
#    0.000    0.000    0.000    0.000    0.000    0.000 
#
# Total GULP energy -78298.268984 kJ/mol
# GULP energy per Si atom -5592.733499 kJ/mol
# Density = 2.215285 g / cm^3
# Si number density = 22.203389 Si / 1000 Ang^3
#
#
#
# Elastic Constant Matrix: (Units=GPa)
#
#
# Indices 1 2 3 4 5 6 
#
# 1 66.3411 17.8135 28.9544 4.4304 27.4811 -0.0419
# 2 17.8135 68.9609 21.9470 2.9343 12.0765 3.5687
# 3 28.9544 21.9470 107.4485 3.6207 32.5547 0.2646
# 4 4.4304 2.9343 3.6207 40.9653 0.0217 2.1349
# 5 27.4811 12.0765 32.5547 0.0217 32.8529 -0.9025
# 6 -0.0419 3.5687 0.2646 2.1349 -0.9025 29.5620
#
#
#
# Elastic Compliance Matrix: (Units=1/GPa)
#
#
# Indices 1 2 3 4 5 6 
#
# 1 0.023794 -0.002724 -0.000070 -0.002360 -0.018833 -0.000041
# 2 -0.002724 0.016285 -0.002041 -0.000588 -0.001739 -0.001962
# 3 -0.000070 -0.002041 0.013625 -0.001034 -0.012697 -0.000189
# 4 -0.002360 -0.000588 -0.001034 0.024883 0.003154 -0.001624
# 5 -0.018833 -0.001739 -0.012697 0.003154 0.059462 0.001885
# 6 -0.000041 -0.001962 -0.000189 -0.001624 0.001885 0.034240
#
#
# Mechanical properties :
#
#
# Convention : Reuss Voigt Hill
#
# Bulk Modulus (GPa) = 22.70902 42.24224 32.47563
# Shear Modulus (GPa) = 25.42759 32.27842 28.85300
#
# Velocity S-wave (km/s) = 3.38777 3.81696 3.60875
# Velocity P-wave (km/s) = 5.05496 6.20419 5.65882
#
# Compressibility (1/GPa) = 0.04403536
#
# Stress axis : x y z
#
# Youngs Moduli (GPa) = 42.02691 61.40566 73.39640
#
# Poissons Ratio (x) = 0.16724 0.00514
# Poissons Ratio (y) = 0.11446 0.14978
# Poissons Ratio (z) = 0.00295 0.12531
#
# Static dielectric constant tensor:
#      x y z
#    x 1.790460 -0.000470 -0.011730 
#    y -0.000470 1.822410 0.029830 
#    z -0.011730 0.029830 1.819890 
# 
# From -- ./inp_files/595975.got.cif
#   From: 2010.05.17/outbox.cif.g08.bks.cpg/sg2_298_cif.got.tgz:595975.got - 2010.06.03 11:33:40.
