data_PCOD9109305
_publ_section_title
;
Structure prediction by ZEFSAII (Michael W. Deem and Ramdas Pophale) SiO2 
 PCOD9109305
Probable space group: P -1
;
_chemical_formula_sum "Si O2"
_cell_formula_units_Z 14
_cell_length_a 12.556599
_cell_length_b 18.982948
_cell_length_c 8.184294
_cell_angle_alpha 126.332322
_cell_angle_beta 69.756623
_cell_angle_gamma 153.769682
_cell_volume 592.949543
_symmetry_space_group_name_H-M "P -1"
_symmetry_group_IT_number 2
_symmetry_cell_setting 'triclinic'
loop_
_space_group_symop_operation_xyz
x,y,z
-x,-y,-z
loop_
_atom_site_type_symbol
_atom_site_label
_atom_site_fract_x
_atom_site_fract_y
_atom_site_fract_z
Si Si1 0.413960 0.024298 0.175859
Si Si2 0.050759 0.094906 0.946748
Si Si3 0.178360 0.376005 0.235050
Si Si4 0.865566 0.221137 0.677314
Si Si5 0.435606 0.629527 0.117830
Si Si6 0.421436 0.799653 0.192823
Si Si7 0.584271 0.298894 0.290270
O O1 0.339281 0.948060 0.294051
O O2 0.625458 0.252498 0.339647
O O3 0.122086 0.841145 0.990657
O O4 0.500000 0.000000 0.000000
O O5 0.259853 0.189725 0.848779
O O6 0.211092 0.300319 0.176768
O O7 0.731461 0.886185 0.770179
O O8 0.000000 0.000000 0.000000
O O9 0.373502 0.547282 0.216556
O O10 0.207892 0.473207 0.485683
O O11 0.806328 0.283202 0.773372
O O12 0.725255 0.063149 0.395425
O O13 0.179778 0.420000 0.843402
O O14 0.421746 0.724199 0.226265
O O15 0.395901 0.733410 0.940661
#
# Coordination Sequence:
#
# PCOD9109305 Si02
#       7
#     2   2   2   2   2   2   2
#     4  10  20  41  64  93 131 169 215 259 318 379
#     4  11  24  45  66  95 129 166 219 268 322 382
#     4  10  25  42  67  97 128 171 213 266 325 382
#     4  10  23  41  64  93 131 173 214 263 318 378
#     4  11  23  44  66  95 128 169 220 261 320 386
#     4  11  22  41  63  96 133 168 213 268 317 380
#     4  11  23  42  64  98 131 167 217 264 322 382
#
# _framework density 23.610778
#
# number of rings (size 3 to 8) (size 9 to 14) (size 15 to 20)
#    0.000    1.429    2.857    1.714    0.000    5.143 
#    2.571    0.000    0.000    0.000    0.000    0.000 
#    0.000    0.000    0.000    0.000    0.000    0.000 
#
# Total GULP energy -78233.854286 kJ/mol
# GULP energy per Si atom -5588.132449 kJ/mol
# Density = 2.355704 g / cm^3
# Si number density = 23.610778 Si / 1000 Ang^3
#
#
#
# Elastic Constant Matrix: (Units=GPa)
#
#
# Indices 1 2 3 4 5 6 
#
# 1 106.9904 35.5850 21.1435 6.8243 -31.9542 -33.0351
# 2 35.5850 101.2354 18.2807 7.9288 -6.5090 -18.7531
# 3 21.1435 18.2807 113.8831 -0.1374 -19.1117 -21.0944
# 4 6.8243 7.9288 -0.1374 28.1094 -3.9235 -4.2076
# 5 -31.9542 -6.5090 -19.1117 -3.9235 28.0478 19.2204
# 6 -33.0351 -18.7531 -21.0944 -4.2076 19.2204 41.3405
#
#
#
# Elastic Compliance Matrix: (Units=1/GPa)
#
#
# Indices 1 2 3 4 5 6 
#
# 1 0.016582 -0.004150 0.001050 0.000009 0.015390 0.004749
# 2 -0.004150 0.012159 -0.001455 -0.002671 -0.005992 0.003972
# 3 0.001050 -0.001455 0.010377 0.001488 0.006285 0.002703
# 4 0.000009 -0.002671 0.001488 0.037174 0.004868 0.001075
# 5 0.015390 -0.005992 0.006285 0.004868 0.069942 -0.019235
# 6 0.004749 0.003972 0.002703 0.001075 -0.019235 0.040218
#
#
# Mechanical properties :
#
#
# Convention : Reuss Voigt Hill
#
# Bulk Modulus (GPa) = 33.32320 52.45860 42.89090
# Shear Modulus (GPa) = 24.32348 35.97283 30.14816
#
# Velocity S-wave (km/s) = 3.21313 3.90754 3.57722
# Velocity P-wave (km/s) = 5.28297 6.52876 5.93863
#
# Compressibility (1/GPa) = 0.03000912
#
# Stress axis : x y z
#
# Youngs Moduli (GPa) = 60.30754 82.24436 96.36911
#
# Poissons Ratio (x) = 0.34128 -0.10119
# Poissons Ratio (y) = 0.25025 0.14017
# Poissons Ratio (z) = -0.06333 0.11963
#
# Static dielectric constant tensor:
#      x y z
#    x 1.926020 -0.081200 -0.008270 
#    y -0.081200 1.905550 0.003650 
#    z -0.008270 0.003650 1.943670 
# 
# From -- ./inp_files/68200.got.cif
#   From: 2010.05.17/outbox.cif.g08.bks.cpg/sg2_35_cif.got.tgz:68200.got - 2010.06.03 11:33:40.
