data_PCOD9109529
_publ_section_title
;
Structure prediction by ZEFSAII (Michael W. Deem and Ramdas Pophale) SiO2 
 PCOD9109529
Probable space group: P -1
;
_chemical_formula_sum "Si O2"
_cell_formula_units_Z 16
_cell_length_a 9.008384
_cell_length_b 15.131959
_cell_length_c 8.391864
_cell_angle_alpha 79.768315
_cell_angle_beta 104.967169
_cell_angle_gamma 146.489876
_cell_volume 608.594545
_symmetry_space_group_name_H-M "P -1"
_symmetry_group_IT_number 2
_symmetry_cell_setting 'triclinic'
loop_
_space_group_symop_operation_xyz
x,y,z
-x,-y,-z
loop_
_atom_site_type_symbol
_atom_site_label
_atom_site_fract_x
_atom_site_fract_y
_atom_site_fract_z
Si Si1 0.374932 0.883079 0.651176
Si Si2 0.965627 0.175420 0.846577
Si Si3 0.291780 0.252475 0.182669
Si Si4 0.385191 0.718897 0.541439
Si Si5 0.109367 0.492722 0.248765
Si Si6 0.795451 0.272130 0.957097
Si Si7 0.246402 0.005574 0.703425
Si Si8 0.460643 0.451315 0.687549
O O1 0.236390 0.734059 0.566804
O O2 0.500000 0.000000 0.500000
O O3 0.213483 0.884708 0.691922
O O4 0.660769 0.994633 0.781280
O O5 0.146071 0.284913 0.705780
O O6 0.920806 0.243722 0.919661
O O7 0.151311 0.196265 0.991484
O O8 0.519513 0.290053 0.275045
O O9 0.417118 0.409556 0.215500
O O10 0.044650 0.105142 0.279272
O O11 0.216200 0.572171 0.428245
O O12 0.625066 0.875635 0.444085
O O13 0.085941 0.581511 0.140342
O O14 0.366377 0.556166 0.238075
O O15 0.863004 0.317341 0.148001
O O16 0.476387 0.118308 0.869635
O O17 0.500000 0.500000 0.500000
#
# Coordination Sequence:
#
# PCOD9109529 Si02
#       8
#     2   2   2   2   2   2   2   2
#     4   9  21  41  68  95 135 174 219 274 325 389
#     4  11  25  45  68  97 136 173 220 277 330 391
#     4  12  24  41  68 102 135 174 218 274 333 390
#     4  10  21  40  66 100 136 176 223 268 326 393
#     4  10  20  41  66 100 128 179 221 270 327 385
#     4   9  20  41  70  96 136 171 222 274 328 385
#     4   9  21  41  69  99 129 177 222 272 327 391
#     4  12  26  44  68  98 131 179 222 268 333 397
#
# _framework density 26.29008
#
# number of rings (size 3 to 8) (size 9 to 14) (size 15 to 20)
#    0.000    1.750    2.500    1.500    3.500    4.500 
#    0.000    3.125    0.000    0.000    0.000    0.000 
#    0.000    0.000    0.000    0.000    0.000    0.000 
#
# Total GULP energy -89540.910754 kJ/mol
# GULP energy per Si atom -5596.306922 kJ/mol
# Density = 2.623024 g / cm^3
# Si number density = 26.290080 Si / 1000 Ang^3
#
#
#
# Elastic Constant Matrix: (Units=GPa)
#
#
# Indices 1 2 3 4 5 6 
#
# 1 83.1217 59.8702 35.1812 12.2749 -10.0854 -17.1932
# 2 59.8702 135.3710 19.0958 13.4102 5.2352 -11.1729
# 3 35.1812 19.0958 74.9564 -13.3616 16.7619 -0.5494
# 4 12.2749 13.4102 -13.3616 31.5026 0.3514 -6.8537
# 5 -10.0854 5.2352 16.7619 0.3514 35.7195 -7.7528
# 6 -17.1932 -11.1729 -0.5494 -6.8537 -7.7528 42.5363
#
#
#
# Elastic Compliance Matrix: (Units=1/GPa)
#
#
# Indices 1 2 3 4 5 6 
#
# 1 0.042239 -0.012906 -0.026507 -0.019124 0.029852 0.015700
# 2 -0.012906 0.012316 0.005038 0.001309 -0.008534 -0.003261
# 3 -0.026507 0.005038 0.034072 0.020651 -0.026691 -0.010488
# 4 -0.019124 0.001309 0.020651 0.047033 -0.016290 -0.002510
# 5 0.029852 -0.008534 -0.026691 -0.016290 0.053984 0.016695
# 6 0.015700 -0.003261 -0.010488 -0.002510 0.016695 0.031502
#
#
# Mechanical properties :
#
#
# Convention : Reuss Voigt Hill
#
# Bulk Modulus (GPa) = 50.31139 57.97150 54.14145
# Shear Modulus (GPa) = 16.86225 33.90514 25.38370
#
# Velocity S-wave (km/s) = 2.53532 3.59507 3.11066
# Velocity P-wave (km/s) = 5.26773 6.27147 5.79139
#
# Compressibility (1/GPa) = 0.01987621
#
# Stress axis : x y z
#
# Youngs Moduli (GPa) = 23.67481 81.19776 29.34978
#
# Poissons Ratio (x) = 1.04794 0.77797
# Poissons Ratio (y) = 0.30555 -0.14785
# Poissons Ratio (z) = 0.62754 -0.40905
#
# Static dielectric constant tensor:
#      x y z
#    x 1.960800 0.066320 -0.028010 
#    y 0.066320 2.207140 -0.134080 
#    z -0.028010 -0.134080 2.153210 
# 
# From -- ./inp_files/207077.got.cif
#   From: 2010.05.17/outbox.cif.g08.bks.cpg/sg2_104_cif.got.tgz:207077.got - 2010.06.03 11:33:40.
