data_PCOD9109652
_publ_section_title
;
Structure prediction by ZEFSAII (Michael W. Deem and Ramdas Pophale) SiO2 
 PCOD9109652
Probable space group: P -1
;
_chemical_formula_sum "Si O2"
_cell_formula_units_Z 16
_cell_length_a 17.667621
_cell_length_b 8.877521
_cell_length_c 17.241256
_cell_angle_alpha 124.452267
_cell_angle_beta 23.481086
_cell_angle_gamma 137.164260
_cell_volume 673.171427
_symmetry_space_group_name_H-M "P -1"
_symmetry_group_IT_number 2
_symmetry_cell_setting 'triclinic'
loop_
_space_group_symop_operation_xyz
x,y,z
-x,-y,-z
loop_
_atom_site_type_symbol
_atom_site_label
_atom_site_fract_x
_atom_site_fract_y
_atom_site_fract_z
Si Si1 0.262112 0.700524 0.854561
Si Si2 0.358761 0.989467 0.555116
Si Si3 0.897900 0.718765 0.721905
Si Si4 0.164708 0.597270 0.513415
Si Si5 0.449845 0.435258 0.619320
Si Si6 0.008140 0.813689 0.240040
Si Si7 0.242016 0.944729 0.228025
Si Si8 0.414854 0.430583 0.186449
O O1 0.458866 0.875093 0.652606
O O2 0.342008 0.563264 0.783374
O O3 0.195129 0.818418 0.011214
O O4 0.000000 0.500000 0.000000
O O5 0.281082 0.147355 0.697100
O O6 0.500000 0.000000 0.500000
O O7 0.159751 0.718415 0.630501
O O8 0.745057 0.634311 0.761030
O O9 0.115878 0.706734 0.521044
O O10 0.008467 0.986990 0.713101
O O11 0.688069 0.544972 0.933420
O O12 0.409430 0.622214 0.289539
O O13 0.950946 0.309471 0.623175
O O14 0.500000 0.500000 0.500000
O O15 0.722894 0.563087 0.435513
O O16 0.129592 0.890741 0.232339
O O17 0.294722 0.186078 0.275258
O O18 0.500000 0.000000 0.000000
#
# Coordination Sequence:
#
# PCOD9109652 Si02
#       8
#     2   2   2   2   2   2   2   2
#     4  11  22  41  72  95 128 177 222 258 318 403
#     4  11  24  43  64  97 138 167 212 274 326 375
#     4  10  21  38  66  93 125 158 211 272 313 377
#     4  12  23  40  67  89 129 171 210 262 333 382
#     4  10  20  41  66  94 133 174 214 264 322 385
#     4  11  22  42  68  95 130 172 219 263 325 384
#     4  11  24  46  64  92 134 172 212 278 325 385
#     4  10  22  42  62  92 124 164 213 262 322 388
#
# _framework density 23.768091999999999
#
# number of rings (size 3 to 8) (size 9 to 14) (size 15 to 20)
#    0.000    1.250    3.750    3.750    0.000    0.000 
#   11.250    0.625    0.000    0.000    0.000    0.000 
#    0.000    0.000    0.000    0.000    0.000    0.000 
#
# Total GULP energy -89413.999125 kJ/mol
# GULP energy per Si atom -5588.374945 kJ/mol
# Density = 2.371399 g / cm^3
# Si number density = 23.768092 Si / 1000 Ang^3
#
#
#
# Elastic Constant Matrix: (Units=GPa)
#
#
# Indices 1 2 3 4 5 6 
#
# 1 66.9111 21.5560 12.3956 12.4143 -20.2139 0.3237
# 2 21.5560 154.5658 31.5425 32.8634 -0.4658 -18.3188
# 3 12.3956 31.5425 81.3817 12.4274 -6.5028 -3.8787
# 4 12.4143 32.8634 12.4274 40.6787 -1.4260 -11.6785
# 5 -20.2139 -0.4658 -6.5028 -1.4260 31.3619 2.5379
# 6 0.3237 -18.3188 -3.8787 -11.6785 2.5379 34.0021
#
#
#
# Elastic Compliance Matrix: (Units=1/GPa)
#
#
# Indices 1 2 3 4 5 6 
#
# 1 0.020747 -0.002113 -0.000692 -0.005146 0.013301 -0.004175
# 2 -0.002113 0.008601 -0.002307 -0.004846 -0.002167 0.002888
# 3 -0.000692 -0.002307 0.013785 -0.002228 0.002326 -0.000603
# 4 -0.005146 -0.004846 -0.002228 0.033169 -0.003055 0.008805
# 5 0.013301 -0.002167 0.002326 -0.003055 0.041187 -0.005152
# 6 -0.004175 0.002888 -0.000603 0.008805 -0.005152 0.034346
#
#
# Mechanical properties :
#
#
# Convention : Reuss Voigt Hill
#
# Bulk Modulus (GPa) = 30.38635 48.20520 39.29577
# Shear Modulus (GPa) = 28.89689 37.03285 32.96487
#
# Velocity S-wave (km/s) = 3.49059 3.95155 3.72820
# Velocity P-wave (km/s) = 5.39054 6.41445 5.92466
#
# Compressibility (1/GPa) = 0.03290951
#
# Stress axis : x y z
#
# Youngs Moduli (GPa) = 48.19910 116.26014 72.54413
#
# Poissons Ratio (x) = 0.24566 0.05016
# Poissons Ratio (y) = 0.10184 0.16739
# Poissons Ratio (z) = 0.03333 0.26826
#
# Static dielectric constant tensor:
#      x y z
#    x 1.854620 -0.006620 0.016980 
#    y -0.006620 2.024700 0.011710 
#    z 0.016980 0.011710 1.953390 
# 
# From -- ./inp_files/601188.got.cif
#   From: 2010.05.17/outbox.cif.g08.bks.cpg/sg2_301_cif.got.tgz:601188.got - 2010.06.03 11:33:40.
