data_PCOD9109584
_publ_section_title
;
Structure prediction by ZEFSAII (Michael W. Deem and Ramdas Pophale) SiO2 
 PCOD9109584
Probable space group: P -1
;
_chemical_formula_sum "Si O2"
_cell_formula_units_Z 16
_cell_length_a 13.114417
_cell_length_b 28.943555
_cell_length_c 8.966488
_cell_angle_alpha 38.987788
_cell_angle_beta 148.391696
_cell_angle_gamma 157.147871
_cell_volume 692.270921
_symmetry_space_group_name_H-M "P -1"
_symmetry_group_IT_number 2
_symmetry_cell_setting 'triclinic'
loop_
_space_group_symop_operation_xyz
x,y,z
-x,-y,-z
loop_
_atom_site_type_symbol
_atom_site_label
_atom_site_fract_x
_atom_site_fract_y
_atom_site_fract_z
Si Si1 0.659336 0.372709 0.332193
Si Si2 0.410462 0.367091 0.314686
Si Si3 0.177650 0.726126 0.081638
Si Si4 0.259525 0.750125 0.792764
Si Si5 0.860722 0.853573 0.283274
Si Si6 0.520111 0.023161 0.138704
Si Si7 0.851343 0.117498 0.711651
Si Si8 0.922402 0.423124 0.232170
O O1 0.421766 0.346844 0.206391
O O2 0.679954 0.383306 0.153021
O O3 0.000000 0.500000 0.500000
O O4 0.638429 0.280771 0.580912
O O5 0.307051 0.264580 0.542104
O O6 0.751991 0.491935 0.486375
O O7 0.158321 0.355336 0.060709
O O8 0.134786 0.685449 0.960410
O O9 0.352240 0.856873 0.970323
O O10 0.109331 0.784274 0.498683
O O11 0.191493 0.682270 0.732941
O O12 0.639743 0.858185 0.017349
O O13 0.216033 0.956897 0.526725
O O14 0.902250 0.848579 0.172977
O O15 0.194113 0.918307 0.084722
O O16 0.500000 0.000000 0.000000
O O17 0.500000 0.000000 0.500000
O O18 0.000000 0.500000 0.000000
#
# Coordination Sequence:
#
# PCOD9109584 Si02
#       8
#     2   2   2   2   2   2   2   2
#     4  10  22  41  63  89 128 165 203 257 308 365
#     4  10  20  42  64  91 129 169 203 252 316 362
#     4  11  22  42  68  88 126 171 202 256 320 365
#     4  12  21  39  66  93 125 167 206 255 310 368
#     4  10  20  41  66  90 125 167 204 253 323 363
#     4  10  23  43  64  91 127 160 214 263 303 374
#     4  10  21  41  62  90 126 165 206 257 311 366
#     4  11  23  39  63  96 129 160 212 256 297 380
#
# _framework density 23.112337
#
# number of rings (size 3 to 8) (size 9 to 14) (size 15 to 20)
#    0.000    1.500    6.250    0.750    1.750    4.500 
#    4.500    1.875    0.000    0.000    0.000    0.000 
#    0.000    0.000    0.000    0.000    0.000    0.000 
#
# Total GULP energy -89393.896389 kJ/mol
# GULP energy per Si atom -5587.118524 kJ/mol
# Density = 2.305973 g / cm^3
# Si number density = 23.112337 Si / 1000 Ang^3
#
#
#
# Elastic Constant Matrix: (Units=GPa)
#
#
# Indices 1 2 3 4 5 6 
#
# 1 236.9114 17.0524 44.8231 9.5619 -15.0836 20.1097
# 2 17.0524 22.0214 5.0622 -1.0884 -11.4465 1.1908
# 3 44.8231 5.0622 56.0593 -1.4989 2.2727 3.4528
# 4 9.5619 -1.0884 -1.4989 26.3155 4.1818 -5.3751
# 5 -15.0836 -11.4465 2.2727 4.1818 47.0273 1.6152
# 6 20.1097 1.1908 3.4528 -5.3751 1.6152 32.4284
#
#
#
# Elastic Compliance Matrix: (Units=1/GPa)
#
#
# Indices 1 2 3 4 5 6 
#
# 1 0.005804 -0.002471 -0.004360 -0.003524 0.001912 -0.003723
# 2 -0.002471 0.054759 -0.003422 0.000834 0.012648 -0.000606
# 3 -0.004360 -0.003422 0.021797 0.003523 -0.003642 0.001274
# 4 -0.003524 0.000834 0.003523 0.042179 -0.005158 0.009028
# 5 0.001912 0.012648 -0.003642 -0.005158 0.025707 -0.003398
# 6 -0.003723 -0.000606 0.001274 0.009028 -0.003398 0.034698
#
#
# Mechanical properties :
#
#
# Convention : Reuss Voigt Hill
#
# Bulk Modulus (GPa) = 16.16731 49.87417 33.02074
# Shear Modulus (GPa) = 22.11728 37.69121 29.90425
#
# Velocity S-wave (km/s) = 3.09681 4.04268 3.60094
# Velocity P-wave (km/s) = 4.44941 6.58915 5.62202
#
# Compressibility (1/GPa) = 0.06185320
#
# Stress axis : x y z
#
# Youngs Moduli (GPa) = 172.30440 18.26195 45.87880
#
# Poissons Ratio (x) = 0.04512 0.20002
# Poissons Ratio (y) = 0.42575 0.15701
# Poissons Ratio (z) = 0.75120 0.06250
#
# Static dielectric constant tensor:
#      x y z
#    x 1.893980 0.036160 -0.041500 
#    y 0.036160 1.926710 -0.008560 
#    z -0.041500 -0.008560 1.880980 
# 
# From -- ./inp_files/285527.got.cif
#   From: 2010.05.17/outbox.cif.g08.bks.cpg/sg2_143_cif.got.tgz:285527.got - 2010.06.03 11:33:40.
