data_PCOD9109354
_publ_section_title
;
Structure prediction by ZEFSAII (Michael W. Deem and Ramdas Pophale) SiO2 
 PCOD9109354
Probable space group: P -1
;
_chemical_formula_sum "Si O2"
_cell_formula_units_Z 16
_cell_length_a 8.232032
_cell_length_b 18.958399
_cell_length_c 10.186935
_cell_angle_alpha 147.927296
_cell_angle_beta 133.067783
_cell_angle_gamma 61.140831
_cell_volume 597.546610
_symmetry_space_group_name_H-M "P -1"
_symmetry_group_IT_number 2
_symmetry_cell_setting 'triclinic'
loop_
_space_group_symop_operation_xyz
x,y,z
-x,-y,-z
loop_
_atom_site_type_symbol
_atom_site_label
_atom_site_fract_x
_atom_site_fract_y
_atom_site_fract_z
Si Si1 0.800219 0.346250 0.079258
Si Si2 0.922255 0.847847 0.631990
Si Si3 0.430139 0.673550 0.446926
Si Si4 0.162324 0.874704 0.552115
Si Si5 0.502092 0.950767 0.644002
Si Si6 0.401238 0.391226 0.096517
Si Si7 0.680888 0.806530 0.046352
Si Si8 0.142032 0.361045 0.509092
O O1 0.653871 0.398697 0.193984
O O2 0.848548 0.476772 0.211940
O O3 0.022892 0.328395 0.250088
O O4 0.655831 0.195433 0.722177
O O5 0.760558 0.943266 0.745470
O O6 0.979897 0.751133 0.627513
O O7 0.100114 0.921711 0.734713
O O8 0.758549 0.731890 0.267964
O O9 0.213508 0.728080 0.373667
O O10 0.342887 0.529787 0.243167
O O11 0.584588 0.776893 0.800374
O O12 0.599186 0.657099 0.394798
O O13 0.396927 0.951046 0.731993
O O14 0.950680 0.864730 0.319232
O O15 0.446048 0.091034 0.784149
O O16 0.377715 0.342349 0.154158
#
# Coordination Sequence:
#
# PCOD9109354 Si02
#       8
#     2   2   2   2   2   2   2   2
#     4   9  21  37  70  96 131 179 217 274 335 389
#     4  10  23  41  68 100 130 169 224 272 329 399
#     4  11  23  43  69  98 133 173 220 284 328 385
#     4  11  25  43  69 100 128 179 219 272 331 390
#     4  11  23  47  67  91 138 180 213 276 329 392
#     4   9  22  41  66 100 130 172 220 280 331 385
#     4  11  25  44  66  97 135 177 225 267 329 404
#     4  10  20  41  65 102 133 169 225 274 332 391
#
# _framework density 26.776153999999998
#
# number of rings (size 3 to 8) (size 9 to 14) (size 15 to 20)
#    0.000    1.750    1.250    1.500    3.500    8.500 
#    4.500    0.625    0.000    0.000    0.000    0.000 
#    0.000    0.000    0.000    0.000    0.000    0.000 
#
# Total GULP energy -89495.089966 kJ/mol
# GULP energy per Si atom -5593.443123 kJ/mol
# Density = 2.671521 g / cm^3
# Si number density = 26.776154 Si / 1000 Ang^3
#
#
#
# Elastic Constant Matrix: (Units=GPa)
#
#
# Indices 1 2 3 4 5 6 
#
# 1 118.6512 26.1149 18.9618 -1.9549 15.6608 -5.0146
# 2 26.1149 97.4873 27.1872 12.9651 10.8658 -11.7945
# 3 18.9618 27.1872 84.7209 -3.8767 -9.3137 -3.0307
# 4 -1.9549 12.9651 -3.8767 40.5988 6.0575 4.3764
# 5 15.6608 10.8658 -9.3137 6.0575 29.3482 4.0175
# 6 -5.0146 -11.7945 -3.0307 4.3764 4.0175 53.1202
#
#
#
# Elastic Compliance Matrix: (Units=1/GPa)
#
#
# Indices 1 2 3 4 5 6 
#
# 1 0.009963 -0.001468 -0.002312 0.001526 -0.005932 0.000805
# 2 -0.001468 0.013535 -0.004675 -0.004417 -0.005260 0.003362
# 3 -0.002312 -0.004675 0.014677 0.001800 0.007405 -0.001127
# 4 0.001526 -0.004417 0.001800 0.027150 -0.003845 -0.002680
# 5 -0.005932 -0.005260 0.007405 -0.003845 0.042909 -0.004234
# 6 0.000805 0.003362 -0.001127 -0.002680 -0.004234 0.020124
#
#
# Mechanical properties :
#
#
# Convention : Reuss Voigt Hill
#
# Bulk Modulus (GPa) = 47.02673 49.48748 48.25711
# Shear Modulus (GPa) = 32.81744 39.85315 36.33529
#
# Velocity S-wave (km/s) = 3.50469 3.86214 3.68775
# Velocity P-wave (km/s) = 5.82908 6.19760 6.01616
#
# Compressibility (1/GPa) = 0.02126450
#
# Stress axis : x y z
#
# Youngs Moduli (GPa) = 100.37265 73.88115 68.13253
#
# Poissons Ratio (x) = 0.10849 0.15753
# Poissons Ratio (y) = 0.14739 0.31852
# Poissons Ratio (z) = 0.23207 0.34539
#
# Static dielectric constant tensor:
#      x y z
#    x 2.138250 0.066780 0.009190 
#    y 0.066780 2.167670 0.010180 
#    z 0.009190 0.010180 2.133630 
# 
# From -- ./inp_files/405155.got.cif
#   From: 2010.05.17/outbox.cif.g08.bks.cpg/sg2_203_cif.got.tgz:405155.got - 2010.06.03 11:33:40.
