data_PCOD9109536
_publ_section_title
;
Structure prediction by ZEFSAII (Michael W. Deem and Ramdas Pophale) SiO2 
 PCOD9109536
Probable space group: P -1
;
_chemical_formula_sum "Si O2"
_cell_formula_units_Z 14
_cell_length_a 9.184176
_cell_length_b 14.838875
_cell_length_c 7.621189
_cell_angle_alpha 52.798353
_cell_angle_beta 122.814726
_cell_angle_gamma 134.896955
_cell_volume 573.695461
_symmetry_space_group_name_H-M "P -1"
_symmetry_group_IT_number 2
_symmetry_cell_setting 'triclinic'
loop_
_space_group_symop_operation_xyz
x,y,z
-x,-y,-z
loop_
_atom_site_type_symbol
_atom_site_label
_atom_site_fract_x
_atom_site_fract_y
_atom_site_fract_z
Si Si1 0.223767 0.633374 0.036979
Si Si2 0.957408 0.994915 0.267914
Si Si3 0.373361 0.460538 0.753817
Si Si4 0.586315 0.334188 0.241220
Si Si5 0.643567 0.965130 0.532102
Si Si6 0.636510 0.677530 0.405573
Si Si7 0.261878 0.879843 0.935807
O O1 0.403474 0.620478 0.251081
O O2 0.316457 0.690896 0.835308
O O3 0.209748 0.730544 0.051352
O O4 0.000000 0.500000 0.000000
O O5 0.764670 0.839473 0.299026
O O6 0.890760 0.099779 0.070582
O O7 0.000000 0.000000 0.500000
O O8 0.160530 0.026118 0.258481
O O9 0.273620 0.530109 0.708394
O O10 0.589270 0.597593 0.652330
O O11 0.261586 0.367179 0.620466
O O12 0.428009 0.372164 0.014039
O O13 0.484702 0.190398 0.444408
O O14 0.500000 0.000000 0.500000
O O15 0.750278 0.079013 0.318713
O O16 0.500000 0.000000 0.000000
#
# Coordination Sequence:
#
# PCOD9109536 Si02
#       7
#     2   2   2   2   2   2   2
#     4  11  24  41  67  96 139 181 233 282 345 408
#     4  10  22  38  71  98 131 180 230 269 346 406
#     4   9  20  37  67  91 137 166 224 280 339 401
#     4  10  21  41  62  95 133 181 220 282 348 401
#     4  11  23  42  67  97 136 176 223 285 339 404
#     4  10  20  41  66 101 130 177 231 283 330 419
#     4  11  22  42  69 100 136 182 230 280 331 410
#
# _framework density 24.403191
#
# number of rings (size 3 to 8) (size 9 to 14) (size 15 to 20)
#    0.000    1.714    2.857    1.714    0.000   10.286 
#    0.000    8.571    0.000    0.000    0.000    0.000 
#    0.000    0.000    0.000    0.000    0.000    0.000 
#
# Total GULP energy -78043.176334 kJ/mol
# GULP energy per Si atom -5574.512595 kJ/mol
# Density = 2.434765 g / cm^3
# Si number density = 24.403191 Si / 1000 Ang^3
#
#
#
# Elastic Constant Matrix: (Units=GPa)
#
#
# Indices 1 2 3 4 5 6 
#
# 1 128.7619 42.4862 18.2031 -1.5752 36.5045 -21.6552
# 2 42.4862 138.4349 15.4923 -11.6034 31.3768 -24.6865
# 3 18.2031 15.4923 36.2808 -9.2418 3.8255 -11.0008
# 4 -1.5752 -11.6034 -9.2418 32.5431 -6.7596 10.4440
# 5 36.5045 31.3768 3.8255 -6.7596 37.6855 -2.4149
# 6 -21.6552 -24.6865 -11.0008 10.4440 -2.4149 41.3993
#
#
#
# Elastic Compliance Matrix: (Units=1/GPa)
#
#
# Indices 1 2 3 4 5 6 
#
# 1 0.012985 0.000083 -0.004682 -0.005302 -0.012727 0.006193
# 2 0.000083 0.010143 -0.002034 -0.000281 -0.008040 0.005153
# 3 -0.004682 -0.002034 0.033467 0.008416 0.004557 0.003374
# 4 -0.005302 -0.000281 0.008416 0.038100 0.010729 -0.009691
# 5 -0.012727 -0.008040 0.004557 0.010729 0.046362 -0.010242
# 6 0.006193 0.005153 0.003374 -0.009691 -0.010242 0.033211
#
#
# Mechanical properties :
#
#
# Convention : Reuss Voigt Hill
#
# Bulk Modulus (GPa) = 23.07871 50.64897 36.86384
# Shear Modulus (GPa) = 24.75516 37.47866 31.11691
#
# Velocity S-wave (km/s) = 3.18846 3.92319 3.57475
# Velocity P-wave (km/s) = 4.79925 6.42822 5.67251
#
# Compressibility (1/GPa) = 0.04332998
#
# Stress axis : x y z
#
# Youngs Moduli (GPa) = 77.00906 98.58661 29.88058
#
# Poissons Ratio (x) = -0.00820 0.13989
# Poissons Ratio (y) = -0.00641 0.06079
# Poissons Ratio (z) = 0.36052 0.20056
#
# Static dielectric constant tensor:
#      x y z
#    x 2.108380 -0.065950 -0.028260 
#    y -0.065950 2.012450 -0.033350 
#    z -0.028260 -0.033350 1.930830 
# 
# From -- ./inp_files/199869.got.cif
#   From: 2010.05.17/outbox.cif.g08.bks.cpg/sg2_100_cif.got.tgz:199869.got - 2010.06.03 11:33:40.
