data_PCOD9109430
_publ_section_title
;
Structure prediction by ZEFSAII (Michael W. Deem and Ramdas Pophale) SiO2 
 PCOD9109430
Probable space group: P -1
;
_chemical_formula_sum "Si O2"
_cell_formula_units_Z 14
_cell_length_a 16.618495
_cell_length_b 13.310402
_cell_length_c 7.195758
_cell_angle_alpha 48.558337
_cell_angle_beta 58.558906
_cell_angle_gamma 35.161974
_cell_volume 686.442106
_symmetry_space_group_name_H-M "P -1"
_symmetry_group_IT_number 2
_symmetry_cell_setting 'triclinic'
loop_
_space_group_symop_operation_xyz
x,y,z
-x,-y,-z
loop_
_atom_site_type_symbol
_atom_site_label
_atom_site_fract_x
_atom_site_fract_y
_atom_site_fract_z
Si Si1 0.796942 0.007644 0.070784
Si Si2 0.997995 0.148625 0.715990
Si Si3 0.764262 0.084319 0.597975
Si Si4 0.338538 0.124755 0.526608
Si Si5 0.571133 0.048741 0.748764
Si Si6 0.356226 0.628060 0.912758
Si Si7 0.292333 0.432411 0.406679
O O1 0.806101 0.057734 0.793448
O O2 0.698041 0.981897 0.218543
O O3 0.843440 0.360572 0.587106
O O4 0.942193 0.819826 0.228115
O O5 0.098565 0.055145 0.529427
O O6 0.263357 0.821853 0.919168
O O7 0.000000 0.000000 0.000000
O O8 0.670862 0.047377 0.737618
O O9 0.664285 0.300385 0.359005
O O10 0.259823 0.322472 0.491491
O O11 0.500000 0.000000 0.500000
O O12 0.326681 0.118819 0.327732
O O13 0.436664 0.266967 0.552601
O O14 0.500000 0.000000 0.000000
O O15 0.321269 0.509312 0.115523
O O16 0.500000 0.500000 0.000000
#
# Coordination Sequence:
#
# PCOD9109430 Si02
#       7
#     2   2   2   2   2   2   2
#     4  11  23  42  67  92 133 178 212 267 329 383
#     4  11  23  45  64  94 140 174 212 272 320 386
#     4  11  22  41  69  92 132 171 218 265 326 384
#     4  10  20  41  65  91 129 169 214 272 326 376
#     4  11  22  43  66  98 131 168 220 279 323 387
#     4  11  20  41  64  97 132 165 216 278 321 380
#     4  11  22  41  67  93 132 175 216 268 333 378
#
# _framework density 20.395019000000001
#
# number of rings (size 3 to 8) (size 9 to 14) (size 15 to 20)
#    0.000    1.143    7.143    2.571    0.000    1.714 
#    5.143    1.429    0.000    0.000    0.000    0.000 
#    0.000    0.000    0.000    0.000    0.000    0.000 
#
# Total GULP energy -77945.999570 kJ/mol
# GULP energy per Si atom -5567.571398 kJ/mol
# Density = 2.034860 g / cm^3
# Si number density = 20.395019 Si / 1000 Ang^3
#
#
#
# Elastic Constant Matrix: (Units=GPa)
#
#
# Indices 1 2 3 4 5 6 
#
# 1 41.7188 2.3363 6.2360 2.1038 -6.2447 2.8968
# 2 2.3363 62.6766 15.0067 -2.0585 -3.0589 -8.8709
# 3 6.2360 15.0067 112.2515 16.9203 -11.1123 11.7951
# 4 2.1038 -2.0585 16.9203 28.7659 6.6566 -1.2392
# 5 -6.2447 -3.0589 -11.1123 6.6566 34.4894 10.2460
# 6 2.8968 -8.8709 11.7951 -1.2392 10.2460 25.6794
#
#
#
# Elastic Compliance Matrix: (Units=1/GPa)
#
#
# Indices 1 2 3 4 5 6 
#
# 1 0.025911 -0.002109 0.001205 -0.004969 0.008137 -0.007691
# 2 -0.002109 0.018766 -0.004947 0.005999 -0.004795 0.011195
# 3 0.001205 -0.004947 0.013522 -0.011267 0.010058 -0.012613
# 4 -0.004969 0.005999 -0.011267 0.047157 -0.018259 0.017369
# 5 0.008137 -0.004795 0.010058 -0.018259 0.044478 -0.025822
# 6 -0.007691 0.011195 -0.012613 0.017369 -0.025822 0.060611
#
#
# Mechanical properties :
#
#
# Convention : Reuss Voigt Hill
#
# Bulk Modulus (GPa) = 21.50687 29.31167 25.40927
# Shear Modulus (GPa) = 21.03979 30.65812 25.84895
#
# Velocity S-wave (km/s) = 3.21536 3.88134 3.56394
# Velocity P-wave (km/s) = 4.93485 5.87278 5.42413
#
# Compressibility (1/GPa) = 0.04649677
#
# Stress axis : x y z
#
# Youngs Moduli (GPa) = 38.59431 53.28920 73.95217
#
# Poissons Ratio (x) = 0.11239 -0.08913
# Poissons Ratio (y) = 0.08140 0.36583
# Poissons Ratio (z) = -0.04651 0.26362
#
# Static dielectric constant tensor:
#      x y z
#    x 1.948060 -0.182040 0.034860 
#    y -0.182040 1.928960 -0.050750 
#    z 0.034860 -0.050750 1.763170 
# 
# From -- ./inp_files/334043.got.cif
#   From: 2010.05.17/outbox.cif.g08.bks.cpg/sg2_168_cif.got.tgz:334043.got - 2010.06.03 11:33:40.
