data_PCOD9109459
_publ_section_title
;
Structure prediction by ZEFSAII (Michael W. Deem and Ramdas Pophale) SiO2 
 PCOD9109459
Probable space group: P -1
;
_chemical_formula_sum "Si O2"
_cell_formula_units_Z 16
_cell_length_a 9.915544
_cell_length_b 17.641709
_cell_length_c 20.101238
_cell_angle_alpha 28.429088
_cell_angle_beta 130.900901
_cell_angle_gamma 151.328230
_cell_volume 690.166301
_symmetry_space_group_name_H-M "P -1"
_symmetry_group_IT_number 2
_symmetry_cell_setting 'triclinic'
loop_
_space_group_symop_operation_xyz
x,y,z
-x,-y,-z
loop_
_atom_site_type_symbol
_atom_site_label
_atom_site_fract_x
_atom_site_fract_y
_atom_site_fract_z
Si Si1 0.695140 0.755748 0.639796
Si Si2 0.207525 0.789741 0.882283
Si Si3 0.267045 0.550469 0.160955
Si Si4 0.688178 0.256326 0.275117
Si Si5 0.059453 0.273532 0.440928
Si Si6 0.326828 0.642979 0.493552
Si Si7 0.066318 0.212098 0.635172
Si Si8 0.871042 0.719461 0.945497
O O1 0.689627 0.491263 0.718789
O O2 0.422947 0.650351 0.592253
O O3 0.796947 0.641960 0.505900
O O4 0.834498 0.951515 0.597787
O O5 0.644853 0.527814 0.800233
O O6 0.986992 0.737652 0.897829
O O7 0.406901 0.050954 0.695513
O O8 0.417262 0.829324 0.968948
O O9 0.884142 0.314928 0.232553
O O10 0.000000 0.500000 0.000000
O O11 0.801283 0.225033 0.394223
O O12 0.316625 0.013097 0.321491
O O13 0.869888 0.559894 0.112614
O O14 0.000000 0.000000 0.500000
O O15 0.000000 0.500000 0.500000
O O16 0.249979 0.438602 0.578046
O O17 0.065213 0.022540 0.791384
O O18 0.500000 0.500000 0.000000
#
# Coordination Sequence:
#
# PCOD9109459 Si02
#       8
#     2   2   2   2   2   2   2   2
#     4  10  20  41  65  93 128 184 225 274 326 418
#     4  11  23  41  71  94 135 191 234 264 346 425
#     4   8  19  36  62  89 121 166 236 268 314 398
#     4   8  17  36  61  91 126 174 219 267 327 409
#     4   9  18  34  64  92 124 167 227 266 328 406
#     4  12  29  44  67 104 146 174 225 298 352 391
#     4  11  22  38  62 101 138 165 220 291 355 378
#     4   9  21  38  63  98 136 178 229 282 334 415
#
# _framework density 23.182817
#
# number of rings (size 3 to 8) (size 9 to 14) (size 15 to 20)
#    0.750    1.500    0.000    2.625   10.500    0.500 
#    0.000    2.500    0.000    0.000    0.000    0.000 
#    0.000    0.000    0.000    0.000    0.000    0.000 
#
# Total GULP energy -89128.926075 kJ/mol
# GULP energy per Si atom -5570.557880 kJ/mol
# Density = 2.313005 g / cm^3
# Si number density = 23.182817 Si / 1000 Ang^3
#
#
#
# Elastic Constant Matrix: (Units=GPa)
#
#
# Indices 1 2 3 4 5 6 
#
# 1 114.2737 32.4584 46.0111 2.7615 27.7010 15.5432
# 2 32.4584 81.3324 14.7997 1.7955 6.4869 11.3520
# 3 46.0111 14.7997 94.9665 0.9630 29.0722 5.1064
# 4 2.7615 1.7955 0.9630 24.2507 3.4794 7.1022
# 5 27.7010 6.4869 29.0722 3.4794 40.6688 3.3004
# 6 15.5432 11.3520 5.1064 7.1022 3.3004 36.6031
#
#
#
# Elastic Compliance Matrix: (Units=1/GPa)
#
#
# Indices 1 2 3 4 5 6 
#
# 1 0.013135 -0.003611 -0.003999 0.000733 -0.005286 -0.003566
# 2 -0.003611 0.014172 -0.000557 0.000109 0.000822 -0.002879
# 3 -0.003999 -0.000557 0.014977 0.000957 -0.008001 0.000317
# 4 0.000733 0.000109 0.000957 0.044263 -0.004283 -0.008681
# 5 -0.005286 0.000822 -0.008001 -0.004283 0.034074 0.000865
# 6 -0.003566 -0.002879 0.000317 -0.008681 0.000865 0.031289
#
#
# Mechanical properties :
#
#
# Convention : Reuss Voigt Hill
#
# Bulk Modulus (GPa) = 38.53532 53.01235 45.77384
# Shear Modulus (GPa) = 28.26541 33.45808 30.86175
#
# Velocity S-wave (km/s) = 3.49555 3.80310 3.65257
# Velocity P-wave (km/s) = 5.74023 6.49627 6.12992
#
# Compressibility (1/GPa) = 0.02595022
#
# Stress axis : x y z
#
# Youngs Moduli (GPa) = 76.13032 70.56323 66.76946
#
# Poissons Ratio (x) = 0.25483 0.26700
# Poissons Ratio (y) = 0.27494 0.03717
# Poissons Ratio (z) = 0.30443 0.03928
#
# Static dielectric constant tensor:
#      x y z
#    x 1.941670 0.015130 0.005030 
#    y 0.015130 1.991030 0.063950 
#    z 0.005030 0.063950 1.948080 
# 
# From -- ./inp_files/590063.got.cif
#   From: 2010.05.17/outbox.cif.g08.bks.cpg/sg2_296_cif.got.tgz:590063.got - 2010.06.03 11:33:40.
