data_PCOD9109861
_publ_section_title
;
Structure prediction by ZEFSAII (Michael W. Deem and Ramdas Pophale) SiO2 
 PCOD9109861
Probable space group: P -1
;
_chemical_formula_sum "Si O2"
_cell_formula_units_Z 16
_cell_length_a 9.115955
_cell_length_b 18.006616
_cell_length_c 9.522672
_cell_angle_alpha 117.381867
_cell_angle_beta 83.114881
_cell_angle_gamma 146.215716
_cell_volume 653.833544
_symmetry_space_group_name_H-M "P -1"
_symmetry_group_IT_number 2
_symmetry_cell_setting 'triclinic'
loop_
_space_group_symop_operation_xyz
x,y,z
-x,-y,-z
loop_
_atom_site_type_symbol
_atom_site_label
_atom_site_fract_x
_atom_site_fract_y
_atom_site_fract_z
Si Si1 0.968603 0.893588 0.979862
Si Si2 0.391972 0.256629 0.649089
Si Si3 0.934138 0.317349 0.041929
Si Si4 0.207232 0.674291 0.204950
Si Si5 0.580127 0.125964 0.178963
Si Si6 0.886538 0.615824 0.437705
Si Si7 0.695985 0.701803 0.576674
Si Si8 0.748713 0.689596 0.066640
O O1 0.693618 0.723488 0.967086
O O2 0.277052 0.030214 0.151402
O O3 0.940138 0.823948 0.782020
O O4 0.000000 0.000000 0.000000
O O5 0.488267 0.214725 0.662677
O O6 0.276914 0.211940 0.465573
O O7 0.179282 0.206821 0.731741
O O8 0.728570 0.470795 0.806871
O O9 0.731914 0.236156 0.856888
O O10 0.003177 0.253291 0.969427
O O11 0.773567 0.268486 0.158385
O O12 0.991668 0.614077 0.290497
O O13 0.000000 0.500000 0.000000
O O14 0.792839 0.217128 0.367051
O O15 0.500000 0.000000 0.000000
O O16 0.741457 0.635151 0.436509
O O17 0.632938 0.454664 0.439079
O O18 0.500000 0.500000 0.000000
#
# Coordination Sequence:
#
# PCOD9109861 Si02
#       8
#     2   2   2   2   2   2   2   2
#     4  12  29  45  73 110 155 193 239 313 387 435
#     4  10  22  39  64 104 140 180 245 307 360 423
#     4  10  20  41  67  98 137 190 239 300 358 443
#     4  10  24  40  64 107 139 185 236 314 372 417
#     4  12  23  47  69 104 147 193 244 299 380 453
#     4  11  24  43  75 102 148 186 261 304 357 453
#     4  11  24  43  71 111 138 196 251 310 365 442
#     4  10  22  42  71 100 139 194 243 293 356 447
#
# _framework density 24.471059
#
# number of rings (size 3 to 8) (size 9 to 14) (size 15 to 20)
#    0.000    1.250    3.750    0.750   14.000    1.500 
#    0.000    2.500    0.000    0.000    0.000    0.000 
#    0.000    0.000    0.000    0.000    0.000    0.000 
#
# Total GULP energy -89275.446104 kJ/mol
# GULP energy per Si atom -5579.715382 kJ/mol
# Density = 2.441536 g / cm^3
# Si number density = 24.471059 Si / 1000 Ang^3
#
#
#
# Elastic Constant Matrix: (Units=GPa)
#
#
# Indices 1 2 3 4 5 6 
#
# 1 61.7540 36.4187 28.1493 -1.1182 8.7248 -15.8655
# 2 36.4187 77.3237 25.6426 -13.8500 1.1491 -13.8303
# 3 28.1493 25.6426 102.6971 -25.7310 0.8019 1.9001
# 4 -1.1182 -13.8500 -25.7310 30.2986 -0.8589 7.5091
# 5 8.7248 1.1491 0.8019 -0.8589 46.8408 -10.5079
# 6 -15.8655 -13.8303 1.9001 7.5091 -10.5079 35.9364
#
#
#
# Elastic Compliance Matrix: (Units=1/GPa)
#
#
# Indices 1 2 3 4 5 6 
#
# 1 0.030729 -0.011917 -0.009504 -0.015405 -0.002891 0.011856
# 2 -0.011917 0.020195 0.000411 0.008888 0.002164 0.001265
# 3 -0.009504 0.000411 0.016337 0.015745 -0.000073 -0.008213
# 4 -0.015405 0.008888 0.015745 0.053700 -0.000103 -0.015464
# 5 -0.002891 0.002164 -0.000073 -0.000103 0.023266 0.006385
# 6 0.011856 0.001265 -0.008213 -0.015464 0.006385 0.039080
#
#
# Mechanical properties :
#
#
# Convention : Reuss Voigt Hill
#
# Bulk Modulus (GPa) = 39.61778 46.91068 43.26423
# Shear Modulus (GPa) = 21.39109 32.71942 27.05525
#
# Velocity S-wave (km/s) = 2.95979 3.66056 3.32867
# Velocity P-wave (km/s) = 5.28254 6.08915 5.70013
#
# Compressibility (1/GPa) = 0.02524119
#
# Stress axis : x y z
#
# Youngs Moduli (GPa) = 32.54273 49.51608 61.20981
#
# Poissons Ratio (x) = 0.59008 0.58172
# Poissons Ratio (y) = 0.38781 -0.02513
# Poissons Ratio (z) = 0.30928 -0.02033
#
# Static dielectric constant tensor:
#      x y z
#    x 1.967950 -0.057410 -0.001910 
#    y -0.057410 2.230760 0.005360 
#    z -0.001910 0.005360 1.983080 
# 
# From -- ./inp_files/218263.got.cif
#   From: 2010.05.17/outbox.cif.g08.bks.cpg/sg2_110_cif.got.tgz:218263.got - 2010.06.03 11:33:40.
