data_PCOD9109974
_publ_section_title
;
Structure prediction by ZEFSAII (Michael W. Deem and Ramdas Pophale) SiO2 
 PCOD9109974
Probable space group: P -1
;
_chemical_formula_sum "Si O2"
_cell_formula_units_Z 16
_cell_length_a 9.067156
_cell_length_b 13.590811
_cell_length_c 9.536790
_cell_angle_alpha 102.147246
_cell_angle_beta 94.530741
_cell_angle_gamma 41.968234
_cell_volume 762.882267
_symmetry_space_group_name_H-M "P -1"
_symmetry_group_IT_number 2
_symmetry_cell_setting 'triclinic'
loop_
_space_group_symop_operation_xyz
x,y,z
-x,-y,-z
loop_
_atom_site_type_symbol
_atom_site_label
_atom_site_fract_x
_atom_site_fract_y
_atom_site_fract_z
Si Si1 0.799359 0.494067 0.103379
Si Si2 0.297676 0.474110 0.361658
Si Si3 0.007355 0.721930 0.191193
Si Si4 0.328319 0.053486 0.378275
Si Si5 0.712588 0.746428 0.788688
Si Si6 0.052904 0.857292 0.445728
Si Si7 0.593742 0.811592 0.100992
Si Si8 0.454227 0.458718 0.646358
O O1 0.719042 0.641287 0.079655
O O2 0.618743 0.548660 0.215706
O O3 0.038044 0.383058 0.165199
O O4 0.831481 0.394589 0.955561
O O5 0.085258 0.614311 0.296740
O O6 0.338462 0.336411 0.305101
O O7 0.276150 0.516709 0.534300
O O8 0.492898 0.449509 0.313779
O O9 0.013618 0.831638 0.279542
O O10 0.766600 0.811503 0.152744
O O11 0.298284 0.162824 0.303332
O O12 0.108014 0.124050 0.458695
O O13 0.500000 0.000000 0.500000
O O14 0.410885 0.922165 0.240105
O O15 0.551643 0.843758 0.941232
O O16 0.313943 0.705310 0.440108
O O17 0.000000 0.000000 0.500000
#
# Coordination Sequence:
#
# PCOD9109974 Si02
#       8
#     2   2   2   2   2   2   2   2
#     4  11  22  41  73 102 124 177 212 271 336 380
#     4  10  21  40  60  98 129 169 205 281 317 375
#     4  10  20  41  68  96 133 157 224 272 319 382
#     4  12  27  43  69  94 127 181 222 261 328 388
#     4  11  24  41  70  97 133 162 225 274 323 380
#     4  11  25  45  61  93 133 174 213 270 318 391
#     4  11  21  44  67 101 131 168 215 278 327 378
#     4  10  25  38  63  93 141 164 217 264 328 385
#
# _framework density 20.973092999999999
#
# number of rings (size 3 to 8) (size 9 to 14) (size 15 to 20)
#    0.000    1.250    3.750    1.875    8.750    2.500 
#    2.250    0.000    0.000    2.250    0.000    0.000 
#    0.000    0.000    0.000    0.000    0.000    0.000 
#
# Total GULP energy -89333.743410 kJ/mol
# GULP energy per Si atom -5583.358963 kJ/mol
# Density = 2.092536 g / cm^3
# Si number density = 20.973093 Si / 1000 Ang^3
#
#
#
# Elastic Constant Matrix: (Units=GPa)
#
#
# Indices 1 2 3 4 5 6 
#
# 1 66.4060 51.8586 61.4408 8.2081 -1.9629 17.0968
# 2 51.8586 88.3034 77.7137 8.7690 -7.5340 21.5137
# 3 61.4408 77.7137 129.9074 6.7609 -6.9467 15.6795
# 4 8.2081 8.7690 6.7609 37.4733 4.8420 -1.2988
# 5 -1.9629 -7.5340 -6.9467 4.8420 41.9182 12.7307
# 6 17.0968 21.5137 15.6795 -1.2988 12.7307 34.4409
#
#
#
# Elastic Compliance Matrix: (Units=1/GPa)
#
#
# Indices 1 2 3 4 5 6 
#
# 1 0.032819 -0.009352 -0.008849 -0.003762 0.000921 -0.006904
# 2 -0.009352 0.032106 -0.012607 -0.004614 0.007623 -0.012665
# 3 -0.008849 -0.012607 0.018773 0.001781 -0.001043 0.004174
# 4 -0.003762 -0.004614 0.001781 0.029344 -0.006344 0.007391
# 5 0.000921 0.007623 -0.001043 -0.006344 0.030800 -0.016368
# 6 -0.006904 -0.012665 0.004174 0.007391 -0.016368 0.044802
#
#
# Mechanical properties :
#
#
# Convention : Reuss Voigt Hill
#
# Bulk Modulus (GPa) = 45.28688 74.07144 59.67916
# Shear Modulus (GPa) = 19.40819 29.00673 24.20746
#
# Velocity S-wave (km/s) = 3.04531 3.72297 3.40106
# Velocity P-wave (km/s) = 5.83138 7.33994 6.62871
#
# Compressibility (1/GPa) = 0.02208145
#
# Stress axis : x y z
#
# Youngs Moduli (GPa) = 30.46975 31.14641 53.26807
#
# Poissons Ratio (x) = 0.29128 0.47139
# Poissons Ratio (y) = 0.28495 0.67157
# Poissons Ratio (z) = 0.26964 0.39267
#
# Static dielectric constant tensor:
#      x y z
#    x 1.743480 -0.029590 -0.000400 
#    y -0.029590 1.800490 0.007970 
#    z -0.000400 0.007970 1.796450 
# 
# From -- ./inp_files/188533.got.cif
#   From: 2010.05.17/outbox.cif.g08.bks.cpg/sg2_95_cif.got.tgz:188533.got - 2010.06.03 11:33:40.
