data_PCOD9109442
_publ_section_title
;
Structure prediction by ZEFSAII (Michael W. Deem and Ramdas Pophale) SiO2 
 PCOD9109442
Probable space group: P -1
;
_chemical_formula_sum "Si O2"
_cell_formula_units_Z 14
_cell_length_a 11.094512
_cell_length_b 9.034988
_cell_length_c 10.500407
_cell_angle_alpha 110.850292
_cell_angle_beta 103.074761
_cell_angle_gamma 44.136898
_cell_volume 684.278043
_symmetry_space_group_name_H-M "P -1"
_symmetry_group_IT_number 2
_symmetry_cell_setting 'triclinic'
loop_
_space_group_symop_operation_xyz
x,y,z
-x,-y,-z
loop_
_atom_site_type_symbol
_atom_site_label
_atom_site_fract_x
_atom_site_fract_y
_atom_site_fract_z
Si Si1 0.510138 0.337380 0.361636
Si Si2 0.864146 0.299346 0.583680
Si Si3 0.209109 0.128940 0.189256
Si Si4 0.784224 0.015187 0.122974
Si Si5 0.452874 0.030688 0.644540
Si Si6 0.014625 0.067875 0.309959
Si Si7 0.899487 0.651630 0.234544
O O1 0.500000 0.500000 0.500000
O O2 0.310559 0.473670 0.332149
O O3 0.622701 0.235079 0.229259
O O4 0.583147 0.122506 0.388383
O O5 0.861103 0.279560 0.424887
O O6 0.021748 0.275351 0.640939
O O7 0.885204 0.117942 0.611908
O O8 0.383710 0.053892 0.260767
O O9 0.943734 0.613807 0.812821
O O10 0.126592 0.094793 0.270586
O O11 0.252894 0.984890 0.032176
O O12 0.938109 0.003295 0.178368
O O13 0.839186 0.798923 0.137481
O O14 0.500000 0.000000 0.500000
O O15 0.271609 0.270680 0.718745
#
# Coordination Sequence:
#
# PCOD9109442 Si02
#       7
#     2   2   2   2   2   2   2
#     4  11  22  40  68  90 125 168 213 265 312 375
#     4  10  20  41  65  92 121 171 214 262 314 367
#     4  12  24  43  65  92 135 172 201 268 327 366
#     4  10  23  43  63  94 129 168 217 257 312 391
#     4  11  26  41  63 101 129 159 220 266 310 383
#     4  10  22  38  65  91 126 166 218 258 311 380
#     4  10  23  42  65  93 125 170 212 260 316 381
#
# _framework density 20.459520999999999
#
# number of rings (size 3 to 8) (size 9 to 14) (size 15 to 20)
#    0.000    1.429    2.857    1.714    6.000    3.429 
#    5.143    0.714    0.000    0.000    0.000    0.000 
#    0.000    0.000    0.000    0.000    0.000    0.000 
#
# Total GULP energy -78067.626507 kJ/mol
# GULP energy per Si atom -5576.259036 kJ/mol
# Density = 2.041295 g / cm^3
# Si number density = 20.459521 Si / 1000 Ang^3
#
#
#
# Elastic Constant Matrix: (Units=GPa)
#
#
# Indices 1 2 3 4 5 6 
#
# 1 117.4393 37.9234 51.2041 8.4801 -3.5576 -18.2382
# 2 37.9234 52.8210 31.8656 15.4387 -4.8880 -20.6897
# 3 51.2041 31.8656 130.1157 5.5915 1.9158 0.1481
# 4 8.4801 15.4387 5.5915 21.8061 -4.3727 -0.9805
# 5 -3.5576 -4.8880 1.9158 -4.3727 22.1966 0.8719
# 6 -18.2382 -20.6897 0.1481 -0.9805 0.8719 38.8255
#
#
#
# Elastic Compliance Matrix: (Units=1/GPa)
#
#
# Indices 1 2 3 4 5 6 
#
# 1 0.012295 -0.005698 -0.003481 0.000469 0.001001 0.002742
# 2 -0.005698 0.042276 -0.007139 -0.024327 0.003467 0.019187
# 3 -0.003481 -0.007139 0.010716 0.002966 -0.002260 -0.005355
# 4 0.000469 -0.024327 0.002966 0.063101 0.007338 -0.011326
# 5 0.001001 0.003467 -0.002260 0.007338 0.047560 0.001443
# 6 0.002742 0.019187 -0.005355 -0.011326 0.001443 0.036971
#
#
# Mechanical properties :
#
#
# Convention : Reuss Voigt Hill
#
# Bulk Modulus (GPa) = 30.62665 60.26247 45.44456
# Shear Modulus (GPa) = 19.49797 28.52449 24.01123
#
# Velocity S-wave (km/s) = 3.09042 3.73794 3.42950
# Velocity P-wave (km/s) = 5.26651 6.93888 6.15971
#
# Compressibility (1/GPa) = 0.03265130
#
# Stress axis : x y z
#
# Youngs Moduli (GPa) = 81.33403 23.65415 93.32252
#
# Poissons Ratio (x) = 0.13478 0.32486
# Poissons Ratio (y) = 0.46343 0.66620
# Poissons Ratio (z) = 0.28313 0.16886
#
# Static dielectric constant tensor:
#      x y z
#    x 1.764310 -0.032150 0.006050 
#    y -0.032150 1.834540 0.050100 
#    z 0.006050 0.050100 1.735590 
# 
# From -- ./inp_files/167844.got.cif
#   From: 2010.05.17/outbox.cif.g08.bks.cpg/sg2_84_cif.got.tgz:167844.got - 2010.06.03 11:33:40.
