data_PCOD9109217
_publ_section_title
;
Structure prediction by ZEFSAII (Michael W. Deem and Ramdas Pophale) SiO2 
 PCOD9109217
Probable space group: P -1
;
_chemical_formula_sum "Si O2"
_cell_formula_units_Z 14
_cell_length_a 9.254030
_cell_length_b 9.350771
_cell_length_c 14.878181
_cell_angle_alpha 91.874189
_cell_angle_beta 42.053341
_cell_angle_gamma 65.531781
_cell_volume 651.303448
_symmetry_space_group_name_H-M "P -1"
_symmetry_group_IT_number 2
_symmetry_cell_setting 'triclinic'
loop_
_space_group_symop_operation_xyz
x,y,z
-x,-y,-z
loop_
_atom_site_type_symbol
_atom_site_label
_atom_site_fract_x
_atom_site_fract_y
_atom_site_fract_z
Si Si1 0.585746 0.727532 0.703991
Si Si2 0.468257 0.126548 0.610846
Si Si3 0.688612 0.693669 0.122374
Si Si4 0.045704 0.061302 0.857440
Si Si5 0.619208 0.001842 0.039340
Si Si6 0.124590 0.285721 0.608524
Si Si7 0.477800 0.491426 0.157163
O O1 0.784213 0.684185 0.528243
O O2 0.610301 0.549420 0.710197
O O3 0.604638 0.809742 0.790439
O O4 0.258702 0.907330 0.832148
O O5 0.453071 0.209468 0.714427
O O6 0.313882 0.270743 0.601521
O O7 0.272221 0.068272 0.706344
O O8 0.778377 0.922771 0.450687
O O9 0.704460 0.829014 0.057772
O O10 0.521326 0.640200 0.148640
O O11 0.000000 0.500000 0.000000
O O12 0.780964 0.284833 0.996490
O O13 0.886268 0.990021 0.893807
O O14 0.500000 0.000000 0.000000
O O15 0.785771 0.434236 0.784319
#
# Coordination Sequence:
#
# PCOD9109217 Si02
#       7
#     2   2   2   2   2   2   2
#     4  10  20  45  61  86 126 169 199 244 316 377
#     4  10  22  41  63  86 125 166 203 250 311 368
#     4  12  22  40  61  96 125 155 206 265 305 353
#     4  10  20  41  64  84 122 167 204 244 313 365
#     4  11  23  37  61  93 124 154 203 261 306 354
#     4  10  22  40  62  88 122 169 205 243 306 378
#     4  11  22  35  66  92 121 159 209 257 303 357
#
# _framework density 21.495356999999998
#
# number of rings (size 3 to 8) (size 9 to 14) (size 15 to 20)
#    0.000    1.429    4.286    3.000    2.000    3.429 
#    0.000    0.714    0.000    0.000    0.000    0.000 
#    0.000    0.000    0.000    0.000    0.000    0.000 
#
# Total GULP energy -77969.756658 kJ/mol
# GULP energy per Si atom -5569.268333 kJ/mol
# Density = 2.144643 g / cm^3
# Si number density = 21.495357 Si / 1000 Ang^3
#
#
#
# Elastic Constant Matrix: (Units=GPa)
#
#
# Indices 1 2 3 4 5 6 
#
# 1 82.8657 11.2420 8.8744 -0.9920 -0.7399 9.2528
# 2 11.2420 83.5520 -0.5363 -1.0269 -4.4296 16.6334
# 3 8.8744 -0.5363 26.7795 9.1558 -15.2710 -4.9659
# 4 -0.9920 -1.0269 9.1558 23.6350 -4.9230 -3.3697
# 5 -0.7399 -4.4296 -15.2710 -4.9230 30.9540 0.7820
# 6 9.2528 16.6334 -4.9659 -3.3697 0.7820 31.5496
#
#
#
# Elastic Compliance Matrix: (Units=1/GPa)
#
#
# Indices 1 2 3 4 5 6 
#
# 1 0.013559 -0.001169 -0.007989 0.002313 -0.003309 -0.004289
# 2 -0.001169 0.013611 0.000919 -0.000259 0.002503 -0.006778
# 3 -0.007989 0.000919 0.064085 -0.017858 0.028481 0.009332
# 4 0.002313 -0.000259 -0.017858 0.049386 -0.000987 0.001946
# 5 -0.003309 0.002503 0.028481 -0.000987 0.046406 0.002878
# 6 -0.004289 -0.006778 0.009332 0.001946 0.002878 0.038133
#
#
# Mechanical properties :
#
#
# Convention : Reuss Voigt Hill
#
# Bulk Modulus (GPa) = 13.37318 25.81745 19.59531
# Shear Modulus (GPa) = 18.75581 28.80220 23.77901
#
# Velocity S-wave (km/s) = 2.95710 3.66447 3.32963
# Velocity P-wave (km/s) = 4.23016 5.47186 4.89058
#
# Compressibility (1/GPa) = 0.07477655
#
# Stress axis : x y z
#
# Youngs Moduli (GPa) = 73.75209 73.47190 15.60418
#
# Poissons Ratio (x) = 0.08587 0.12467
# Poissons Ratio (y) = 0.08620 -0.01434
# Poissons Ratio (z) = 0.58923 -0.06752
#
# Static dielectric constant tensor:
#      x y z
#    x 1.826260 -0.070270 0.028590 
#    y -0.070270 1.859490 -0.056290 
#    z 0.028590 -0.056290 1.889120 
# 
# From -- ./inp_files/495127.got.cif
#   From: 2010.05.17/outbox.cif.g08.bks.cpg/sg2_248_cif.got.tgz:495127.got - 2010.06.03 11:33:40.
