data_PCOD9109839
_publ_section_title
;
Structure prediction by ZEFSAII (Michael W. Deem and Ramdas Pophale) SiO2 
 PCOD9109839
Probable space group: P -1
;
_chemical_formula_sum "Si O2"
_cell_formula_units_Z 14
_cell_length_a 10.893091
_cell_length_b 8.602947
_cell_length_c 13.089686
_cell_angle_alpha 46.527899
_cell_angle_beta 45.800120
_cell_angle_gamma 66.906923
_cell_volume 629.124723
_symmetry_space_group_name_H-M "P -1"
_symmetry_group_IT_number 2
_symmetry_cell_setting 'triclinic'
loop_
_space_group_symop_operation_xyz
x,y,z
-x,-y,-z
loop_
_atom_site_type_symbol
_atom_site_label
_atom_site_fract_x
_atom_site_fract_y
_atom_site_fract_z
Si Si1 0.476571 0.852019 0.787650
Si Si2 0.979161 0.089289 0.356638
Si Si3 0.261810 0.389492 0.129661
Si Si4 0.445028 0.294603 0.392511
Si Si5 0.825174 0.460399 0.189458
Si Si6 0.864040 0.620861 0.576531
Si Si7 0.649070 0.715068 0.323977
O O1 0.609106 0.757443 0.828288
O O2 0.547997 0.893003 0.611705
O O3 0.414572 0.062840 0.772961
O O4 0.338166 0.634371 0.947768
O O5 0.163234 0.244095 0.163706
O O6 0.844747 0.253404 0.343866
O O7 0.000000 0.000000 0.500000
O O8 0.927476 0.879758 0.412007
O O9 0.138569 0.421928 0.281966
O O10 0.639866 0.399386 0.266149
O O11 0.330968 0.443157 0.325924
O O12 0.329981 0.248376 0.582730
O O13 0.803387 0.657101 0.190275
O O14 0.000000 0.500000 0.000000
O O15 0.000000 0.500000 0.500000
O O16 0.500000 0.500000 0.500000
#
# Coordination Sequence:
#
# PCOD9109839 Si02
#       7
#     2   2   2   2   2   2   2
#     4  10  20  41  67  97 131 175 223 283 341 397
#     4  10  23  39  63  90 134 179 224 271 338 404
#     4   9  21  39  65  92 133 177 216 276 348 397
#     4  10  23  40  67  96 132 172 225 278 327 405
#     4  11  25  44  65 100 136 177 221 285 350 396
#     4  10  23  39  65  98 129 175 228 277 336 408
#     4  10  24  37  68  97 132 173 226 273 335 406
#
# _framework density 22.253136999999999
#
# number of rings (size 3 to 8) (size 9 to 14) (size 15 to 20)
#    0.000    2.000    0.000    1.286   18.000    2.286 
#    0.000    2.857    0.000    9.429    0.000    0.000 
#    0.000    0.000    0.000    0.000    0.000    0.000 
#
# Total GULP energy -77972.079166 kJ/mol
# GULP energy per Si atom -5569.434226 kJ/mol
# Density = 2.220249 g / cm^3
# Si number density = 22.253137 Si / 1000 Ang^3
#
#
#
# Elastic Constant Matrix: (Units=GPa)
#
#
# Indices 1 2 3 4 5 6 
#
# 1 106.4614 41.3481 34.6678 -8.2065 -10.4421 -3.4476
# 2 41.3481 207.8685 58.3501 -2.5124 5.1775 -12.0005
# 3 34.6678 58.3501 82.2195 -6.1798 -7.3679 -2.2556
# 4 -8.2065 -2.5124 -6.1798 43.4258 0.6453 1.0674
# 5 -10.4421 5.1775 -7.3679 0.6453 35.2655 -0.6473
# 6 -3.4476 -12.0005 -2.2556 1.0674 -0.6473 21.3032
#
#
#
# Elastic Compliance Matrix: (Units=1/GPa)
#
#
# Indices 1 2 3 4 5 6 
#
# 1 0.011466 -0.001300 -0.003522 0.001530 0.002836 0.000760
# 2 -0.001300 0.006462 -0.004187 -0.000508 -0.002145 0.002947
# 3 -0.003522 -0.004187 0.016976 0.001490 0.003071 -0.001113
# 4 0.001530 -0.000508 0.001490 0.023519 0.000389 -0.001048
# 5 0.002836 -0.002145 0.003071 0.000389 0.030154 0.000472
# 6 0.000760 0.002947 -0.001113 -0.001048 0.000472 0.048673
#
#
# Mechanical properties :
#
#
# Convention : Reuss Voigt Hill
#
# Bulk Modulus (GPa) = 59.22512 73.92016 66.57264
# Shear Modulus (GPa) = 31.07564 37.47781 34.27672
#
# Velocity S-wave (km/s) = 3.74098 4.10830 3.92894
# Velocity P-wave (km/s) = 6.73290 7.46955 7.11077
#
# Compressibility (1/GPa) = 0.01688473
#
# Stress axis : x y z
#
# Youngs Moduli (GPa) = 87.21752 154.74442 58.90706
#
# Poissons Ratio (x) = 0.20124 0.20745
# Poissons Ratio (y) = 0.11342 0.24667
# Poissons Ratio (z) = 0.30715 0.64799
#
# Static dielectric constant tensor:
#      x y z
#    x 1.913360 -0.023150 0.003110 
#    y -0.023150 1.792330 0.024620 
#    z 0.003110 0.024620 2.009900 
# 
# From -- ./inp_files/512611.got.cif
#   From: 2010.05.17/outbox.cif.g08.bks.cpg/sg2_257_cif.got.tgz:512611.got - 2010.06.03 11:33:40.
