data_PCOD9109806
_publ_section_title
;
Structure prediction by ZEFSAII (Michael W. Deem and Ramdas Pophale) SiO2 
 PCOD9109806
Probable space group: P -1
;
_chemical_formula_sum "Si O2"
_cell_formula_units_Z 16
_cell_length_a 6.994202
_cell_length_b 10.310080
_cell_length_c 12.588024
_cell_angle_alpha 90.847907
_cell_angle_beta 111.549295
_cell_angle_gamma 70.232591
_cell_volume 788.299513
_symmetry_space_group_name_H-M "P -1"
_symmetry_group_IT_number 2
_symmetry_cell_setting 'triclinic'
loop_
_space_group_symop_operation_xyz
x,y,z
-x,-y,-z
loop_
_atom_site_type_symbol
_atom_site_label
_atom_site_fract_x
_atom_site_fract_y
_atom_site_fract_z
Si Si1 0.728950 0.520930 0.565555
Si Si2 0.695914 0.043646 0.998830
Si Si3 0.805083 0.688782 0.383030
Si Si4 0.491981 0.009843 0.625203
Si Si5 0.740292 0.544274 0.953778
Si Si6 0.690127 0.719914 0.752405
Si Si7 0.084762 0.086069 0.170303
Si Si8 0.480021 0.350123 0.867446
O O1 0.500000 0.500000 0.500000
O O2 0.764287 0.624371 0.485151
O O3 0.722691 0.594398 0.677953
O O4 0.938343 0.379075 0.594676
O O5 0.601499 0.190779 0.922379
O O6 0.832524 0.936884 0.935248
O O7 0.859540 0.058964 0.123455
O O8 0.500000 0.000000 0.000000
O O9 0.705972 0.855127 0.375335
O O10 0.668431 0.642779 0.264905
O O11 0.495682 0.137771 0.325068
O O12 0.500000 0.000000 0.500000
O O13 0.722237 0.016496 0.718077
O O14 0.642155 0.676939 0.858454
O O15 0.654350 0.426260 0.891606
O O16 0.665443 0.578726 0.059490
O O17 0.000000 0.500000 0.000000
O O18 0.908163 0.763322 0.796799
#
# Coordination Sequence:
#
# PCOD9109806 Si02
#       8
#     2   2   2   2   2   2   2   2
#     4  11  24  42  68  95 130 174 227 279 343 401
#     4  11  21  38  61  96 126 171 222 269 333 398
#     4  11  22  43  64  94 129 173 219 283 338 402
#     4  10  20  43  70  96 132 175 226 283 341 399
#     4  11  23  39  60  93 132 180 222 268 330 400
#     4  10  20  41  67  93 133 179 223 274 343 400
#     4   9  21  39  64  89 133 170 211 274 332 388
#     4  11  23  38  62  92 135 169 227 276 329 403
#
# _framework density 20.296855000000001
#
# number of rings (size 3 to 8) (size 9 to 14) (size 15 to 20)
#    0.750    0.750    2.500    3.000    0.000    2.000 
#    2.250    5.625    0.000    0.000    0.000    0.000 
#    0.000    0.000    0.000    0.000    0.000    0.000 
#
# Total GULP energy -89329.452310 kJ/mol
# GULP energy per Si atom -5583.090769 kJ/mol
# Density = 2.025066 g / cm^3
# Si number density = 20.296855 Si / 1000 Ang^3
#
#
#
# Elastic Constant Matrix: (Units=GPa)
#
#
# Indices 1 2 3 4 5 6 
#
# 1 115.7695 44.4076 28.2221 6.5689 25.8622 2.4727
# 2 44.4076 80.4668 14.8286 -0.7464 5.2814 6.4356
# 3 28.2221 14.8286 89.5540 7.4093 10.8668 1.3699
# 4 6.5689 -0.7464 7.4093 41.0784 6.6086 -0.8280
# 5 25.8622 5.2814 10.8668 6.6086 30.1994 -2.6236
# 6 2.4727 6.4356 1.3699 -0.8280 -2.6236 23.1537
#
#
#
# Elastic Compliance Matrix: (Units=1/GPa)
#
#
# Indices 1 2 3 4 5 6 
#
# 1 0.013949 -0.006613 -0.002042 -0.000383 -0.010030 -0.000681
# 2 -0.006613 0.016371 -0.000978 0.001040 0.002625 -0.003452
# 3 -0.002042 -0.000978 0.012382 -0.001576 -0.002239 -0.000553
# 4 -0.000383 0.001040 -0.001576 0.025492 -0.004848 0.000207
# 5 -0.010030 0.002625 -0.002239 -0.004848 0.043565 0.005237
# 6 -0.000681 -0.003452 -0.000553 0.000207 0.005237 0.044855
#
#
# Mechanical properties :
#
#
# Convention : Reuss Voigt Hill
#
# Bulk Modulus (GPa) = 42.66905 51.18966 46.92936
# Shear Modulus (GPa) = 27.21942 32.10843 29.66393
#
# Velocity S-wave (km/s) = 3.66603 3.98168 3.82711
# Velocity P-wave (km/s) = 6.24402 6.81275 6.53458
#
# Compressibility (1/GPa) = 0.02343619
#
# Stress axis : x y z
#
# Youngs Moduli (GPa) = 71.68978 61.08531 80.75943
#
# Poissons Ratio (x) = 0.40393 0.16490
# Poissons Ratio (y) = 0.47406 0.07902
# Poissons Ratio (z) = 0.14638 0.05977
#
# Static dielectric constant tensor:
#      x y z
#    x 1.714560 -0.003360 0.023300 
#    y -0.003360 1.746980 0.000210 
#    z 0.023300 0.000210 1.730000 
# 
# From -- ./inp_files/364605.got.cif
#   From: 2010.05.17/outbox.cif.g08.bks.cpg/sg2_183_cif.got.tgz:364605.got - 2010.06.03 11:33:40.
