data_PCOD9109042
_publ_section_title
;
Structure prediction by ZEFSAII (Michael W. Deem and Ramdas Pophale) SiO2 
 PCOD9109042
Probable space group: P -1
;
_chemical_formula_sum "Si O2"
_cell_formula_units_Z 12
_cell_length_a 6.178176
_cell_length_b 13.756036
_cell_length_c 7.288353
_cell_angle_alpha 99.172125
_cell_angle_beta 87.658050
_cell_angle_gamma 54.635120
_cell_volume 491.800411
_symmetry_space_group_name_H-M "P -1"
_symmetry_group_IT_number 2
_symmetry_cell_setting 'triclinic'
loop_
_space_group_symop_operation_xyz
x,y,z
-x,-y,-z
loop_
_atom_site_type_symbol
_atom_site_label
_atom_site_fract_x
_atom_site_fract_y
_atom_site_fract_z
Si Si1 0.679985 0.715813 0.484317
Si Si2 0.786855 0.891905 0.678531
Si Si3 0.117313 0.822370 0.017610
Si Si4 0.702708 0.613191 0.813308
Si Si5 0.215215 0.981451 0.642739
Si Si6 0.026302 0.631364 0.102615
O O1 0.849239 0.764406 0.567279
O O2 0.718253 0.617407 0.595268
O O3 0.778187 0.675777 0.263251
O O4 0.376086 0.837480 0.553132
O O5 0.934983 0.866808 0.855855
O O6 0.460824 0.978719 0.727983
O O7 0.844791 0.951452 0.529253
O O8 0.426472 0.739996 0.920779
O O9 0.974995 0.063076 0.816991
O O10 0.074755 0.733157 0.106409
O O11 0.729869 0.495598 0.853759
O O12 0.942295 0.607752 0.903674
#
# Coordination Sequence:
#
# PCOD9109042 Si02
#       6
#     2   2   2   2   2   2
#     4  10  20  41  62  85 118 160 196 237 298 348
#     4   9  18  35  62  88 114 158 191 231 301 349
#     4  12  21  39  64  90 121 150 200 247 291 355
#     4  11  26  38  61  93 113 161 202 240 297 343
#     4   9  19  36  64  89 115 162 190 233 311 347
#     4  11  22  45  61  79 128 158 195 247 290 353
#
# _framework density 24.40014
#
# number of rings (size 3 to 8) (size 9 to 14) (size 15 to 20)
#    1.000    0.667    3.333    1.500    0.000    3.333 
#    0.000    2.500    0.000    0.000    0.000    0.000 
#    0.000    0.000    0.000    0.000    0.000    0.000 
#
# Total GULP energy -67102.497498 kJ/mol
# GULP energy per Si atom -5591.874791 kJ/mol
# Density = 2.434460 g / cm^3
# Si number density = 24.400140 Si / 1000 Ang^3
#
#
#
# Elastic Constant Matrix: (Units=GPa)
#
#
# Indices 1 2 3 4 5 6 
#
# 1 31.6865 16.5820 9.8839 -9.1088 14.2313 -6.6606
# 2 16.5820 97.3600 35.9162 -3.2845 1.8520 -16.0042
# 3 9.8839 35.9162 89.9555 -26.5639 2.1044 -10.7104
# 4 -9.1088 -3.2845 -26.5639 48.7633 -5.4777 -4.8721
# 5 14.2313 1.8520 2.1044 -5.4777 38.9404 -2.2116
# 6 -6.6606 -16.0042 -10.7104 -4.8721 -2.2116 36.1404
#
#
#
# Elastic Compliance Matrix: (Units=1/GPa)
#
#
# Indices 1 2 3 4 5 6 
#
# 1 0.044539 -0.006437 0.000842 0.007265 -0.014672 0.005689
# 2 -0.006437 0.013669 -0.005192 -0.002601 0.001793 0.003087
# 3 0.000842 -0.005192 0.016243 0.009113 0.000566 0.003933
# 4 0.007265 -0.002601 0.009113 0.027456 0.001217 0.006664
# 5 -0.014672 0.001793 0.000566 0.001217 0.031116 0.000326
# 6 0.005689 0.003087 0.003933 0.006664 0.000326 0.032169
#
#
# Mechanical properties :
#
#
# Convention : Reuss Voigt Hill
#
# Bulk Modulus (GPa) = 18.91205 38.19623 28.55414
# Shear Modulus (GPa) = 24.46290 35.21016 29.83653
#
# Velocity S-wave (km/s) = 3.16978 3.80285 3.50065
# Velocity P-wave (km/s) = 4.60046 5.91357 5.29786
#
# Compressibility (1/GPa) = 0.05287634
#
# Stress axis : x y z
#
# Youngs Moduli (GPa) = 22.45234 73.16037 61.56422
#
# Poissons Ratio (x) = 0.47094 -0.05186
# Poissons Ratio (y) = 0.14453 0.31967
# Poissons Ratio (z) = -0.01891 0.37988
#
# Static dielectric constant tensor:
#      x y z
#    x 1.985540 -0.014160 -0.044670 
#    y -0.014160 1.930420 -0.007920 
#    z -0.044670 -0.007920 1.897100 
# 
# From -- ./inp_files/134898.got.cif
#   From: 2010.05.17/outbox.cif.g08.bks.cpg/sg2_68_cif.got.tgz:134898.got - 2010.06.03 11:33:40.
