data_PCOD9109364
_publ_section_title
;
Structure prediction by ZEFSAII (Michael W. Deem and Ramdas Pophale) SiO2 
 PCOD9109364
Probable space group: P -1
;
_chemical_formula_sum "Si O2"
_cell_formula_units_Z 16
_cell_length_a 25.699095
_cell_length_b 7.210722
_cell_length_c 7.088922
_cell_angle_alpha 137.486772
_cell_angle_beta 134.237853
_cell_angle_gamma 64.142882
_cell_volume 627.664379
_symmetry_space_group_name_H-M "P -1"
_symmetry_group_IT_number 2
_symmetry_cell_setting 'triclinic'
loop_
_space_group_symop_operation_xyz
x,y,z
-x,-y,-z
loop_
_atom_site_type_symbol
_atom_site_label
_atom_site_fract_x
_atom_site_fract_y
_atom_site_fract_z
Si Si1 0.300811 0.383299 0.252942
Si Si2 0.900205 0.348057 0.613008
Si Si3 0.534409 0.928605 0.332787
Si Si4 0.427692 0.470111 0.156965
Si Si5 0.192154 0.384054 0.648643
Si Si6 0.038057 0.312896 0.318202
Si Si7 0.161471 0.216669 0.034393
Si Si8 0.377380 0.004422 0.934894
O O1 0.238081 0.256701 0.146651
O O2 0.328399 0.705467 0.610474
O O3 0.261103 0.388719 0.954754
O O4 0.363474 0.190139 0.224186
O O5 0.823956 0.336139 0.283518
O O6 0.876406 0.502459 0.851100
O O7 0.958255 0.546881 0.777735
O O8 0.901856 0.026373 0.381972
O O9 0.590077 0.217684 0.653186
O O10 0.500000 0.000000 0.500000
O O11 0.457030 0.928403 0.027549
O O12 0.558021 0.646466 0.102686
O O13 0.500000 0.500000 0.500000
O O14 0.370317 0.219467 0.909134
O O15 0.177795 0.190817 0.282311
O O16 0.124182 0.313362 0.567243
O O17 0.000000 0.500000 0.500000
O O18 0.000000 0.000000 0.000000
#
# Coordination Sequence:
#
# PCOD9109364 Si02
#       8
#     2   2   2   2   2   2   2   2
#     4  12  23  39  60  84 123 152 197 240 280 359
#     4   8  18  34  55  78 112 145 196 225 294 342
#     4  11  22  42  64  88 118 151 192 241 305 350
#     4  10  20  41  65  80 119 153 184 242 293 348
#     4   8  23  35  60  81 115 158 193 224 308 339
#     4   9  16  30  58  85 108 146 198 241 279 342
#     4   9  19  38  54  78 115 157 184 237 284 337
#     4  11  24  39  58  90 110 150 198 230 290 347
#
# _framework density 25.491330000000001
#
# number of rings (size 3 to 8) (size 9 to 14) (size 15 to 20)
#    1.500    0.500    0.000    6.375    1.750    0.000 
#    6.750    0.000    0.000   10.500    0.000    0.000 
#    0.000    0.000    0.000    0.000    0.000    0.000 
#
# Total GULP energy -89087.294244 kJ/mol
# GULP energy per Si atom -5567.955890 kJ/mol
# Density = 2.543331 g / cm^3
# Si number density = 25.491330 Si / 1000 Ang^3
#
#
#
# Elastic Constant Matrix: (Units=GPa)
#
#
# Indices 1 2 3 4 5 6 
#
# 1 134.1825 9.6429 39.7403 20.0393 -20.5609 3.9480
# 2 9.6429 23.5574 27.2361 6.6466 -11.8566 4.3707
# 3 39.7403 27.2361 145.7169 52.2605 -23.1426 6.6946
# 4 20.0393 6.6466 52.2605 42.2411 3.7728 -1.8744
# 5 -20.5609 -11.8566 -23.1426 3.7728 48.6783 10.1750
# 6 3.9480 4.3707 6.6946 -1.8744 10.1750 30.8068
#
#
#
# Elastic Compliance Matrix: (Units=1/GPa)
#
#
# Indices 1 2 3 4 5 6 
#
# 1 0.009022 0.000734 0.000364 -0.005472 0.005302 -0.003424
# 2 0.000734 0.061405 -0.008553 -0.001165 0.013704 -0.011544
# 3 0.000364 -0.008553 0.018695 -0.023227 0.010376 -0.007736
# 4 -0.005472 -0.001165 -0.023227 0.057851 -0.021583 0.016562
# 5 0.005302 0.013704 0.010376 -0.021583 0.036543 -0.018261
# 6 -0.003424 -0.011544 -0.007736 0.016562 -0.018261 0.043257
#
#
# Mechanical properties :
#
#
# Convention : Reuss Voigt Hill
#
# Bulk Modulus (GPa) = 13.47480 50.74391 32.10935
# Shear Modulus (GPa) = 18.76715 39.46773 29.11744
#
# Velocity S-wave (km/s) = 2.71628 3.93909 3.38338
# Velocity P-wave (km/s) = 3.89038 6.37480 5.28077
#
# Compressibility (1/GPa) = 0.07421262
#
# Stress axis : x y z
#
# Youngs Moduli (GPa) = 110.83570 16.28523 53.48894
#
# Poissons Ratio (x) = -0.01195 -0.01947
# Poissons Ratio (y) = -0.08132 0.45749
# Poissons Ratio (z) = -0.04034 0.13929
#
# Static dielectric constant tensor:
#      x y z
#    x 2.066870 -0.040180 0.020140 
#    y -0.040180 2.399740 -0.087280 
#    z 0.020140 -0.087280 2.086110 
# 
# From -- ./inp_files/352537.got.cif
#   From: 2010.05.17/outbox.cif.g08.bks.cpg/sg2_177_cif.got.tgz:352537.got - 2010.06.03 11:33:40.
