data_PCOD9109830
_publ_section_title
;
Structure prediction by ZEFSAII (Michael W. Deem and Ramdas Pophale) SiO2 
 PCOD9109830
Probable space group: P -1
;
_chemical_formula_sum "Si O2"
_cell_formula_units_Z 16
_cell_length_a 9.810897
_cell_length_b 14.482145
_cell_length_c 11.400964
_cell_angle_alpha 30.833199
_cell_angle_beta 118.067521
_cell_angle_gamma 103.526272
_cell_volume 678.806813
_symmetry_space_group_name_H-M "P -1"
_symmetry_group_IT_number 2
_symmetry_cell_setting 'triclinic'
loop_
_space_group_symop_operation_xyz
x,y,z
-x,-y,-z
loop_
_atom_site_type_symbol
_atom_site_label
_atom_site_fract_x
_atom_site_fract_y
_atom_site_fract_z
Si Si1 0.105676 0.775028 0.814813
Si Si2 0.040404 0.150048 0.770268
Si Si3 0.620243 0.042638 0.594635
Si Si4 0.217278 0.668754 0.717090
Si Si5 0.101342 0.338473 0.968100
Si Si6 0.635701 0.280388 0.808093
Si Si7 0.609525 0.862395 0.025601
Si Si8 0.173319 0.571681 0.432345
O O1 0.197009 0.679836 0.836020
O O2 0.972226 0.692470 0.903116
O O3 0.243995 0.747555 0.000898
O O4 0.000000 0.000000 0.500000
O O5 0.952261 0.181022 0.575706
O O6 0.944361 0.341858 0.600556
O O7 0.231818 0.115747 0.874597
O O8 0.000000 0.000000 0.000000
O O9 0.796544 0.865672 0.831704
O O10 0.500000 0.000000 0.500000
O O11 0.645874 0.245324 0.364122
O O12 0.562522 0.010538 0.736177
O O13 0.217527 0.462234 0.898457
O O14 0.935214 0.437253 0.715077
O O15 0.500000 0.500000 0.500000
O O16 0.535331 0.142102 0.943117
O O17 0.743591 0.276443 0.740807
O O18 0.689295 0.639019 0.252677
#
# Coordination Sequence:
#
# PCOD9109830 Si02
#       8
#     2   2   2   2   2   2   2   2
#     4  11  23  43  71  98 136 181 229 280 346 412
#     4  12  22  37  66  98 132 170 228 273 332 401
#     4  12  25  41  63  94 138 177 223 282 344 392
#     4  12  24  41  68 101 131 174 231 285 333 416
#     4  11  22  42  69  97 129 178 228 275 332 408
#     4   9  22  41  69  95 131 178 227 275 346 407
#     4  11  20  39  65  95 127 168 217 276 334 397
#     4  10  20  41  67  96 126 174 222 271 330 402
#
# _framework density 23.570771000000001
#
# number of rings (size 3 to 8) (size 9 to 14) (size 15 to 20)
#    0.000    1.000    5.000    2.250    1.750    0.500 
#    0.000    3.125    0.000    0.000    0.000    0.000 
#    0.000    0.000    0.000    0.000    0.000    0.000 
#
# Total GULP energy -89437.046954 kJ/mol
# GULP energy per Si atom -5589.815435 kJ/mol
# Density = 2.351712 g / cm^3
# Si number density = 23.570771 Si / 1000 Ang^3
#
#
#
# Elastic Constant Matrix: (Units=GPa)
#
#
# Indices 1 2 3 4 5 6 
#
# 1 152.4730 39.7099 37.4296 -6.6285 -48.0760 26.3797
# 2 39.7099 79.1613 27.7811 -16.6885 -10.5471 26.4768
# 3 37.4296 27.7811 85.9433 0.2424 -24.6262 9.8714
# 4 -6.6285 -16.6885 0.2424 47.5568 11.7483 -2.1400
# 5 -48.0760 -10.5471 -24.6262 11.7483 48.3347 -8.6894
# 6 26.3797 26.4768 9.8714 -2.1400 -8.6894 48.1299
#
#
#
# Elastic Compliance Matrix: (Units=1/GPa)
#
#
# Indices 1 2 3 4 5 6 
#
# 1 0.011175 -0.003884 -0.000417 -0.002435 0.010258 -0.002159
# 2 -0.003884 0.020217 -0.005498 0.007588 -0.005633 -0.008545
# 3 -0.000417 -0.005498 0.015613 -0.003865 0.007501 0.001233
# 4 -0.002435 0.007588 -0.003865 0.025581 -0.009422 -0.002611
# 5 0.010258 -0.005633 0.007501 -0.009422 0.036143 0.002044
# 6 -0.002159 -0.008545 0.001233 -0.002611 0.002044 0.026661
#
#
# Mechanical properties :
#
#
# Convention : Reuss Voigt Hill
#
# Bulk Modulus (GPa) = 36.48555 58.60210 47.54383
# Shear Modulus (GPa) = 30.46505 42.98143 36.72324
#
# Velocity S-wave (km/s) = 3.59903 4.27489 3.95143
# Velocity P-wave (km/s) = 5.72568 7.02014 6.40569
#
# Compressibility (1/GPa) = 0.02740811
#
# Stress axis : x y z
#
# Youngs Moduli (GPa) = 89.48846 49.46268 64.04899
#
# Poissons Ratio (x) = 0.19209 0.02671
# Poissons Ratio (y) = 0.34753 0.35213
# Poissons Ratio (z) = 0.03732 0.27194
#
# Static dielectric constant tensor:
#      x y z
#    x 1.895760 0.037100 0.018080 
#    y 0.037100 1.889240 -0.066900 
#    z 0.018080 -0.066900 1.955600 
# 
# From -- ./inp_files/432354.got.cif
#   From: 2010.05.17/outbox.cif.g08.bks.cpg/sg2_217_cif.got.tgz:432354.got - 2010.06.03 11:33:40.
