data_PCOD9109174
_publ_section_title
;
Structure prediction by ZEFSAII (Michael W. Deem and Ramdas Pophale) SiO2 
 PCOD9109174
Probable space group: P -1
;
_chemical_formula_sum "Si O2"
_cell_formula_units_Z 16
_cell_length_a 18.000824
_cell_length_b 5.907781
_cell_length_c 26.302611
_cell_angle_alpha 127.707811
_cell_angle_beta 160.087125
_cell_angle_gamma 50.843491
_cell_volume 737.025956
_symmetry_space_group_name_H-M "P -1"
_symmetry_group_IT_number 2
_symmetry_cell_setting 'triclinic'
loop_
_space_group_symop_operation_xyz
x,y,z
-x,-y,-z
loop_
_atom_site_type_symbol
_atom_site_label
_atom_site_fract_x
_atom_site_fract_y
_atom_site_fract_z
Si Si1 0.442835 0.009627 0.542116
Si Si2 0.027440 0.444955 0.450673
Si Si3 0.424853 0.990119 0.642363
Si Si4 0.177259 0.822481 0.257069
Si Si5 0.902694 0.726697 0.922894
Si Si6 0.356098 0.755510 0.876541
Si Si7 0.787842 0.328115 0.114168
Si Si8 0.917196 0.379591 0.595913
O O1 0.339281 0.816215 0.409066
O O2 0.467255 0.885442 0.597190
O O3 0.669167 0.091060 0.677817
O O4 0.252769 0.305273 0.464774
O O5 0.847163 0.247399 0.292798
O O6 0.000000 0.500000 0.500000
O O7 0.295438 0.323222 0.601998
O O8 0.981453 0.659455 0.401153
O O9 0.657309 0.892226 0.805800
O O10 0.237291 0.846009 0.525968
O O11 0.111702 0.513848 0.162800
O O12 0.957993 0.078599 0.159337
O O13 0.000000 0.500000 0.000000
O O14 0.000000 0.000000 0.000000
O O15 0.254693 0.780855 0.871543
O O16 0.546112 0.455549 0.952464
O O17 0.500000 0.000000 0.000000
O O18 0.909791 0.593922 0.244152
#
# Coordination Sequence:
#
# PCOD9109174 Si02
#       8
#     2   2   2   2   2   2   2   2
#     4   9  19  38  66 103 129 164 223 292 352 397
#     4  10  23  40  64  95 124 172 232 279 338 420
#     4  11  22  42  69  89 132 179 220 287 349 410
#     4  10  20  42  65 102 134 173 236 287 337 432
#     4  12  28  48  67  96 145 196 231 279 356 429
#     4  10  20  41  63  93 138 171 217 282 357 401
#     4   9  20  37  64  97 133 170 215 285 350 404
#     4   9  18  38  65  92 130 167 215 275 355 403
#
# _framework density 21.708867999999999
#
# number of rings (size 3 to 8) (size 9 to 14) (size 15 to 20)
#    0.000    2.000    1.250    2.250    1.750    2.000 
#   11.250    0.000    0.000    0.000    0.000    0.000 
#    0.000    0.000    0.000    0.000    0.000    0.000 
#
# Total GULP energy -89096.415787 kJ/mol
# GULP energy per Si atom -5568.525987 kJ/mol
# Density = 2.165946 g / cm^3
# Si number density = 21.708868 Si / 1000 Ang^3
#
#
#
# Elastic Constant Matrix: (Units=GPa)
#
#
# Indices 1 2 3 4 5 6 
#
# 1 99.0803 33.3198 38.1079 5.9136 9.0267 -8.2833
# 2 33.3198 67.2275 50.7827 -2.7792 -0.3225 0.5112
# 3 38.1079 50.7827 119.2164 -17.2199 16.7834 8.6859
# 4 5.9136 -2.7792 -17.2199 49.7992 3.6788 7.9778
# 5 9.0267 -0.3225 16.7834 3.6788 33.9381 -2.7865
# 6 -8.2833 0.5112 8.6859 7.9778 -2.7865 23.0999
#
#
#
# Elastic Compliance Matrix: (Units=1/GPa)
#
#
# Indices 1 2 3 4 5 6 
#
# 1 0.013990 -0.004380 -0.003706 -0.004398 -0.000802 0.007929
# 2 -0.004380 0.025438 -0.011277 -0.003188 0.007668 0.004133
# 3 -0.003706 -0.011277 0.017891 0.008648 -0.009891 -0.011987
# 4 -0.004398 -0.003188 0.008648 0.026304 -0.007196 -0.014711
# 5 -0.000802 0.007668 -0.009891 -0.007196 0.036254 0.010121
# 6 0.007929 0.004133 -0.011987 -0.014711 0.010121 0.056851
#
#
# Mechanical properties :
#
#
# Convention : Reuss Voigt Hill
#
# Bulk Modulus (GPa) = 53.78465 58.88276 56.33370
# Shear Modulus (GPa) = 22.55802 32.25502 27.40652
#
# Velocity S-wave (km/s) = 3.22703 3.85879 3.55696
# Velocity P-wave (km/s) = 6.22207 6.85831 6.54792
#
# Compressibility (1/GPa) = 0.01859267
#
# Stress axis : x y z
#
# Youngs Moduli (GPa) = 71.48094 39.31195 55.89299
#
# Poissons Ratio (x) = 0.17219 0.20715
# Poissons Ratio (y) = 0.31309 0.63029
# Poissons Ratio (z) = 0.26492 0.44331
#
# Static dielectric constant tensor:
#      x y z
#    x 1.821800 0.023590 -0.025020 
#    y 0.023590 1.908760 -0.010060 
#    z -0.025020 -0.010060 1.849340 
# 
# From -- ./inp_files/620164.got.cif
#   From: 2010.05.17/outbox.cif.g08.bks.cpg/sg2_311_cif.got.tgz:620164.got - 2010.06.03 11:33:40.
