data_PCOD9109532
_publ_section_title
;
Structure prediction by ZEFSAII (Michael W. Deem and Ramdas Pophale) SiO2 
 PCOD9109532
Probable space group: P -1
;
_chemical_formula_sum "Si O2"
_cell_formula_units_Z 14
_cell_length_a 19.224459
_cell_length_b 10.991335
_cell_length_c 14.989642
_cell_angle_alpha 147.796107
_cell_angle_beta 158.754758
_cell_angle_gamma 31.437293
_cell_volume 576.465829
_symmetry_space_group_name_H-M "P -1"
_symmetry_group_IT_number 2
_symmetry_cell_setting 'triclinic'
loop_
_space_group_symop_operation_xyz
x,y,z
-x,-y,-z
loop_
_atom_site_type_symbol
_atom_site_label
_atom_site_fract_x
_atom_site_fract_y
_atom_site_fract_z
Si Si1 0.244027 0.111783 0.482467
Si Si2 0.245063 0.586146 0.692644
Si Si3 0.099082 0.413342 0.159281
Si Si4 0.567567 0.339440 0.691212
Si Si5 0.505370 0.789896 0.992940
Si Si6 0.889496 0.819932 0.296944
Si Si7 0.801636 0.137316 0.014978
O O1 0.278599 0.304060 0.572529
O O2 0.003019 0.187347 0.253968
O O3 0.329409 0.838851 0.377089
O O4 0.353801 0.135826 0.721277
O O5 0.373171 0.663875 0.817793
O O6 0.288694 0.689376 0.902630
O O7 0.007419 0.730851 0.475089
O O8 0.325636 0.426973 0.442904
O O9 0.957161 0.582594 0.169047
O O10 0.000000 0.500000 0.000000
O O11 0.128398 0.135391 0.037129
O O12 0.618027 0.581866 0.926954
O O13 0.647000 0.177489 0.773596
O O14 0.344684 0.019707 0.895520
O O15 0.000000 0.000000 0.500000
#
# Coordination Sequence:
#
# PCOD9109532 Si02
#       7
#     2   2   2   2   2   2   2
#     4  12  26  46  66 101 145 180 225 283 343 408
#     4  11  22  42  71  96 138 179 231 280 333 401
#     4  12  24  44  74 100 133 175 235 285 334 408
#     4  12  25  43  73 101 135 178 233 279 341 399
#     4  11  24  44  72 105 131 180 235 282 335 404
#     4  10  20  41  66 100 131 168 227 286 333 388
#     4  12  27  44  68 102 141 181 223 284 348 401
#
# _framework density 24.285916
#
# number of rings (size 3 to 8) (size 9 to 14) (size 15 to 20)
#    0.000    0.571    4.286    6.000    2.000    0.000 
#    0.000    5.000    0.000    0.000    0.000    0.000 
#    0.000    0.000    0.000    0.000    0.000    0.000 
#
# Total GULP energy -78449.914403 kJ/mol
# GULP energy per Si atom -5603.565315 kJ/mol
# Density = 2.423064 g / cm^3
# Si number density = 24.285916 Si / 1000 Ang^3
#
#
#
# Elastic Constant Matrix: (Units=GPa)
#
#
# Indices 1 2 3 4 5 6 
#
# 1 63.2560 19.4229 36.7995 0.1243 -4.8149 -13.6886
# 2 19.4229 150.1786 39.7616 -9.3137 -27.6790 -2.5581
# 3 36.7995 39.7616 134.8213 -29.0556 -32.1672 7.5478
# 4 0.1243 -9.3137 -29.0556 56.3005 -7.1868 -21.3007
# 5 -4.8149 -27.6790 -32.1672 -7.1868 28.2530 -6.2296
# 6 -13.6886 -2.5581 7.5478 -21.3007 -6.2296 39.5618
#
#
#
# Elastic Compliance Matrix: (Units=1/GPa)
#
#
# Indices 1 2 3 4 5 6 
#
# 1 0.021943 -0.002035 -0.007979 -0.002961 -0.006696 0.006334
# 2 -0.002035 0.009468 0.002346 0.006636 0.014458 0.005310
# 3 -0.007979 0.002346 0.018643 0.016203 0.027816 0.006938
# 4 -0.002961 0.006636 0.016203 0.042016 0.040720 0.025347
# 5 -0.006696 0.014458 0.027816 0.040720 0.097178 0.030538
# 6 0.006334 0.005310 0.006938 0.025347 0.030538 0.044944
#
#
# Mechanical properties :
#
#
# Convention : Reuss Voigt Hill
#
# Bulk Modulus (GPa) = 28.80540 60.02487 44.41513
# Shear Modulus (GPa) = 19.14963 41.64118 30.39541
#
# Velocity S-wave (km/s) = 2.81108 4.14529 3.54158
# Velocity P-wave (km/s) = 4.73529 6.90513 5.92046
#
# Compressibility (1/GPa) = 0.03471571
#
# Stress axis : x y z
#
# Youngs Moduli (GPa) = 45.57340 105.62413 53.63808
#
# Poissons Ratio (x) = 0.21495 0.42800
# Poissons Ratio (y) = 0.09275 -0.12581
# Poissons Ratio (z) = 0.36365 -0.24775
#
# Static dielectric constant tensor:
#      x y z
#    x 1.952080 -0.010090 0.044200 
#    y -0.010090 1.872750 0.021670 
#    z 0.044200 0.021670 1.950590 
# 
# From -- ./inp_files/541195.got.cif
#   From: 2010.05.17/outbox.cif.g08.bks.cpg/sg2_271_cif.got.tgz:541195.got - 2010.06.03 11:33:40.
