data_PCOD9109984
_publ_section_title
;
Structure prediction by ZEFSAII (Michael W. Deem and Ramdas Pophale) SiO2 
 PCOD9109984
Probable space group: P -1
;
_chemical_formula_sum "Si O2"
_cell_formula_units_Z 16
_cell_length_a 11.977483
_cell_length_b 9.178241
_cell_length_c 18.305208
_cell_angle_alpha 29.930999
_cell_angle_beta 132.869873
_cell_angle_gamma 135.328572
_cell_volume 694.038524
_symmetry_space_group_name_H-M "P -1"
_symmetry_group_IT_number 2
_symmetry_cell_setting 'triclinic'
loop_
_space_group_symop_operation_xyz
x,y,z
-x,-y,-z
loop_
_atom_site_type_symbol
_atom_site_label
_atom_site_fract_x
_atom_site_fract_y
_atom_site_fract_z
Si Si1 0.563846 0.808487 0.972520
Si Si2 0.797053 0.761729 0.714885
Si Si3 0.108192 0.335825 0.432582
Si Si4 0.756468 0.099494 0.057005
Si Si5 0.396154 0.561832 0.360031
Si Si6 0.852226 0.096230 0.259991
Si Si7 0.767788 0.658785 0.014893
Si Si8 0.060312 0.900979 0.231739
O O1 0.727890 0.787623 0.017290
O O2 0.536487 0.096383 0.793023
O O3 0.412944 0.503807 0.026175
O O4 0.601928 0.875183 0.044954
O O5 0.655983 0.680401 0.626107
O O6 0.967168 0.866268 0.702092
O O7 0.815329 0.999433 0.687017
O O8 0.785578 0.437647 0.889562
O O9 0.225514 0.527265 0.338924
O O10 0.024794 0.547898 0.345511
O O11 0.212593 0.225564 0.587198
O O12 0.000000 0.000000 0.500000
O O13 0.752203 0.105480 0.139064
O O14 0.907695 0.989604 0.151968
O O15 0.500000 0.500000 0.500000
O O16 0.847126 0.390959 0.175935
O O17 0.867522 0.896914 0.895757
#
# Coordination Sequence:
#
# PCOD9109984 Si02
#       8
#     2   2   2   2   2   2   2   2
#     4  10  24  39  64  98 126 164 221 268 315 379
#     4  10  20  41  68  97 128 165 219 269 316 379
#     4  12  26  42  62  97 131 173 216 260 322 392
#     4  10  21  39  67  99 125 164 213 272 324 367
#     4  11  23  45  62  90 137 175 205 263 327 380
#     4  11  21  40  65  94 129 164 216 265 317 383
#     4  11  21  41  66  93 127 168 218 267 314 379
#     4  11  22  42  67  95 132 168 213 269 323 380
#
# _framework density 23.053474999999999
#
# number of rings (size 3 to 8) (size 9 to 14) (size 15 to 20)
#    0.000    1.250    5.000    1.500    1.750    3.000 
#    2.250    0.625    0.000    0.000    0.000    0.000 
#    0.000    0.000    0.000    0.000    0.000    0.000 
#
# Total GULP energy -89437.052267 kJ/mol
# GULP energy per Si atom -5589.815767 kJ/mol
# Density = 2.300100 g / cm^3
# Si number density = 23.053475 Si / 1000 Ang^3
#
#
#
# Elastic Constant Matrix: (Units=GPa)
#
#
# Indices 1 2 3 4 5 6 
#
# 1 73.9563 3.6320 17.2894 -7.5655 6.6609 -12.5881
# 2 3.6320 121.7837 33.0736 15.5000 9.0515 -24.9232
# 3 17.2894 33.0736 86.0995 3.5695 -3.5986 -12.2388
# 4 -7.5655 15.5000 3.5695 35.7333 -8.4216 -2.1976
# 5 6.6609 9.0515 -3.5986 -8.4216 30.3472 -5.8654
# 6 -12.5881 -24.9232 -12.2388 -2.1976 -5.8654 38.3387
#
#
#
# Elastic Compliance Matrix: (Units=1/GPa)
#
#
# Indices 1 2 3 4 5 6 
#
# 1 0.015487 0.001157 -0.003114 0.002797 -0.002443 0.004629
# 2 0.001157 0.011293 -0.003755 -0.004966 -0.004369 0.005569
# 3 -0.003114 -0.003755 0.014060 0.000601 0.003959 0.001665
# 4 0.002797 -0.004966 0.000601 0.033212 0.010422 0.001380
# 5 -0.002443 -0.004369 0.003959 0.010422 0.038961 0.004180
# 6 0.004629 0.005569 0.001665 0.001380 0.004180 0.032474
#
#
# Mechanical properties :
#
#
# Convention : Reuss Voigt Hill
#
# Bulk Modulus (GPa) = 33.99750 43.31439 38.65594
# Shear Modulus (GPa) = 29.99093 36.07347 33.03220
#
# Velocity S-wave (km/s) = 3.61075 3.96001 3.78941
# Velocity P-wave (km/s) = 5.67121 6.30384 5.99587
#
# Compressibility (1/GPa) = 0.02941393
#
# Stress axis : x y z
#
# Youngs Moduli (GPa) = 64.57096 88.54872 71.12571
#
# Poissons Ratio (x) = -0.10243 0.22150
# Poissons Ratio (y) = -0.07470 0.26711
# Poissons Ratio (z) = 0.20109 0.33254
#
# Static dielectric constant tensor:
#      x y z
#    x 1.877440 0.003890 0.022620 
#    y 0.003890 1.969290 0.048220 
#    z 0.022620 0.048220 1.873070 
# 
# From -- ./inp_files/205594.got.cif
#   From: 2010.05.17/outbox.cif.g08.bks.cpg/sg2_103_cif.got.tgz:205594.got - 2010.06.03 11:33:40.
