data_PCOD9109171
_publ_section_title
;
Structure prediction by ZEFSAII (Michael W. Deem and Ramdas Pophale) SiO2 
 PCOD9109171
Probable space group: P -1
;
_chemical_formula_sum "Si O2"
_cell_formula_units_Z 14
_cell_length_a 17.838231
_cell_length_b 5.411325
_cell_length_c 12.158393
_cell_angle_alpha 115.281274
_cell_angle_beta 33.124522
_cell_angle_gamma 112.154465
_cell_volume 579.467214
_symmetry_space_group_name_H-M "P -1"
_symmetry_group_IT_number 2
_symmetry_cell_setting 'triclinic'
loop_
_space_group_symop_operation_xyz
x,y,z
-x,-y,-z
loop_
_atom_site_type_symbol
_atom_site_label
_atom_site_fract_x
_atom_site_fract_y
_atom_site_fract_z
Si Si1 0.618060 0.236976 0.389991
Si Si2 0.357445 0.478068 0.233046
Si Si3 0.783835 0.591173 0.817064
Si Si4 0.740309 0.891639 0.527407
Si Si5 0.834970 0.928011 0.176840
Si Si6 0.035038 0.914187 0.562660
Si Si7 0.649163 0.485088 0.185376
O O1 0.666513 0.240757 0.204263
O O2 0.515351 0.477085 0.591158
O O3 0.500000 0.000000 0.500000
O O4 0.747533 0.190596 0.299584
O O5 0.273310 0.307026 0.209311
O O6 0.309281 0.792827 0.361472
O O7 0.354484 0.306092 0.316583
O O8 0.500000 0.500000 0.000000
O O9 0.868837 0.337412 0.623724
O O10 0.894035 0.809226 0.770735
O O11 0.681525 0.484917 0.017057
O O12 0.882327 0.884684 0.420905
O O13 0.779423 0.820994 0.342236
O O14 0.763225 0.706480 0.138114
O O15 0.000000 0.000000 0.000000
O O16 0.000000 0.000000 0.500000
#
# Coordination Sequence:
#
# PCOD9109171 Si02
#       7
#     2   2   2   2   2   2   2
#     4   9  22  43  62  93 128 175 227 277 336 406
#     4  11  25  44  66 101 133 181 224 278 347 404
#     4  10  22  38  66  95 126 170 226 278 333 410
#     4  11  25  44  69  97 141 178 223 286 340 410
#     4  11  25  43  65 101 136 181 227 285 356 415
#     4  10  20  41  63  93 131 170 221 275 339 400
#     4  10  22  42  68  96 128 178 229 280 344 405
#
# _framework density 24.160128
#
# number of rings (size 3 to 8) (size 9 to 14) (size 15 to 20)
#    0.000    1.714    1.429    1.286    4.000    6.286 
#    0.000    0.000    0.000    0.000    0.000    0.000 
#    0.000    0.000    0.000    0.000    0.000    0.000 
#
# Total GULP energy -78000.363778 kJ/mol
# GULP energy per Si atom -5571.454556 kJ/mol
# Density = 2.410514 g / cm^3
# Si number density = 24.160128 Si / 1000 Ang^3
#
#
#
# Elastic Constant Matrix: (Units=GPa)
#
#
# Indices 1 2 3 4 5 6 
#
# 1 137.2375 24.0184 58.3685 -11.4026 4.8286 -16.6097
# 2 24.0184 67.7760 36.0049 -29.4070 5.0815 -15.4960
# 3 58.3685 36.0049 141.2770 -32.7401 4.5684 -13.4006
# 4 -11.4026 -29.4070 -32.7401 32.9613 -11.6536 5.5425
# 5 4.8286 5.0815 4.5684 -11.6536 58.3507 -15.7995
# 6 -16.6097 -15.4960 -13.4006 5.5425 -15.7995 37.0385
#
#
#
# Elastic Compliance Matrix: (Units=1/GPa)
#
#
# Indices 1 2 3 4 5 6 
#
# 1 0.009278 -0.001921 -0.003739 -0.002684 -0.000218 0.002313
# 2 -0.001921 0.027718 0.000106 0.024419 0.005135 0.009309
# 3 -0.003739 0.000106 0.011050 0.010175 0.001917 0.001660
# 4 -0.002684 0.024419 0.010175 0.064281 0.012402 0.008365
# 5 -0.000218 0.005135 0.001917 0.012402 0.021793 0.010185
# 6 0.002313 0.009309 0.001660 0.008365 0.010185 0.035624
#
#
# Mechanical properties :
#
#
# Convention : Reuss Voigt Hill
#
# Bulk Modulus (GPa) = 27.07364 64.78602 45.92983
# Shear Modulus (GPa) = 25.88469 40.86333 33.37401
#
# Velocity S-wave (km/s) = 3.27675 4.11707 3.72071
# Velocity P-wave (km/s) = 5.05434 7.03376 6.12455
#
# Compressibility (1/GPa) = 0.03693630
#
# Stress axis : x y z
#
# Youngs Moduli (GPa) = 107.78552 36.07788 90.50088
#
# Poissons Ratio (x) = 0.06931 0.33839
# Poissons Ratio (y) = 0.20706 -0.00957
# Poissons Ratio (z) = 0.40302 -0.00381
#
# Static dielectric constant tensor:
#      x y z
#    x -5.360470 -2.412120 3.346200 
#    y -2.412120 1.375740 1.206850 
#    z 3.346200 1.206850 0.375820 
# 
# From -- ./inp_files/81039.got.cif
#   From: 2010.05.17/outbox.cif.g08.bks.cpg/sg2_41_cif.got.tgz:81039.got - 2010.06.03 11:33:40.
