data_PCOD9109142
_publ_section_title
;
Structure prediction by ZEFSAII (Michael W. Deem and Ramdas Pophale) SiO2 
 PCOD9109142
Probable space group: P -1
;
_chemical_formula_sum "Si O2"
_cell_formula_units_Z 16
_cell_length_a 15.366787
_cell_length_b 14.904514
_cell_length_c 15.122703
_cell_angle_alpha 147.582864
_cell_angle_beta 144.374869
_cell_angle_gamma 27.618861
_cell_volume 830.936933
_symmetry_space_group_name_H-M "P -1"
_symmetry_group_IT_number 2
_symmetry_cell_setting 'triclinic'
loop_
_space_group_symop_operation_xyz
x,y,z
-x,-y,-z
loop_
_atom_site_type_symbol
_atom_site_label
_atom_site_fract_x
_atom_site_fract_y
_atom_site_fract_z
Si Si1 0.126747 0.835162 0.684904
Si Si2 0.020248 0.551833 0.158412
Si Si3 0.526006 0.959722 0.665174
Si Si4 0.168378 0.450800 0.720773
Si Si5 0.777485 0.525393 0.410434
Si Si6 0.910970 0.793360 0.936700
Si Si7 0.280796 0.697075 0.506932
Si Si8 0.764708 0.973103 0.392162
O O1 0.234462 0.631219 0.670209
O O2 0.250106 0.776442 0.648682
O O3 0.929416 0.888703 0.531564
O O4 0.075637 0.042529 0.864451
O O5 0.094149 0.354301 0.119897
O O6 0.158317 0.615112 0.326128
O O7 0.819905 0.765738 0.212160
O O8 0.000000 0.500000 0.000000
O O9 0.608894 0.777558 0.506649
O O10 0.711248 0.927564 0.827995
O O11 0.351321 0.206174 0.696546
O O12 0.438680 0.906284 0.626821
O O13 0.218518 0.508391 0.718846
O O14 0.982118 0.466808 0.557642
O O15 0.090258 0.626566 0.880130
O O16 0.500000 0.500000 0.500000
O O17 0.219738 0.885462 0.545406
#
# Coordination Sequence:
#
# PCOD9109142 Si02
#       8
#     2   2   2   2   2   2   2   2
#     4  11  22  41  57  88 124 157 197 244 300 351
#     4  11  21  38  59  85 119 158 199 241 296 348
#     4  11  20  40  63  91 117 154 204 246 293 354
#     4  10  20  41  63  90 117 158 199 245 304 348
#     4  10  21  38  66  89 117 156 202 247 293 359
#     4  11  23  39  60  87 128 155 195 250 294 356
#     4  11  22  37  58  87 119 154 204 243 290 356
#     4  11  20  38  62  84 116 160 199 238 297 353
#
# _framework density 19.255372999999999
#
# number of rings (size 3 to 8) (size 9 to 14) (size 15 to 20)
#    0.000    1.250    2.500    7.125    0.000    1.500 
#    4.500    3.125    0.000    0.000    0.000    0.000 
#    0.000    0.000    0.000    0.000    0.000    0.000 
#
# Total GULP energy -89376.915419 kJ/mol
# GULP energy per Si atom -5586.057214 kJ/mol
# Density = 1.921155 g / cm^3
# Si number density = 19.255373 Si / 1000 Ang^3
#
#
#
# Elastic Constant Matrix: (Units=GPa)
#
#
# Indices 1 2 3 4 5 6 
#
# 1 114.5062 45.9366 45.8160 7.9656 -29.6947 8.9193
# 2 45.9366 103.3707 40.7943 22.8761 -19.6477 -2.7620
# 3 45.8160 40.7943 112.8011 22.0123 -33.8823 5.9987
# 4 7.9656 22.8761 22.0123 17.2290 -1.8581 -0.8198
# 5 -29.6947 -19.6477 -33.8823 -1.8581 27.4938 4.7329
# 6 8.9193 -2.7620 5.9987 -0.8198 4.7329 35.1066
#
#
#
# Elastic Compliance Matrix: (Units=1/GPa)
#
#
# Indices 1 2 3 4 5 6 
#
# 1 0.014289 -0.003817 0.000151 -0.000514 0.013861 -0.005837
# 2 -0.003817 0.017576 0.003254 -0.024573 0.010828 -0.000237
# 3 0.000151 0.003254 0.023482 -0.031484 0.030794 -0.008681
# 4 -0.000514 -0.024573 -0.031484 0.126302 -0.050679 0.013359
# 5 0.013861 0.010828 0.030794 -0.050679 0.097435 -0.022251
# 6 -0.005837 -0.000237 -0.008681 0.013359 -0.022251 0.034744
#
#
# Mechanical properties :
#
#
# Convention : Reuss Voigt Hill
#
# Bulk Modulus (GPa) = 18.34071 66.19687 42.26879
# Shear Modulus (GPa) = 15.02290 29.17463 22.09877
#
# Velocity S-wave (km/s) = 2.79622 3.89671 3.39140
# Velocity P-wave (km/s) = 4.46887 7.39586 6.11022
#
# Compressibility (1/GPa) = 0.05452351
#
# Stress axis : x y z
#
# Youngs Moduli (GPa) = 69.98334 56.89694 42.58579
#
# Poissons Ratio (x) = 0.21718 -0.00643
# Poissons Ratio (y) = 0.26713 -0.13860
# Poissons Ratio (z) = -0.01056 -0.18517
#
# Static dielectric constant tensor:
#      x y z
#    x 1.692950 0.001210 -0.009180 
#    y 0.001210 1.695030 0.010820 
#    z -0.009180 0.010820 1.641000 
# 
# From -- ./inp_files/206561.got.cif
#   From: 2010.05.17/outbox.cif.g08.bks.cpg/sg2_104_cif.got.tgz:206561.got - 2010.06.03 11:33:40.
