data_PCOD9109651
_publ_section_title
;
Structure prediction by ZEFSAII (Michael W. Deem and Ramdas Pophale) SiO2 
 PCOD9109651
Probable space group: P -1
;
_chemical_formula_sum "Si O2"
_cell_formula_units_Z 16
_cell_length_a 8.689557
_cell_length_b 13.859556
_cell_length_c 9.900106
_cell_angle_alpha 86.645976
_cell_angle_beta 47.497751
_cell_angle_gamma 68.629881
_cell_volume 787.409495
_symmetry_space_group_name_H-M "P -1"
_symmetry_group_IT_number 2
_symmetry_cell_setting 'triclinic'
loop_
_space_group_symop_operation_xyz
x,y,z
-x,-y,-z
loop_
_atom_site_type_symbol
_atom_site_label
_atom_site_fract_x
_atom_site_fract_y
_atom_site_fract_z
Si Si1 0.411677 0.159149 0.321572
Si Si2 0.163023 0.021737 0.503883
Si Si3 0.914792 0.440688 0.443192
Si Si4 0.396972 0.257755 0.054094
Si Si5 0.152612 0.036801 0.814869
Si Si6 0.310836 0.609146 0.171939
Si Si7 0.650454 0.813136 0.207024
Si Si8 0.189905 0.349938 0.641924
O O1 0.500248 0.173133 0.121985
O O2 0.592354 0.063056 0.313291
O O3 0.333281 0.267556 0.444444
O O4 0.210011 0.121799 0.420131
O O5 0.074491 0.050043 0.706296
O O6 0.399069 0.910695 0.377412
O O7 0.000000 0.000000 0.500000
O O8 0.750822 0.404888 0.633635
O O9 0.803026 0.535950 0.391623
O O10 0.000000 0.500000 0.500000
O O11 0.145387 0.345205 0.252386
O O12 0.574312 0.309017 0.915055
O O13 0.347650 0.210840 0.949875
O O14 0.170143 0.140505 0.855769
O O15 0.000000 0.000000 0.000000
O O16 0.071880 0.637466 0.228943
O O17 0.500000 0.500000 0.000000
O O18 0.708376 0.708694 0.272800
#
# Coordination Sequence:
#
# PCOD9109651 Si02
#       8
#     2   2   2   2   2   2   2   2
#     4  11  22  42  69  91 135 177 216 272 334 389
#     4  11  25  44  68  96 129 170 223 276 325 401
#     4  10  20  41  66  94 133 167 218 278 322 383
#     4  12  25  40  67 103 130 172 228 271 328 397
#     4  11  25  45  65  96 134 172 221 271 337 397
#     4  11  21  41  69  97 126 176 232 267 326 396
#     4  11  26  43  63  96 136 171 216 277 335 389
#     4  11  20  43  69  90 132 179 214 273 337 385
#
# _framework density 20.319796
#
# number of rings (size 3 to 8) (size 9 to 14) (size 15 to 20)
#    0.000    1.000    7.500    0.750    7.000    1.500 
#    0.000    0.625    0.000    0.000    0.000    0.000 
#    0.000    0.000    0.000    0.000    0.000    0.000 
#
# Total GULP energy -89339.603817 kJ/mol
# GULP energy per Si atom -5583.725239 kJ/mol
# Density = 2.027355 g / cm^3
# Si number density = 20.319796 Si / 1000 Ang^3
#
#
#
# Elastic Constant Matrix: (Units=GPa)
#
#
# Indices 1 2 3 4 5 6 
#
# 1 79.7248 15.3603 39.7939 -15.8054 18.7572 7.3526
# 2 15.3603 79.9130 32.9199 -27.6070 3.0613 -9.5973
# 3 39.7939 32.9199 120.3528 -20.8530 12.0231 8.5452
# 4 -15.8054 -27.6070 -20.8530 46.2219 2.2299 -4.7657
# 5 18.7572 3.0613 12.0231 2.2299 34.9902 -1.0041
# 6 7.3526 -9.5973 8.5452 -4.7657 -1.0041 31.2644
#
#
#
# Elastic Compliance Matrix: (Units=1/GPa)
#
#
# Indices 1 2 3 4 5 6 
#
# 1 0.017660 -0.000328 -0.003989 0.004160 -0.008413 -0.002799
# 2 -0.000328 0.018700 -0.003769 0.010250 -0.000578 0.008391
# 3 -0.003989 -0.003769 0.011249 0.001210 -0.001565 -0.003159
# 4 0.004160 0.010250 0.001210 0.030635 -0.005313 0.006336
# 5 -0.008413 -0.000578 -0.001565 -0.005313 0.034088 0.002514
# 6 -0.002799 0.008391 -0.003159 0.006336 0.002514 0.037130
#
#
# Mechanical properties :
#
#
# Convention : Reuss Voigt Hill
#
# Bulk Modulus (GPa) = 31.80958 50.68209 41.24584
# Shear Modulus (GPa) = 28.39103 35.28975 31.84039
#
# Velocity S-wave (km/s) = 3.74198 4.17192 3.96278
# Velocity P-wave (km/s) = 5.86160 6.94283 6.42500
#
# Compressibility (1/GPa) = 0.03143707
#
# Stress axis : x y z
#
# Youngs Moduli (GPa) = 56.62552 53.47626 88.89633
#
# Poissons Ratio (x) = 0.01752 0.35465
# Poissons Ratio (y) = 0.01855 0.33503
# Poissons Ratio (z) = 0.22591 0.20154
#
# Static dielectric constant tensor:
#      x y z
#    x 1.750860 -0.041000 -0.043540 
#    y -0.041000 1.775050 -0.001450 
#    z -0.043540 -0.001450 1.750490 
# 
# From -- ./inp_files/201788.got.cif
#   From: 2010.05.17/outbox.cif.g08.bks.cpg/sg2_101_cif.got.tgz:201788.got - 2010.06.03 11:33:40.
