data_PCOD9109069
_publ_section_title
;
Structure prediction by ZEFSAII (Michael W. Deem and Ramdas Pophale) SiO2 
 PCOD9109069
Probable space group: P -1
;
_chemical_formula_sum "Si O2"
_cell_formula_units_Z 16
_cell_length_a 11.307861
_cell_length_b 8.997141
_cell_length_c 19.892791
_cell_angle_alpha 45.711487
_cell_angle_beta 138.591740
_cell_angle_gamma 101.358344
_cell_volume 693.423853
_symmetry_space_group_name_H-M "P -1"
_symmetry_group_IT_number 2
_symmetry_cell_setting 'triclinic'
loop_
_space_group_symop_operation_xyz
x,y,z
-x,-y,-z
loop_
_atom_site_type_symbol
_atom_site_label
_atom_site_fract_x
_atom_site_fract_y
_atom_site_fract_z
Si Si1 0.078847 0.072382 0.932498
Si Si2 0.584861 0.884488 0.870426
Si Si3 0.115583 0.253079 0.747116
Si Si4 0.708927 0.490626 0.753493
Si Si5 0.164294 0.938826 0.652523
Si Si6 0.389052 0.357027 0.903595
Si Si7 0.132824 0.869683 0.395972
Si Si8 0.010113 0.598689 0.900567
O O1 0.075835 0.183992 0.824745
O O2 0.826473 0.326607 0.783964
O O3 0.308183 0.977787 0.105319
O O4 0.136915 0.783133 0.044057
O O5 0.300246 0.051349 0.683739
O O6 0.670387 0.686777 0.034889
O O7 0.738398 0.685997 0.935120
O O8 0.194905 0.425912 0.743225
O O9 0.902354 0.335652 0.582926
O O10 0.356052 0.950317 0.912899
O O11 0.422141 0.686075 0.581832
O O12 0.790743 0.660235 0.746423
O O13 0.391513 0.597493 0.842606
O O14 0.000000 0.000000 0.500000
O O15 0.011694 0.008154 0.633151
O O16 0.022053 0.131378 0.214459
O O17 0.000000 0.500000 0.000000
#
# Coordination Sequence:
#
# PCOD9109069 Si02
#       8
#     2   2   2   2   2   2   2   2
#     4   9  21  42  66  88 124 172 219 259 316 380
#     4  10  20  42  65  89 125 169 214 257 312 385
#     4  10  21  37  67  91 117 168 216 258 313 375
#     4  10  23  41  60  91 130 168 214 266 312 375
#     4  12  26  39  62  98 136 167 201 263 330 378
#     4  10  20  41  62  90 126 167 211 253 310 391
#     4  12  24  41  64  99 134 163 210 271 322 375
#     4  11  23  40  67  91 123 173 220 258 312 381
#
# _framework density 23.073912
#
# number of rings (size 3 to 8) (size 9 to 14) (size 15 to 20)
#    0.000    1.500    2.500    2.250    3.500    1.500 
#    0.000    1.250    0.000    0.000    0.000    0.000 
#    0.000    0.000    0.000    0.000    0.000    0.000 
#
# Total GULP energy -89250.390107 kJ/mol
# GULP energy per Si atom -5578.149382 kJ/mol
# Density = 2.302139 g / cm^3
# Si number density = 23.073912 Si / 1000 Ang^3
#
#
#
# Elastic Constant Matrix: (Units=GPa)
#
#
# Indices 1 2 3 4 5 6 
#
# 1 131.0247 45.2449 23.3128 0.2453 17.3568 -22.3890
# 2 45.2449 132.2710 28.3791 7.7562 4.2769 14.8548
# 3 23.3128 28.3791 57.1578 15.9531 32.7276 -9.0578
# 4 0.2453 7.7562 15.9531 38.8296 14.6500 3.9354
# 5 17.3568 4.2769 32.7276 14.6500 49.1894 7.8142
# 6 -22.3890 14.8548 -9.0578 3.9354 7.8142 42.5996
#
#
#
# Elastic Compliance Matrix: (Units=1/GPa)
#
#
# Indices 1 2 3 4 5 6 
#
# 1 0.011954 -0.006079 0.004515 0.001532 -0.008873 0.010849
# 2 -0.006079 0.013438 -0.012683 -0.000522 0.011581 -0.012654
# 3 0.004515 -0.012683 0.046450 -0.006423 -0.033193 0.023354
# 4 0.001532 -0.000522 -0.006423 0.030594 -0.004969 -0.002293
# 5 -0.008873 0.011581 -0.033193 -0.004969 0.049903 -0.024454
# 6 0.010849 -0.012654 0.023354 -0.002293 -0.024454 0.043252
#
#
# Mechanical properties :
#
#
# Convention : Reuss Voigt Hill
#
# Bulk Modulus (GPa) = 23.06933 57.14746 40.10840
# Shear Modulus (GPa) = 20.96118 41.02484 30.99301
#
# Velocity S-wave (km/s) = 3.01730 4.22118 3.66895
# Velocity P-wave (km/s) = 4.70728 6.96984 5.94715
#
# Compressibility (1/GPa) = 0.04334759
#
# Stress axis : x y z
#
# Youngs Moduli (GPa) = 83.65119 74.41515 21.52831
#
# Poissons Ratio (x) = 0.45238 -0.09719
# Poissons Ratio (y) = 0.50852 0.27305
# Poissons Ratio (z) = -0.37765 0.94383
#
# Static dielectric constant tensor:
#      x y z
#    x 1.851230 0.044930 -0.007000 
#    y 0.044930 1.888300 0.035170 
#    z -0.007000 0.035170 1.909270 
# 
# From -- ./inp_files/464304.got.cif
#   From: 2010.05.17/outbox.cif.g08.bks.cpg/sg2_233_cif.got.tgz:464304.got - 2010.06.03 11:33:40.
