data_PCOD9109369
_publ_section_title
;
Structure prediction by ZEFSAII (Michael W. Deem and Ramdas Pophale) SiO2 
 PCOD9109369
Probable space group: P -1
;
_chemical_formula_sum "Si O2"
_cell_formula_units_Z 14
_cell_length_a 14.617275
_cell_length_b 5.761591
_cell_length_c 13.462553
_cell_angle_alpha 69.639886
_cell_angle_beta 30.344490
_cell_angle_gamma 70.988020
_cell_volume 536.228073
_symmetry_space_group_name_H-M "P -1"
_symmetry_group_IT_number 2
_symmetry_cell_setting 'triclinic'
loop_
_space_group_symop_operation_xyz
x,y,z
-x,-y,-z
loop_
_atom_site_type_symbol
_atom_site_label
_atom_site_fract_x
_atom_site_fract_y
_atom_site_fract_z
Si Si1 0.093219 0.266102 0.388028
Si Si2 0.062626 0.582536 0.679764
Si Si3 0.884767 0.695902 0.011464
Si Si4 0.239014 0.132701 0.690758
Si Si5 0.605013 0.349373 0.339215
Si Si6 0.436603 0.647776 0.201584
Si Si7 0.499816 0.823541 0.900647
O O1 0.286612 0.208295 0.266114
O O2 0.000000 0.500000 0.500000
O O3 0.091874 0.382110 0.262305
O O4 0.000000 0.000000 0.500000
O O5 0.097453 0.312448 0.738608
O O6 0.251875 0.627764 0.440293
O O7 0.002634 0.770693 0.796626
O O8 0.800035 0.866825 0.153019
O O9 0.723600 0.536404 0.142038
O O10 0.000000 0.500000 0.000000
O O11 0.438833 0.221789 0.463164
O O12 0.262307 0.843268 0.697008
O O13 0.500000 0.500000 0.500000
O O14 0.525115 0.371560 0.135900
O O15 0.534768 0.881515 0.122745
O O16 0.399734 0.740917 0.107441
#
# Coordination Sequence:
#
# PCOD9109369 Si02
#       7
#     2   2   2   2   2   2   2
#     4  12  23  43  64  94 134 171 218 277 330 383
#     4  11  22  38  62  98 124 173 221 262 333 397
#     4   9  20  38  59  97 131 163 211 265 327 384
#     4   9  20  40  65  93 129 167 215 265 323 389
#     4   9  18  40  66  86 129 170 205 268 330 383
#     4  10  21  39  65  91 120 172 219 266 320 384
#     4  10  20  41  65  85 128 169 215 272 326 370
#
# _framework density 26.108293
#
# number of rings (size 3 to 8) (size 9 to 14) (size 15 to 20)
#    0.000    2.000    2.857    0.000    0.000    3.429 
#   20.571    0.000   22.000    0.000    0.000    0.000 
#    0.000    0.000    0.000    0.000    0.000    0.000 
#
# Total GULP energy -78106.653647 kJ/mol
# GULP energy per Si atom -5579.046689 kJ/mol
# Density = 2.604887 g / cm^3
# Si number density = 26.108293 Si / 1000 Ang^3
#
#
#
# Elastic Constant Matrix: (Units=GPa)
#
#
# Indices 1 2 3 4 5 6 
#
# 1 90.7427 57.6663 27.7131 -5.8659 9.9738 -10.2514
# 2 57.6663 184.7367 52.6652 9.4157 0.2536 15.3601
# 3 27.7131 52.6652 158.1993 11.9111 23.3274 20.9921
# 4 -5.8659 9.4157 11.9111 36.7352 7.5459 -6.2865
# 5 9.9738 0.2536 23.3274 7.5459 39.1231 -1.6743
# 6 -10.2514 15.3601 20.9921 -6.2865 -1.6743 43.8776
#
#
#
# Elastic Compliance Matrix: (Units=1/GPa)
#
#
# Indices 1 2 3 4 5 6 
#
# 1 0.017103 -0.005763 -0.002040 0.007061 -0.004132 0.007843
# 2 -0.005763 0.008100 -0.001269 -0.003836 0.002741 -0.004020
# 3 -0.002040 -0.001269 0.008551 -0.002700 -0.004249 -0.004672
# 4 0.007061 -0.003836 -0.002700 0.032973 -0.006150 0.008774
# 5 -0.004132 0.002741 -0.004249 -0.006150 0.030332 0.000384
# 6 0.007843 -0.004020 -0.004672 0.008774 0.000384 0.029538
#
#
# Mechanical properties :
#
#
# Convention : Reuss Voigt Hill
#
# Bulk Modulus (GPa) = 64.06921 78.86311 71.46616
# Shear Modulus (GPa) = 33.34589 43.65612 38.50101
#
# Velocity S-wave (km/s) = 3.57769 4.09359 3.84430
# Velocity P-wave (km/s) = 6.45442 7.25362 6.86566
#
# Compressibility (1/GPa) = 0.01560812
#
# Stress axis : x y z
#
# Youngs Moduli (GPa) = 58.47067 123.45884 116.94745
#
# Poissons Ratio (x) = 0.71153 0.23863
# Poissons Ratio (y) = 0.33698 0.14839
# Poissons Ratio (z) = 0.11931 0.15665
#
# Static dielectric constant tensor:
#      x y z
#    x 2.139940 0.170600 -0.223530 
#    y 0.170600 2.289340 -0.253070 
#    z -0.223530 -0.253070 2.716760 
# 
# From -- ./inp_files/536274.got.cif
#   From: 2010.05.17/outbox.cif.g08.bks.cpg/sg2_269_cif.got.tgz:536274.got - 2010.06.03 11:33:40.
