data_PCOD9109960
_publ_section_title
;
Structure prediction by ZEFSAII (Michael W. Deem and Ramdas Pophale) SiO2 
 PCOD9109960
Probable space group: P -1
;
_chemical_formula_sum "Si O2"
_cell_formula_units_Z 16
_cell_length_a 9.252215
_cell_length_b 7.109691
_cell_length_c 13.989986
_cell_angle_alpha 56.209619
_cell_angle_beta 59.624286
_cell_angle_gamma 90.892638
_cell_volume 600.635298
_symmetry_space_group_name_H-M "P -1"
_symmetry_group_IT_number 2
_symmetry_cell_setting 'triclinic'
loop_
_space_group_symop_operation_xyz
x,y,z
-x,-y,-z
loop_
_atom_site_type_symbol
_atom_site_label
_atom_site_fract_x
_atom_site_fract_y
_atom_site_fract_z
Si Si1 0.480358 0.150807 0.555577
Si Si2 0.493217 0.095960 0.780409
Si Si3 0.875144 0.488878 0.333714
Si Si4 0.897302 0.000132 0.369460
Si Si5 0.532803 0.338495 0.951443
Si Si6 0.171124 0.478070 0.358731
Si Si7 0.825375 0.684747 0.955640
Si Si8 0.107055 0.783976 0.003298
O O1 0.503879 0.033355 0.682081
O O2 0.656520 0.417006 0.423778
O O3 0.273803 0.123893 0.612557
O O4 0.500000 0.000000 0.500000
O O5 0.668739 0.347181 0.673061
O O6 0.501171 0.917915 0.913755
O O7 0.279553 0.046690 0.870389
O O8 0.990641 0.529382 0.382262
O O9 0.996417 0.707211 0.160273
O O10 0.880956 0.236561 0.358178
O O11 0.888366 0.800632 0.507032
O O12 0.084182 0.111595 0.214731
O O13 0.719578 0.465264 0.795074
O O14 0.500000 0.500000 0.000000
O O15 0.365100 0.317321 0.945912
O O16 0.812744 0.423110 0.990497
O O17 0.966495 0.749359 0.975971
#
# Coordination Sequence:
#
# PCOD9109960 Si02
#       8
#     2   2   2   2   2   2   2   2
#     4  10  24  42  71  97 127 176 229 279 320 400
#     4  12  25  47  66  96 144 176 215 281 347 387
#     4  10  22  40  67  98 131 178 225 273 325 403
#     4  10  22  42  65  97 135 172 228 276 330 391
#     4  12  25  41  70 102 127 176 233 270 321 405
#     4  12  27  43  66  99 146 177 209 282 346 394
#     4  10  21  39  69  99 126 173 229 278 314 396
#     4  10  20  41  68  95 135 170 219 280 337 371
#
# _framework density 26.638463000000002
#
# number of rings (size 3 to 8) (size 9 to 14) (size 15 to 20)
#    0.000    1.250    3.750    1.500    8.750    1.000 
#    0.000    0.625    0.000    0.000    0.000    0.000 
#    0.000    0.000    0.000    0.000    0.000    0.000 
#
# Total GULP energy -89603.857961 kJ/mol
# GULP energy per Si atom -5600.241123 kJ/mol
# Density = 2.657783 g / cm^3
# Si number density = 26.638463 Si / 1000 Ang^3
#
#
#
# Elastic Constant Matrix: (Units=GPa)
#
#
# Indices 1 2 3 4 5 6 
#
# 1 126.9772 17.9673 28.2732 -5.7098 -28.8864 29.4724
# 2 17.9673 113.9195 20.8945 -1.0771 4.1085 28.3765
# 3 28.2732 20.8945 153.1057 4.4668 -9.2490 3.4435
# 4 -5.7098 -1.0771 4.4668 33.7179 9.4313 2.7637
# 5 -28.8864 4.1085 -9.2490 9.4313 58.9108 -4.6447
# 6 29.4724 28.3765 3.4435 2.7637 -4.6447 50.2546
#
#
#
# Elastic Compliance Matrix: (Units=1/GPa)
#
#
# Indices 1 2 3 4 5 6 
#
# 1 0.010611 -0.000097 -0.001594 0.001271 0.004304 -0.005731
# 2 -0.000097 0.010657 -0.001448 0.001503 -0.001740 -0.006105
# 3 -0.001594 -0.001448 0.007086 -0.001596 0.000800 0.001429
# 4 0.001271 0.001503 -0.001596 0.031871 -0.005127 -0.003711
# 5 0.004304 -0.001740 0.000800 -0.005127 0.020197 0.000552
# 6 -0.005731 -0.006105 0.001429 -0.003711 0.000552 0.026864
#
#
# Mechanical properties :
#
#
# Convention : Reuss Voigt Hill
#
# Bulk Modulus (GPa) = 45.30014 58.69693 51.99853
# Shear Modulus (GPa) = 41.34914 50.36781 45.85848
#
# Velocity S-wave (km/s) = 3.94412 4.35304 4.15361
# Velocity P-wave (km/s) = 6.14686 6.88097 6.52425
#
# Compressibility (1/GPa) = 0.02207499
#
# Stress axis : x y z
#
# Youngs Moduli (GPa) = 94.24551 93.83839 141.11875
#
# Poissons Ratio (x) = 0.00908 0.22500
# Poissons Ratio (y) = 0.00912 0.20436
# Poissons Ratio (z) = 0.15026 0.13589
#
# Static dielectric constant tensor:
#      x y z
#    x 2.094100 0.036880 -0.020200 
#    y 0.036880 2.170140 -0.001110 
#    z -0.020200 -0.001110 2.023030 
# 
# From -- ./inp_files/312293.got.cif
#   From: 2010.05.17/outbox.cif.g08.bks.cpg/sg2_157_cif.got.tgz:312293.got - 2010.06.03 11:33:40.
