data_PCOD9109576
_publ_section_title
;
Structure prediction by ZEFSAII (Michael W. Deem and Ramdas Pophale) SiO2 
 PCOD9109576
Probable space group: P -1
;
_chemical_formula_sum "Si O2"
_cell_formula_units_Z 16
_cell_length_a 5.370386
_cell_length_b 11.509469
_cell_length_c 11.637246
_cell_angle_alpha 100.102265
_cell_angle_beta 114.534106
_cell_angle_gamma 82.362564
_cell_volume 642.763233
_symmetry_space_group_name_H-M "P -1"
_symmetry_group_IT_number 2
_symmetry_cell_setting 'triclinic'
loop_
_space_group_symop_operation_xyz
x,y,z
-x,-y,-z
loop_
_atom_site_type_symbol
_atom_site_label
_atom_site_fract_x
_atom_site_fract_y
_atom_site_fract_z
Si Si1 0.351216 0.281065 0.220204
Si Si2 0.598494 0.040051 0.189586
Si Si3 0.546314 0.516028 0.877358
Si Si4 0.184828 0.724390 0.155614
Si Si5 0.850672 0.326402 0.491411
Si Si6 0.184209 0.887081 0.975086
Si Si7 0.211908 0.175809 0.698875
Si Si8 0.973558 0.540807 0.664411
O O1 0.360166 0.140368 0.189914
O O2 0.411652 0.348778 0.125333
O O3 0.588862 0.298376 0.363153
O O4 0.103334 0.362131 0.238234
O O5 0.483488 0.929563 0.079033
O O6 0.743774 0.966624 0.306883
O O7 0.794316 0.111901 0.157876
O O8 0.782866 0.417594 0.868531
O O9 0.277160 0.489346 0.747367
O O10 0.500000 0.500000 0.000000
O O11 0.123566 0.777772 0.025195
O O12 0.487477 0.771671 0.248453
O O13 0.959244 0.773397 0.212611
O O14 0.791724 0.429187 0.593498
O O15 0.017699 0.218489 0.564202
O O16 0.037369 0.387260 0.443833
O O17 0.000000 0.000000 0.000000
#
# Coordination Sequence:
#
# PCOD9109576 Si02
#       8
#     2   2   2   2   2   2   2   2
#     4  11  24  41  65  95 134 173 214 279 338 396
#     4  10  23  40  61  98 131 170 226 269 337 398
#     4  11  24  41  62  98 133 172 218 280 335 397
#     4  11  23  41  68  98 131 172 228 275 328 399
#     4  10  22  40  68  89 129 171 225 274 328 394
#     4  10  20  41  66  89 128 180 216 270 327 404
#     4  11  23  42  68  98 127 175 227 278 325 399
#     4  10  22  43  62  94 126 174 225 263 340 395
#
# _framework density 24.892526
#
# number of rings (size 3 to 8) (size 9 to 14) (size 15 to 20)
#    0.000    1.500    2.500    1.875    1.750    4.000 
#    0.000    0.625    0.000    0.000    0.000    0.000 
#    0.000    0.000    0.000    0.000    0.000    0.000 
#
# Total GULP energy -89439.968999 kJ/mol
# GULP energy per Si atom -5589.998062 kJ/mol
# Density = 2.483587 g / cm^3
# Si number density = 24.892526 Si / 1000 Ang^3
#
#
#
# Elastic Constant Matrix: (Units=GPa)
#
#
# Indices 1 2 3 4 5 6 
#
# 1 80.9951 24.6129 12.4063 0.3937 0.7582 -4.0199
# 2 24.6129 185.5474 52.2003 -30.4498 4.1849 -6.9451
# 3 12.4063 52.2003 92.7880 -24.4896 -6.2324 12.8308
# 4 0.3937 -30.4498 -24.4896 54.8796 2.6522 7.0256
# 5 0.7582 4.1849 -6.2324 2.6522 32.3382 3.7224
# 6 -4.0199 -6.9451 12.8308 7.0256 3.7224 38.6309
#
#
#
# Elastic Compliance Matrix: (Units=1/GPa)
#
#
# Indices 1 2 3 4 5 6 
#
# 1 0.013186 -0.001480 -0.001772 -0.001949 -0.000541 0.002101
# 2 -0.001480 0.007091 -0.003659 0.002135 -0.002010 0.002141
# 3 -0.001772 -0.003659 0.015940 0.005875 0.003979 -0.007588
# 4 -0.001949 0.002135 0.005875 0.022810 -0.000291 -0.005890
# 5 -0.000541 -0.002010 0.003979 -0.000291 0.032542 -0.004822
# 6 0.002101 0.002141 -0.007588 -0.005890 -0.004822 0.030546
#
#
# Mechanical properties :
#
#
# Convention : Reuss Voigt Hill
#
# Bulk Modulus (GPa) = 44.65148 59.75216 52.20182
# Shear Modulus (GPa) = 34.86723 43.17714 39.02218
#
# Velocity S-wave (km/s) = 3.74667 4.16930 3.96362
# Velocity P-wave (km/s) = 6.05750 6.87267 6.47792
#
# Compressibility (1/GPa) = 0.02239567
#
# Stress axis : x y z
#
# Youngs Moduli (GPa) = 75.83615 141.02377 62.73665
#
# Poissons Ratio (x) = 0.20867 0.11117
# Poissons Ratio (y) = 0.11221 0.22955
# Poissons Ratio (z) = 0.13439 0.51600
#
# Static dielectric constant tensor:
#      x y z
#    x 2.062820 0.031620 0.019400 
#    y 0.031620 1.977020 0.021780 
#    z 0.019400 0.021780 2.057560 
# 
# From -- ./inp_files/69049.got.cif
#   From: 2010.05.17/outbox.cif.g08.bks.cpg/sg2_35_cif.got.tgz:69049.got - 2010.06.03 11:33:40.
