data_PCOD9109586
_publ_section_title
;
Structure prediction by ZEFSAII (Michael W. Deem and Ramdas Pophale) SiO2 
 PCOD9109586
Probable space group: P -1
;
_chemical_formula_sum "Si O2"
_cell_formula_units_Z 16
_cell_length_a 9.071531
_cell_length_b 15.982167
_cell_length_c 12.545207
_cell_angle_alpha 145.091782
_cell_angle_beta 108.960827
_cell_angle_gamma 54.337225
_cell_volume 798.435682
_symmetry_space_group_name_H-M "P -1"
_symmetry_group_IT_number 2
_symmetry_cell_setting 'triclinic'
loop_
_space_group_symop_operation_xyz
x,y,z
-x,-y,-z
loop_
_atom_site_type_symbol
_atom_site_label
_atom_site_fract_x
_atom_site_fract_y
_atom_site_fract_z
Si Si1 0.000456 0.667250 0.146611
Si Si2 0.212085 0.952780 0.004177
Si Si3 0.808451 0.692819 0.684761
Si Si4 0.196760 0.953571 0.442123
Si Si5 0.396810 0.794608 0.657249
Si Si6 0.623067 0.376543 0.726296
Si Si7 0.891365 0.793594 0.014948
Si Si8 0.254694 0.776070 0.044308
O O1 0.199805 0.625102 0.191555
O O2 0.974787 0.697874 0.046245
O O3 0.828815 0.859396 0.356983
O O4 0.000000 0.500000 0.000000
O O5 0.298490 0.850527 0.029521
O O6 0.203677 0.134007 0.182298
O O7 0.325626 0.828610 0.798204
O O8 0.000000 0.000000 0.000000
O O9 0.621320 0.708490 0.619788
O O10 0.000000 0.500000 0.500000
O O11 0.810307 0.714546 0.835753
O O12 0.364916 0.779423 0.364342
O O13 0.205901 0.898456 0.264824
O O14 0.000000 0.000000 0.500000
O O15 0.354862 0.681157 0.452489
O O16 0.275939 0.995821 0.789973
O O17 0.429157 0.572750 0.899161
O O18 0.066683 0.780177 0.983362
#
# Coordination Sequence:
#
# PCOD9109586 Si02
#       8
#     2   2   2   2   2   2   2   2
#     4  11  24  41  66 100 128 174 232 282 340 402
#     4  11  24  41  68 100 138 178 232 281 336 405
#     4  11  25  45  68 100 137 182 228 282 347 411
#     4  10  20  41  66  90 127 178 221 267 340 406
#     4  11  23  44  72  97 135 189 225 273 350 412
#     4  11  23  41  71  95 130 181 228 274 346 414
#     4  11  20  42  66  91 138 181 216 281 343 406
#     4  12  22  40  69 101 136 173 234 285 333 408
#
# _framework density 20.039186000000001
#
# number of rings (size 3 to 8) (size 9 to 14) (size 15 to 20)
#    0.000    1.000    6.250    3.375    0.000    3.500 
#    0.000    0.625    0.000    0.000    0.000    0.000 
#    0.000    0.000    0.000    0.000    0.000    0.000 
#
# Total GULP energy -89368.323916 kJ/mol
# GULP energy per Si atom -5585.520245 kJ/mol
# Density = 1.999358 g / cm^3
# Si number density = 20.039186 Si / 1000 Ang^3
#
#
#
# Elastic Constant Matrix: (Units=GPa)
#
#
# Indices 1 2 3 4 5 6 
#
# 1 50.9648 51.0796 16.6930 7.4910 -2.5932 -3.1304
# 2 51.0796 142.1688 57.9204 -2.1072 -1.2103 1.2107
# 3 16.6930 57.9204 95.7362 7.3351 5.9214 8.4988
# 4 7.4910 -2.1072 7.3351 39.0888 -3.4968 -10.8909
# 5 -2.5932 -1.2103 5.9214 -3.4968 23.0137 -1.0145
# 6 -3.1304 1.2107 8.4988 -10.8909 -1.0145 37.4818
#
#
#
# Elastic Compliance Matrix: (Units=1/GPa)
#
#
# Indices 1 2 3 4 5 6 
#
# 1 0.032953 -0.012969 0.002525 -0.007222 0.001308 0.000535
# 2 -0.012969 0.014778 -0.007370 0.005331 0.002098 0.001716
# 3 0.002525 -0.007370 0.015651 -0.005644 -0.005203 -0.004881
# 4 -0.007222 0.005331 -0.005644 0.031610 0.006156 0.009856
# 5 0.001308 0.002098 -0.005203 0.006156 0.046172 0.004260
# 6 0.000535 0.001716 -0.004881 0.009856 0.004260 0.030755
#
#
# Mechanical properties :
#
#
# Convention : Reuss Voigt Hill
#
# Bulk Modulus (GPa) = 36.02901 60.02843 48.02872
# Shear Modulus (GPa) = 23.06279 30.79532 26.92905
#
# Velocity S-wave (km/s) = 3.39615 3.92440 3.66979
# Velocity P-wave (km/s) = 5.77899 7.11021 6.47888
#
# Compressibility (1/GPa) = 0.02775541
#
# Stress axis : x y z
#
# Youngs Moduli (GPa) = 30.34581 67.66619 63.89184
#
# Poissons Ratio (x) = 0.87757 -0.16134
# Poissons Ratio (y) = 0.39356 0.47089
# Poissons Ratio (z) = -0.07663 0.49871
#
# Static dielectric constant tensor:
#      x y z
#    x 1.711530 0.003010 0.001660 
#    y 0.003010 1.742810 -0.014280 
#    z 0.001660 -0.014280 1.728730 
# 
# From -- ./inp_files/399826.got.cif
#   From: 2010.05.17/outbox.cif.g08.bks.cpg/sg2_200_cif.got.tgz:399826.got - 2010.06.03 11:33:40.
