data_PCOD9109201
_publ_section_title
;
Structure prediction by ZEFSAII (Michael W. Deem and Ramdas Pophale) SiO2 
 PCOD9109201
Probable space group: P -1
;
_chemical_formula_sum "Si O2"
_cell_formula_units_Z 16
_cell_length_a 12.976203
_cell_length_b 9.434520
_cell_length_c 14.601865
_cell_angle_alpha 110.973208
_cell_angle_beta 50.068219
_cell_angle_gamma 147.052635
_cell_volume 671.890459
_symmetry_space_group_name_H-M "P -1"
_symmetry_group_IT_number 2
_symmetry_cell_setting 'triclinic'
loop_
_space_group_symop_operation_xyz
x,y,z
-x,-y,-z
loop_
_atom_site_type_symbol
_atom_site_label
_atom_site_fract_x
_atom_site_fract_y
_atom_site_fract_z
Si Si1 0.881179 0.638555 0.606878
Si Si2 0.291454 0.732041 0.713075
Si Si3 0.409281 0.285851 0.431659
Si Si4 0.747722 0.572365 0.129982
Si Si5 0.174887 0.911980 0.099549
Si Si6 0.077066 0.564866 0.610777
Si Si7 0.503421 0.013047 0.156546
Si Si8 0.461208 0.454307 0.120756
O O1 0.808447 0.460285 0.522121
O O2 0.012305 0.648445 0.606199
O O3 0.655947 0.510905 0.756704
O O4 0.105603 0.970615 0.525509
O O5 0.477392 0.765823 0.609519
O O6 0.399666 0.929718 0.782293
O O7 0.023795 0.400259 0.820071
O O8 0.243644 0.760695 0.649875
O O9 0.500000 0.500000 0.500000
O O10 0.549706 0.444375 0.290741
O O11 0.660785 0.313493 0.106479
O O12 0.705844 0.627183 0.075509
O O13 0.025725 0.836230 0.078969
O O14 0.247370 0.115427 0.173171
O O15 0.426430 0.061739 0.962626
O O16 0.794535 0.237991 0.727405
O O17 0.500000 0.500000 0.000000
#
# Coordination Sequence:
#
# PCOD9109201 Si02
#       8
#     2   2   2   2   2   2   2   2
#     4  11  24  43  62  93 135 165 215 266 314 387
#     4  10  21  38  64  97 122 165 214 256 324 375
#     4  10  21  41  65  97 128 164 214 261 318 384
#     4  10  22  41  64  94 127 161 213 269 313 375
#     4  10  22  40  66  92 128 166 214 266 314 376
#     4  11  23  41  64  94 129 170 208 268 321 372
#     4  10  20  41  63  98 127 161 219 261 312 385
#     4  12  27  43  61  93 127 174 216 257 328 386
#
# _framework density 23.813406000000001
#
# number of rings (size 3 to 8) (size 9 to 14) (size 15 to 20)
#    0.000    1.750    2.500    4.500    1.750    6.500 
#    0.000    1.250    0.000    0.000    0.000    0.000 
#    0.000    0.000    0.000    0.000    0.000    0.000 
#
# Total GULP energy -89544.763508 kJ/mol
# GULP energy per Si atom -5596.547719 kJ/mol
# Density = 2.375921 g / cm^3
# Si number density = 23.813406 Si / 1000 Ang^3
#
#
#
# Elastic Constant Matrix: (Units=GPa)
#
#
# Indices 1 2 3 4 5 6 
#
# 1 97.2908 18.6524 41.8605 19.0882 30.4650 23.3506
# 2 18.6524 64.7518 12.7507 12.9822 -7.5582 1.5836
# 3 41.8605 12.7507 87.8342 16.8354 -27.8262 -1.4935
# 4 19.0882 12.9822 16.8354 35.9912 -6.0723 -0.6939
# 5 30.4650 -7.5582 -27.8262 -6.0723 14.6587 10.5017
# 6 23.3506 1.5836 -1.4935 -0.6939 10.5017 29.0511
#
#
#
# Elastic Compliance Matrix: (Units=1/GPa)
#
#
# Indices 1 2 3 4 5 6 
#
# 1 -0.001763 0.002231 0.009860 0.000446 0.030254 -0.009123
# 2 0.002231 0.016116 -0.004367 -0.006096 -0.006697 -0.000621
# 3 0.009860 -0.004367 0.000774 -0.008338 -0.025785 0.001474
# 4 0.000446 -0.006096 -0.008338 0.032169 -0.009174 0.003630
# 5 0.030254 -0.006697 -0.025785 -0.009174 -0.043983 -0.009598
# 6 -0.009123 -0.000621 0.001474 0.003630 -0.009598 0.045421
#
#
# Mechanical properties :
#
#
# Convention : Reuss Voigt Hill
#
# Bulk Modulus (GPa) = 32.70440 44.04490 38.37465
# Shear Modulus (GPa) = 115.00227 27.71441 71.35834
#
# Velocity S-wave (km/s) = 6.95686 3.41518 5.48002
# Velocity P-wave (km/s) = 8.84839 5.83843 7.49604
#
# Compressibility (1/GPa) = 0.03057692
#
# Stress axis : x y z
#
# Youngs Moduli (GPa) = -567.07509 62.04879 1291.67896
#
# Poissons Ratio (x) = -0.13845 -12.73653
# Poissons Ratio (y) = 1.26535 5.64063
# Poissons Ratio (z) = 5.59161 0.27096
#
# Static dielectric constant tensor:
#      x y z
#    x 1.927640 -0.031100 0.052900 
#    y -0.031100 1.914890 -0.072020 
#    z 0.052900 -0.072020 1.917820 
# 
# From -- ./inp_files/515888.got.cif
#   From: 2010.05.17/outbox.cif.g08.bks.cpg/sg2_258_cif.got.tgz:515888.got - 2010.06.03 11:33:40.
