data_PCOD9109450
_publ_section_title
;
Structure prediction by ZEFSAII (Michael W. Deem and Ramdas Pophale) SiO2 
 PCOD9109450
Probable space group: P -1
;
_chemical_formula_sum "Si O2"
_cell_formula_units_Z 16
_cell_length_a 7.390747
_cell_length_b 9.583137
_cell_length_c 18.444700
_cell_angle_alpha 142.554562
_cell_angle_beta 63.185678
_cell_angle_gamma 94.464392
_cell_volume 606.972960
_symmetry_space_group_name_H-M "P -1"
_symmetry_group_IT_number 2
_symmetry_cell_setting 'triclinic'
loop_
_space_group_symop_operation_xyz
x,y,z
-x,-y,-z
loop_
_atom_site_type_symbol
_atom_site_label
_atom_site_fract_x
_atom_site_fract_y
_atom_site_fract_z
Si Si1 0.224502 0.910458 0.096390
Si Si2 0.366496 0.098353 0.881686
Si Si3 0.297949 0.944050 0.536024
Si Si4 0.708980 0.354211 0.342249
Si Si5 0.919029 0.322395 0.854579
Si Si6 0.059441 0.344679 0.621013
Si Si7 0.348746 0.861615 0.277105
Si Si8 0.446314 0.459701 0.222821
O O1 0.434104 0.924606 0.107392
O O2 0.165520 0.700077 0.059546
O O3 0.319952 0.808407 0.955602
O O4 0.970796 0.179804 0.259291
O O5 0.463254 0.100308 0.784805
O O6 0.323728 0.853427 0.786659
O O7 0.130633 0.392821 0.047657
O O8 0.096328 0.146562 0.598648
O O9 0.179727 0.076520 0.688170
O O10 0.500000 0.000000 0.500000
O O11 0.381710 0.636677 0.380023
O O12 0.500000 0.500000 0.500000
O O13 0.758829 0.552117 0.367458
O O14 0.740381 0.272819 0.819005
O O15 0.783454 0.564828 0.759304
O O16 0.140070 0.156645 0.458325
O O17 0.432186 0.677919 0.257085
#
# Coordination Sequence:
#
# PCOD9109450 Si02
#       8
#     2   2   2   2   2   2   2   2
#     4  11  25  43  74 102 131 183 232 281 347 398
#     4  11  22  43  71 101 139 168 231 291 335 396
#     4  11  24  37  67 107 134 170 224 287 352 395
#     4  12  29  46  63 100 145 191 228 270 337 424
#     4  11  20  41  71 108 131 167 227 298 344 387
#     4  11  22  44  65  91 143 182 221 270 338 413
#     4  10  16  38  70  96 126 168 214 289 338 383
#     4  11  20  43  70  99 131 175 226 284 345 398
#
# _framework density 26.360316999999998
#
# number of rings (size 3 to 8) (size 9 to 14) (size 15 to 20)
#    0.000    1.000    6.250    1.500    3.500    1.500 
#    2.250    2.500    0.000    0.000    0.000    0.000 
#    0.000    0.000    0.000    0.000    0.000    0.000 
#
# Total GULP energy -89482.485534 kJ/mol
# GULP energy per Si atom -5592.655346 kJ/mol
# Density = 2.630032 g / cm^3
# Si number density = 26.360317 Si / 1000 Ang^3
#
#
#
# Elastic Constant Matrix: (Units=GPa)
#
#
# Indices 1 2 3 4 5 6 
#
# 1 105.7368 18.5718 44.4980 6.5639 2.2692 21.1879
# 2 18.5718 91.2786 35.6424 11.0157 8.1320 25.7794
# 3 44.4980 35.6424 179.0909 -19.9512 -2.8095 14.9581
# 4 6.5639 11.0157 -19.9512 44.5079 13.9417 -3.9720
# 5 2.2692 8.1320 -2.8095 13.9417 25.6960 10.0025
# 6 21.1879 25.7794 14.9581 -3.9720 10.0025 40.7819
#
#
#
# Elastic Compliance Matrix: (Units=1/GPa)
#
#
# Indices 1 2 3 4 5 6 
#
# 1 0.012374 0.001170 -0.003229 -0.005522 0.004111 -0.007530
# 2 0.001170 0.015660 -0.003289 -0.007326 0.002713 -0.010680
# 3 -0.003229 -0.003289 0.007445 0.005249 -0.001444 0.001892
# 4 -0.005522 -0.007326 0.005249 0.035424 -0.021396 0.014272
# 5 0.004111 0.002713 -0.001444 -0.021396 0.056659 -0.019302
# 6 -0.007530 -0.010680 0.001892 0.014272 -0.019302 0.040615
#
#
# Mechanical properties :
#
#
# Convention : Reuss Voigt Hill
#
# Bulk Modulus (GPa) = 40.34964 63.72564 52.03764
# Shear Modulus (GPa) = 26.71879 40.69009 33.70444
#
# Velocity S-wave (km/s) = 3.18716 3.93314 3.57964
# Velocity P-wave (km/s) = 5.37440 6.69727 6.07197
#
# Compressibility (1/GPa) = 0.02478337
#
# Stress axis : x y z
#
# Youngs Moduli (GPa) = 80.81177 63.85575 134.32315
#
# Poissons Ratio (x) = -0.07472 0.43376
# Poissons Ratio (y) = -0.09456 0.44178
# Poissons Ratio (z) = 0.26096 0.21002
#
# Static dielectric constant tensor:
#      x y z
#    x 2.163560 -0.087880 -0.028760 
#    y -0.087880 2.086210 0.044220 
#    z -0.028760 0.044220 2.146030 
# 
# From -- ./inp_files/274616.got.cif
#   From: 2010.05.17/outbox.cif.g08.bks.cpg/sg2_138_cif.got.tgz:274616.got - 2010.06.03 11:33:40.
