data_PCOD9109500
_publ_section_title
;
Structure prediction by ZEFSAII (Michael W. Deem and Ramdas Pophale) SiO2 
 PCOD9109500
Probable space group: P -1
;
_chemical_formula_sum "Si O2"
_cell_formula_units_Z 16
_cell_length_a 12.212149
_cell_length_b 8.338403
_cell_length_c 15.668005
_cell_angle_alpha 81.281853
_cell_angle_beta 24.947995
_cell_angle_gamma 79.546299
_cell_volume 661.470188
_symmetry_space_group_name_H-M "P -1"
_symmetry_group_IT_number 2
_symmetry_cell_setting 'triclinic'
loop_
_space_group_symop_operation_xyz
x,y,z
-x,-y,-z
loop_
_atom_site_type_symbol
_atom_site_label
_atom_site_fract_x
_atom_site_fract_y
_atom_site_fract_z
Si Si1 0.395217 0.251136 0.113481
Si Si2 0.095924 0.519033 0.609057
Si Si3 0.334274 0.012926 0.749861
Si Si4 0.872648 0.056738 0.734008
Si Si5 0.914457 0.459211 0.196007
Si Si6 0.379625 0.352721 0.762907
Si Si7 0.131990 0.924746 0.728218
Si Si8 0.358368 0.227255 0.335809
O O1 0.441182 0.269466 0.179622
O O2 0.190528 0.397031 0.214301
O O3 0.252215 0.087077 0.214028
O O4 0.661797 0.215569 0.875183
O O5 0.102502 0.457944 0.706716
O O6 0.313674 0.647269 0.439438
O O7 0.204551 0.379500 0.479621
O O8 0.301210 0.171690 0.820024
O O9 0.600251 0.035820 0.508296
O O10 0.128843 0.997112 0.820363
O O11 0.403346 0.849369 0.768376
O O12 0.143048 0.096569 0.498600
O O13 0.917716 0.998434 0.805643
O O14 0.710986 0.551126 0.267152
O O15 0.862752 0.270404 0.256388
O O16 0.204224 0.446660 0.952254
#
# Coordination Sequence:
#
# PCOD9109500 Si02
#       8
#     2   2   2   2   2   2   2   2
#     4  11  24  44  67  94 127 174 220 263 316 375
#     4  12  24  44  66  91 134 175 211 264 319 379
#     4  10  22  39  68  98 127 168 209 263 325 382
#     4  10  23  43  67  96 125 168 219 269 317 377
#     4  11  24  41  64  95 131 171 208 259 326 380
#     4  11  25  41  66  99 129 169 214 259 323 395
#     4  10  20  41  65  96 130 166 211 261 328 377
#     4  11  25  41  66  98 131 170 212 268 317 377
#
# _framework density 24.188542999999999
#
# number of rings (size 3 to 8) (size 9 to 14) (size 15 to 20)
#    0.000    1.250    2.500    2.625    7.000    3.000 
#    2.250    0.000    0.000    0.000    0.000    0.000 
#    0.000    0.000    0.000    0.000    0.000    0.000 
#
# Total GULP energy -89631.267168 kJ/mol
# GULP energy per Si atom -5601.954198 kJ/mol
# Density = 2.413349 g / cm^3
# Si number density = 24.188543 Si / 1000 Ang^3
#
#
#
# Elastic Constant Matrix: (Units=GPa)
#
#
# Indices 1 2 3 4 5 6 
#
# 1 77.3399 7.2257 20.9734 4.5582 10.3303 -2.3320
# 2 7.2257 56.4319 -2.9981 17.3657 -11.9527 -2.5689
# 3 20.9734 -2.9981 63.6842 18.7887 -7.8271 -5.3168
# 4 4.5582 17.3657 18.7887 38.7718 0.3976 -0.8150
# 5 10.3303 -11.9527 -7.8271 0.3976 35.9982 13.1286
# 6 -2.3320 -2.5689 -5.3168 -0.8150 13.1286 32.3278
#
#
#
# Elastic Compliance Matrix: (Units=1/GPa)
#
#
# Indices 1 2 3 4 5 6 
#
# 1 0.016879 -0.006057 -0.008217 0.004888 -0.009996 0.003568
# 2 -0.006057 0.026751 0.009463 -0.016057 0.013874 -0.002794
# 3 -0.008217 0.009463 0.024721 -0.015384 0.011323 -0.000761
# 4 0.004888 -0.016057 -0.015384 0.040025 -0.011304 0.002146
# 5 -0.009996 0.013874 0.011323 -0.011304 0.043582 -0.015740
# 6 0.003568 -0.002794 -0.000761 0.002146 -0.015740 0.037290
#
#
# Mechanical properties :
#
#
# Convention : Reuss Voigt Hill
#
# Bulk Modulus (GPa) = 17.02686 27.53976 22.28331
# Shear Modulus (GPa) = 22.88905 32.90324 27.89614
#
# Velocity S-wave (km/s) = 3.07950 3.69220 3.39968
# Velocity P-wave (km/s) = 4.43835 5.43936 4.96415
#
# Compressibility (1/GPa) = 0.05873074
#
# Stress axis : x y z
#
# Youngs Moduli (GPa) = 59.24595 37.38127 40.45153
#
# Poissons Ratio (x) = 0.22641 0.33238
# Poissons Ratio (y) = 0.35884 -0.38280
# Poissons Ratio (z) = 0.48681 -0.35375
#
# Static dielectric constant tensor:
#      x y z
#    x 1.906770 0.023310 -0.005990 
#    y 0.023310 1.908910 -0.036730 
#    z -0.005990 -0.036730 1.937000 
# 
# From -- ./inp_files/283450.got.cif
#   From: 2010.05.17/outbox.cif.g08.bks.cpg/sg2_142_cif.got.tgz:283450.got - 2010.06.03 11:33:40.
