data_PCOD9109938
_publ_section_title
;
Structure prediction by ZEFSAII (Michael W. Deem and Ramdas Pophale) SiO2 
 PCOD9109938
Probable space group: P -1
;
_chemical_formula_sum "Si O2"
_cell_formula_units_Z 15
_cell_length_a 7.629283
_cell_length_b 7.331153
_cell_length_c 14.204390
_cell_angle_alpha 74.753794
_cell_angle_beta 92.120430
_cell_angle_gamma 126.079036
_cell_volume 612.380204
_symmetry_space_group_name_H-M "P -1"
_symmetry_group_IT_number 2
_symmetry_cell_setting 'triclinic'
loop_
_space_group_symop_operation_xyz
x,y,z
-x,-y,-z
loop_
_atom_site_type_symbol
_atom_site_label
_atom_site_fract_x
_atom_site_fract_y
_atom_site_fract_z
Si Si1 0.261341 0.101305 0.453224
Si Si2 0.921619 0.653726 0.200778
Si Si3 0.617779 0.088764 0.889544
Si Si4 0.933839 0.886582 0.746039
Si Si5 0.576485 0.884790 0.300868
Si Si6 0.500000 0.500000 0.500000
Si Si7 0.527661 0.609632 0.884760
Si Si8 0.699120 0.252660 0.392859
O O1 0.173308 0.101750 0.352033
O O2 0.235708 0.252997 0.506212
O O3 0.538028 0.297712 0.437895
O O4 0.222624 0.866595 0.523083
O O5 0.694236 0.538748 0.158723
O O6 0.879841 0.481555 0.308706
O O7 0.119522 0.716597 0.129002
O O8 0.987260 0.891503 0.217136
O O9 0.516554 0.162552 0.799402
O O10 0.575812 0.859387 0.871519
O O11 0.500000 0.000000 0.000000
O O12 0.736990 0.658729 0.828729
O O13 0.158650 0.925278 0.724900
O O14 0.495695 0.648651 0.386093
O O15 0.531387 0.039753 0.345242
O O16 0.500000 0.500000 0.000000
#
# Coordination Sequence:
#
# PCOD9109938 Si02
#       8
#     2   2   2   2   2   1   2   2
#     4  10  21  41  66 100 136 176 227 273 331 407
#     4  11  23  45  69  95 135 180 220 278 339 398
#     4  11  27  44  68 102 137 174 228 280 337 405
#     4  11  25  41  69  99 134 174 229 278 332 408
#     4  11  24  43  64 104 139 174 230 278 333 408
#     4  10  24  40  70 100 140 182 222 276 338 400
#     4  11  26  46  70  97 132 178 229 277 340 403
#     4  10  20  41  68  93 136 175 220 277 332 396
#
# _framework density 24.494586000000002
#
# number of rings (size 3 to 8) (size 9 to 14) (size 15 to 20)
#    0.000    1.333    2.667    1.600    3.733    7.467 
#    0.000    0.000    0.000    0.000    0.000    0.000 
#    0.000    0.000    0.000    0.000    0.000    0.000 
#
# Total GULP energy -83733.535965 kJ/mol
# GULP energy per Si atom -5582.235731 kJ/mol
# Density = 2.443883 g / cm^3
# Si number density = 24.494586 Si / 1000 Ang^3
#
#
#
# Elastic Constant Matrix: (Units=GPa)
#
#
# Indices 1 2 3 4 5 6 
#
# 1 86.0595 34.5671 40.7729 -12.6234 -7.2336 15.4066
# 2 34.5671 72.0470 26.9126 -2.5740 -0.9781 16.1460
# 3 40.7729 26.9126 169.2497 -23.9460 -3.8908 21.4170
# 4 -12.6234 -2.5740 -23.9460 42.3863 5.3134 -5.3852
# 5 -7.2336 -0.9781 -3.8908 5.3134 39.0584 -7.0036
# 6 15.4066 16.1460 21.4170 -5.3852 -7.0036 32.0703
#
#
#
# Elastic Compliance Matrix: (Units=1/GPa)
#
#
# Indices 1 2 3 4 5 6 
#
# 1 0.016135 -0.006298 -0.002177 0.002673 0.001842 -0.002276
# 2 -0.006298 0.018594 -0.000934 -0.001875 -0.001685 -0.006395
# 3 -0.002177 -0.000934 0.007399 0.003173 -0.000666 -0.003038
# 4 0.002673 -0.001875 0.003173 0.026575 -0.002593 0.001437
# 5 0.001842 -0.001685 -0.000666 -0.002593 0.027250 0.005924
# 6 -0.002276 -0.006395 -0.003038 0.001437 0.005924 0.039058
#
#
# Mechanical properties :
#
#
# Convention : Reuss Voigt Hill
#
# Bulk Modulus (GPa) = 42.90029 59.09572 50.99801
# Shear Modulus (GPa) = 30.94070 37.70991 34.32531
#
# Velocity S-wave (km/s) = 3.55796 3.92793 3.74751
# Velocity P-wave (km/s) = 5.86779 6.68954 6.29209
#
# Compressibility (1/GPa) = 0.02330987
#
# Stress axis : x y z
#
# Youngs Moduli (GPa) = 61.97627 53.78202 135.14486
#
# Poissons Ratio (x) = 0.33870 0.29423
# Poissons Ratio (y) = 0.39031 0.12627
# Poissons Ratio (z) = 0.13493 0.05025
#
# Static dielectric constant tensor:
#      x y z
#    x -1.498190 4.191800 1.765400 
#    y 4.191800 -2.747840 -2.139720 
#    z 1.765400 -2.139720 1.109170 
# 
# From -- ./inp_files/37665.got.cif
#   From: 2010.05.17/outbox.cif.g08.bks.cpg/sg2_19_cif.got.tgz:37665.got - 2010.06.03 11:33:40.
