data_PCOD9109961
_publ_section_title
;
Structure prediction by ZEFSAII (Michael W. Deem and Ramdas Pophale) SiO2 
 PCOD9109961
Probable space group: P -1
;
_chemical_formula_sum "Si O2"
_cell_formula_units_Z 14
_cell_length_a 7.011589
_cell_length_b 21.088083
_cell_length_c 5.057797
_cell_angle_alpha 104.526807
_cell_angle_beta 69.945286
_cell_angle_gamma 131.447302
_cell_volume 526.271219
_symmetry_space_group_name_H-M "P -1"
_symmetry_group_IT_number 2
_symmetry_cell_setting 'triclinic'
loop_
_space_group_symop_operation_xyz
x,y,z
-x,-y,-z
loop_
_atom_site_type_symbol
_atom_site_label
_atom_site_fract_x
_atom_site_fract_y
_atom_site_fract_z
Si Si1 0.605542 0.111995 0.918099
Si Si2 0.751769 0.713511 0.666980
Si Si3 0.694071 0.578220 0.804188
Si Si4 0.195223 0.194295 0.743897
Si Si5 0.142006 0.705286 0.156213
Si Si6 0.985532 0.448820 0.708669
Si Si7 0.702081 0.933852 0.478090
O O1 0.661385 0.202161 0.968715
O O2 0.491517 0.076230 0.222591
O O3 0.192171 0.222171 0.069369
O O4 0.381302 0.052945 0.747296
O O5 0.580955 0.622432 0.788962
O O6 0.664405 0.729763 0.456887
O O7 0.003370 0.722511 0.462790
O O8 0.780755 0.551913 0.489743
O O9 0.500000 0.500000 0.000000
O O10 0.937656 0.645843 0.954986
O O11 0.883086 0.133104 0.752618
O O12 0.323552 0.150019 0.620408
O O13 0.214235 0.651051 0.203185
O O14 0.000000 0.500000 0.500000
O O15 0.000000 0.500000 0.000000
O O16 0.000000 0.000000 0.500000
#
# Coordination Sequence:
#
# PCOD9109961 Si02
#       7
#     2   2   2   2   2   2   2
#     4  11  24  46  76  98 145 191 228 301 358 414
#     4  10  20  41  68  95 136 183 239 291 337 433
#     4  11  23  42  68  98 138 184 243 305 350 417
#     4  11  23  46  74 105 140 188 245 281 362 442
#     4  10  22  43  68  93 136 186 243 283 359 429
#     4  11  23  42  60  92 137 181 227 294 355 416
#     4  12  28  47  72 114 145 178 238 294 362 446
#
# _framework density 26.602257000000002
#
# number of rings (size 3 to 8) (size 9 to 14) (size 15 to 20)
#    0.000    1.143    4.286    3.000    2.000    3.429 
#    7.714    0.000    0.000    0.000    0.000    0.000 
#    0.000    0.000    0.000    0.000    0.000    0.000 
#
# Total GULP energy -78368.063102 kJ/mol
# GULP energy per Si atom -5597.718793 kJ/mol
# Density = 2.654171 g / cm^3
# Si number density = 26.602257 Si / 1000 Ang^3
#
#
#
# Elastic Constant Matrix: (Units=GPa)
#
#
# Indices 1 2 3 4 5 6 
#
# 1 116.4985 5.3046 40.0667 8.3044 8.4877 -6.0599
# 2 5.3046 64.9118 18.9521 -3.3962 7.7349 -11.2662
# 3 40.0667 18.9521 174.7505 8.2770 26.3769 -10.6907
# 4 8.3044 -3.3962 8.2770 27.8271 -1.6326 1.5124
# 5 8.4877 7.7349 26.3769 -1.6326 40.4044 5.4222
# 6 -6.0599 -11.2662 -10.6907 1.5124 5.4222 55.1046
#
#
#
# Elastic Compliance Matrix: (Units=1/GPa)
#
#
# Indices 1 2 3 4 5 6 
#
# 1 0.009513 -0.000101 -0.001859 -0.002400 -0.000973 0.000827
# 2 -0.000101 0.016812 -0.001281 0.002119 -0.002730 0.003388
# 3 -0.001859 -0.001281 0.007115 -0.002045 -0.004279 0.001391
# 4 -0.002400 0.002119 -0.002045 0.037791 0.003172 -0.001577
# 5 -0.000973 -0.002730 -0.004279 0.003172 0.028993 -0.004435
# 6 0.000827 0.003388 0.001391 -0.001577 -0.004435 0.019680
#
#
# Mechanical properties :
#
#
# Convention : Reuss Voigt Hill
#
# Bulk Modulus (GPa) = 37.09443 53.86750 45.48096
# Shear Modulus (GPa) = 36.93496 44.12304 40.52900
#
# Velocity S-wave (km/s) = 3.73019 4.07703 3.90746
# Velocity P-wave (km/s) = 5.70322 6.51584 6.12302
#
# Compressibility (1/GPa) = 0.02695823
#
# Stress axis : x y z
#
# Youngs Moduli (GPa) = 105.12212 59.48123 140.54046
#
# Poissons Ratio (x) = 0.00599 0.26126
# Poissons Ratio (y) = 0.01059 0.18006
# Poissons Ratio (z) = 0.19542 0.07621
#
# Static dielectric constant tensor:
#      x y z
#    x 2.186300 0.097640 0.006790 
#    y 0.097640 2.246280 -0.033120 
#    z 0.006790 -0.033120 1.987020 
# 
# From -- ./inp_files/51806.got.cif
#   From: 2010.05.17/outbox.cif.g08.bks.cpg/sg2_26_cif.got.tgz:51806.got - 2010.06.03 11:33:40.
