data_PCOD9109710
_publ_section_title
;
Structure prediction by ZEFSAII (Michael W. Deem and Ramdas Pophale) SiO2 
 PCOD9109710
Probable space group: P -1
;
_chemical_formula_sum "Si O2"
_cell_formula_units_Z 12
_cell_length_a 9.174867
_cell_length_b 12.176200
_cell_length_c 6.056830
_cell_angle_alpha 63.121619
_cell_angle_beta 128.647732
_cell_angle_gamma 107.579372
_cell_volume 471.177189
_symmetry_space_group_name_H-M "P -1"
_symmetry_group_IT_number 2
_symmetry_cell_setting 'triclinic'
loop_
_space_group_symop_operation_xyz
x,y,z
-x,-y,-z
loop_
_atom_site_type_symbol
_atom_site_label
_atom_site_fract_x
_atom_site_fract_y
_atom_site_fract_z
Si Si1 0.217318 0.472967 0.243585
Si Si2 0.165717 0.749823 0.553578
Si Si3 0.147960 0.918020 0.989555
Si Si4 0.837207 0.835176 0.450666
Si Si5 0.278839 0.483177 0.793867
Si Si6 0.427953 0.738381 0.174418
O O1 0.246484 0.428329 0.567980
O O2 0.351490 0.597958 0.259822
O O3 0.237906 0.422837 0.051972
O O4 0.000000 0.500000 0.000000
O O5 0.172717 0.614487 0.575346
O O6 0.003947 0.756782 0.576739
O O7 0.367238 0.767352 0.841168
O O8 0.130967 0.866430 0.263834
O O9 0.945547 0.895910 0.705018
O O10 0.210036 0.056064 0.862618
O O11 0.303583 0.828305 0.119014
O O12 0.644891 0.765872 0.393441
O O13 0.500000 0.500000 0.000000
#
# Coordination Sequence:
#
# PCOD9109710 Si02
#       6
#     2   2   2   2   2   2
#     4  11  24  49  71 101 140 182 233 294 351 416
#     4  10  22  42  63  97 137 174 227 281 344 410
#     4  10  20  41  66  99 134 177 225 278 341 414
#     4  10  22  39  68  97 136 179 222 282 342 411
#     4  11  24  49  71 102 137 182 238 290 353 415
#     4  10  22  42  63 100 135 175 228 281 344 409
#
# _framework density 25.468125000000001
#
# number of rings (size 3 to 8) (size 9 to 14) (size 15 to 20)
#    0.000    1.667    1.667    2.000    0.000    2.000 
#   33.000    0.000    0.000    0.000    0.000    0.000 
#    0.000    0.000    0.000    0.000    0.000    0.000 
#
# Total GULP energy -66998.770405 kJ/mol
# GULP energy per Si atom -5583.230867 kJ/mol
# Density = 2.541016 g / cm^3
# Si number density = 25.468125 Si / 1000 Ang^3
#
#
#
# Elastic Constant Matrix: (Units=GPa)
#
#
# Indices 1 2 3 4 5 6 
#
# 1 129.1874 28.0859 58.6065 20.9021 7.0076 1.2988
# 2 28.0859 88.3020 32.2103 -8.5281 1.9976 10.8449
# 3 58.6065 32.2103 173.4463 -2.2919 -19.8168 25.7709
# 4 20.9021 -8.5281 -2.2919 39.1470 6.1253 8.9200
# 5 7.0076 1.9976 -19.8168 6.1253 52.2741 4.7108
# 6 1.2988 10.8449 25.7709 8.9200 4.7108 44.9441
#
#
#
# Elastic Compliance Matrix: (Units=1/GPa)
#
#
# Indices 1 2 3 4 5 6 
#
# 1 0.011982 -0.003488 -0.004561 -0.008144 -0.002699 0.005010
# 2 -0.003488 0.013778 -0.000814 0.005800 -0.000701 -0.003835
# 3 -0.004561 -0.000814 0.008845 0.003468 0.004118 -0.005864
# 4 -0.008144 0.005800 0.003468 0.033721 -0.000888 -0.009752
# 5 -0.002699 -0.000701 0.004118 -0.000888 0.021562 -0.004198
# 6 0.005010 -0.003835 -0.005864 -0.009752 -0.004198 0.028768
#
#
# Mechanical properties :
#
#
# Convention : Reuss Voigt Hill
#
# Bulk Modulus (GPa) = 59.24502 69.86012 64.55257
# Shear Modulus (GPa) = 35.20919 45.40858 40.30889
#
# Velocity S-wave (km/s) = 3.72221 4.22709 3.98266
# Velocity P-wave (km/s) = 6.46421 7.16340 6.82277
#
# Compressibility (1/GPa) = 0.01687906
#
# Stress axis : x y z
#
# Youngs Moduli (GPa) = 83.45903 72.57937 113.05345
#
# Poissons Ratio (x) = 0.25315 0.51567
# Poissons Ratio (y) = 0.29110 0.09201
# Poissons Ratio (z) = 0.38068 0.05907
#
# Static dielectric constant tensor:
#      x y z
#    x 2.059190 -0.125740 0.024630 
#    y -0.125740 2.211240 -0.140760 
#    z 0.024630 -0.140760 2.167710 
# 
# From -- ./inp_files/34896.got.cif
#   From: 2010.05.17/outbox.cif.g08.bks.cpg/sg2_18_cif.got.tgz:34896.got - 2010.06.03 11:33:40.
