data_PCOD9109295
_publ_section_title
;
Structure prediction by ZEFSAII (Michael W. Deem and Ramdas Pophale) SiO2 
 PCOD9109295
Probable space group: P -1
;
_chemical_formula_sum "Si O2"
_cell_formula_units_Z 16
_cell_length_a 10.217547
_cell_length_b 13.438967
_cell_length_c 12.273732
_cell_angle_alpha 133.896698
_cell_angle_beta 117.773325
_cell_angle_gamma 41.270465
_cell_volume 795.653594
_symmetry_space_group_name_H-M "P -1"
_symmetry_group_IT_number 2
_symmetry_cell_setting 'triclinic'
loop_
_space_group_symop_operation_xyz
x,y,z
-x,-y,-z
loop_
_atom_site_type_symbol
_atom_site_label
_atom_site_fract_x
_atom_site_fract_y
_atom_site_fract_z
Si Si1 0.871213 0.845726 0.487618
Si Si2 0.533464 0.833504 0.946510
Si Si3 0.772494 0.161468 0.054232
Si Si4 0.586804 0.901523 0.248883
Si Si5 0.393971 0.781437 0.203621
Si Si6 0.665181 0.459605 0.616990
Si Si7 0.779580 0.694039 0.530016
Si Si8 0.451203 0.441046 0.700477
O O1 0.750108 0.896535 0.366288
O O2 0.816750 0.756122 0.481366
O O3 0.108405 0.700871 0.455545
O O4 0.782572 0.036109 0.657034
O O5 0.326813 0.894342 0.953733
O O6 0.629184 0.645701 0.772437
O O7 0.646248 0.800660 0.078761
O O8 0.500000 0.000000 0.000000
O O9 0.723160 0.339484 0.221384
O O10 0.676828 0.221070 0.943040
O O11 0.000000 0.000000 0.000000
O O12 0.549376 0.803858 0.247906
O O13 0.366597 0.111907 0.309703
O O14 0.486234 0.611492 0.189913
O O15 0.500000 0.500000 0.500000
O O16 0.629382 0.391159 0.659934
O O17 0.636304 0.651957 0.433131
O O18 0.000000 0.500000 0.500000
#
# Coordination Sequence:
#
# PCOD9109295 Si02
#       8
#     2   2   2   2   2   2   2   2
#     4  11  22  41  67  92 129 171 211 266 318 383
#     4  10  25  44  65  89 131 173 211 262 318 385
#     4  10  24  40  63  95 127 163 212 269 321 375
#     4  10  21  43  65  95 129 159 223 271 302 379
#     4  10  20  41  64  93 126 162 213 266 318 374
#     4  11  27  43  62  96 138 167 209 267 327 385
#     4  11  22  36  68  98 120 166 218 263 313 372
#     4  11  22  41  62  92 129 168 208 261 326 377
#
# _framework density 20.109252999999999
#
# number of rings (size 3 to 8) (size 9 to 14) (size 15 to 20)
#    0.000    1.500    2.500    1.875   12.250    1.000 
#    2.250    0.000    0.000    0.000    0.000    0.000 
#    0.000    0.000    0.000    0.000    0.000    0.000 
#
# Total GULP energy -89195.344180 kJ/mol
# GULP energy per Si atom -5574.709011 kJ/mol
# Density = 2.006348 g / cm^3
# Si number density = 20.109253 Si / 1000 Ang^3
#
#
#
# Elastic Constant Matrix: (Units=GPa)
#
#
# Indices 1 2 3 4 5 6 
#
# 1 81.1699 37.6627 35.3084 24.6851 1.3564 16.0969
# 2 37.6627 84.2397 25.0747 11.5433 1.4946 5.6561
# 3 35.3084 25.0747 83.5336 20.7459 -4.5641 -6.6510
# 4 24.6851 11.5433 20.7459 21.9703 5.3311 0.6467
# 5 1.3564 1.4946 -4.5641 5.3311 20.1181 3.2796
# 6 16.0969 5.6561 -6.6510 0.6467 3.2796 39.2163
#
#
#
# Elastic Compliance Matrix: (Units=1/GPa)
#
#
# Indices 1 2 3 4 5 6 
#
# 1 0.026222 -0.006793 -0.003735 -0.023470 0.005823 -0.010517
# 2 -0.006793 0.015315 -0.002367 0.002264 -0.001865 0.000297
# 3 -0.003735 -0.002367 0.018529 -0.014035 0.007598 0.004613
# 4 -0.023470 0.002264 -0.014035 0.090261 -0.026942 0.007691
# 5 0.005823 -0.001865 0.007598 -0.026942 0.059186 -0.005338
# 6 -0.010517 0.000297 0.004613 0.007691 -0.005338 0.030876
#
#
# Mechanical properties :
#
#
# Convention : Reuss Voigt Hill
#
# Bulk Modulus (GPa) = 29.17415 49.44832 39.31123
# Shear Modulus (GPa) = 18.01131 26.32077 22.16604
#
# Velocity S-wave (km/s) = 2.99603 3.62178 3.32366
# Velocity P-wave (km/s) = 5.14855 6.49099 5.85835
#
# Compressibility (1/GPa) = 0.03427692
#
# Stress axis : x y z
#
# Youngs Moduli (GPa) = 38.13521 65.29402 53.97069
#
# Poissons Ratio (x) = 0.44355 0.20159
# Poissons Ratio (y) = 0.25906 0.12772
# Poissons Ratio (z) = 0.14244 0.15452
#
# Static dielectric constant tensor:
#      x y z
#    x 3.354720 -0.057460 -0.901370 
#    y -0.057460 1.727860 0.004350 
#    z -0.901370 0.004350 2.295880 
# 
# From -- ./inp_files/283491.got.cif
#   From: 2010.05.17/outbox.cif.g08.bks.cpg/sg2_142_cif.got.tgz:283491.got - 2010.06.03 11:33:40.
