data_PCOD9109397
_publ_section_title
;
Structure prediction by ZEFSAII (Michael W. Deem and Ramdas Pophale) SiO2 
 PCOD9109397
Probable space group: P -1
;
_chemical_formula_sum "Si O2"
_cell_formula_units_Z 13
_cell_length_a 6.960485
_cell_length_b 22.511699
_cell_length_c 5.094374
_cell_angle_alpha 97.998373
_cell_angle_beta 72.729112
_cell_angle_gamma 56.108374
_cell_volume 584.130526
_symmetry_space_group_name_H-M "P -1"
_symmetry_group_IT_number 2
_symmetry_cell_setting 'triclinic'
loop_
_space_group_symop_operation_xyz
x,y,z
-x,-y,-z
loop_
_atom_site_type_symbol
_atom_site_label
_atom_site_fract_x
_atom_site_fract_y
_atom_site_fract_z
Si Si1 0.674140 0.525169 0.887404
Si Si2 0.867367 0.148819 0.646996
Si Si3 0.472193 0.772042 0.674544
Si Si4 0.314243 0.148639 0.479591
Si Si5 0.294677 0.402390 0.584962
Si Si6 0.183864 0.998450 0.712411
Si Si7 0.500000 0.000000 0.000000
O O1 0.634315 0.561780 0.641125
O O2 0.982133 0.452682 0.740651
O O3 0.500000 0.500000 0.000000
O O4 0.623440 0.586182 0.161657
O O5 0.749041 0.180513 0.429799
O O6 0.040018 0.172995 0.680426
O O7 0.055135 0.054632 0.545669
O O8 0.646490 0.185152 0.975479
O O9 0.690397 0.780341 0.526960
O O10 0.575598 0.685496 0.581802
O O11 0.395510 0.088814 0.169874
O O12 0.572248 0.088897 0.516585
O O13 0.306080 0.030383 0.845358
O O14 0.000000 0.000000 0.000000
#
# Coordination Sequence:
#
# PCOD9109397 Si02
#       7
#     2   2   2   2   2   2   1
#     4  10  21  44  76 103 131 176 216 259 317 391
#     4  12  25  45  64  94 131 177 229 277 338 392
#     4  12  27  44  65  98 142 175 210 278 342 392
#     4  10  24  41  66  93 125 177 232 282 333 383
#     4  10  23  42  68 107 138 167 221 263 316 405
#     4  10  20  41  65  89 119 171 232 291 323 384
#     4   8  20  38  62  90 116 160 234 284 318 380
#
# _framework density 22.255302
#
# number of rings (size 3 to 8) (size 9 to 14) (size 15 to 20)
#    0.923    0.615    1.538    2.769    0.000    6.769 
#    0.000    0.000    0.000    0.000    0.000    0.000 
#    0.000    0.000    0.000    0.000    0.000    0.000 
#
# Total GULP energy -72419.196463 kJ/mol
# GULP energy per Si atom -5570.707420 kJ/mol
# Density = 2.220465 g / cm^3
# Si number density = 22.255302 Si / 1000 Ang^3
#
#
#
# Elastic Constant Matrix: (Units=GPa)
#
#
# Indices 1 2 3 4 5 6 
#
# 1 71.7968 18.7572 11.8129 -7.6663 -18.8309 18.0347
# 2 18.7572 72.1133 6.9533 8.8021 -1.9780 20.0938
# 3 11.8129 6.9533 66.9973 -11.8834 3.9852 -0.7422
# 4 -7.6663 8.8021 -11.8834 18.6520 14.7672 2.9010
# 5 -18.8309 -1.9780 3.9852 14.7672 42.7257 -14.5452
# 6 18.0347 20.0938 -0.7422 2.9010 -14.5452 26.8561
#
#
#
# Elastic Compliance Matrix: (Units=1/GPa)
#
#
# Indices 1 2 3 4 5 6 
#
# 1 0.018975 -0.002737 -0.001941 0.007713 0.002218 -0.010381
# 2 -0.002737 0.019499 -0.003456 -0.010224 -0.000546 -0.012038
# 3 -0.001941 -0.003456 0.021097 0.026458 -0.014196 -0.006075
# 4 0.007713 -0.010224 0.026458 0.133281 -0.060590 -0.044011
# 5 0.002218 -0.000546 -0.014196 -0.060590 0.059279 0.037177
# 6 -0.010381 -0.012038 -0.006075 -0.044011 0.037177 0.077935
#
#
# Mechanical properties :
#
#
# Convention : Reuss Voigt Hill
#
# Bulk Modulus (GPa) = 23.09153 31.77270 27.43211
# Shear Modulus (GPa) = 13.85932 29.20569 21.53250
#
# Velocity S-wave (km/s) = 2.49819 3.62650 3.11388
# Velocity P-wave (km/s) = 4.32661 5.64294 5.02804
#
# Compressibility (1/GPa) = 0.04330592
#
# Stress axis : x y z
#
# Youngs Moduli (GPa) = 52.70036 51.28350 47.40058
#
# Poissons Ratio (x) = 0.14034 0.09198
# Poissons Ratio (y) = 0.14422 0.16380
# Poissons Ratio (z) = 0.10227 0.17722
#
# Static dielectric constant tensor:
#      x y z
#    x 1.866960 -0.017380 -0.038300 
#    y -0.017380 1.806730 -0.009500 
#    z -0.038300 -0.009500 1.791500 
# 
# From -- ./inp_files/8481.got.cif
#   From: 2010.05.17/outbox.cif.g08.bks.cpg/sg2_5_cif.got.tgz:8481.got - 2010.06.03 11:33:40.
