data_PCOD9109475
_publ_section_title
;
Structure prediction by ZEFSAII (Michael W. Deem and Ramdas Pophale) SiO2 
 PCOD9109475
Probable space group: P -1
;
_chemical_formula_sum "Si O2"
_cell_formula_units_Z 16
_cell_length_a 7.571366
_cell_length_b 18.866579
_cell_length_c 16.997034
_cell_angle_alpha 26.589137
_cell_angle_beta 58.086646
_cell_angle_gamma 41.987182
_cell_volume 647.606352
_symmetry_space_group_name_H-M "P -1"
_symmetry_group_IT_number 2
_symmetry_cell_setting 'triclinic'
loop_
_space_group_symop_operation_xyz
x,y,z
-x,-y,-z
loop_
_atom_site_type_symbol
_atom_site_label
_atom_site_fract_x
_atom_site_fract_y
_atom_site_fract_z
Si Si1 0.083296 0.593199 0.792416
Si Si2 0.150630 0.046034 0.080700
Si Si3 0.244771 0.351359 0.751762
Si Si4 0.125769 0.047712 0.644253
Si Si5 0.677043 0.851343 0.355742
Si Si6 0.753267 0.005165 0.571343
Si Si7 0.404961 0.369327 0.162121
Si Si8 0.391210 0.780451 0.053903
O O1 0.427371 0.370447 0.917901
O O2 0.025547 0.761330 0.574865
O O3 0.911964 0.761761 0.740265
O O4 0.926537 0.511475 0.891122
O O5 0.126813 0.242804 0.913391
O O6 0.927929 0.125826 0.980591
O O7 0.485191 0.826748 0.194225
O O8 0.066836 0.976042 0.240931
O O9 0.401934 0.361385 0.777401
O O10 0.966525 0.586750 0.541933
O O11 0.253844 0.093089 0.635030
O O12 0.395067 0.821345 0.761121
O O13 0.366357 0.939653 0.366184
O O14 0.649837 0.006874 0.145796
O O15 0.490577 0.229777 0.360086
O O16 0.000000 0.000000 0.500000
O O17 0.500000 0.500000 0.000000
#
# Coordination Sequence:
#
# PCOD9109475 Si02
#       8
#     2   2   2   2   2   2   2   2
#     4  11  22  44  63  94 144 178 217 282 332 398
#     4  10  26  45  70 103 129 179 231 277 355 404
#     4  11  24  51  69  95 144 168 223 306 331 399
#     4  10  20  41  65  94 130 177 224 268 332 408
#     4  11  23  43  68  98 131 180 228 269 343 406
#     4  11  24  38  60  97 139 174 219 277 326 406
#     4  11  23  38  65  94 132 186 217 268 345 394
#     4  11  25  42  72 102 128 182 227 274 342 411
#
# _framework density 24.706368000000001
#
# number of rings (size 3 to 8) (size 9 to 14) (size 15 to 20)
#    0.000    1.250    3.750    1.125    7.000    4.500 
#    2.250    1.250    0.000    0.000    0.000    0.000 
#    0.000    0.000    0.000    0.000    0.000    0.000 
#
# Total GULP energy -89394.619573 kJ/mol
# GULP energy per Si atom -5587.163723 kJ/mol
# Density = 2.465014 g / cm^3
# Si number density = 24.706368 Si / 1000 Ang^3
#
#
#
# Elastic Constant Matrix: (Units=GPa)
#
#
# Indices 1 2 3 4 5 6 
#
# 1 59.0447 -6.2670 2.1114 6.9812 -10.6519 -11.8933
# 2 -6.2670 78.6331 17.0255 -6.7353 -6.8405 -22.7791
# 3 2.1114 17.0255 49.8073 -6.0323 1.2861 -6.0930
# 4 6.9812 -6.7353 -6.0323 50.6414 3.1788 -7.0078
# 5 -10.6519 -6.8405 1.2861 3.1788 34.7919 8.8610
# 6 -11.8933 -22.7791 -6.0930 -7.0078 8.8610 30.7744
#
#
#
# Elastic Compliance Matrix: (Units=1/GPa)
#
#
# Indices 1 2 3 4 5 6 
#
# 1 0.020551 0.005130 -0.001737 -0.001339 0.005032 0.009642
# 2 0.005130 0.018993 -0.004425 0.003375 0.001189 0.015592
# 3 -0.001737 -0.004425 0.022315 0.002767 -0.002979 0.001959
# 4 -0.001339 0.003375 0.002767 0.022180 -0.004107 0.008761
# 5 0.005032 0.001189 -0.002979 -0.004107 0.033098 -0.008230
# 6 0.009642 0.015592 0.001959 0.008761 -0.008230 0.052514
#
#
# Mechanical properties :
#
#
# Convention : Reuss Voigt Hill
#
# Bulk Modulus (GPa) = 16.72343 23.69165 20.20754
# Shear Modulus (GPa) = 26.08951 34.88256 30.48603
#
# Velocity S-wave (km/s) = 3.25311 3.76158 3.51655
# Velocity P-wave (km/s) = 4.57099 5.33630 4.96840
#
# Compressibility (1/GPa) = 0.05979636
#
# Stress axis : x y z
#
# Youngs Moduli (GPa) = 48.65888 52.64992 44.81239
#
# Poissons Ratio (x) = -0.27011 0.07786
# Poissons Ratio (y) = -0.24963 0.19828
# Poissons Ratio (z) = 0.08454 0.23295
#
# Static dielectric constant tensor:
#      x y z
#    x 2.131630 -0.003240 -0.046830 
#    y -0.003240 5.309550 -2.682170 
#    z -0.046830 -2.682170 4.215930 
# 
# From -- ./inp_files/178260.got.cif
#   From: 2010.05.17/outbox.cif.g08.bks.cpg/sg2_90_cif.got.tgz:178260.got - 2010.06.03 11:33:40.
