data_PCOD9109537
_publ_section_title
;
Structure prediction by ZEFSAII (Michael W. Deem and Ramdas Pophale) SiO2 
 PCOD9109537
Probable space group: P -1
;
_chemical_formula_sum "Si O2"
_cell_formula_units_Z 14
_cell_length_a 9.419541
_cell_length_b 8.857299
_cell_length_c 12.032010
_cell_angle_alpha 130.074985
_cell_angle_beta 112.754497
_cell_angle_gamma 57.034693
_cell_volume 643.436297
_symmetry_space_group_name_H-M "P -1"
_symmetry_group_IT_number 2
_symmetry_cell_setting 'triclinic'
loop_
_space_group_symop_operation_xyz
x,y,z
-x,-y,-z
loop_
_atom_site_type_symbol
_atom_site_label
_atom_site_fract_x
_atom_site_fract_y
_atom_site_fract_z
Si Si1 0.004951 0.768091 0.150804
Si Si2 0.522519 0.877165 0.566396
Si Si3 0.577018 0.016095 0.881290
Si Si4 0.731441 0.657331 0.921340
Si Si5 0.838722 0.569834 0.406476
Si Si6 0.127182 0.871887 0.881624
Si Si7 0.849580 0.923794 0.406391
O O1 0.198623 0.598798 0.151769
O O2 0.899809 0.800720 0.246774
O O3 0.962836 0.004585 0.200606
O O4 0.910108 0.680024 0.990368
O O5 0.578932 0.993416 0.738596
O O6 0.674231 0.649482 0.474156
O O7 0.500000 0.000000 0.500000
O O8 0.341644 0.888580 0.557299
O O9 0.635715 0.771770 0.833807
O O10 0.394904 0.184893 0.950294
O O11 0.702546 0.104353 0.020498
O O12 0.842148 0.374901 0.238896
O O13 0.845721 0.758223 0.420112
O O14 0.000000 0.500000 0.500000
O O15 0.000000 0.000000 0.000000
O O16 0.000000 0.000000 0.500000
#
# Coordination Sequence:
#
# PCOD9109537 Si02
#       7
#     2   2   2   2   2   2   2
#     4  10  21  39  64  95 131 167 227 271 336 393
#     4  10  23  43  68  97 142 182 223 287 351 412
#     4  10  20  41  66 101 132 172 231 282 337 405
#     4   9  20  36  69  95 128 171 216 285 334 387
#     4  11  25  45  68  98 140 187 226 278 352 413
#     4  11  25  41  66 100 136 179 228 279 339 414
#     4  11  24  43  68  98 132 180 231 283 341 414
#
# _framework density 21.758175000000001
#
# number of rings (size 3 to 8) (size 9 to 14) (size 15 to 20)
#    0.000    1.714    1.429    1.714    8.000    2.286 
#    0.000    9.286    0.000    0.000    0.000    0.000 
#    0.000    0.000    0.000    0.000    0.000    0.000 
#
# Total GULP energy -78051.419462 kJ/mol
# GULP energy per Si atom -5575.101390 kJ/mol
# Density = 2.170865 g / cm^3
# Si number density = 21.758175 Si / 1000 Ang^3
#
#
#
# Elastic Constant Matrix: (Units=GPa)
#
#
# Indices 1 2 3 4 5 6 
#
# 1 108.1110 61.5455 48.9206 16.6165 -12.0796 -29.4249
# 2 61.5455 104.6737 41.3329 -7.1113 -5.0447 -21.3673
# 3 48.9206 41.3329 106.3320 -5.6050 -9.5956 -10.9551
# 4 16.6165 -7.1113 -5.6050 32.5179 5.2736 -7.6115
# 5 -12.0796 -5.0447 -9.5956 5.2736 43.2864 2.7954
# 6 -29.4249 -21.3673 -10.9551 -7.6115 2.7954 38.9465
#
#
#
# Elastic Compliance Matrix: (Units=1/GPa)
#
#
# Indices 1 2 3 4 5 6 
#
# 1 0.022018 -0.010013 -0.005851 -0.013739 0.004937 0.006456
# 2 -0.010013 0.017310 -0.001453 0.009917 -0.002543 0.003643
# 3 -0.005851 -0.001453 0.012879 0.004635 0.000535 -0.000728
# 4 -0.013739 0.009917 0.004635 0.043162 -0.007253 0.005320
# 5 0.004937 -0.002543 0.000535 -0.007253 0.025234 -0.000743
# 6 0.006456 0.003643 -0.000728 0.005320 -0.000743 0.033441
#
#
# Mechanical properties :
#
#
# Convention : Reuss Voigt Hill
#
# Bulk Modulus (GPa) = 56.90892 69.19052 63.04972
# Shear Modulus (GPa) = 25.70204 34.10466 29.90335
#
# Velocity S-wave (km/s) = 3.44067 3.96339 3.71124
# Velocity P-wave (km/s) = 6.48045 7.26728 6.88512
#
# Compressibility (1/GPa) = 0.01757194
#
# Stress axis : x y z
#
# Youngs Moduli (GPa) = 45.41637 57.77085 77.64590
#
# Poissons Ratio (x) = 0.57848 0.45433
# Poissons Ratio (y) = 0.45477 0.11282
# Poissons Ratio (z) = 0.26574 0.08394
#
# Static dielectric constant tensor:
#      x y z
#    x 1.797050 0.009530 0.090470 
#    y 0.009530 1.920730 -0.012770 
#    z 0.090470 -0.012770 1.916350 
# 
# From -- ./inp_files/224236.got.cif
#   From: 2010.05.17/outbox.cif.g08.bks.cpg/sg2_113_cif.got.tgz:224236.got - 2010.06.03 11:33:40.
