data_PCOD9109599
_publ_section_title
;
Structure prediction by ZEFSAII (Michael W. Deem and Ramdas Pophale) SiO2 
 PCOD9109599
Probable space group: P -1
;
_chemical_formula_sum "Si O2"
_cell_formula_units_Z 16
_cell_length_a 11.486980
_cell_length_b 9.202054
_cell_length_c 11.603908
_cell_angle_alpha 118.752278
_cell_angle_beta 86.015757
_cell_angle_gamma 132.791963
_cell_volume 723.262937
_symmetry_space_group_name_H-M "P -1"
_symmetry_group_IT_number 2
_symmetry_cell_setting 'triclinic'
loop_
_space_group_symop_operation_xyz
x,y,z
-x,-y,-z
loop_
_atom_site_type_symbol
_atom_site_label
_atom_site_fract_x
_atom_site_fract_y
_atom_site_fract_z
Si Si1 0.829939 0.535708 0.604255
Si Si2 0.694857 0.558034 0.039969
Si Si3 0.550990 0.749845 0.456530
Si Si4 0.890520 0.407553 0.324756
Si Si5 0.059134 0.997430 0.120049
Si Si6 0.372357 0.143214 0.770135
Si Si7 0.617700 0.791211 0.714961
Si Si8 0.377219 0.732797 0.855584
O O1 0.622150 0.317834 0.548331
O O2 0.893330 0.551816 0.478026
O O3 0.930987 0.505489 0.662277
O O4 0.894800 0.787425 0.729321
O O5 0.684036 0.745615 0.120341
O O6 0.626759 0.419633 0.112320
O O7 0.894304 0.727962 0.075923
O O8 0.575268 0.353309 0.871193
O O9 0.639316 0.863990 0.370121
O O10 0.667706 0.882135 0.614002
O O11 0.474268 0.483385 0.369996
O O12 0.812168 0.400602 0.212196
O O13 0.745348 0.124709 0.272702
O O14 0.225836 0.055585 0.146468
O O15 0.000000 0.000000 0.000000
O O16 0.472083 0.769875 0.749221
O O17 0.500000 0.000000 0.000000
#
# Coordination Sequence:
#
# PCOD9109599 Si02
#       8
#     2   2   2   2   2   2   2   2
#     4  10  22  41  64  93 129 171 216 261 329 385
#     4  11  23  41  65 101 127 171 227 263 328 394
#     4  10  20  41  66  91 127 170 222 265 318 388
#     4  11  23  42  64  97 134 173 212 270 338 381
#     4  11  24  42  69  98 131 172 223 270 321 392
#     4  11  22  40  68  96 126 172 226 269 315 403
#     4  10  22  41  63  95 128 174 210 268 331 381
#     4  12  24  43  67  94 136 174 215 275 330 392
#
# _framework density 22.121966
#
# number of rings (size 3 to 8) (size 9 to 14) (size 15 to 20)
#    0.000    1.250    5.000    1.500    3.500    0.500 
#    4.500    1.875    0.000    0.000    0.000    0.000 
#    0.000    0.000    0.000    0.000    0.000    0.000 
#
# Total GULP energy -89366.501480 kJ/mol
# GULP energy per Si atom -5585.406343 kJ/mol
# Density = 2.207162 g / cm^3
# Si number density = 22.121966 Si / 1000 Ang^3
#
#
#
# Elastic Constant Matrix: (Units=GPa)
#
#
# Indices 1 2 3 4 5 6 
#
# 1 92.9411 -9.8791 16.1189 3.3677 16.8463 -2.2640
# 2 -9.8791 46.5188 20.0962 -6.8033 -1.3901 -2.4391
# 3 16.1189 20.0962 65.1560 -7.0496 15.2833 -14.3079
# 4 3.3677 -6.8033 -7.0496 28.1840 -3.7628 5.2668
# 5 16.8463 -1.3901 15.2833 -3.7628 36.5912 0.5738
# 6 -2.2640 -2.4391 -14.3079 5.2668 0.5738 21.2579
#
#
#
# Elastic Compliance Matrix: (Units=1/GPa)
#
#
# Indices 1 2 3 4 5 6 
#
# 1 0.012638 0.003737 -0.003438 -0.002081 -0.004456 0.000097
# 2 0.003737 0.027715 -0.011173 0.005058 0.004603 -0.005320
# 3 -0.003438 -0.011173 0.025352 -0.000177 -0.009695 0.015721
# 4 -0.002081 0.005058 -0.000177 0.039440 0.005432 -0.009679
# 5 -0.004456 0.004603 -0.009695 0.005432 0.034301 -0.008744
# 6 0.000097 -0.005320 0.015721 -0.009679 -0.008744 0.059657
#
#
# Mechanical properties :
#
#
# Convention : Reuss Voigt Hill
#
# Bulk Modulus (GPa) = 22.74974 28.58754 25.66864
# Shear Modulus (GPa) = 21.23103 29.09193 25.16148
#
# Velocity S-wave (km/s) = 3.10131 3.63032 3.37619
# Velocity P-wave (km/s) = 4.80939 5.52477 5.17945
#
# Compressibility (1/GPa) = 0.04395655
#
# Stress axis : x y z
#
# Youngs Moduli (GPa) = 79.12392 36.08091 39.44510
#
# Poissons Ratio (x) = -0.13482 0.13560
# Poissons Ratio (y) = -0.29566 0.44074
# Poissons Ratio (z) = 0.27200 0.40315
#
# Static dielectric constant tensor:
#      x y z
#    x 1.841710 0.003290 0.001020 
#    y 0.003290 1.784130 -0.021190 
#    z 0.001020 -0.021190 1.875760 
# 
# From -- ./inp_files/189993.got.cif
#   From: 2010.05.17/outbox.cif.g08.bks.cpg/sg2_95_cif.got.tgz:189993.got - 2010.06.03 11:33:40.
