data_PCOD9109566
_publ_section_title
;
Structure prediction by ZEFSAII (Michael W. Deem and Ramdas Pophale) SiO2 
 PCOD9109566
Probable space group: P -1
;
_chemical_formula_sum "Si O2"
_cell_formula_units_Z 16
_cell_length_a 5.311204
_cell_length_b 5.572636
_cell_length_c 23.178628
_cell_angle_alpha 96.618521
_cell_angle_beta 65.931679
_cell_angle_gamma 93.924025
_cell_volume 622.035752
_symmetry_space_group_name_H-M "P -1"
_symmetry_group_IT_number 2
_symmetry_cell_setting 'triclinic'
loop_
_space_group_symop_operation_xyz
x,y,z
-x,-y,-z
loop_
_atom_site_type_symbol
_atom_site_label
_atom_site_fract_x
_atom_site_fract_y
_atom_site_fract_z
Si Si1 0.868207 0.070104 0.074525
Si Si2 0.669881 0.562945 0.396977
Si Si3 0.661549 0.665949 0.280854
Si Si4 0.867356 0.933322 0.750097
Si Si5 0.857912 0.037252 0.631675
Si Si6 0.581236 0.727302 0.166881
Si Si7 0.181860 0.717892 0.515209
Si Si8 0.729060 0.684173 0.869184
O O1 0.557768 0.167286 0.096041
O O2 0.067301 0.257712 0.095599
O O3 0.842240 0.833095 0.111454
O O4 0.000000 0.000000 0.000000
O O5 0.637406 0.480433 0.331415
O O6 0.432717 0.741476 0.447678
O O7 0.680161 0.360435 0.439172
O O8 0.947240 0.724305 0.374797
O O9 0.607336 0.571829 0.218734
O O10 0.939274 0.827384 0.254311
O O11 0.443375 0.862505 0.328887
O O12 0.562331 0.036016 0.788497
O O13 0.902740 0.862629 0.678244
O O14 0.891036 0.755020 0.796530
O O15 0.964005 0.913780 0.560668
O O16 0.386034 0.586548 0.136381
O O17 0.000000 0.500000 0.500000
#
# Coordination Sequence:
#
# PCOD9109566 Si02
#       8
#     2   2   2   2   2   2   2   2
#     4  11  25  45  69 105 146 182 232 282 334 411
#     4  10  23  40  60  86 121 167 215 273 337 406
#     4  10  20  41  66  88 127 169 218 288 337 403
#     4   9  21  40  61  91 131 165 222 279 336 405
#     4  10  22  40  61  88 121 172 209 275 348 398
#     4  10  23  42  68  98 138 174 230 280 339 406
#     4  11  24  40  58  88 124 163 219 272 335 415
#     4  11  24  42  71 102 135 192 226 281 347 399
#
# _framework density 25.721995
#
# number of rings (size 3 to 8) (size 9 to 14) (size 15 to 20)
#    0.000    1.750    1.250    1.500    1.750   11.000 
#    0.000    1.250    0.000    0.000    0.000    0.000 
#    0.000    0.000    0.000    0.000    0.000    0.000 
#
# Total GULP energy -89462.850770 kJ/mol
# GULP energy per Si atom -5591.428173 kJ/mol
# Density = 2.566345 g / cm^3
# Si number density = 25.721995 Si / 1000 Ang^3
#
#
#
# Elastic Constant Matrix: (Units=GPa)
#
#
# Indices 1 2 3 4 5 6 
#
# 1 83.2302 12.9365 45.1538 -2.2699 3.7280 -1.6310
# 2 12.9365 50.7639 23.8890 4.2961 6.7259 9.5567
# 3 45.1538 23.8890 201.0245 -3.2015 3.9556 3.1236
# 4 -2.2699 4.2961 -3.2015 23.4221 2.4834 2.0179
# 5 3.7280 6.7259 3.9556 2.4834 43.9346 10.5527
# 6 -1.6310 9.5567 3.1236 2.0179 10.5527 42.2488
#
#
#
# Elastic Compliance Matrix: (Units=1/GPa)
#
#
# Indices 1 2 3 4 5 6 
#
# 1 0.014059 -0.002517 -0.002840 0.001412 -0.000993 0.001503
# 2 -0.002517 0.022751 -0.002100 -0.004132 -0.001779 -0.004447
# 3 -0.002840 -0.002100 0.005878 0.000922 0.000009 -0.000115
# 4 0.001412 -0.004132 0.000922 0.043977 -0.001886 -0.000708
# 5 -0.000993 -0.001779 0.000009 -0.001886 0.024590 -0.005688
# 6 0.001503 -0.004447 -0.000115 -0.000708 -0.005688 0.026196
#
#
# Mechanical properties :
#
#
# Convention : Reuss Voigt Hill
#
# Bulk Modulus (GPa) = 36.00448 55.44190 45.72319
# Shear Modulus (GPa) = 30.93591 38.79038 34.86315
#
# Velocity S-wave (km/s) = 3.47176 3.88759 3.68555
# Velocity P-wave (km/s) = 5.48624 6.46160 5.99379
#
# Compressibility (1/GPa) = 0.02777432
#
# Stress axis : x y z
#
# Youngs Moduli (GPa) = 71.12688 43.95365 170.11587
#
# Poissons Ratio (x) = 0.11064 0.48316
# Poissons Ratio (y) = 0.17904 0.35724
# Poissons Ratio (z) = 0.20201 0.09230
#
# Static dielectric constant tensor:
#      x y z
#    x 2.185580 -0.115180 0.017160 
#    y -0.115180 2.074250 -0.024050 
#    z 0.017160 -0.024050 1.985670 
# 
# From -- ./inp_files/11142.got.cif
#   From: 2010.05.17/outbox.cif.g08.bks.cpg/sg2_6_cif.got.tgz:11142.got - 2010.06.03 11:33:40.
