data_PCOD9109376
_publ_section_title
;
Structure prediction by ZEFSAII (Michael W. Deem and Ramdas Pophale) SiO2 
 PCOD9109376
Probable space group: P -1
;
_chemical_formula_sum "Si O2"
_cell_formula_units_Z 14
_cell_length_a 7.182839
_cell_length_b 19.795122
_cell_length_c 9.179436
_cell_angle_alpha 126.392293
_cell_angle_beta 54.102240
_cell_angle_gamma 141.536778
_cell_volume 633.886112
_symmetry_space_group_name_H-M "P -1"
_symmetry_group_IT_number 2
_symmetry_cell_setting 'triclinic'
loop_
_space_group_symop_operation_xyz
x,y,z
-x,-y,-z
loop_
_atom_site_type_symbol
_atom_site_label
_atom_site_fract_x
_atom_site_fract_y
_atom_site_fract_z
Si Si1 0.781418 0.517677 0.693081
Si Si2 0.159755 0.598856 0.879292
Si Si3 0.361511 0.042631 0.747469
Si Si4 0.051937 0.734471 0.675007
Si Si5 0.655924 0.945345 0.555758
Si Si6 0.860751 0.597574 0.287040
Si Si7 0.749401 0.823823 0.836569
O O1 0.432494 0.428210 0.683214
O O2 0.000000 0.500000 0.500000
O O3 0.834682 0.521417 0.845324
O O4 0.918777 0.639681 0.733481
O O5 0.239192 0.521344 0.772898
O O6 0.422543 0.704155 0.792838
O O7 0.116688 0.640524 0.101030
O O8 0.440463 0.096160 0.620756
O O9 0.593410 0.030560 0.693589
O O10 0.318843 0.107645 0.960238
O O11 0.030120 0.913981 0.715470
O O12 0.416886 0.840945 0.638959
O O13 0.965027 0.672125 0.478181
O O14 0.894390 0.787015 0.825384
O O15 0.000000 0.000000 0.500000
#
# Coordination Sequence:
#
# PCOD9109376 Si02
#       7
#     2   2   2   2   2   2   2
#     4  12  23  40  62  94 125 163 210 252 300 371
#     4  11  23  39  64  89 126 162 208 255 308 361
#     4   9  21  42  63  90 122 158 208 250 307 363
#     4  11  22  41  66  88 127 166 203 252 315 359
#     4  10  22  42  64  92 124 158 200 256 307 365
#     4  11  23  43  60  90 126 165 206 255 303 370
#     4  10  20  41  65  87 122 165 202 256 302 364
#
# _framework density 22.085985000000001
#
# number of rings (size 3 to 8) (size 9 to 14) (size 15 to 20)
#    0.000    1.429    2.857    2.571    2.000    0.000 
#    7.714    2.143    0.000    0.000    0.000    0.000 
#    0.000    0.000    0.000    0.000    0.000    0.000 
#
# Total GULP energy -78180.522985 kJ/mol
# GULP energy per Si atom -5584.323070 kJ/mol
# Density = 2.203572 g / cm^3
# Si number density = 22.085985 Si / 1000 Ang^3
#
#
#
# Elastic Constant Matrix: (Units=GPa)
#
#
# Indices 1 2 3 4 5 6 
#
# 1 99.6207 14.4203 28.5586 12.6191 -26.7473 13.8551
# 2 14.4203 63.7412 -9.3166 -3.7032 -11.9353 9.5081
# 3 28.5586 -9.3166 73.3460 10.7906 -26.5162 -0.5668
# 4 12.6191 -3.7032 10.7906 19.1598 -3.6031 1.1608
# 5 -26.7473 -11.9353 -26.5162 -3.6031 33.3660 -7.7451
# 6 13.8551 9.5081 -0.5668 1.1608 -7.7451 29.7442
#
#
#
# Elastic Compliance Matrix: (Units=1/GPa)
#
#
# Indices 1 2 3 4 5 6 
#
# 1 0.014369 -0.002005 -0.002167 -0.007000 0.007422 -0.003888
# 2 -0.002005 0.019621 0.006451 0.003579 0.010305 -0.002672
# 3 -0.002167 0.006451 0.023449 -0.007146 0.019539 0.004761
# 4 -0.007000 0.003579 -0.007146 0.060897 -0.003753 -0.001374
# 5 0.007422 0.010305 0.019539 -0.003753 0.056710 0.008534
# 6 -0.003888 -0.002672 0.004761 -0.001374 0.008534 0.038652
#
#
# Mechanical properties :
#
#
# Convention : Reuss Voigt Hill
#
# Bulk Modulus (GPa) = 16.12943 33.78138 24.95540
# Shear Modulus (GPa) = 21.75762 29.99039 25.87401
#
# Velocity S-wave (km/s) = 3.14209 3.68896 3.42645
# Velocity P-wave (km/s) = 4.52576 5.78560 5.19402
#
# Compressibility (1/GPa) = 0.06199847
#
# Stress axis : x y z
#
# Youngs Moduli (GPa) = 69.59185 50.96631 42.64565
#
# Poissons Ratio (x) = 0.10216 0.09240
# Poissons Ratio (y) = 0.13950 -0.27510
# Poissons Ratio (z) = 0.15079 -0.32878
#
# Static dielectric constant tensor:
#      x y z
#    x 1.803550 0.029120 0.005200 
#    y 0.029120 1.860880 -0.019840 
#    z 0.005200 -0.019840 1.830650 
# 
# From -- ./inp_files/34574.got.cif
#   From: 2010.05.17/outbox.cif.g08.bks.cpg/sg2_18_cif.got.tgz:34574.got - 2010.06.03 11:33:40.
