data_PCOD9109001
_publ_section_title
;
Structure prediction by ZEFSAII (Michael W. Deem and Ramdas Pophale) SiO2 
 PCOD9109001
Probable space group: P -1
;
_chemical_formula_sum "Si O2"
_cell_formula_units_Z 16
_cell_length_a 8.994443
_cell_length_b 17.499357
_cell_length_c 10.050877
_cell_angle_alpha 109.145549
_cell_angle_beta 121.252134
_cell_angle_gamma 34.558975
_cell_volume 750.914324
_symmetry_space_group_name_H-M "P -1"
_symmetry_group_IT_number 2
_symmetry_cell_setting 'triclinic'
loop_
_space_group_symop_operation_xyz
x,y,z
-x,-y,-z
loop_
_atom_site_type_symbol
_atom_site_label
_atom_site_fract_x
_atom_site_fract_y
_atom_site_fract_z
Si Si1 0.774027 0.883698 0.160506
Si Si2 0.730534 0.164353 0.589656
Si Si3 0.722707 0.875688 0.428110
Si Si4 0.872463 0.135809 0.348598
Si Si5 0.462854 0.330542 0.045645
Si Si6 0.867550 0.492588 0.231239
Si Si7 0.010488 0.619658 0.054882
Si Si8 0.889063 0.637516 0.463449
O O1 0.627398 0.925943 0.261437
O O2 0.014508 0.866233 0.271629
O O3 0.950461 0.734821 0.123484
O O4 0.500000 0.000000 0.000000
O O5 0.684999 0.182048 0.418480
O O6 0.415334 0.289437 0.584141
O O7 0.861096 0.028125 0.613729
O O8 0.796662 0.755845 0.424149
O O9 0.020938 0.814402 0.545306
O O10 0.500000 0.000000 0.500000
O O11 0.735748 0.190952 0.170302
O O12 0.219749 0.351068 0.958927
O O13 0.447586 0.366841 0.906721
O O14 0.331524 0.458119 0.136519
O O15 0.008817 0.526541 0.352193
O O16 0.025078 0.385717 0.122997
O O17 0.899823 0.432470 0.349724
#
# Coordination Sequence:
#
# PCOD9109001 Si02
#       8
#     2   2   2   2   2   2   2   2
#     4  11  24  42  64  93 124 163 214 252 303 375
#     4  10  22  37  64  88 124 162 209 247 311 369
#     4  11  24  40  63  93 127 161 202 261 314 358
#     4  10  20  41  61  91 120 165 204 256 303 374
#     4   9  18  36  63  86 117 163 206 247 305 364
#     4   9  21  37  62  84 124 166 199 251 312 361
#     4   9  19  37  61  88 120 161 207 248 305 360
#     4  11  21  41  60  93 124 162 206 253 310 374
#
# _framework density 21.307359000000002
#
# number of rings (size 3 to 8) (size 9 to 14) (size 15 to 20)
#    0.750    1.250    1.250    2.250    1.750    0.000 
#    6.750    3.750    0.000    0.000    0.000    0.000 
#    0.000    0.000    0.000    0.000    0.000    0.000 
#
# Total GULP energy -89082.582708 kJ/mol
# GULP energy per Si atom -5567.661419 kJ/mol
# Density = 2.125886 g / cm^3
# Si number density = 21.307359 Si / 1000 Ang^3
#
#
#
# Elastic Constant Matrix: (Units=GPa)
#
#
# Indices 1 2 3 4 5 6 
#
# 1 52.7405 23.5975 23.2384 -9.8958 -5.7538 21.3233
# 2 23.5975 62.4678 18.5508 4.1067 -0.0012 18.8214
# 3 23.2384 18.5508 130.2118 -18.3144 -26.7230 1.5336
# 4 -9.8958 4.1067 -18.3144 44.1424 7.5119 1.6239
# 5 -5.7538 -0.0012 -26.7230 7.5119 22.1743 3.5854
# 6 21.3233 18.8214 1.5336 1.6239 3.5854 22.5086
#
#
#
# Elastic Compliance Matrix: (Units=1/GPa)
#
#
# Indices 1 2 3 4 5 6 
#
# 1 0.038666 -0.003497 -0.002943 0.007427 0.009725 -0.035590
# 2 -0.003497 0.023155 -0.003213 -0.003518 -0.001096 -0.015402
# 3 -0.002943 -0.003213 0.011355 0.002257 0.011724 0.002671
# 4 0.007427 -0.003518 0.002257 0.026364 -0.003377 -0.005612
# 5 0.009725 -0.001096 0.011724 -0.003377 0.066025 -0.019368
# 6 -0.035590 -0.015402 0.002671 -0.005612 -0.019368 0.094330
#
#
# Mechanical properties :
#
#
# Convention : Reuss Voigt Hill
#
# Bulk Modulus (GPa) = 18.56337 41.79928 30.18132
# Shear Modulus (GPa) = 16.82614 29.76730 23.29672
#
# Velocity S-wave (km/s) = 2.81319 3.74176 3.31019
# Velocity P-wave (km/s) = 4.39125 6.19093 5.36706
#
# Compressibility (1/GPa) = 0.05386953
#
# Stress axis : x y z
#
# Youngs Moduli (GPa) = 25.86273 43.18670 88.06866
#
# Poissons Ratio (x) = 0.15103 0.25916
# Poissons Ratio (y) = 0.09045 0.28298
# Poissons Ratio (z) = 0.07611 0.13877
#
# Static dielectric constant tensor:
#      x y z
#    x 1.802200 -0.034900 -0.034660 
#    y -0.034900 1.803050 0.002630 
#    z -0.034660 0.002630 1.848930 
# 
# From -- ./inp_files/217874.got.cif
#   From: 2010.05.17/outbox.cif.g08.bks.cpg/sg2_109_cif.got.tgz:217874.got - 2010.06.03 11:33:40.
