data_PCOD9109353
_publ_section_title
;
Structure prediction by ZEFSAII (Michael W. Deem and Ramdas Pophale) SiO2 
 PCOD9109353
Probable space group: P -1
;
_chemical_formula_sum "Si O2"
_cell_formula_units_Z 10
_cell_length_a 14.100475
_cell_length_b 5.683244
_cell_length_c 7.903170
_cell_angle_alpha 65.254189
_cell_angle_beta 120.722933
_cell_angle_gamma 136.473372
_cell_volume 373.709633
_symmetry_space_group_name_H-M "P -1"
_symmetry_group_IT_number 2
_symmetry_cell_setting 'triclinic'
loop_
_space_group_symop_operation_xyz
x,y,z
-x,-y,-z
loop_
_atom_site_type_symbol
_atom_site_label
_atom_site_fract_x
_atom_site_fract_y
_atom_site_fract_z
Si Si1 0.545178 0.382049 0.920068
Si Si2 0.315814 0.342265 0.570308
Si Si3 0.877805 0.586099 0.500446
Si Si4 0.173015 0.259765 0.117676
Si Si5 0.124449 0.659620 0.799954
O O1 0.464146 0.411192 0.684337
O O2 0.716953 0.660980 0.951811
O O3 0.500000 0.500000 0.000000
O O4 0.500000 0.000000 0.000000
O O5 0.284690 0.584783 0.538468
O O6 0.227632 0.217896 0.352511
O O7 0.228181 0.047985 0.721036
O O8 0.877679 0.502097 0.331199
O O9 0.958236 0.497617 0.718431
O O10 0.000000 0.000000 0.500000
O O11 0.194566 0.604931 0.029776
O O12 0.000000 0.000000 0.000000
#
# Coordination Sequence:
#
# PCOD9109353 Si02
#       5
#     2   2   2   2   2
#     4  12  28  57  84 112 164 219 262 330 411 476
#     4  11  24  44  74 108 152 203 267 320 400 469
#     4   9  18  35  64  98 144 199 245 315 383 466
#     4  12  25  47  78 119 156 203 273 329 394 477
#     4  10  20  41  65 101 155 197 253 320 403 456
#
# _framework density 26.758744
#
# number of rings (size 3 to 8) (size 9 to 14) (size 15 to 20)
#    0.000    1.200    2.000    5.400    0.000    2.400 
#    7.200    2.000    0.000    0.000    0.000    0.000 
#    0.000    0.000    0.000    0.000    0.000    0.000 
#
# Total GULP energy -55742.763667 kJ/mol
# GULP energy per Si atom -5574.276367 kJ/mol
# Density = 2.669784 g / cm^3
# Si number density = 26.758744 Si / 1000 Ang^3
#
#
#
# Elastic Constant Matrix: (Units=GPa)
#
#
# Indices 1 2 3 4 5 6 
#
# 1 190.8667 47.5125 67.5379 7.1045 25.5987 13.7019
# 2 47.5125 46.8507 33.4077 13.0102 -1.3080 4.2703
# 3 67.5379 33.4077 192.2157 -3.3859 36.6528 7.1637
# 4 7.1045 13.0102 -3.3859 26.6946 -2.4234 0.8446
# 5 25.5987 -1.3080 36.6528 -2.4234 65.6184 5.8494
# 6 13.7019 4.2703 7.1637 0.8446 5.8494 39.9446
#
#
#
# Elastic Compliance Matrix: (Units=1/GPa)
#
#
# Indices 1 2 3 4 5 6 
#
# 1 0.007842 -0.007659 -0.000861 0.001348 -0.002559 -0.001370
# 2 -0.007659 0.037710 -0.005293 -0.016419 0.006180 -0.001013
# 3 -0.000861 -0.005293 0.007181 0.003386 -0.003659 0.000038
# 4 0.001348 -0.016419 0.003386 0.045442 -0.001056 -0.000121
# 5 -0.002559 0.006180 -0.003659 -0.001056 0.018528 -0.001818
# 6 -0.001370 -0.001013 0.000038 -0.000121 -0.001818 0.025875
#
#
# Mechanical properties :
#
#
# Convention : Reuss Voigt Hill
#
# Bulk Modulus (GPa) = 39.83092 80.76105 60.29598
# Shear Modulus (GPa) = 27.99952 45.21651 36.60802
#
# Velocity S-wave (km/s) = 3.23827 4.11516 3.70276
# Velocity P-wave (km/s) = 5.37581 7.26815 6.39240
#
# Compressibility (1/GPa) = 0.02510613
#
# Stress axis : x y z
#
# Youngs Moduli (GPa) = 127.51581 26.51784 139.25557
#
# Poissons Ratio (x) = 0.20311 0.11997
# Poissons Ratio (y) = 0.97670 0.73706
# Poissons Ratio (z) = 0.10985 0.14036
#
# Static dielectric constant tensor:
#      x y z
#    x 2.392780 -0.084830 0.178210 
#    y -0.084830 2.302510 -0.094330 
#    z 0.178210 -0.094330 2.237290 
# 
# From -- ./inp_files/286920.got.cif
#   From: 2010.05.17/outbox.cif.g08.bks.cpg/sg2_144_cif.got.tgz:286920.got - 2010.06.03 11:33:40.
