data_PCOD9109075
_publ_section_title
;
Structure prediction by ZEFSAII (Michael W. Deem and Ramdas Pophale) SiO2 
 PCOD9109075
Probable space group: P -1
;
_chemical_formula_sum "Si O2"
_cell_formula_units_Z 14
_cell_length_a 10.106184
_cell_length_b 7.251838
_cell_length_c 23.363352
_cell_angle_alpha 56.787789
_cell_angle_beta 29.247654
_cell_angle_gamma 70.257868
_cell_volume 657.519790
_symmetry_space_group_name_H-M "P -1"
_symmetry_group_IT_number 2
_symmetry_cell_setting 'triclinic'
loop_
_space_group_symop_operation_xyz
x,y,z
-x,-y,-z
loop_
_atom_site_type_symbol
_atom_site_label
_atom_site_fract_x
_atom_site_fract_y
_atom_site_fract_z
Si Si1 0.421705 0.733196 0.651895
Si Si2 0.044524 0.593460 0.332577
Si Si3 0.317468 0.754962 0.555869
Si Si4 0.782247 0.952456 0.738665
Si Si5 0.196735 0.559032 0.064085
Si Si6 0.013918 0.211691 0.501314
Si Si7 0.563984 0.272321 0.937794
O O1 0.424736 0.711683 0.585208
O O2 0.689476 0.707271 0.588776
O O3 0.130227 0.535986 0.816793
O O4 0.455999 0.009489 0.598069
O O5 0.106316 0.855284 0.286316
O O6 0.996822 0.422751 0.433617
O O7 0.783336 0.468313 0.409478
O O8 0.323653 0.609141 0.185749
O O9 0.699890 0.662347 0.948468
O O10 0.030149 0.834011 0.658402
O O11 0.776900 0.095851 0.658545
O O12 0.462766 0.771192 0.901503
O O13 0.201659 0.626606 0.117607
O O14 0.000000 0.000000 0.500000
O O15 0.500000 0.000000 0.000000
#
# Coordination Sequence:
#
# PCOD9109075 Si02
#       7
#     2   2   2   2   2   2   2
#     4  10  21  37  65  90 125 162 200 263 308 353
#     4  12  21  39  69  89 120 168 211 242 304 378
#     4  10  20  41  62  91 124 159 207 258 304 354
#     4  11  22  38  68  93 120 166 208 248 306 377
#     4  11  20  38  62  95 125 155 202 258 310 351
#     4  11  22  44  64  84 127 171 206 248 309 371
#     4  11  21  36  64  95 125 162 203 250 306 372
#
# _framework density 21.292134999999998
#
# number of rings (size 3 to 8) (size 9 to 14) (size 15 to 20)
#    0.000    1.143    7.143    1.286    0.000    0.000 
#    0.000   12.857    0.000    0.000    0.000    0.000 
#    0.000    0.000    0.000    0.000    0.000    0.000 
#
# Total GULP energy -78143.707750 kJ/mol
# GULP energy per Si atom -5581.693411 kJ/mol
# Density = 2.124367 g / cm^3
# Si number density = 21.292135 Si / 1000 Ang^3
#
#
#
# Elastic Constant Matrix: (Units=GPa)
#
#
# Indices 1 2 3 4 5 6 
#
# 1 102.2562 24.7158 54.3565 -6.4282 2.4620 5.0878
# 2 24.7158 101.6244 33.0751 -22.6209 -4.7317 33.5811
# 3 54.3565 33.0751 162.3729 -18.9377 -5.6116 2.9402
# 4 -6.4282 -22.6209 -18.9377 26.0408 4.9040 -3.6621
# 5 2.4620 -4.7317 -5.6116 4.9040 37.3718 -3.0986
# 6 5.0878 33.5811 2.9402 -3.6621 -3.0986 33.1259
#
#
#
# Elastic Compliance Matrix: (Units=1/GPa)
#
#
# Indices 1 2 3 4 5 6 
#
# 1 0.012315 -0.002264 -0.003885 -0.001413 -0.001458 0.000455
# 2 -0.002264 0.019750 -0.001430 0.013153 -0.000797 -0.018167
# 3 -0.003885 -0.001430 0.008198 0.003839 0.000954 0.001832
# 4 -0.001413 0.013153 0.003839 0.052094 -0.005180 -0.008183
# 5 -0.001458 -0.000797 0.000954 -0.005180 0.027823 0.002977
# 6 0.000455 -0.018167 0.001832 -0.008183 0.002977 0.047746
#
#
# Mechanical properties :
#
#
# Convention : Reuss Voigt Hill
#
# Bulk Modulus (GPa) = 39.83085 65.61649 52.72367
# Shear Modulus (GPa) = 26.11617 36.24810 31.18214
#
# Velocity S-wave (km/s) = 3.50603 4.13051 3.83102
# Velocity P-wave (km/s) = 5.92766 7.32341 6.66219
#
# Compressibility (1/GPa) = 0.02510617
#
# Stress axis : x y z
#
# Youngs Moduli (GPa) = 81.19982 50.63328 121.98093
#
# Poissons Ratio (x) = 0.11462 0.47390
# Poissons Ratio (y) = 0.18381 0.17441
# Poissons Ratio (z) = 0.31547 0.07239
#
# Static dielectric constant tensor:
#      x y z
#    x 1.764740 0.003780 0.009760 
#    y 0.003780 1.807400 -0.005000 
#    z 0.009760 -0.005000 1.847310 
# 
# From -- ./inp_files/467606.got.cif
#   From: 2010.05.17/outbox.cif.g08.bks.cpg/sg2_234_cif.got.tgz:467606.got - 2010.06.03 11:33:40.
