data_PCOD9109271
_publ_section_title
;
Structure prediction by ZEFSAII (Michael W. Deem and Ramdas Pophale) SiO2 
 PCOD9109271
Probable space group: P -1
;
_chemical_formula_sum "Si O2"
_cell_formula_units_Z 16
_cell_length_a 8.928013
_cell_length_b 9.200933
_cell_length_c 14.105896
_cell_angle_alpha 92.367945
_cell_angle_beta 131.701841
_cell_angle_gamma 64.414195
_cell_volume 726.380656
_symmetry_space_group_name_H-M "P -1"
_symmetry_group_IT_number 2
_symmetry_cell_setting 'triclinic'
loop_
_space_group_symop_operation_xyz
x,y,z
-x,-y,-z
loop_
_atom_site_type_symbol
_atom_site_label
_atom_site_fract_x
_atom_site_fract_y
_atom_site_fract_z
Si Si1 0.238402 0.556722 0.928374
Si Si2 0.732913 0.307573 0.574932
Si Si3 0.907182 0.740413 0.434828
Si Si4 0.412226 0.434108 0.183162
Si Si5 0.066092 0.794222 0.140681
Si Si6 0.160423 0.086675 0.144583
Si Si7 0.811193 0.510706 0.294238
Si Si8 0.410215 0.886508 0.617097
O O1 0.122245 0.526261 0.788456
O O2 0.085877 0.751794 0.909626
O O3 0.500000 0.500000 0.000000
O O4 0.276990 0.437971 0.031169
O O5 0.500000 0.500000 0.500000
O O6 0.919009 0.221998 0.739006
O O7 0.646001 0.180516 0.503552
O O8 0.870323 0.320143 0.542587
O O9 0.738075 0.700525 0.301273
O O10 0.969535 0.626761 0.552594
O O11 0.806461 0.932165 0.431447
O O12 0.230008 0.594927 0.174457
O O13 0.608960 0.473801 0.234311
O O14 0.526814 0.259417 0.282839
O O15 0.176830 0.909084 0.165716
O O16 0.852087 0.877077 0.973753
O O17 0.366553 0.092160 0.285873
#
# Coordination Sequence:
#
# PCOD9109271 Si02
#       8
#     2   2   2   2   2   2   2   2
#     4   9  21  38  66  92 123 169 215 263 316 384
#     4  12  25  42  67  96 133 173 213 266 330 385
#     4  11  25  41  65  92 132 173 214 266 320 387
#     4  10  20  41  64  91 131 167 209 269 327 375
#     4  10  22  44  66  91 130 171 215 264 328 383
#     4  10  24  42  67  97 129 168 221 270 320 381
#     4  10  21  41  64  89 127 170 220 257 322 378
#     4  12  25  41  66  98 135 167 217 269 326 379
#
# _framework density 22.02702
#
# number of rings (size 3 to 8) (size 9 to 14) (size 15 to 20)
#    0.000    1.500    2.500    1.125    3.500    6.500 
#    0.000    1.250    0.000    0.000    0.000    0.000 
#    0.000    0.000    0.000    0.000    0.000    0.000 
#
# Total GULP energy -89277.052961 kJ/mol
# GULP energy per Si atom -5579.815810 kJ/mol
# Density = 2.197689 g / cm^3
# Si number density = 22.027020 Si / 1000 Ang^3
#
#
#
# Elastic Constant Matrix: (Units=GPa)
#
#
# Indices 1 2 3 4 5 6 
#
# 1 38.3438 17.5718 15.6676 3.4892 0.3745 -12.5257
# 2 17.5718 113.1670 32.0989 4.4370 -10.0253 -13.4904
# 3 15.6676 32.0989 83.4108 15.1574 -36.2071 -18.3022
# 4 3.4892 4.4370 15.1574 36.7465 -8.0019 0.8112
# 5 0.3745 -10.0253 -36.2071 -8.0019 38.7275 6.2109
# 6 -12.5257 -13.4904 -18.3022 0.8112 6.2109 30.8000
#
#
#
# Elastic Compliance Matrix: (Units=1/GPa)
#
#
# Indices 1 2 3 4 5 6 
#
# 1 0.033848 -0.002868 -0.006584 -0.002437 -0.009423 0.010561
# 2 -0.002868 0.010372 -0.003510 0.000275 -0.000742 0.001433
# 3 -0.006584 -0.003510 0.026596 -0.005350 0.021737 0.007347
# 4 -0.002437 0.000275 -0.005350 0.030210 0.002182 -0.005286
# 5 -0.009423 -0.000742 0.021737 0.002182 0.046605 -0.000696
# 6 0.010561 0.001433 0.007347 -0.005286 -0.000696 0.042035
#
#
# Mechanical properties :
#
#
# Convention : Reuss Voigt Hill
#
# Bulk Modulus (GPa) = 22.27640 40.62202 31.44921
# Shear Modulus (GPa) = 21.68665 32.56035 27.12350
#
# Velocity S-wave (km/s) = 3.14115 3.84891 3.51290
# Velocity P-wave (km/s) = 4.82607 6.18337 5.54640
#
# Compressibility (1/GPa) = 0.04489056
#
# Stress axis : x y z
#
# Youngs Moduli (GPa) = 29.54348 96.41489 37.59930
#
# Poissons Ratio (x) = 0.27656 0.24756
# Poissons Ratio (y) = 0.08474 0.13198
# Poissons Ratio (z) = 0.19452 0.33844
#
# Static dielectric constant tensor:
#      x y z
#    x 1.810910 0.010880 0.036100 
#    y 0.010880 1.807600 0.073790 
#    z 0.036100 0.073790 1.924530 
# 
# From -- ./inp_files/494967.got.cif
#   From: 2010.05.17/outbox.cif.g08.bks.cpg/sg2_248_cif.got.tgz:494967.got - 2010.06.03 11:33:40.
