data_PCOD9109017
_publ_section_title
;
Structure prediction by ZEFSAII (Michael W. Deem and Ramdas Pophale) SiO2 
 PCOD9109017
Probable space group: P -1
;
_chemical_formula_sum "Si O2"
_cell_formula_units_Z 14
_cell_length_a 6.881180
_cell_length_b 18.419352
_cell_length_c 26.796668
_cell_angle_alpha 19.354570
_cell_angle_beta 130.235757
_cell_angle_gamma 141.031382
_cell_volume 642.302949
_symmetry_space_group_name_H-M "P -1"
_symmetry_group_IT_number 2
_symmetry_cell_setting 'triclinic'
loop_
_space_group_symop_operation_xyz
x,y,z
-x,-y,-z
loop_
_atom_site_type_symbol
_atom_site_label
_atom_site_fract_x
_atom_site_fract_y
_atom_site_fract_z
Si Si1 0.333786 0.122761 0.726561
Si Si2 0.119380 0.315248 0.203100
Si Si3 0.171272 0.324612 0.409244
Si Si4 0.262230 0.452572 0.569642
Si Si5 0.866181 0.273658 0.793773
Si Si6 0.541141 0.375046 0.837024
Si Si7 0.272424 0.510587 0.992480
O O1 0.133240 0.162309 0.707326
O O2 0.431638 0.303239 0.575293
O O3 0.682222 0.251433 0.727554
O O4 0.106494 0.791735 0.887425
O O5 0.312212 0.507627 0.159516
O O6 0.324528 0.478938 0.079587
O O7 0.036736 0.012755 0.393908
O O8 0.766874 0.253432 0.177606
O O9 0.557594 0.505857 0.375945
O O10 0.053292 0.470854 0.324857
O O11 0.189920 0.393748 0.309452
O O12 0.000000 0.500000 0.500000
O O13 0.205875 0.331964 0.803948
O O14 0.586814 0.947499 0.982481
O O15 0.500000 0.500000 0.000000
#
# Coordination Sequence:
#
# PCOD9109017 Si02
#       7
#     2   2   2   2   2   2   2
#     4  10  20  41  61  93 126 156 213 265 304 380
#     4  11  25  44  64  94 129 162 217 261 305 387
#     4  11  23  40  63  94 129 165 209 258 309 376
#     4  10  21  35  65  94 124 161 203 262 322 367
#     4  10  23  42  64  92 127 164 212 263 308 374
#     4  11  23  43  66  92 126 171 208 255 318 370
#     4  11  25  43  66  91 128 170 207 262 321 370
#
# _framework density 21.796565999999999
#
# number of rings (size 3 to 8) (size 9 to 14) (size 15 to 20)
#    0.000    1.429    2.857    1.714    2.000    2.857 
#   10.286    0.000    0.000    0.000    0.000    0.000 
#    0.000    0.000    0.000    0.000    0.000    0.000 
#
# Total GULP energy -78208.895731 kJ/mol
# GULP energy per Si atom -5586.349695 kJ/mol
# Density = 2.174696 g / cm^3
# Si number density = 21.796566 Si / 1000 Ang^3
#
#
#
# Elastic Constant Matrix: (Units=GPa)
#
#
# Indices 1 2 3 4 5 6 
#
# 1 69.5439 18.7274 25.2427 12.5570 5.6554 -19.0156
# 2 18.7274 76.6990 12.6231 17.0336 -6.6038 -28.4077
# 3 25.2427 12.6231 116.3329 9.8305 19.7115 -17.8516
# 4 12.5570 17.0336 9.8305 32.5034 -8.9526 0.1891
# 5 5.6554 -6.6038 19.7115 -8.9526 34.3387 6.2446
# 6 -19.0156 -28.4077 -17.8516 0.1891 6.2446 31.4534
#
#
#
# Elastic Compliance Matrix: (Units=1/GPa)
#
#
# Indices 1 2 3 4 5 6 
#
# 1 0.021520 0.003697 0.000656 -0.013343 -0.010109 0.018809
# 2 0.003697 0.025828 0.003837 -0.018505 -0.008023 0.029444
# 3 0.000656 0.003837 0.012905 -0.009473 -0.011716 0.013569
# 4 -0.013343 -0.018505 -0.009473 0.055580 0.025015 -0.035457
# 5 -0.010109 -0.008023 -0.011716 0.025015 0.047885 -0.029664
# 6 0.018809 0.029444 0.013569 -0.035457 -0.029664 0.083561
#
#
# Mechanical properties :
#
#
# Convention : Reuss Voigt Hill
#
# Bulk Modulus (GPa) = 13.04930 41.75136 27.40033
# Shear Modulus (GPa) = 19.49739 33.39127 26.44433
#
# Velocity S-wave (km/s) = 2.99409 3.91826 3.48693
# Velocity P-wave (km/s) = 4.23705 6.29817 5.36748
#
# Compressibility (1/GPa) = 0.07663248
#
# Stress axis : x y z
#
# Youngs Moduli (GPa) = 46.46819 38.71746 77.48835
#
# Poissons Ratio (x) = -0.14313 -0.05083
# Poissons Ratio (y) = -0.17179 -0.29730
# Poissons Ratio (z) = -0.03048 -0.14855
#
# Static dielectric constant tensor:
#      x y z
#    x 1.791560 -0.010690 0.028250 
#    y -0.010690 1.779490 -0.016440 
#    z 0.028250 -0.016440 1.852860 
# 
# From -- ./inp_files/427510.got.cif
#   From: 2010.05.17/outbox.cif.g08.bks.cpg/sg2_214_cif.got.tgz:427510.got - 2010.06.03 11:33:40.
