data_PCOD9109898
_publ_section_title
;
Structure prediction by ZEFSAII (Michael W. Deem and Ramdas Pophale) SiO2 
 PCOD9109898
Probable space group: P -1
;
_chemical_formula_sum "Si O2"
_cell_formula_units_Z 16
_cell_length_a 16.678089
_cell_length_b 8.355096
_cell_length_c 11.282988
_cell_angle_alpha 120.798013
_cell_angle_beta 35.298786
_cell_angle_gamma 125.844163
_cell_volume 734.496757
_symmetry_space_group_name_H-M "P -1"
_symmetry_group_IT_number 2
_symmetry_cell_setting 'triclinic'
loop_
_space_group_symop_operation_xyz
x,y,z
-x,-y,-z
loop_
_atom_site_type_symbol
_atom_site_label
_atom_site_fract_x
_atom_site_fract_y
_atom_site_fract_z
Si Si1 0.204533 0.252824 0.816292
Si Si2 0.612355 0.190217 0.506277
Si Si3 0.146384 0.104154 0.216450
Si Si4 0.166084 0.903813 0.356472
Si Si5 0.884000 0.141113 0.060100
Si Si6 0.559325 0.555655 0.081003
Si Si7 0.617619 0.941679 0.628652
Si Si8 0.327034 0.661873 0.960329
O O1 0.314208 0.211356 0.572802
O O2 0.277892 0.460368 0.870231
O O3 0.168742 0.068556 0.882466
O O4 0.050858 0.245531 0.939908
O O5 0.767627 0.249164 0.273332
O O6 0.539022 0.355445 0.682847
O O7 0.500000 0.000000 0.500000
O O8 0.641532 0.117814 0.573464
O O9 0.993871 0.148030 0.411902
O O10 0.175997 0.062002 0.300499
O O11 0.282333 0.276710 0.064239
O O12 0.123990 0.913415 0.088749
O O13 0.292581 0.984720 0.331963
O O14 0.190814 0.718880 0.192539
O O15 0.582273 0.372278 0.049408
O O16 0.500000 0.500000 0.000000
O O17 0.443317 0.841232 0.818342
#
# Coordination Sequence:
#
# PCOD9109898 Si02
#       8
#     2   2   2   2   2   2   2   2
#     4  10  21  39  65  94 120 162 208 260 317 358
#     4  11  22  39  69  92 119 173 209 246 312 375
#     4  11  22  45  66  87 127 169 214 253 303 389
#     4  11  25  41  68  91 123 175 207 252 323 368
#     4  10  20  41  68  88 122 166 214 254 301 386
#     4  12  24  40  62  96 130 161 208 264 309 365
#     4  11  22  42  64  92 130 166 206 253 314 384
#     4  12  24  40  61  98 129 158 206 266 314 360
#
# _framework density 21.783622000000001
#
# number of rings (size 3 to 8) (size 9 to 14) (size 15 to 20)
#    0.000    1.000    3.750    3.750    0.000    1.500 
#    0.000    0.625    0.000    0.000    0.000    0.000 
#    0.000    0.000    0.000    0.000    0.000    0.000 
#
# Total GULP energy -89538.168240 kJ/mol
# GULP energy per Si atom -5596.135515 kJ/mol
# Density = 2.173404 g / cm^3
# Si number density = 21.783622 Si / 1000 Ang^3
#
#
#
# Elastic Constant Matrix: (Units=GPa)
#
#
# Indices 1 2 3 4 5 6 
#
# 1 70.7120 6.0883 7.7828 -9.6253 8.3993 17.0797
# 2 6.0883 18.2162 17.6192 11.0624 -5.1774 9.2598
# 3 7.7828 17.6192 148.9778 9.5576 -17.3037 -0.5992
# 4 -9.6253 11.0624 9.5576 23.8005 4.1847 -4.0423
# 5 8.3993 -5.1774 -17.3037 4.1847 32.1774 5.2824
# 6 17.0797 9.2598 -0.5992 -4.0423 5.2824 23.4514
#
#
#
# Elastic Compliance Matrix: (Units=1/GPa)
#
#
# Indices 1 2 3 4 5 6 
#
# 1 0.020536 -0.022570 -0.001243 0.021580 -0.012544 0.000468
# 2 -0.022570 0.277965 -0.010451 -0.174705 0.091403 -0.144286
# 3 -0.001243 -0.010451 0.008164 0.001586 0.001995 0.005064
# 4 0.021580 -0.174705 0.001586 0.159931 -0.069537 0.096536
# 5 -0.012544 0.091403 0.001995 -0.069537 0.068077 -0.054224
# 6 0.000468 -0.144286 0.005064 0.096536 -0.054224 0.128255
#
#
# Mechanical properties :
#
#
# Convention : Reuss Voigt Hill
#
# Bulk Modulus (GPa) = 4.19925 33.43185 18.81555
# Shear Modulus (GPa) = 6.16649 29.64691 17.90670
#
# Velocity S-wave (km/s) = 1.68432 3.69314 2.87021
# Velocity P-wave (km/s) = 2.39050 5.79364 4.43175
#
# Compressibility (1/GPa) = 0.23813793
#
# Stress axis : x y z
#
# Youngs Moduli (GPa) = 48.69461 3.59757 122.49253
#
# Poissons Ratio (x) = 0.08120 0.15227
# Poissons Ratio (y) = 1.09901 1.28017
# Poissons Ratio (z) = 0.06053 0.03760
#
# Static dielectric constant tensor:
#      x y z
#    x 1.801010 -0.011300 0.002910 
#    y -0.011300 1.759690 -0.000220 
#    z 0.002910 -0.000220 1.795900 
# 
# From -- ./inp_files/297764.got.cif
#   From: 2010.05.17/outbox.cif.g08.bks.cpg/sg2_149_cif.got.tgz:297764.got - 2010.06.03 11:33:40.
