data_PCOD9109047
_publ_section_title
;
Structure prediction by ZEFSAII (Michael W. Deem and Ramdas Pophale) SiO2 
 PCOD9109047
Probable space group: P -1
;
_chemical_formula_sum "Si O2"
_cell_formula_units_Z 16
_cell_length_a 15.512225
_cell_length_b 12.529240
_cell_length_c 7.048005
_cell_angle_alpha 70.211988
_cell_angle_beta 96.337677
_cell_angle_gamma 151.013255
_cell_volume 570.458595
_symmetry_space_group_name_H-M "P -1"
_symmetry_group_IT_number 2
_symmetry_cell_setting 'triclinic'
loop_
_space_group_symop_operation_xyz
x,y,z
-x,-y,-z
loop_
_atom_site_type_symbol
_atom_site_label
_atom_site_fract_x
_atom_site_fract_y
_atom_site_fract_z
Si Si1 0.094857 0.945549 0.825916
Si Si2 0.874744 0.088956 0.564143
Si Si3 0.173401 0.312667 0.789923
Si Si4 0.202886 0.629497 0.345782
Si Si5 0.772883 0.206557 0.082849
Si Si6 0.427295 0.654971 0.331490
Si Si7 0.223281 0.594215 0.790498
Si Si8 0.566322 0.689070 0.013692
O O1 0.128105 0.986802 0.585046
O O2 0.284610 0.171997 0.865963
O O3 0.946749 0.863603 0.941222
O O4 0.979044 0.692853 0.000178
O O5 0.008955 0.179181 0.697039
O O6 0.986645 0.336827 0.408396
O O7 0.681599 0.886272 0.756189
O O8 0.306479 0.571679 0.754968
O O9 0.324209 0.449920 0.580889
O O10 0.258030 0.805551 0.139917
O O11 0.321745 0.654182 0.302738
O O12 0.201053 0.637499 0.565308
O O13 0.675331 0.202323 0.165001
O O14 0.649270 0.950862 0.258725
O O15 0.416308 0.586654 0.161835
O O16 0.000000 0.500000 0.000000
O O17 0.500000 0.500000 0.000000
#
# Coordination Sequence:
#
# PCOD9109047 Si02
#       8
#     2   2   2   2   2   2   2   2
#     4   9  16  37  63  83 117 161 202 252 302 366
#     4   9  17  36  66  82 116 167 195 253 306 363
#     4   7  17  35  59  81 116 161 195 247 301 357
#     4  10  20  41  62  85 130 164 203 249 304 369
#     4  12  23  34  61  96 126 168 202 243 305 378
#     4  10  22  40  59  93 127 161 210 256 307 357
#     4   8  17  34  57  84 117 157 199 239 301 354
#     4  11  23  40  61  89 125 161 205 259 314 363
#
# _framework density 28.047611
#
# number of rings (size 3 to 8) (size 9 to 14) (size 15 to 20)
#    0.750    2.000    2.500    1.125    0.000    3.000 
#    0.000   10.625    0.000    3.750    0.000    0.000 
#    0.000    0.000    0.000    0.000    0.000    0.000 
#
# Total GULP energy -89288.882063 kJ/mol
# GULP energy per Si atom -5580.555129 kJ/mol
# Density = 2.798377 g / cm^3
# Si number density = 28.047611 Si / 1000 Ang^3
#
#
#
# Elastic Constant Matrix: (Units=GPa)
#
#
# Indices 1 2 3 4 5 6 
#
# 1 77.1303 -52.7356 -26.4948 49.8189 -25.6637 40.8922
# 2 -52.7356 843.2005 619.7096 -419.3067 163.4879 -374.9668
# 3 -26.4948 619.7096 666.7271 -328.1485 127.9695 -290.1551
# 4 49.8189 -419.3067 -328.1485 318.7361 -110.5885 222.0789
# 5 -25.6637 163.4879 127.9695 -110.5885 85.4477 -81.4378
# 6 40.8922 -374.9668 -290.1551 222.0789 -81.4378 226.5507
#
#
#
# Elastic Compliance Matrix: (Units=1/GPa)
#
#
# Indices 1 2 3 4 5 6 
#
# 1 0.015824 -0.000967 -0.001437 -0.001640 0.003290 -0.003508
# 2 -0.000967 0.006961 -0.002790 0.002002 -0.001473 0.005630
# 3 -0.001437 -0.002790 0.004982 0.000690 -0.000576 0.001138
# 4 -0.001640 0.002002 0.000690 0.013058 0.005516 -0.006324
# 5 0.003290 -0.001473 -0.000576 0.005516 0.022460 -0.001104
# 6 -0.003508 0.005630 0.001138 -0.006324 -0.001104 0.021626
#
#
# Mechanical properties :
#
#
# Convention : Reuss Voigt Hill
#
# Bulk Modulus (GPa) = 57.54804 296.44625 176.99714
# Shear Modulus (GPa) = 49.45921 195.91880 122.68901
#
# Velocity S-wave (km/s) = 4.20384 8.36683 6.62103
# Velocity P-wave (km/s) = 6.64271 14.11602 11.03149
#
# Compressibility (1/GPa) = 0.01737679
#
# Stress axis : x y z
#
# Youngs Moduli (GPa) = 63.19636 143.65164 200.73417
#
# Poissons Ratio (x) = 0.13897 0.28850
# Poissons Ratio (y) = 0.06114 0.56011
# Poissons Ratio (z) = 0.09083 0.40084
#
# Static dielectric constant tensor:
#      x y z
#    x 2.454740 -0.009140 -0.167400 
#    y -0.009140 2.200680 -0.059390 
#    z -0.167400 -0.059390 2.278550 
# 
# From -- ./inp_files/354131.got.cif
#   From: 2010.05.17/outbox.cif.g08.bks.cpg/sg2_178_cif.got.tgz:354131.got - 2010.06.03 11:33:40.
