data_PCOD9109035
_publ_section_title
;
Structure prediction by ZEFSAII (Michael W. Deem and Ramdas Pophale) SiO2 
 PCOD9109035
Probable space group: P -1
;
_chemical_formula_sum "Si O2"
_cell_formula_units_Z 16
_cell_length_a 11.851556
_cell_length_b 21.675074
_cell_length_c 18.170719
_cell_angle_alpha 162.010616
_cell_angle_beta 149.639093
_cell_angle_gamma 29.823864
_cell_volume 695.009395
_symmetry_space_group_name_H-M "P -1"
_symmetry_group_IT_number 2
_symmetry_cell_setting 'triclinic'
loop_
_space_group_symop_operation_xyz
x,y,z
-x,-y,-z
loop_
_atom_site_type_symbol
_atom_site_label
_atom_site_fract_x
_atom_site_fract_y
_atom_site_fract_z
Si Si1 0.468511 0.559566 0.342676
Si Si2 0.320535 0.180572 0.817861
Si Si3 0.606097 0.112498 0.749298
Si Si4 0.091429 0.037047 0.893636
Si Si5 0.525396 0.590486 0.234448
Si Si6 0.052336 0.923760 0.307018
Si Si7 0.421337 0.025650 0.853674
Si Si8 0.027694 0.514468 0.443556
O O1 0.478872 0.594642 0.300659
O O2 0.420028 0.791852 0.610943
O O3 0.733130 0.427639 0.367137
O O4 0.299218 0.417668 0.098199
O O5 0.471022 0.135392 0.776412
O O6 0.093729 0.107771 0.590010
O O7 0.450039 0.039675 0.798498
O O8 0.885627 0.008144 0.796574
O O9 0.500000 0.000000 0.500000
O O10 0.567971 0.347920 0.964664
O O11 0.013222 0.002888 0.729222
O O12 0.362878 0.917166 0.923969
O O13 0.079147 0.279951 0.174586
O O14 0.298698 0.743444 0.243388
O O15 0.769414 0.639575 0.412211
O O16 0.842542 0.841097 0.124613
O O17 0.000000 0.500000 0.500000
#
# Coordination Sequence:
#
# PCOD9109035 Si02
#       8
#     2   2   2   2   2   2   2   2
#     4   9  19  39  63  92 122 164 210 267 311 361
#     4  11  23  40  66  97 124 166 217 260 318 377
#     4  10  20  41  61  98 131 156 206 268 329 373
#     4  10  22  41  65  89 130 169 206 266 323 372
#     4   9  19  35  61  91 125 163 204 259 313 377
#     4  12  23  41  63  96 127 172 214 256 323 376
#     4  11  24  44  64  90 128 173 222 256 303 384
#     4   8  16  35  61  87 122 159 205 253 315 374
#
# _framework density 23.021270999999999
#
# number of rings (size 3 to 8) (size 9 to 14) (size 15 to 20)
#    0.000    2.000    2.500    1.500    0.000    3.000 
#    4.500    1.250    0.000    4.500    0.000    0.000 
#    0.000    0.000    0.000    0.000    0.000    0.000 
#
# Total GULP energy -89308.742864 kJ/mol
# GULP energy per Si atom -5581.796429 kJ/mol
# Density = 2.296887 g / cm^3
# Si number density = 23.021271 Si / 1000 Ang^3
#
#
#
# Elastic Constant Matrix: (Units=GPa)
#
#
# Indices 1 2 3 4 5 6 
#
# 1 49.9507 33.8476 -3.8676 -9.0965 12.9894 -7.9183
# 2 33.8476 132.9865 36.1023 -41.1533 13.6200 -10.9522
# 3 -3.8676 36.1023 65.2051 -7.2390 9.4852 7.0250
# 4 -9.0965 -41.1533 -7.2390 41.8453 -5.2970 8.2033
# 5 12.9894 13.6200 9.4852 -5.2970 30.0462 -6.7405
# 6 -7.9183 -10.9522 7.0250 8.2033 -6.7405 19.7920
#
#
#
# Elastic Compliance Matrix: (Units=1/GPa)
#
#
# Indices 1 2 3 4 5 6 
#
# 1 0.029654 -0.009479 0.008200 -0.003120 -0.011412 0.001115
# 2 -0.009479 0.016083 -0.009039 0.011673 0.002705 0.004399
# 3 0.008200 -0.009039 0.023450 -0.001829 -0.010022 -0.012700
# 4 -0.003120 0.011673 -0.001829 0.036242 0.001049 -0.008804
# 5 -0.011412 0.002705 -0.010022 0.001049 0.043688 0.014933
# 6 0.001115 0.004399 -0.012700 -0.008804 0.014933 0.066648
#
#
# Mechanical properties :
#
#
# Convention : Reuss Voigt Hill
#
# Bulk Modulus (GPa) = 20.59577 42.25632 31.42604
# Shear Modulus (GPa) = 19.79546 30.47403 25.13475
#
# Velocity S-wave (km/s) = 2.93555 3.64226 3.30783
# Velocity P-wave (km/s) = 4.52280 6.00694 5.31691
#
# Compressibility (1/GPa) = 0.04855367
#
# Stress axis : x y z
#
# Youngs Moduli (GPa) = 33.72265 62.17601 42.64359
#
# Poissons Ratio (x) = 0.58934 -0.34970
# Poissons Ratio (y) = 0.31964 0.38544
# Poissons Ratio (z) = -0.27654 0.56199
#
# Static dielectric constant tensor:
#      x y z
#    x 1.873060 -0.065330 0.004320 
#    y -0.065330 1.867840 0.041380 
#    z 0.004320 0.041380 1.885300 
# 
# From -- ./inp_files/278498.got.cif
#   From: 2010.05.17/outbox.cif.g08.bks.cpg/sg2_140_cif.got.tgz:278498.got - 2010.06.03 11:33:40.
