data_PCOD9109874
_publ_section_title
;
Structure prediction by ZEFSAII (Michael W. Deem and Ramdas Pophale) SiO2 
 PCOD9109874
Probable space group: P -1
;
_chemical_formula_sum "Si O2"
_cell_formula_units_Z 12
_cell_length_a 7.599888
_cell_length_b 12.173553
_cell_length_c 7.945666
_cell_angle_alpha 56.524140
_cell_angle_beta 123.726620
_cell_angle_gamma 88.014646
_cell_volume 444.152475
_symmetry_space_group_name_H-M "P -1"
_symmetry_group_IT_number 2
_symmetry_cell_setting 'triclinic'
loop_
_space_group_symop_operation_xyz
x,y,z
-x,-y,-z
loop_
_atom_site_type_symbol
_atom_site_label
_atom_site_fract_x
_atom_site_fract_y
_atom_site_fract_z
Si Si1 0.080828 0.782736 0.745203
Si Si2 0.828285 0.519757 0.047705
Si Si3 0.750644 0.537690 0.449525
Si Si4 0.510190 0.204166 0.184023
Si Si5 0.512294 0.940113 0.247758
Si Si6 0.304558 0.726865 0.276800
O O1 0.237788 0.610695 0.903317
O O2 0.201781 0.865692 0.634810
O O3 0.135386 0.776160 0.978142
O O4 0.801738 0.833975 0.519359
O O5 0.607262 0.688123 0.810281
O O6 0.993909 0.484860 0.331510
O O7 0.000000 0.500000 0.000000
O O8 0.608448 0.678480 0.132410
O O9 0.575940 0.604249 0.464623
O O10 0.774016 0.373686 0.566412
O O11 0.437286 0.076631 0.223503
O O12 0.338533 0.866976 0.232207
O O13 0.500000 0.000000 0.000000
#
# Coordination Sequence:
#
# PCOD9109874 Si02
#       6
#     2   2   2   2   2   2
#     4  11  22  41  70 100 142 185 226 282 355 418
#     4  12  23  42  71 101 142 185 235 295 341 399
#     4  10  20  41  68 100 136 182 237 280 340 418
#     4  11  25  41  69 110 137 181 240 281 348 422
#     4  12  22  42  70 104 147 184 221 292 360 416
#     4  10  21  38  71 101 135 186 229 277 355 415
#
# _framework density 27.017748000000001
#
# number of rings (size 3 to 8) (size 9 to 14) (size 15 to 20)
#    0.000    1.000    6.667    1.500    0.000    0.000 
#    0.000    1.667    0.000    0.000    0.000    1.167 
#    0.000    0.000    0.000    0.000    0.000    0.000 
#
# Total GULP energy -67212.205785 kJ/mol
# GULP energy per Si atom -5601.017149 kJ/mol
# Density = 2.695625 g / cm^3
# Si number density = 27.017748 Si / 1000 Ang^3
#
#
#
# Elastic Constant Matrix: (Units=GPa)
#
#
# Indices 1 2 3 4 5 6 
#
# 1 77.7940 48.0995 23.8992 -4.2827 -1.0861 7.9377
# 2 48.0995 211.7752 36.5875 -15.2299 -1.8888 44.8049
# 3 23.8992 36.5875 145.2095 25.2847 4.2599 11.1917
# 4 -4.2827 -15.2299 25.2847 37.5840 3.1325 4.8918
# 5 -1.0861 -1.8888 4.2599 3.1325 43.4700 -5.2430
# 6 7.9377 44.8049 11.1917 4.8918 -5.2430 54.4850
#
#
#
# Elastic Compliance Matrix: (Units=1/GPa)
#
#
# Indices 1 2 3 4 5 6 
#
# 1 0.015500 -0.003157 -0.002132 0.001802 0.000408 0.000653
# 2 -0.003157 0.007217 -0.001622 0.004435 -0.000601 -0.005598
# 3 -0.002132 -0.001622 0.008821 -0.006850 -0.000446 0.000405
# 4 0.001802 0.004435 -0.006850 0.034158 -0.002250 -0.005786
# 5 0.000408 -0.000601 -0.000446 -0.002250 0.023556 0.002995
# 6 0.000653 -0.005598 0.000405 -0.005786 0.002995 0.023586
#
#
# Mechanical properties :
#
#
# Convention : Reuss Voigt Hill
#
# Bulk Modulus (GPa) = 56.44581 72.43899 64.44240
# Shear Modulus (GPa) = 37.71763 48.85398 43.28581
#
# Velocity S-wave (km/s) = 3.74040 4.25693 4.00700
# Velocity P-wave (km/s) = 6.29219 7.14365 6.73140
#
# Compressibility (1/GPa) = 0.01771611
#
# Stress axis : x y z
#
# Youngs Moduli (GPa) = 64.51811 138.55918 113.36934
#
# Poissons Ratio (x) = 0.43745 0.24165
# Poissons Ratio (y) = 0.20369 0.18388
# Poissons Ratio (z) = 0.13752 0.22474
#
# Static dielectric constant tensor:
#      x y z
#    x 2.264090 0.001200 -0.056460 
#    y 0.001200 2.192980 -0.020930 
#    z -0.056460 -0.020930 2.092300 
# 
# From -- ./inp_files/175597.got.cif
#   From: 2010.05.17/outbox.cif.g08.bks.cpg/sg2_88_cif.got.tgz:175597.got - 2010.06.03 11:33:40.
