data_PCOD9109783
_publ_section_title
;
Structure prediction by ZEFSAII (Michael W. Deem and Ramdas Pophale) SiO2 
 PCOD9109783
Probable space group: P -1
;
_chemical_formula_sum "Si O2"
_cell_formula_units_Z 14
_cell_length_a 20.417298
_cell_length_b 6.262567
_cell_length_c 6.396767
_cell_angle_alpha 75.060406
_cell_angle_beta 113.428381
_cell_angle_gamma 123.566778
_cell_volume 624.567974
_symmetry_space_group_name_H-M "P -1"
_symmetry_group_IT_number 2
_symmetry_cell_setting 'triclinic'
loop_
_space_group_symop_operation_xyz
x,y,z
-x,-y,-z
loop_
_atom_site_type_symbol
_atom_site_label
_atom_site_fract_x
_atom_site_fract_y
_atom_site_fract_z
Si Si1 0.059703 0.158729 0.225823
Si Si2 0.553860 0.820270 0.758542
Si Si3 0.942200 0.232919 0.378626
Si Si4 0.681797 0.839499 0.622721
Si Si5 0.621660 0.551349 0.225555
Si Si6 0.669562 0.353511 0.965360
Si Si7 0.810096 0.304998 0.939954
O O1 0.002425 0.206162 0.299028
O O2 0.089164 0.991170 0.433336
O O3 0.133972 0.421231 0.166108
O O4 0.000000 0.000000 0.000000
O O5 0.598895 0.842239 0.590158
O O6 0.455095 0.656818 0.680409
O O7 0.584961 0.665143 0.981501
O O8 0.589425 0.095603 0.843903
O O9 0.869156 0.233150 0.158889
O O10 0.000000 0.500000 0.500000
O O11 0.680954 0.784651 0.391531
O O12 0.681314 0.598841 0.791810
O O13 0.757231 0.094310 0.750937
O O14 0.661094 0.413538 0.179941
O O15 0.746255 0.318441 0.015127
#
# Coordination Sequence:
#
# PCOD9109783 Si02
#       7
#     2   2   2   2   2   2   2
#     4  11  25  47  74 102 128 174 229 269 338 401
#     4   9  20  40  65  93 132 172 228 279 316 392
#     4  11  25  47  73 103 128 174 227 274 332 403
#     4  10  23  41  60  99 135 175 219 270 340 389
#     4  10  20  41  67  92 129 180 224 270 327 394
#     4  10  23  41  59  99 133 172 221 270 333 391
#     4  11  25  47  65  98 149 168 218 286 329 403
#
# _framework density 22.415493999999999
#
# number of rings (size 3 to 8) (size 9 to 14) (size 15 to 20)
#    0.000    1.714    1.429    1.286    2.000    2.857 
#   20.571    0.000    0.000    0.000    0.000    0.000 
#    0.000    0.000    0.000    0.000    0.000    0.000 
#
# Total GULP energy -78390.622961 kJ/mol
# GULP energy per Si atom -5599.330211 kJ/mol
# Density = 2.236448 g / cm^3
# Si number density = 22.415494 Si / 1000 Ang^3
#
#
#
# Elastic Constant Matrix: (Units=GPa)
#
#
# Indices 1 2 3 4 5 6 
#
# 1 84.3322 64.0792 63.0896 18.2653 5.3235 -5.0479
# 2 64.0792 159.5128 50.2923 12.2504 -6.3260 5.6397
# 3 63.0896 50.2923 92.8843 11.5922 -8.3798 -4.9695
# 4 18.2653 12.2504 11.5922 43.8468 -13.4015 -11.4742
# 5 5.3235 -6.3260 -8.3798 -13.4015 23.4946 8.5468
# 6 -5.0479 5.6397 -4.9695 -11.4742 8.5468 31.9689
#
#
#
# Elastic Compliance Matrix: (Units=1/GPa)
#
#
# Indices 1 2 3 4 5 6 
#
# 1 0.046284 -0.010649 -0.026210 -0.018263 -0.036107 0.008211
# 2 -0.010649 0.010268 0.001915 0.002602 0.009047 -0.004680
# 3 -0.026210 0.001915 0.028297 0.009112 0.022800 -0.002903
# 4 -0.018263 0.002602 0.009112 0.036739 0.027636 0.003871
# 5 -0.036107 0.009047 0.022800 0.027636 0.082895 -0.015996
# 6 0.008211 -0.004680 -0.002903 0.003871 -0.015996 0.038617
#
#
# Mechanical properties :
#
#
# Convention : Reuss Voigt Hill
#
# Bulk Modulus (GPa) = 66.84881 76.85016 71.84949
# Shear Modulus (GPa) = 15.72450 30.47995 23.10222
#
# Velocity S-wave (km/s) = 2.65146 3.69151 3.21384
# Velocity P-wave (km/s) = 6.26586 7.24765 6.77456
#
# Compressibility (1/GPa) = 0.01495913
#
# Stress axis : x y z
#
# Youngs Moduli (GPa) = 21.60574 97.39211 35.33984
#
# Poissons Ratio (x) = 1.03713 0.92627
# Poissons Ratio (y) = 0.23008 -0.06767
# Poissons Ratio (z) = 0.56629 -0.18648
#
# Static dielectric constant tensor:
#      x y z
#    x 1.812790 0.000330 -0.016560 
#    y 0.000330 1.812780 -0.027290 
#    z -0.016560 -0.027290 1.821410 
# 
# From -- ./inp_files/6639.got.cif
#   From: 2010.05.17/outbox.cif.g08.bks.cpg/sg2_4_cif.got.tgz:6639.got - 2010.06.03 11:33:40.
