data_PCOD9109029
_publ_section_title
;
Structure prediction by ZEFSAII (Michael W. Deem and Ramdas Pophale) SiO2 
 PCOD9109029
Probable space group: P -1
;
_chemical_formula_sum "Si O2"
_cell_formula_units_Z 16
_cell_length_a 12.078453
_cell_length_b 7.774129
_cell_length_c 8.214261
_cell_angle_alpha 100.365464
_cell_angle_beta 113.440321
_cell_angle_gamma 86.737824
_cell_volume 696.020880
_symmetry_space_group_name_H-M "P -1"
_symmetry_group_IT_number 2
_symmetry_cell_setting 'triclinic'
loop_
_space_group_symop_operation_xyz
x,y,z
-x,-y,-z
loop_
_atom_site_type_symbol
_atom_site_label
_atom_site_fract_x
_atom_site_fract_y
_atom_site_fract_z
Si Si1 0.436418 0.778432 0.076968
Si Si2 0.178843 0.807843 0.409992
Si Si3 0.026030 0.002479 0.825391
Si Si4 0.559832 0.194078 0.562319
Si Si5 0.842678 0.669359 0.937422
Si Si6 0.421700 0.204664 0.163228
Si Si7 0.993477 0.481312 0.230591
Si Si8 0.195542 0.701321 0.755040
O O1 0.473949 0.719858 0.270032
O O2 0.411348 0.989651 0.114688
O O3 0.531521 0.750938 0.983036
O O4 0.314369 0.684430 0.928079
O O5 0.294508 0.808079 0.361010
O O6 0.085160 0.645271 0.318226
O O7 0.229969 0.785248 0.616887
O O8 0.093858 0.970618 0.346834
O O9 0.107854 0.843431 0.803222
O O10 0.110097 0.175578 0.891495
O O11 0.000000 0.000000 0.000000
O O12 0.510500 0.261759 0.372618
O O13 0.500000 0.000000 0.500000
O O14 0.702394 0.701166 0.850089
O O15 0.912211 0.664377 0.803763
O O16 0.893778 0.499995 0.030387
O O17 0.900220 0.460383 0.323390
#
# Coordination Sequence:
#
# PCOD9109029 Si02
#       8
#     2   2   2   2   2   2   2   2
#     4  10  21  36  65  95 130 161 211 270 327 372
#     4  11  24  41  60  96 135 166 216 263 325 392
#     4  11  21  36  62  97 122 161 214 273 323 374
#     4  10  22  37  63  94 126 168 208 267 321 377
#     4  10  21  40  64  92 125 169 223 263 320 388
#     4  10  20  41  61  95 127 164 215 267 320 381
#     4  10  24  40  64  90 131 176 210 263 327 385
#     4  12  21  40  65  96 130 168 216 269 326 381
#
# _framework density 22.987815000000001
#
# number of rings (size 3 to 8) (size 9 to 14) (size 15 to 20)
#    0.000    1.500    3.750    1.500    5.250    0.000 
#    0.000    5.000    0.000    0.000    0.000    0.000 
#    0.000    0.000    0.000    0.000    0.000    0.000 
#
# Total GULP energy -89165.230801 kJ/mol
# GULP energy per Si atom -5572.826925 kJ/mol
# Density = 2.293549 g / cm^3
# Si number density = 22.987815 Si / 1000 Ang^3
#
#
#
# Elastic Constant Matrix: (Units=GPa)
#
#
# Indices 1 2 3 4 5 6 
#
# 1 140.2267 11.5351 22.5076 -11.2680 1.9285 -0.2394
# 2 11.5351 17.0029 -13.1227 -3.3617 7.2945 -0.7065
# 3 22.5076 -13.1227 95.3887 -8.9686 -0.8656 2.3079
# 4 -11.2680 -3.3617 -8.9686 15.4465 3.8149 6.0616
# 5 1.9285 7.2945 -0.8656 3.8149 46.7405 -5.0477
# 6 -0.2394 -0.7065 2.3079 6.0616 -5.0477 31.7228
#
#
#
# Elastic Compliance Matrix: (Units=1/GPa)
#
#
# Indices 1 2 3 4 5 6 
#
# 1 0.008410 -0.007430 -0.002712 0.002982 0.000476 -0.000399
# 2 -0.007430 0.090253 0.017172 0.031506 -0.016897 -0.008004
# 3 -0.002712 0.017172 0.014736 0.012702 -0.003735 -0.003731
# 4 0.002982 0.031506 0.012702 0.092677 -0.014553 -0.020224
# 5 0.000476 -0.016897 -0.003735 -0.014553 0.025865 0.006795
# 6 -0.000399 -0.008004 -0.003731 -0.020224 0.006795 0.036559
#
#
# Mechanical properties :
#
#
# Convention : Reuss Voigt Hill
#
# Bulk Modulus (GPa) = 7.84567 32.71756 20.28162
# Shear Modulus (GPa) = 16.83913 34.22853 25.53383
#
# Velocity S-wave (km/s) = 2.70945 3.86292 3.33641
# Velocity P-wave (km/s) = 3.63436 5.84463 4.86664
#
# Compressibility (1/GPa) = 0.12745879
#
# Stress axis : x y z
#
# Youngs Moduli (GPa) = 118.90228 11.07998 67.85935
#
# Poissons Ratio (x) = 0.08232 0.18405
# Poissons Ratio (y) = 0.88345 -1.16528
# Poissons Ratio (z) = 0.32249 -0.19026
#
# Static dielectric constant tensor:
#      x y z
#    x 5.641890 1.761790 0.447720 
#    y 1.761790 2.812080 0.168760 
#    z 0.447720 0.168760 2.011180 
# 
# From -- ./inp_files/182501.got.cif
#   From: 2010.05.17/outbox.cif.g08.bks.cpg/sg2_92_cif.got.tgz:182501.got - 2010.06.03 11:33:40.
