data_PCOD9109312
_publ_section_title
;
Structure prediction by ZEFSAII (Michael W. Deem and Ramdas Pophale) SiO2 
 PCOD9109312
Probable space group: P -1
;
_chemical_formula_sum "Si O2"
_cell_formula_units_Z 16
_cell_length_a 15.364837
_cell_length_b 8.897417
_cell_length_c 11.079435
_cell_angle_alpha 117.356451
_cell_angle_beta 147.423396
_cell_angle_gamma 68.753985
_cell_volume 723.339734
_symmetry_space_group_name_H-M "P -1"
_symmetry_group_IT_number 2
_symmetry_cell_setting 'triclinic'
loop_
_space_group_symop_operation_xyz
x,y,z
-x,-y,-z
loop_
_atom_site_type_symbol
_atom_site_label
_atom_site_fract_x
_atom_site_fract_y
_atom_site_fract_z
Si Si1 0.998686 0.983982 0.308209
Si Si2 0.544027 0.667943 0.038384
Si Si3 0.503901 0.167413 0.302814
Si Si4 0.756617 0.930659 0.548564
Si Si5 0.129077 0.396803 0.043198
Si Si6 0.731279 0.081429 0.204917
Si Si7 0.629621 0.511164 0.838037
Si Si8 0.622419 0.780077 0.577941
O O1 0.157555 0.975993 0.576460
O O2 0.061077 0.060529 0.282535
O O3 0.862490 0.090513 0.252794
O O4 0.933420 0.789604 0.145226
O O5 0.376407 0.756821 0.840429
O O6 0.643642 0.607909 0.017143
O O7 0.500000 0.500000 0.000000
O O8 0.649848 0.796220 0.293478
O O9 0.480318 0.362730 0.321945
O O10 0.424791 0.115153 0.320326
O O11 0.685202 0.112662 0.503233
O O12 0.402875 0.063080 0.044881
O O13 0.714429 0.881221 0.617398
O O14 0.210962 0.491887 0.058640
O O15 0.259624 0.355638 0.281667
O O16 0.000000 0.500000 0.000000
O O17 0.539549 0.329665 0.688740
#
# Coordination Sequence:
#
# PCOD9109312 Si02
#       8
#     2   2   2   2   2   2   2   2
#     4  11  23  42  65  94 132 169 210 260 327 390
#     4  11  23  43  65  97 128 165 223 269 316 376
#     4  10  20  41  64  94 118 165 226 262 303 376
#     4  11  24  38  66  96 129 166 208 267 331 370
#     4  11  26  43  64  96 129 169 217 258 320 387
#     4  10  22  42  66  92 126 167 218 265 313 378
#     4  11  22  42  69  89 126 168 219 267 307 377
#     4  11  23  42  61  94 129 166 217 261 320 378
#
# _framework density 22.119620000000001
#
# number of rings (size 3 to 8) (size 9 to 14) (size 15 to 20)
#    0.000    1.250    3.750    3.375    7.000    2.500 
#    2.250    0.625    0.000    0.000    0.000    0.000 
#    0.000    0.000    0.000    0.000    0.000    0.000 
#
# Total GULP energy -89389.268064 kJ/mol
# GULP energy per Si atom -5586.829254 kJ/mol
# Density = 2.206927 g / cm^3
# Si number density = 22.119620 Si / 1000 Ang^3
#
#
#
# Elastic Constant Matrix: (Units=GPa)
#
#
# Indices 1 2 3 4 5 6 
#
# 1 154.8014 18.4746 5.6109 -4.6091 25.0137 2.0118
# 2 18.4746 39.9004 1.5467 6.7024 12.4259 -1.8487
# 3 5.6109 1.5467 45.8448 5.5665 -0.7600 -2.5691
# 4 -4.6091 6.7024 5.5665 24.4848 -3.9939 10.1929
# 5 25.0137 12.4259 -0.7600 -3.9939 39.6544 2.4991
# 6 2.0118 -1.8487 -2.5691 10.1929 2.4991 40.9982
#
#
#
# Elastic Compliance Matrix: (Units=1/GPa)
#
#
# Indices 1 2 3 4 5 6 
#
# 1 0.007489 -0.002705 -0.001203 0.002204 -0.003621 -0.000892
# 2 -0.002705 0.031894 0.001032 -0.013424 -0.009972 0.005581
# 3 -0.001203 0.001032 0.022975 -0.007122 -0.000051 0.003319
# 4 0.002204 -0.013424 -0.007122 0.054380 0.009117 -0.015235
# 5 -0.003621 -0.009972 -0.000051 0.009117 0.031826 -0.004482
# 6 -0.000892 0.005581 0.003319 -0.015235 -0.004482 0.028956
#
#
# Mechanical properties :
#
#
# Convention : Reuss Voigt Hill
#
# Bulk Modulus (GPa) = 17.66565 32.42347 25.04456
# Shear Modulus (GPa) = 24.73545 35.35511 30.04528
#
# Velocity S-wave (km/s) = 3.34767 4.00229 3.68952
# Velocity P-wave (km/s) = 4.79022 6.00398 5.43112
#
# Compressibility (1/GPa) = 0.05660702
#
# Stress axis : x y z
#
# Youngs Moduli (GPa) = 133.53612 31.35414 43.52545
#
# Poissons Ratio (x) = 0.08480 0.05236
# Poissons Ratio (y) = 0.36117 -0.04494
# Poissons Ratio (z) = 0.16064 -0.03237
#
# Static dielectric constant tensor:
#      x y z
#    x 1.872930 0.011050 0.003750 
#    y 0.011050 1.814800 -0.003280 
#    z 0.003750 -0.003280 1.840560 
# 
# From -- ./inp_files/295422.got.cif
#   From: 2010.05.17/outbox.cif.g08.bks.cpg/sg2_148_cif.got.tgz:295422.got - 2010.06.03 11:33:40.
