data_PCOD9109773
_publ_section_title
;
Structure prediction by ZEFSAII (Michael W. Deem and Ramdas Pophale) SiO2 
 PCOD9109773
Probable space group: P -1
;
_chemical_formula_sum "Si O2"
_cell_formula_units_Z 12
_cell_length_a 7.657008
_cell_length_b 11.255931
_cell_length_c 9.129461
_cell_angle_alpha 121.080208
_cell_angle_beta 90.829125
_cell_angle_gamma 129.604177
_cell_volume 443.280236
_symmetry_space_group_name_H-M "P -1"
_symmetry_group_IT_number 2
_symmetry_cell_setting 'triclinic'
loop_
_space_group_symop_operation_xyz
x,y,z
-x,-y,-z
loop_
_atom_site_type_symbol
_atom_site_label
_atom_site_fract_x
_atom_site_fract_y
_atom_site_fract_z
Si Si1 0.746345 0.247537 0.817218
Si Si2 0.055167 0.083307 0.392231
Si Si3 0.704863 0.507076 0.438096
Si Si4 0.362167 0.644769 0.380488
Si Si5 0.056008 0.215220 0.982766
Si Si6 0.398305 0.087019 0.988001
O O1 0.664397 0.235675 0.642595
O O2 0.872688 0.182787 0.839641
O O3 0.504697 0.137591 0.853911
O O4 0.000000 0.500000 0.000000
O O5 0.079791 0.263054 0.487995
O O6 0.349647 0.197893 0.448142
O O7 0.873057 0.890027 0.153433
O O8 0.000000 0.000000 0.500000
O O9 0.500000 0.500000 0.500000
O O10 0.816948 0.484476 0.561033
O O11 0.558225 0.313635 0.204589
O O12 0.295283 0.465936 0.172128
O O13 0.894753 0.090583 0.051454
O O14 0.500000 0.000000 0.000000
#
# Coordination Sequence:
#
# PCOD9109773 Si02
#       6
#     2   2   2   2   2   2
#     4   9  21  39  65  97 129 165 217 271 318 385
#     4  11  25  42  64  96 135 171 218 273 319 386
#     4  10  21  43  63  92 133 166 219 269 312 396
#     4  10  22  42  66  96 128 172 220 266 329 384
#     4  10  21  42  66  93 133 171 216 272 325 381
#     4  10  20  41  67  91 132 174 209 273 324 374
#
# _framework density 27.070910000000001
#
# number of rings (size 3 to 8) (size 9 to 14) (size 15 to 20)
#    0.000    2.000    3.333    0.000    4.667    3.333 
#    3.000    7.500    0.000    0.000    0.000    0.000 
#    0.000    0.000    0.000    0.000    0.000    0.000 
#
# Total GULP energy -67031.519128 kJ/mol
# GULP energy per Si atom -5585.959927 kJ/mol
# Density = 2.700930 g / cm^3
# Si number density = 27.070910 Si / 1000 Ang^3
#
#
#
# Elastic Constant Matrix: (Units=GPa)
#
#
# Indices 1 2 3 4 5 6 
#
# 1 79.8450 28.9032 3.5601 4.9650 -9.2065 -11.1882
# 2 28.9032 213.6705 40.4610 -9.9576 -13.1681 -51.7768
# 3 3.5601 40.4610 119.0816 24.4393 -12.3518 -26.0715
# 4 4.9650 -9.9576 24.4393 69.4389 -17.6069 7.6193
# 5 -9.2065 -13.1681 -12.3518 -17.6069 38.7997 -6.3443
# 6 -11.1882 -51.7768 -26.0715 7.6193 -6.3443 43.9446
#
#
#
# Elastic Compliance Matrix: (Units=1/GPa)
#
#
# Indices 1 2 3 4 5 6 
#
# 1 0.013848 -0.001054 0.001374 -0.001165 0.003459 0.003801
# 2 -0.001054 0.007246 -0.000472 0.001394 0.004054 0.008333
# 3 0.001374 -0.000472 0.011409 -0.004235 0.003144 0.007751
# 4 -0.001165 0.001394 -0.004235 0.018208 0.006559 -0.003376
# 5 0.003459 0.004054 0.003144 0.006559 0.033789 0.011263
# 6 0.003801 0.008333 0.007751 -0.003376 0.011263 0.040352
#
#
# Mechanical properties :
#
#
# Convention : Reuss Voigt Hill
#
# Bulk Modulus (GPa) = 31.05536 62.04951 46.55244
# Shear Modulus (GPa) = 36.79490 53.08150 44.93820
#
# Velocity S-wave (km/s) = 3.69074 4.43293 4.07875
# Velocity P-wave (km/s) = 5.44599 7.01228 6.27817
#
# Compressibility (1/GPa) = 0.03220056
#
# Stress axis : x y z
#
# Youngs Moduli (GPa) = 72.21152 138.00699 87.65090
#
# Poissons Ratio (x) = 0.14539 -0.12043
# Poissons Ratio (y) = 0.07608 0.04134
# Poissons Ratio (z) = -0.09921 0.06510
#
# Static dielectric constant tensor:
#      x y z
#    x 2.184500 -0.208930 0.091330 
#    y -0.208930 2.062030 -0.125760 
#    z 0.091330 -0.125760 2.174590 
# 
# From -- ./inp_files/182608.got.cif
#   From: 2010.05.17/outbox.cif.g08.bks.cpg/sg2_92_cif.got.tgz:182608.got - 2010.06.03 11:33:40.
