data_PCOD9109379
_publ_section_title
;
Structure prediction by ZEFSAII (Michael W. Deem and Ramdas Pophale) SiO2 
 PCOD9109379
Probable space group: P -1
;
_chemical_formula_sum "Si O2"
_cell_formula_units_Z 16
_cell_length_a 22.520494
_cell_length_b 26.566823
_cell_length_c 9.872113
_cell_angle_alpha 23.560203
_cell_angle_beta 33.179628
_cell_angle_gamma 17.976762
_cell_volume 698.820184
_symmetry_space_group_name_H-M "P -1"
_symmetry_group_IT_number 2
_symmetry_cell_setting 'triclinic'
loop_
_space_group_symop_operation_xyz
x,y,z
-x,-y,-z
loop_
_atom_site_type_symbol
_atom_site_label
_atom_site_fract_x
_atom_site_fract_y
_atom_site_fract_z
Si Si1 0.560202 0.838730 0.166138
Si Si2 0.846134 0.471484 0.023544
Si Si3 0.844567 0.056541 0.589295
Si Si4 0.456172 0.650140 0.104126
Si Si5 0.388588 0.852821 0.976579
Si Si6 0.199850 0.302401 0.196168
Si Si7 0.168686 0.540636 0.209540
Si Si8 0.759387 0.079367 0.408845
O O1 0.762906 0.587973 0.465926
O O2 0.394169 0.889385 0.353496
O O3 0.621513 0.825244 0.932815
O O4 0.500000 0.000000 0.000000
O O5 0.025681 0.194232 0.361578
O O6 0.627468 0.626340 0.081640
O O7 0.858822 0.557453 0.907610
O O8 0.835558 0.536860 0.728550
O O9 0.773173 0.151554 0.339182
O O10 0.000000 0.000000 0.500000
O O11 0.960243 0.812350 0.951889
O O12 0.675076 0.191775 0.686924
O O13 0.500000 0.500000 0.500000
O O14 0.331370 0.872490 0.883583
O O15 0.663798 0.514693 0.000805
O O16 0.328282 0.753871 0.958594
O O17 0.284069 0.088002 0.619013
O O18 0.000000 0.500000 0.000000
#
# Coordination Sequence:
#
# PCOD9109379 Si02
#       8
#     2   2   2   2   2   2   2   2
#     4  11  21  39  64  94 130 168 208 260 317 382
#     4  10  21  40  62  91 128 167 206 256 321 389
#     4  11  23  43  65  91 126 169 216 269 319 370
#     4  10  20  41  65  88 120 162 209 265 318 369
#     4  11  23  40  62  92 128 164 212 267 315 382
#     4  12  23  38  61  95 130 168 208 259 323 384
#     4   9  21  39  60  87 122 161 208 258 312 377
#     4  10  23  42  66  96 127 167 218 260 318 393
#
# _framework density 22.895731000000001
#
# number of rings (size 3 to 8) (size 9 to 14) (size 15 to 20)
#    0.000    1.500    0.000    6.375    0.000    1.000 
#    0.000   25.625    0.000    0.000    0.000    0.000 
#    0.000    0.000    0.000    0.000    0.000    0.000 
#
# Total GULP energy -89372.795172 kJ/mol
# GULP energy per Si atom -5585.799698 kJ/mol
# Density = 2.284362 g / cm^3
# Si number density = 22.895731 Si / 1000 Ang^3
#
#
#
# Elastic Constant Matrix: (Units=GPa)
#
#
# Indices 1 2 3 4 5 6 
#
# 1 166.2744 46.0475 30.2605 16.4257 25.1043 5.6050
# 2 46.0475 108.4446 30.4858 3.9383 9.8974 7.5032
# 3 30.2605 30.4858 79.5427 13.7022 23.3949 -1.7128
# 4 16.4257 3.9383 13.7022 28.6796 -1.1922 6.0352
# 5 25.1043 9.8974 23.3949 -1.1922 33.1947 -3.8437
# 6 5.6050 7.5032 -1.7128 6.0352 -3.8437 30.9970
#
#
#
# Elastic Compliance Matrix: (Units=1/GPa)
#
#
# Indices 1 2 3 4 5 6 
#
# 1 0.008059 -0.002827 0.000517 -0.004597 -0.005848 -0.000575
# 2 -0.002827 0.011608 -0.004360 0.002780 0.001515 -0.002893
# 3 0.000517 -0.004360 0.019685 -0.010152 -0.013050 0.002408
# 4 -0.004597 0.002780 -0.010152 0.044020 0.010495 -0.007672
# 5 -0.005848 0.001515 -0.013050 0.010495 0.044064 0.003390
# 6 -0.000575 -0.002893 0.002408 -0.007672 0.003390 0.035113
#
#
# Mechanical properties :
#
#
# Convention : Reuss Voigt Hill
#
# Bulk Modulus (GPa) = 38.44313 63.09437 50.76875
# Shear Modulus (GPa) = 27.09132 35.07210 31.08171
#
# Velocity S-wave (km/s) = 3.44357 3.91809 3.68847
# Velocity P-wave (km/s) = 5.71296 6.93438 6.35309
#
# Compressibility (1/GPa) = 0.02601245
#
# Stress axis : x y z
#
# Youngs Moduli (GPa) = 124.07820 86.14410 50.79941
#
# Poissons Ratio (x) = 0.24354 -0.02626
# Poissons Ratio (y) = 0.35078 0.22150
# Poissons Ratio (z) = -0.06415 0.37561
#
# Static dielectric constant tensor:
#      x y z
#    x 1.963230 0.028270 -0.030440 
#    y 0.028270 1.853910 0.006760 
#    z -0.030440 0.006760 1.867110 
# 
# From -- ./inp_files/349962.got.cif
#   From: 2010.05.17/outbox.cif.g08.bks.cpg/sg2_175_cif.got.tgz:349962.got - 2010.06.03 11:33:40.
