data_PCOD9109958
_publ_section_title
;
Structure prediction by ZEFSAII (Michael W. Deem and Ramdas Pophale) SiO2 
 PCOD9109958
Probable space group: P -1
;
_chemical_formula_sum "Si O2"
_cell_formula_units_Z 16
_cell_length_a 13.431891
_cell_length_b 16.286314
_cell_length_c 7.147493
_cell_angle_alpha 130.112254
_cell_angle_beta 128.432364
_cell_angle_gamma 32.861089
_cell_volume 636.543299
_symmetry_space_group_name_H-M "P -1"
_symmetry_group_IT_number 2
_symmetry_cell_setting 'triclinic'
loop_
_space_group_symop_operation_xyz
x,y,z
-x,-y,-z
loop_
_atom_site_type_symbol
_atom_site_label
_atom_site_fract_x
_atom_site_fract_y
_atom_site_fract_z
Si Si1 0.448791 0.279591 0.183680
Si Si2 0.693980 0.315573 0.422185
Si Si3 0.062669 0.201308 0.733303
Si Si4 0.712541 0.335514 0.037240
Si Si5 0.936445 0.492130 0.112349
Si Si6 0.369181 0.844478 0.435253
Si Si7 0.024058 0.299346 0.398090
Si Si8 0.604550 0.040519 0.740419
O O1 0.631389 0.236443 0.288206
O O2 0.442760 0.284605 0.407790
O O3 0.270875 0.422845 0.061766
O O4 0.501347 0.133642 0.947119
O O5 0.500000 0.500000 0.500000
O O6 0.876518 0.249256 0.637458
O O7 0.738878 0.292079 0.221949
O O8 0.031543 0.265038 0.578201
O O9 0.065178 0.307243 0.019936
O O10 0.237758 0.013583 0.633649
O O11 0.733785 0.207200 0.772706
O O12 0.500000 0.500000 0.000000
O O13 0.835696 0.365328 0.190509
O O14 0.941650 0.593043 0.402275
O O15 0.000000 0.500000 0.000000
O O16 0.411271 0.861477 0.300434
O O17 0.182389 0.125781 0.239031
O O18 0.500000 0.000000 0.500000
#
# Coordination Sequence:
#
# PCOD9109958 Si02
#       8
#     2   2   2   2   2   2   2   2
#     4  12  24  42  72 100 137 182 230 286 338 413
#     4  11  21  39  68  99 134 180 231 281 342 406
#     4   9  21  39  64  99 135 181 227 281 347 403
#     4  11  24  43  69 101 142 181 229 290 345 408
#     4  10  20  41  68  95 133 187 228 273 349 413
#     4  11  26  44  69 106 138 178 230 286 343 406
#     4   9  21  40  68  93 136 187 222 281 352 407
#     4  11  23  46  69 103 140 181 228 282 351 409
#
# _framework density 25.135760999999999
#
# number of rings (size 3 to 8) (size 9 to 14) (size 15 to 20)
#    0.000    1.500    3.750    0.750    5.250    2.500 
#    2.250    0.000    0.000    3.000    0.000    0.000 
#    0.000    0.000    0.000    0.000    0.000    0.000 
#
# Total GULP energy -89365.229956 kJ/mol
# GULP energy per Si atom -5585.326872 kJ/mol
# Density = 2.507855 g / cm^3
# Si number density = 25.135761 Si / 1000 Ang^3
#
#
#
# Elastic Constant Matrix: (Units=GPa)
#
#
# Indices 1 2 3 4 5 6 
#
# 1 48.1208 5.1791 -3.7546 -14.8319 0.4782 17.2939
# 2 5.1791 66.2216 31.6829 4.4216 0.7349 4.7876
# 3 -3.7546 31.6829 113.5619 14.5891 4.1212 19.0423
# 4 -14.8319 4.4216 14.5891 41.2772 -4.6290 -3.3179
# 5 0.4782 0.7349 4.1212 -4.6290 40.3612 -1.6719
# 6 17.2939 4.7876 19.0423 -3.3179 -1.6719 37.9331
#
#
#
# Elastic Compliance Matrix: (Units=1/GPa)
#
#
# Indices 1 2 3 4 5 6 
#
# 1 0.028878 -0.003311 0.003059 0.008542 -0.000176 -0.013544
# 2 -0.003311 0.017811 -0.005252 -0.001073 0.000203 0.001813
# 3 0.003059 -0.005252 0.012078 -0.003393 -0.001860 -0.007174
# 4 0.008542 -0.001073 -0.003393 0.029068 0.003625 0.000646
# 5 -0.000176 0.000203 -0.001860 0.003625 0.025481 0.002428
# 6 -0.013544 0.001813 -0.007174 0.000646 0.002428 0.036073
#
#
# Mechanical properties :
#
#
# Convention : Reuss Voigt Hill
#
# Bulk Modulus (GPa) = 20.93890 32.67989 26.80940
# Shear Modulus (GPa) = 28.35785 36.90076 32.62931
#
# Velocity S-wave (km/s) = 3.36249 3.83568 3.60686
# Velocity P-wave (km/s) = 4.83979 5.71368 5.29480
#
# Compressibility (1/GPa) = 0.04775800
#
# Stress axis : x y z
#
# Youngs Moduli (GPa) = 34.62840 56.14544 82.79219
#
# Poissons Ratio (x) = 0.18590 -0.25323
# Poissons Ratio (y) = 0.11466 0.43484
# Poissons Ratio (z) = -0.10591 0.29489
#
# Static dielectric constant tensor:
#      x y z
#    x 1.949230 -0.014620 -0.069200 
#    y -0.014620 1.952840 -0.127670 
#    z -0.069200 -0.127670 1.967760 
# 
# From -- ./inp_files/318180.got.cif
#   From: 2010.05.17/outbox.cif.g08.bks.cpg/sg2_160_cif.got.tgz:318180.got - 2010.06.03 11:33:40.
