data_PCOD9109509
_publ_section_title
;
Structure prediction by ZEFSAII (Michael W. Deem and Ramdas Pophale) SiO2 
 PCOD9109509
Probable space group: P -1
;
_chemical_formula_sum "Si O2"
_cell_formula_units_Z 16
_cell_length_a 8.799877
_cell_length_b 10.865852
_cell_length_c 7.523804
_cell_angle_alpha 73.459949
_cell_angle_beta 113.858677
_cell_angle_gamma 81.971873
_cell_volume 603.483641
_symmetry_space_group_name_H-M "P -1"
_symmetry_group_IT_number 2
_symmetry_cell_setting 'triclinic'
loop_
_space_group_symop_operation_xyz
x,y,z
-x,-y,-z
loop_
_atom_site_type_symbol
_atom_site_label
_atom_site_fract_x
_atom_site_fract_y
_atom_site_fract_z
Si Si1 0.452374 0.421568 0.741654
Si Si2 0.423818 0.340634 0.156343
Si Si3 0.803922 0.850849 0.299932
Si Si4 0.066956 0.013587 0.249069
Si Si5 0.194151 0.776531 0.158915
Si Si6 0.981673 0.613110 0.291169
Si Si7 0.822602 0.628287 0.659838
Si Si8 0.600579 0.034098 0.364857
O O1 0.491314 0.564636 0.722516
O O2 0.634717 0.309144 0.825805
O O3 0.321538 0.402039 0.534150
O O4 0.386278 0.407649 0.917057
O O5 0.271976 0.324873 0.219946
O O6 0.542209 0.190814 0.239018
O O7 0.881243 0.742388 0.536921
O O8 0.802607 0.994739 0.527582
O O9 0.820739 0.745489 0.188888
O O10 0.614478 0.936267 0.242989
O O11 0.918470 0.945034 0.256133
O O12 0.968697 0.162200 0.074748
O O13 0.190131 0.914999 0.200804
O O14 0.135888 0.683784 0.314128
O O15 0.023696 0.508771 0.193473
O O16 0.000000 0.500000 0.500000
O O17 0.500000 0.000000 0.500000
#
# Coordination Sequence:
#
# PCOD9109509 Si02
#       8
#     2   2   2   2   2   2   2   2
#     4  11  24  40  71 105 136 184 231 293 350 416
#     4  11  24  42  66 103 141 174 239 281 354 411
#     4  10  22  41  64  99 129 184 232 275 349 419
#     4  10  23  41  67  97 135 191 229 280 360 413
#     4  10  20  41  65  97 138 178 232 291 341 422
#     4   9  20  38  64  92 130 178 233 274 341 416
#     4  11  21  43  69  98 141 183 228 293 347 406
#     4  12  24  43  67  98 142 183 227 290 347 415
#
# _framework density 26.512733999999998
#
# number of rings (size 3 to 8) (size 9 to 14) (size 15 to 20)
#    0.000    1.500    2.500    2.250    3.500    0.000 
#   11.250    1.250    0.000    6.000    0.000    0.000 
#    0.000    0.000    0.000    0.000    0.000    0.000 
#
# Total GULP energy -89352.278907 kJ/mol
# GULP energy per Si atom -5584.517432 kJ/mol
# Density = 2.645239 g / cm^3
# Si number density = 26.512734 Si / 1000 Ang^3
#
#
#
# Elastic Constant Matrix: (Units=GPa)
#
#
# Indices 1 2 3 4 5 6 
#
# 1 116.2435 49.5776 33.9244 -3.0148 -29.8214 -13.2694
# 2 49.5776 163.0241 34.8127 -24.9842 1.4853 -45.7782
# 3 33.9244 34.8127 109.3707 2.7371 -5.6605 0.6423
# 4 -3.0148 -24.9842 2.7371 40.2776 -10.4335 -4.9085
# 5 -29.8214 1.4853 -5.6605 -10.4335 35.5594 -0.8011
# 6 -13.2694 -45.7782 0.6423 -4.9085 -0.8011 66.0864
#
#
#
# Elastic Compliance Matrix: (Units=1/GPa)
#
#
# Indices 1 2 3 4 5 6 
#
# 1 0.014088 -0.003091 -0.002822 0.002643 0.012294 0.001060
# 2 -0.003091 0.010913 -0.002803 0.007339 -0.001172 0.007497
# 3 -0.002822 -0.002803 0.010932 -0.003457 -0.001589 -0.002891
# 4 0.002643 0.007339 -0.003457 0.033793 0.011462 0.008297
# 5 0.012294 -0.001172 -0.001589 0.011462 0.041659 0.003028
# 6 0.001060 0.007497 -0.002891 0.008297 0.003028 0.021219
#
#
# Mechanical properties :
#
#
# Convention : Reuss Voigt Hill
#
# Bulk Modulus (GPa) = 54.05165 69.47419 61.76292
# Shear Modulus (GPa) = 32.00950 46.40626 39.20788
#
# Velocity S-wave (km/s) = 3.47843 4.18824 3.84973
# Velocity P-wave (km/s) = 6.04681 7.04624 6.56557
#
# Compressibility (1/GPa) = 0.01850082
#
# Stress axis : x y z
#
# Youngs Moduli (GPa) = 70.98271 91.63122 91.47375
#
# Poissons Ratio (x) = 0.28323 0.25814
# Poissons Ratio (y) = 0.21940 0.25643
# Poissons Ratio (z) = 0.20031 0.25687
#
# Static dielectric constant tensor:
#      x y z
#    x 2.112180 -0.041020 0.003550 
#    y -0.041020 2.151980 0.099680 
#    z 0.003550 0.099680 2.163360 
# 
# From -- ./inp_files/168785.got.cif
#   From: 2010.05.17/outbox.cif.g08.bks.cpg/sg2_85_cif.got.tgz:168785.got - 2010.06.03 11:33:40.
