data_PCOD9109978
_publ_section_title
;
Structure prediction by ZEFSAII (Michael W. Deem and Ramdas Pophale) SiO2 
 PCOD9109978
Probable space group: P -1
;
_chemical_formula_sum "Si O2"
_cell_formula_units_Z 16
_cell_length_a 15.328179
_cell_length_b 8.972175
_cell_length_c 12.307905
_cell_angle_alpha 66.117705
_cell_angle_beta 149.911605
_cell_angle_gamma 128.367384
_cell_volume 626.577031
_symmetry_space_group_name_H-M "P -1"
_symmetry_group_IT_number 2
_symmetry_cell_setting 'triclinic'
loop_
_space_group_symop_operation_xyz
x,y,z
-x,-y,-z
loop_
_atom_site_type_symbol
_atom_site_label
_atom_site_fract_x
_atom_site_fract_y
_atom_site_fract_z
Si Si1 0.880147 0.010567 0.620527
Si Si2 0.471103 0.226221 0.983193
Si Si3 0.396398 0.842971 0.076855
Si Si4 0.554251 0.274329 0.446773
Si Si5 0.851458 0.116311 0.799831
Si Si6 0.190163 0.519140 0.132843
Si Si7 0.893306 0.604530 0.397108
Si Si8 0.805210 0.690673 0.483281
O O1 0.639938 0.936695 0.350898
O O2 0.896902 0.836529 0.642746
O O3 0.894296 0.054324 0.749842
O O4 0.041785 0.214002 0.666494
O O5 0.639069 0.426495 0.171131
O O6 0.377026 0.026435 0.010098
O O7 0.604362 0.216383 0.030860
O O8 0.290337 0.228015 0.726065
O O9 0.246116 0.654947 0.047785
O O10 0.711843 0.208379 0.605796
O O11 0.610400 0.362071 0.604911
O O12 0.620347 0.465539 0.390611
O O13 0.310542 0.076453 0.242137
O O14 0.081480 0.291794 0.045967
O O15 0.000000 0.500000 0.000000
O O16 0.957782 0.676902 0.569689
O O17 0.000000 0.500000 0.500000
#
# Coordination Sequence:
#
# PCOD9109978 Si02
#       8
#     2   2   2   2   2   2   2   2
#     4  11  22  42  66  97 139 180 227 289 346 406
#     4  10  23  42  68  99 138 183 226 287 345 413
#     4  10  20  41  68  96 135 184 227 279 348 407
#     4  10  22  43  68  99 140 180 231 288 341 410
#     4  10  21  41  72  99 128 185 240 277 342 419
#     4  10  21  40  67 104 133 175 242 285 332 409
#     4  12  23  42  69  98 133 184 241 279 342 425
#     4  11  26  44  64 102 146 179 221 295 357 401
#
# _framework density 25.535567
#
# number of rings (size 3 to 8) (size 9 to 14) (size 15 to 20)
#    0.000    1.500    2.500    2.250    0.000    1.500 
#    6.750    0.625    0.000    0.000    0.000    0.000 
#    0.000    0.000    0.000    0.000    0.000    0.000 
#
# Total GULP energy -89666.681827 kJ/mol
# GULP energy per Si atom -5604.167614 kJ/mol
# Density = 2.547745 g / cm^3
# Si number density = 25.535567 Si / 1000 Ang^3
#
#
#
# Elastic Constant Matrix: (Units=GPa)
#
#
# Indices 1 2 3 4 5 6 
#
# 1 141.8981 75.9290 27.0620 10.2125 -27.1809 -9.1892
# 2 75.9290 164.0397 22.8846 21.6475 1.6456 8.8765
# 3 27.0620 22.8846 66.6628 15.1043 1.5673 -11.7777
# 4 10.2125 21.6475 15.1043 41.7169 -3.0993 -0.9581
# 5 -27.1809 1.6456 1.5673 -3.0993 24.5721 7.4583
# 6 -9.1892 8.8765 -11.7777 -0.9581 7.4583 46.8894
#
#
#
# Elastic Compliance Matrix: (Units=1/GPa)
#
#
# Indices 1 2 3 4 5 6 
#
# 1 0.014609 -0.006680 -0.004636 0.002851 0.017175 0.000289
# 2 -0.006680 0.009914 0.000094 -0.004182 -0.007986 -0.001977
# 3 -0.004636 0.000094 0.019450 -0.006488 -0.008779 0.005223
# 4 0.002851 -0.004182 -0.006488 0.028344 0.007704 -0.000926
# 5 0.017175 -0.007986 -0.008779 0.007704 0.063992 -0.007349
# 6 0.000289 -0.001977 0.005223 -0.000926 -0.007349 0.024220
#
#
# Mechanical properties :
#
#
# Convention : Reuss Voigt Hill
#
# Bulk Modulus (GPa) = 46.44748 69.37244 57.90996
# Shear Modulus (GPa) = 26.29540 39.08401 32.68970
#
# Velocity S-wave (km/s) = 3.21246 3.91650 3.58182
# Velocity P-wave (km/s) = 5.65586 6.90492 6.31136
#
# Compressibility (1/GPa) = 0.02152969
#
# Stress axis : x y z
#
# Youngs Moduli (GPa) = 68.45028 100.87086 51.41422
#
# Poissons Ratio (x) = 0.67377 0.23837
# Poissons Ratio (y) = 0.45722 -0.00485
# Poissons Ratio (z) = 0.31735 -0.00951
#
# Static dielectric constant tensor:
#      x y z
#    x 2.013300 -0.072150 0.019640 
#    y -0.072150 1.964370 0.037850 
#    z 0.019640 0.037850 1.991520 
# 
# From -- ./inp_files/447246.got.cif
#   From: 2010.05.17/outbox.cif.g08.bks.cpg/sg2_224_cif.got.tgz:447246.got - 2010.06.03 11:33:40.
