data_PCOD9109447
_publ_section_title
;
Structure prediction by ZEFSAII (Michael W. Deem and Ramdas Pophale) SiO2 
 PCOD9109447
Probable space group: P -1
;
_chemical_formula_sum "Si O2"
_cell_formula_units_Z 16
_cell_length_a 9.017301
_cell_length_b 11.048472
_cell_length_c 18.312276
_cell_angle_alpha 32.746690
_cell_angle_beta 88.516059
_cell_angle_gamma 67.755547
_cell_volume 741.332600
_symmetry_space_group_name_H-M "P -1"
_symmetry_group_IT_number 2
_symmetry_cell_setting 'triclinic'
loop_
_space_group_symop_operation_xyz
x,y,z
-x,-y,-z
loop_
_atom_site_type_symbol
_atom_site_label
_atom_site_fract_x
_atom_site_fract_y
_atom_site_fract_z
Si Si1 0.343909 0.553534 0.076148
Si Si2 0.292994 0.568046 0.920370
Si Si3 0.032394 0.724257 0.412992
Si Si4 0.062799 0.826324 0.201266
Si Si5 0.954899 0.436560 0.348226
Si Si6 0.426427 0.704700 0.189969
Si Si7 0.387677 0.881825 0.577158
Si Si8 0.659641 0.736150 0.062619
O O1 0.475774 0.618181 0.005438
O O2 0.494250 0.304470 0.257384
O O3 0.288030 0.458124 0.055292
O O4 0.140428 0.835420 0.968957
O O5 0.230686 0.483400 0.895306
O O6 0.159920 0.925113 0.748370
O O7 0.127353 0.740321 0.330172
O O8 0.118727 0.609234 0.552449
O O9 0.000000 0.500000 0.500000
O O10 0.221234 0.790000 0.167187
O O11 0.016066 0.626628 0.273621
O O12 0.803913 0.592203 0.203962
O O13 0.158339 0.126409 0.474267
O O14 0.576042 0.345973 0.368672
O O15 0.476809 0.769266 0.078184
O O16 0.417887 0.938663 0.119632
O O17 0.500000 0.000000 0.500000
#
# Coordination Sequence:
#
# PCOD9109447 Si02
#       8
#     2   2   2   2   2   2   2   2
#     4  10  21  39  69  91 121 164 224 262 304 377
#     4  10  20  41  65  92 124 168 217 263 309 379
#     4   9  19  38  64  98 126 164 216 263 315 374
#     4  10  22  40  67  95 125 171 224 266 304 375
#     4  11  22  39  68  97 131 169 211 265 327 383
#     4  11  24  43  62  94 134 169 217 260 319 384
#     4  12  23  39  67  99 128 165 213 273 315 374
#     4  11  25  42  66  94 134 172 208 266 325 388
#
# _framework density 21.582754999999999
#
# number of rings (size 3 to 8) (size 9 to 14) (size 15 to 20)
#    0.000    1.500    3.750    0.750    3.500    3.000 
#    0.000    3.125    2.750    0.000    0.000    0.000 
#    0.000    0.000    0.000    0.000    0.000    0.000 
#
# Total GULP energy -89095.167878 kJ/mol
# GULP energy per Si atom -5568.447992 kJ/mol
# Density = 2.153363 g / cm^3
# Si number density = 21.582755 Si / 1000 Ang^3
#
#
#
# Elastic Constant Matrix: (Units=GPa)
#
#
# Indices 1 2 3 4 5 6 
#
# 1 67.7405 47.6347 32.7147 6.1876 -5.1799 -10.2839
# 2 47.6347 142.9017 63.8826 -22.2235 9.3325 8.3916
# 3 32.7147 63.8826 95.3006 -7.9287 11.9013 4.5164
# 4 6.1876 -22.2235 -7.9287 36.0154 2.0782 1.8699
# 5 -5.1799 9.3325 11.9013 2.0782 31.1218 -5.2585
# 6 -10.2839 8.3916 4.5164 1.8699 -5.2585 29.5173
#
#
#
# Elastic Compliance Matrix: (Units=1/GPa)
#
#
# Indices 1 2 3 4 5 6 
#
# 1 0.033255 -0.012777 -0.007349 -0.017244 0.016779 0.020424
# 2 -0.012777 0.016025 -0.003822 0.012261 -0.008087 -0.010640
# 3 -0.007349 -0.003822 0.017108 0.003417 -0.007810 -0.005699
# 4 -0.017244 0.012261 0.003417 0.040576 -0.013084 -0.014918
# 5 0.016779 -0.008087 -0.007810 -0.013084 0.044260 0.018054
# 6 0.020424 -0.010640 -0.005699 -0.014918 0.018054 0.049053
#
#
# Mechanical properties :
#
#
# Convention : Reuss Voigt Hill
#
# Bulk Modulus (GPa) = 54.07683 66.04521 60.06102
# Shear Modulus (GPa) = 19.65911 30.11160 24.88535
#
# Velocity S-wave (km/s) = 3.02134 3.73925 3.39930
# Velocity P-wave (km/s) = 6.10584 7.02211 6.57994
#
# Compressibility (1/GPa) = 0.01849221
#
# Stress axis : x y z
#
# Youngs Moduli (GPa) = 30.07104 62.40248 58.45383
#
# Poissons Ratio (x) = 0.79729 0.42958
# Poissons Ratio (y) = 0.38421 0.22340
# Poissons Ratio (z) = 0.22099 0.23849
#
# Static dielectric constant tensor:
#      x y z
#    x 1.902980 -0.008400 -0.033690 
#    y -0.008400 1.956970 0.041070 
#    z -0.033690 0.041070 1.828480 
# 
# From -- ./inp_files/588863.got.cif
#   From: 2010.05.17/outbox.cif.g08.bks.cpg/sg2_295_cif.got.tgz:588863.got - 2010.06.03 11:33:40.
