data_PCOD9109836
_publ_section_title
;
Structure prediction by ZEFSAII (Michael W. Deem and Ramdas Pophale) SiO2 
 PCOD9109836
Probable space group: P -1
;
_chemical_formula_sum "Si O2"
_cell_formula_units_Z 16
_cell_length_a 13.118098
_cell_length_b 8.305971
_cell_length_c 9.507925
_cell_angle_alpha 110.282884
_cell_angle_beta 106.111846
_cell_angle_gamma 36.264300
_cell_volume 574.786237
_symmetry_space_group_name_H-M "P -1"
_symmetry_group_IT_number 2
_symmetry_cell_setting 'triclinic'
loop_
_space_group_symop_operation_xyz
x,y,z
-x,-y,-z
loop_
_atom_site_type_symbol
_atom_site_label
_atom_site_fract_x
_atom_site_fract_y
_atom_site_fract_z
Si Si1 0.412498 0.435418 0.285835
Si Si2 0.599383 0.275111 0.842120
Si Si3 0.906360 0.710795 0.395946
Si Si4 0.906984 0.379337 0.814914
Si Si5 0.531696 0.145204 0.990352
Si Si6 0.175157 0.486019 0.858632
Si Si7 0.587630 0.698059 0.458210
Si Si8 0.977666 0.151268 0.348398
O O1 0.314562 0.700701 0.227172
O O2 0.287591 0.429674 0.234472
O O3 0.462723 0.357837 0.443281
O O4 0.565879 0.210900 0.165181
O O5 0.670045 0.028442 0.892337
O O6 0.482681 0.323102 0.702828
O O7 0.500000 0.500000 0.000000
O O8 0.022784 0.585096 0.265041
O O9 0.883774 0.929928 0.519953
O O10 0.000000 0.500000 0.500000
O O11 0.772412 0.744142 0.289436
O O12 0.902741 0.443067 0.994534
O O13 0.006218 0.072377 0.732880
O O14 0.340614 0.396283 0.921183
O O15 0.500000 0.000000 0.000000
O O16 0.039333 0.751006 0.785165
O O17 0.794722 0.432183 0.439425
O O18 0.500000 0.000000 0.500000
#
# Coordination Sequence:
#
# PCOD9109836 Si02
#       8
#     2   2   2   2   2   2   2   2
#     4  10  23  40  67  98 130 172 225 277 334 399
#     4  10  22  45  66  96 131 171 228 273 329 401
#     4  10  22  42  64  99 135 174 224 273 335 394
#     4  11  22  44  69  96 136 172 224 278 332 397
#     4  10  20  41  67  96 136 179 219 272 333 394
#     4  10  22  42  67  98 135 173 223 275 336 394
#     4  12  24  44  68  94 136 180 223 279 341 400
#     4  11  23  44  68  96 134 176 220 278 341 393
#
# _framework density 27.836438000000001
#
# number of rings (size 3 to 8) (size 9 to 14) (size 15 to 20)
#    0.000    1.500    2.500    2.250    0.000    0.000 
#   11.250    0.000    0.000    0.000    0.000    0.000 
#    0.000    0.000    0.000    0.000    0.000    0.000 
#
# Total GULP energy -89114.546866 kJ/mol
# GULP energy per Si atom -5569.659179 kJ/mol
# Density = 2.777308 g / cm^3
# Si number density = 27.836438 Si / 1000 Ang^3
#
#
#
# Elastic Constant Matrix: (Units=GPa)
#
#
# Indices 1 2 3 4 5 6 
#
# 1 112.7208 10.8043 62.4195 -7.2732 -19.6593 31.9176
# 2 10.8043 92.9118 44.7222 -4.6425 -10.7837 12.4530
# 3 62.4195 44.7222 253.4189 -23.8386 -28.5813 19.0255
# 4 -7.2732 -4.6425 -23.8386 45.6970 22.6587 -13.8830
# 5 -19.6593 -10.7837 -28.5813 22.6587 78.4074 -26.0900
# 6 31.9176 12.4530 19.0255 -13.8830 -26.0900 34.2005
#
#
#
# Elastic Compliance Matrix: (Units=1/GPa)
#
#
# Indices 1 2 3 4 5 6 
#
# 1 0.013983 0.001432 -0.003056 -0.002856 -0.001235 -0.013972
# 2 0.001432 0.012301 -0.002266 -0.001198 -0.000142 -0.005150
# 3 -0.003056 -0.002266 0.005240 0.002267 0.000988 0.002435
# 4 -0.002856 -0.001198 0.002267 0.027793 -0.004985 0.009319
# 5 -0.001235 -0.000142 0.000988 -0.004985 0.018454 0.012709
# 6 -0.013972 -0.005150 0.002435 0.009319 0.012709 0.056278
#
#
# Mechanical properties :
#
#
# Convention : Reuss Voigt Hill
#
# Bulk Modulus (GPa) = 42.11474 77.21595 59.66535
# Shear Modulus (GPa) = 33.39040 54.40133 43.89586
#
# Velocity S-wave (km/s) = 3.46717 4.42557 3.97535
# Velocity P-wave (km/s) = 5.58485 7.34259 6.52319
#
# Compressibility (1/GPa) = 0.02374466
#
# Stress axis : x y z
#
# Youngs Moduli (GPa) = 71.51486 81.29604 190.82742
#
# Poissons Ratio (x) = -0.11638 0.58312
# Poissons Ratio (y) = -0.10237 0.43233
# Poissons Ratio (z) = 0.21853 0.18418
#
# Static dielectric constant tensor:
#      x y z
#    x 2.366920 0.148160 0.054740 
#    y 0.148160 2.624290 0.054300 
#    z 0.054740 0.054300 2.297540 
# 
# From -- ./inp_files/299228.got.cif
#   From: 2010.05.17/outbox.cif.g08.bks.cpg/sg2_150_cif.got.tgz:299228.got - 2010.06.03 11:33:40.
