data_PCOD9109165
_publ_section_title
;
Structure prediction by ZEFSAII (Michael W. Deem and Ramdas Pophale) SiO2 
 PCOD9109165
Probable space group: P -1
;
_chemical_formula_sum "Si O2"
_cell_formula_units_Z 16
_cell_length_a 13.448826
_cell_length_b 8.873321
_cell_length_c 17.103236
_cell_angle_alpha 32.161162
_cell_angle_beta 48.141927
_cell_angle_gamma 49.952402
_cell_volume 793.151215
_symmetry_space_group_name_H-M "P -1"
_symmetry_group_IT_number 2
_symmetry_cell_setting 'triclinic'
loop_
_space_group_symop_operation_xyz
x,y,z
-x,-y,-z
loop_
_atom_site_type_symbol
_atom_site_label
_atom_site_fract_x
_atom_site_fract_y
_atom_site_fract_z
Si Si1 0.905998 0.424177 0.651622
Si Si2 0.693551 0.131239 0.839214
Si Si3 0.091151 0.366632 0.125522
Si Si4 0.562801 0.784424 0.177041
Si Si5 0.384863 0.904947 0.548113
Si Si6 0.876653 0.833918 0.635451
Si Si7 0.108590 0.851709 0.784872
Si Si8 0.575827 0.161710 0.618727
O O1 0.756006 0.403181 0.710486
O O2 0.892343 0.644696 0.632323
O O3 0.000000 0.500000 0.500000
O O4 0.986377 0.100209 0.771929
O O5 0.560861 0.193868 0.828762
O O6 0.806430 0.929801 0.817261
O O7 0.667198 0.953152 0.007732
O O8 0.101247 0.379841 0.207377
O O9 0.950055 0.312985 0.184520
O O10 0.139963 0.618858 0.940374
O O11 0.611139 0.441325 0.308419
O O12 0.510719 0.925893 0.225058
O O13 0.234501 0.989951 0.628385
O O14 0.417570 0.979311 0.408786
O O15 0.500000 0.000000 0.500000
O O16 0.733404 0.066923 0.606097
O O17 0.000000 0.000000 0.500000
O O18 0.500000 0.500000 0.500000
#
# Coordination Sequence:
#
# PCOD9109165 Si02
#       8
#     2   2   2   2   2   2   2   2
#     4  11  25  40  65  94 133 163 217 272 321 386
#     4  10  20  41  63  93 122 172 213 260 321 387
#     4  10  20  41  70  89 128 168 218 264 318 395
#     4  10  21  39  66  86 127 170 215 256 323 388
#     4  11  23  38  62  95 130 167 210 267 323 386
#     4  12  24  42  68  98 131 172 217 269 332 386
#     4  10  22  42  64  97 126 170 215 264 326 383
#     4  10  23  41  62  96 128 169 218 266 322 387
#
# _framework density 20.172698
#
# number of rings (size 3 to 8) (size 9 to 14) (size 15 to 20)
#    0.000    1.500    2.500    3.000    3.500    1.500 
#    2.250    0.625    0.000    0.000    0.000    0.000 
#    0.000    0.000    0.000    0.000    0.000    0.000 
#
# Total GULP energy -89189.730536 kJ/mol
# GULP energy per Si atom -5574.358159 kJ/mol
# Density = 2.012678 g / cm^3
# Si number density = 20.172698 Si / 1000 Ang^3
#
#
#
# Elastic Constant Matrix: (Units=GPa)
#
#
# Indices 1 2 3 4 5 6 
#
# 1 95.4155 35.0580 42.0226 20.0711 -0.0263 11.8034
# 2 35.0580 82.0033 21.8452 11.1870 3.1450 10.6377
# 3 42.0226 21.8452 75.6517 18.6275 -2.3581 21.1853
# 4 20.0711 11.1870 18.6275 37.7508 -3.0272 8.5884
# 5 -0.0263 3.1450 -2.3581 -3.0272 36.7603 3.6657
# 6 11.8034 10.6377 21.1853 8.5884 3.6657 33.1995
#
#
#
# Elastic Compliance Matrix: (Units=1/GPa)
#
#
# Indices 1 2 3 4 5 6 
#
# 1 0.015874 -0.004551 -0.006895 -0.004028 -0.000504 0.001312
# 2 -0.004551 0.014865 -0.000926 -0.001143 -0.001217 -0.002124
# 3 -0.006895 -0.000926 0.021167 -0.004077 0.002087 -0.009935
# 4 -0.004028 -0.001143 -0.004077 0.032180 0.002907 -0.004246
# 5 -0.000504 -0.001217 0.002087 0.002907 0.028141 -0.004622
# 6 0.001312 -0.002124 -0.009935 -0.004246 -0.004622 0.038283
#
#
# Mechanical properties :
#
#
# Convention : Reuss Voigt Hill
#
# Bulk Modulus (GPa) = 36.81643 50.10245 43.45944
# Shear Modulus (GPa) = 27.12836 31.81844 29.47340
#
# Velocity S-wave (km/s) = 3.67114 3.97583 3.82652
# Velocity P-wave (km/s) = 6.02162 6.77990 6.41198
#
# Compressibility (1/GPa) = 0.02716179
#
# Stress axis : x y z
#
# Youngs Moduli (GPa) = 62.99560 67.27142 47.24402
#
# Poissons Ratio (x) = 0.30616 0.32574
# Poissons Ratio (y) = 0.28670 0.04376
# Poissons Ratio (z) = 0.43434 0.06231
#
# Static dielectric constant tensor:
#      x y z
#    x 1.756110 -0.040580 0.036960 
#    y -0.040580 1.738890 -0.012280 
#    z 0.036960 -0.012280 1.741620 
# 
# From -- ./inp_files/337378.got.cif
#   From: 2010.05.17/outbox.cif.g08.bks.cpg/sg2_169_cif.got.tgz:337378.got - 2010.06.03 11:33:40.
