data_PCOD9109164
_publ_section_title
;
Structure prediction by ZEFSAII (Michael W. Deem and Ramdas Pophale) SiO2 
 PCOD9109164
Probable space group: P -1
;
_chemical_formula_sum "Si O2"
_cell_formula_units_Z 16
_cell_length_a 12.196577
_cell_length_b 9.336120
_cell_length_c 15.378792
_cell_angle_alpha 28.605698
_cell_angle_beta 109.033371
_cell_angle_gamma 109.510244
_cell_volume 788.175694
_symmetry_space_group_name_H-M "P -1"
_symmetry_group_IT_number 2
_symmetry_cell_setting 'triclinic'
loop_
_space_group_symop_operation_xyz
x,y,z
-x,-y,-z
loop_
_atom_site_type_symbol
_atom_site_label
_atom_site_fract_x
_atom_site_fract_y
_atom_site_fract_z
Si Si1 0.065876 0.983899 0.762777
Si Si2 0.621989 0.672957 0.664466
Si Si3 0.959930 0.716031 0.580769
Si Si4 0.086642 0.187554 0.853631
Si Si5 0.549727 0.267271 0.260059
Si Si6 0.820146 0.602959 0.891429
Si Si7 0.256803 0.758123 0.181505
Si Si8 0.663483 0.809374 0.886273
O O1 0.944672 0.787850 0.813127
O O2 0.087360 0.196322 0.572353
O O3 0.052105 0.136620 0.771167
O O4 0.161468 0.747678 0.921221
O O5 0.506980 0.645785 0.709488
O O6 0.730392 0.687535 0.750760
O O7 0.639285 0.388259 0.760619
O O8 0.620619 0.982442 0.446308
O O9 0.853841 0.497164 0.711324
O O10 0.070308 0.527354 0.693790
O O11 0.000000 0.000000 0.500000
O O12 0.208580 0.048897 0.969812
O O13 0.000000 0.000000 0.000000
O O14 0.442145 0.165818 0.221324
O O15 0.618954 0.554659 0.080196
O O16 0.768725 0.689952 0.923907
O O17 0.294811 0.879598 0.221433
#
# Coordination Sequence:
#
# PCOD9109164 Si02
#       8
#     2   2   2   2   2   2   2   2
#     4  11  22  38  60  92 129 169 205 257 303 369
#     4  10  20  41  63  93 120 159 212 258 316 378
#     4  11  25  38  61  92 130 174 215 250 302 372
#     4  10  22  40  57  86 129 165 205 255 301 362
#     4   9  22  42  68  87 119 160 207 270 320 372
#     4  10  21  36  63  89 124 164 207 248 312 380
#     4  11  23  38  62  92 127 163 209 258 311 374
#     4  10  22  41  63  93 121 162 205 262 322 375
#
# _framework density 20.300042000000001
#
# number of rings (size 3 to 8) (size 9 to 14) (size 15 to 20)
#    0.000    1.750    1.250    2.625    8.750    2.000 
#    0.000    2.500    0.000    0.000    0.000    0.000 
#    0.000    0.000    0.000    0.000    0.000    0.000 
#
# Total GULP energy -89338.688699 kJ/mol
# GULP energy per Si atom -5583.668044 kJ/mol
# Density = 2.025384 g / cm^3
# Si number density = 20.300042 Si / 1000 Ang^3
#
#
#
# Elastic Constant Matrix: (Units=GPa)
#
#
# Indices 1 2 3 4 5 6 
#
# 1 45.9610 16.5286 29.7260 -7.4857 22.4590 -19.1068
# 2 16.5286 108.7911 29.6358 -18.7490 7.8522 -31.1575
# 3 29.7260 29.6358 106.5368 0.3926 29.7810 -14.3362
# 4 -7.4857 -18.7490 0.3926 31.5129 -9.3178 5.7578
# 5 22.4590 7.8522 29.7810 -9.3178 31.9039 -6.9690
# 6 -19.1068 -31.1575 -14.3362 5.7578 -6.9690 36.6942
#
#
#
# Elastic Compliance Matrix: (Units=1/GPa)
#
#
# Indices 1 2 3 4 5 6 
#
# 1 0.041762 0.001256 -0.003415 0.000935 -0.022522 0.017054
# 2 0.001256 0.014266 -0.004052 0.008092 0.004086 0.010691
# 3 -0.003415 -0.004052 0.014976 -0.007065 -0.012792 -0.000689
# 4 0.000935 0.008092 -0.007065 0.041464 0.016315 0.001189
# 5 -0.022522 0.004086 -0.012792 0.016315 0.062017 -0.004038
# 6 0.017054 0.010691 -0.000689 0.001189 -0.004038 0.043988
#
#
# Mechanical properties :
#
#
# Convention : Reuss Voigt Hill
#
# Bulk Modulus (GPa) = 17.07009 45.89664 31.48336
# Shear Modulus (GPa) = 19.96640 32.38211 26.17425
#
# Velocity S-wave (km/s) = 3.13959 3.99830 3.59467
# Velocity P-wave (km/s) = 4.64433 6.63124 5.72465
#
# Compressibility (1/GPa) = 0.05858200
#
# Stress axis : x y z
#
# Youngs Moduli (GPa) = 23.94549 70.09457 66.77537
#
# Poissons Ratio (x) = -0.08806 0.22802
# Poissons Ratio (y) = -0.03008 0.27060
# Poissons Ratio (z) = 0.08177 0.28405
#
# Static dielectric constant tensor:
#      x y z
#    x 1.728350 -0.010730 0.003980 
#    y -0.010730 1.727250 0.013270 
#    z 0.003980 0.013270 1.735710 
# 
# From -- ./inp_files/178671.got.cif
#   From: 2010.05.17/outbox.cif.g08.bks.cpg/sg2_90_cif.got.tgz:178671.got - 2010.06.03 11:33:40.
