data_PCOD9109519
_publ_section_title
;
Structure prediction by ZEFSAII (Michael W. Deem and Ramdas Pophale) SiO2 
 PCOD9109519
Probable space group: P -1
;
_chemical_formula_sum "Si O2"
_cell_formula_units_Z 16
_cell_length_a 14.525091
_cell_length_b 8.772345
_cell_length_c 11.935567
_cell_angle_alpha 79.133085
_cell_angle_beta 122.823844
_cell_angle_gamma 139.896058
_cell_volume 748.026543
_symmetry_space_group_name_H-M "P -1"
_symmetry_group_IT_number 2
_symmetry_cell_setting 'triclinic'
loop_
_space_group_symop_operation_xyz
x,y,z
-x,-y,-z
loop_
_atom_site_type_symbol
_atom_site_label
_atom_site_fract_x
_atom_site_fract_y
_atom_site_fract_z
Si Si1 0.485286 0.328426 0.588288
Si Si2 0.106338 0.172046 0.206331
Si Si3 0.032327 0.582794 0.637483
Si Si4 0.755895 0.987791 0.936819
Si Si5 0.442954 0.375223 0.802567
Si Si6 0.819260 0.108393 0.718293
Si Si7 0.602482 0.956924 0.065777
Si Si8 0.028372 0.923730 0.633068
O O1 0.500000 0.500000 0.500000
O O2 0.696248 0.523348 0.727899
O O3 0.403094 0.276491 0.662539
O O4 0.355883 0.080472 0.456103
O O5 0.079430 0.134522 0.325890
O O6 0.120584 0.004969 0.208639
O O7 0.936176 0.083931 0.063762
O O8 0.245198 0.852546 0.764107
O O9 0.955048 0.666852 0.598410
O O10 0.000000 0.500000 0.500000
O O11 0.964875 0.379304 0.710975
O O12 0.581544 0.675389 0.848014
O O13 0.780790 0.112523 0.820792
O O14 0.703966 0.031315 0.005561
O O15 0.526089 0.331232 0.938790
O O16 0.248198 0.181510 0.761849
O O17 0.500000 0.000000 0.000000
O O18 0.000000 0.000000 0.500000
#
# Coordination Sequence:
#
# PCOD9109519 Si02
#       8
#     2   2   2   2   2   2   2   2
#     4  10  20  41  65  98 135 167 225 276 332 396
#     4  11  22  41  66 103 135 174 225 278 334 400
#     4  11  24  47  67  96 137 177 231 278 336 402
#     4  12  24  43  67 103 134 175 231 273 339 416
#     4  11  22  43  71  96 134 173 232 280 326 410
#     4  11  24  41  71 101 137 177 221 282 343 401
#     4  11  27  46  64  96 139 181 222 281 343 398
#     4  11  23  41  71  99 133 177 231 284 330 395
#
# _framework density 21.389614999999999
#
# number of rings (size 3 to 8) (size 9 to 14) (size 15 to 20)
#    0.000    1.000    5.000    4.500    1.750    1.500 
#    2.250    0.625    0.000    0.000    0.000    0.000 
#    0.000    0.000    0.000    0.000    0.000    0.000 
#
# Total GULP energy -89257.454179 kJ/mol
# GULP energy per Si atom -5578.590886 kJ/mol
# Density = 2.134093 g / cm^3
# Si number density = 21.389615 Si / 1000 Ang^3
#
#
#
# Elastic Constant Matrix: (Units=GPa)
#
#
# Indices 1 2 3 4 5 6 
#
# 1 93.2189 11.5194 46.5705 -12.2668 -11.5267 10.0814
# 2 11.5194 66.3207 13.0542 -2.2019 2.2071 9.7237
# 3 46.5705 13.0542 85.0283 -2.3527 -24.9128 -6.5473
# 4 -12.2668 -2.2019 -2.3527 29.7385 8.3779 1.5694
# 5 -11.5267 2.2071 -24.9128 8.3779 36.9841 -10.8469
# 6 10.0814 9.7237 -6.5473 1.5694 -10.8469 21.4661
#
#
#
# Elastic Compliance Matrix: (Units=1/GPa)
#
#
# Indices 1 2 3 4 5 6 
#
# 1 0.024600 0.006527 -0.023069 0.016794 -0.022007 -0.033894
# 2 0.006527 0.021931 -0.014584 0.010183 -0.019653 -0.028123
# 3 -0.023069 -0.014584 0.042954 -0.022330 0.043566 0.054188
# 4 0.016794 0.010183 -0.022330 0.051173 -0.033774 -0.040118
# 5 -0.022007 -0.019653 0.043566 -0.033774 0.080551 0.075698
# 6 -0.033894 -0.028123 0.054188 -0.040118 0.075698 0.132954
#
#
# Mechanical properties :
#
#
# Convention : Reuss Voigt Hill
#
# Bulk Modulus (GPa) = 36.71950 42.98401 39.85175
# Shear Modulus (GPa) = 11.75113 29.19934 20.47523
#
# Velocity S-wave (km/s) = 2.34644 3.69876 3.09730
# Velocity P-wave (km/s) = 4.95432 6.19520 5.60918
#
# Compressibility (1/GPa) = 0.02723349
#
# Stress axis : x y z
#
# Youngs Moduli (GPa) = 40.65069 45.59821 23.28076
#
# Poissons Ratio (x) = -0.29763 0.53706
# Poissons Ratio (y) = -0.26534 0.33953
# Poissons Ratio (z) = 0.93776 0.66501
#
# Static dielectric constant tensor:
#      x y z
#    x 1.813770 0.011740 0.081450 
#    y 0.011740 1.695680 -0.016670 
#    z 0.081450 -0.016670 1.838640 
# 
# From -- ./inp_files/447372.got.cif
#   From: 2010.05.17/outbox.cif.g08.bks.cpg/sg2_224_cif.got.tgz:447372.got - 2010.06.03 11:33:40.
