data_PCOD9109182
_publ_section_title
;
Structure prediction by ZEFSAII (Michael W. Deem and Ramdas Pophale) SiO2 
 PCOD9109182
Probable space group: P -1
;
_chemical_formula_sum "Si O2"
_cell_formula_units_Z 16
_cell_length_a 8.277577
_cell_length_b 10.800166
_cell_length_c 10.306863
_cell_angle_alpha 98.880696
_cell_angle_beta 107.853325
_cell_angle_gamma 52.390321
_cell_volume 694.135563
_symmetry_space_group_name_H-M "P -1"
_symmetry_group_IT_number 2
_symmetry_cell_setting 'triclinic'
loop_
_space_group_symop_operation_xyz
x,y,z
-x,-y,-z
loop_
_atom_site_type_symbol
_atom_site_label
_atom_site_fract_x
_atom_site_fract_y
_atom_site_fract_z
Si Si1 0.966143 0.233558 0.688892
Si Si2 0.506837 0.705815 0.053104
Si Si3 0.319442 0.011518 0.569189
Si Si4 0.775197 0.781659 0.649155
Si Si5 0.603964 0.224124 0.678164
Si Si6 0.194927 0.483000 0.474395
Si Si7 0.864814 0.683520 0.028398
Si Si8 0.848868 0.327570 0.111574
O O1 0.799162 0.233196 0.733320
O O2 0.844692 0.364439 0.568814
O O3 0.083391 0.284908 0.812461
O O4 0.138422 0.068746 0.637368
O O5 0.448998 0.792753 0.191377
O O6 0.620610 0.749498 0.987970
O O7 0.684937 0.517786 0.094778
O O8 0.299060 0.727500 0.951536
O O9 0.550916 0.924709 0.674857
O O10 0.333236 0.903029 0.439447
O O11 0.262128 0.164244 0.502239
O O12 0.770722 0.635044 0.649860
O O13 0.001905 0.735584 0.735716
O O14 0.398903 0.387186 0.599708
O O15 0.000000 0.500000 0.500000
O O16 0.000000 0.500000 0.000000
O O17 0.964761 0.737295 0.960376
#
# Coordination Sequence:
#
# PCOD9109182 Si02
#       8
#     2   2   2   2   2   2   2   2
#     4  12  22  40  65  95 130 167 216 267 324 381
#     4  10  21  37  66  96 128 166 213 271 323 376
#     4  10  24  40  64  91 130 175 211 260 325 385
#     4  10  21  41  64  91 128 166 220 265 318 385
#     4  11  23  40  61  96 135 167 213 263 324 390
#     4  11  20  36  62  96 121 162 213 268 324 373
#     4  10  21  38  62  94 128 165 208 267 324 373
#     4  10  20  41  63  95 126 164 220 268 318 381
#
# _framework density 23.050253000000001
#
# number of rings (size 3 to 8) (size 9 to 14) (size 15 to 20)
#    0.000    1.500    2.500    3.750    3.500    0.000 
#    0.000    3.750    0.000    0.000    0.000    0.000 
#    0.000    0.000    0.000    0.000    0.000    0.000 
#
# Total GULP energy -89275.977776 kJ/mol
# GULP energy per Si atom -5579.748611 kJ/mol
# Density = 2.299779 g / cm^3
# Si number density = 23.050253 Si / 1000 Ang^3
#
#
#
# Elastic Constant Matrix: (Units=GPa)
#
#
# Indices 1 2 3 4 5 6 
#
# 1 157.8814 17.4642 26.5525 2.6612 13.1372 -31.8076
# 2 17.4642 53.4353 15.7595 2.8710 8.0732 -18.5920
# 3 26.5525 15.7595 71.4781 7.1894 23.1690 -16.6022
# 4 2.6612 2.8710 7.1894 29.0567 -6.3852 3.6402
# 5 13.1372 8.0732 23.1690 -6.3852 41.2165 0.5012
# 6 -31.8076 -18.5920 -16.6022 3.6402 0.5012 27.0440
#
#
#
# Elastic Compliance Matrix: (Units=1/GPa)
#
#
# Indices 1 2 3 4 5 6 
#
# 1 0.009121 0.002431 0.001331 -0.004233 -0.004956 0.013877
# 2 0.002431 0.027680 0.002710 -0.008812 -0.009388 0.024912
# 3 0.001331 0.002710 0.024390 -0.012692 -0.016880 0.020423
# 4 -0.004233 -0.008812 -0.012692 0.045860 0.017622 -0.025327
# 5 -0.004956 -0.009388 -0.016880 0.017622 0.040213 -0.025763
# 6 0.013877 0.024912 0.020423 -0.025327 -0.025763 0.086849
#
#
# Mechanical properties :
#
#
# Convention : Reuss Voigt Hill
#
# Bulk Modulus (GPa) = 13.48897 44.70526 29.09712
# Shear Modulus (GPa) = 20.33520 34.33135 27.33327
#
# Velocity S-wave (km/s) = 2.97343 3.86348 3.44730
# Velocity P-wave (km/s) = 4.20155 6.27206 5.33815
#
# Compressibility (1/GPa) = 0.07413463
#
# Stress axis : x y z
#
# Youngs Moduli (GPa) = 109.64237 36.12708 41.00035
#
# Poissons Ratio (x) = -0.08783 -0.05459
# Poissons Ratio (y) = -0.26654 -0.11110
# Poissons Ratio (z) = -0.14597 -0.09789
#
# Static dielectric constant tensor:
#      x y z
#    x 1.891500 -0.000900 -0.009540 
#    y -0.000900 1.963970 0.084420 
#    z -0.009540 0.084420 1.942670 
# 
# From -- ./inp_files/392739.got.cif
#   From: 2010.05.17/outbox.cif.g08.bks.cpg/sg2_197_cif.got.tgz:392739.got - 2010.06.03 11:33:40.
