data_PCOD9109564
_publ_section_title
;
Structure prediction by ZEFSAII (Michael W. Deem and Ramdas Pophale) SiO2 
 PCOD9109564
Probable space group: P -1
;
_chemical_formula_sum "Si O2"
_cell_formula_units_Z 14
_cell_length_a 25.499886
_cell_length_b 10.589728
_cell_length_c 6.981554
_cell_angle_alpha 48.094912
_cell_angle_beta 135.621741
_cell_angle_gamma 156.545371
_cell_volume 524.306547
_symmetry_space_group_name_H-M "P -1"
_symmetry_group_IT_number 2
_symmetry_cell_setting 'triclinic'
loop_
_space_group_symop_operation_xyz
x,y,z
-x,-y,-z
loop_
_atom_site_type_symbol
_atom_site_label
_atom_site_fract_x
_atom_site_fract_y
_atom_site_fract_z
Si Si1 0.588586 0.189078 0.349053
Si Si2 0.139619 0.743644 0.749106
Si Si3 0.009803 0.754400 0.856094
Si Si4 0.408180 0.150665 0.837339
Si Si5 0.769887 0.775809 0.724570
Si Si6 0.450601 0.245130 0.440869
Si Si7 0.122468 0.157783 0.406698
O O1 0.728220 0.558178 0.384515
O O2 0.500000 0.000000 0.500000
O O3 0.628843 0.074198 0.515173
O O4 0.486038 0.121334 0.038434
O O5 0.000000 0.500000 0.500000
O O6 0.264570 0.862014 0.873860
O O7 0.213478 0.062057 0.574920
O O8 0.089487 0.588700 0.983608
O O9 0.943776 0.793956 0.742998
O O10 0.029617 0.836756 0.600953
O O11 0.152272 0.017075 0.090120
O O12 0.375581 0.150287 0.538242
O O13 0.514017 0.506201 0.820155
O O14 0.605537 0.455140 0.653349
O O15 0.846935 0.772611 0.813184
#
# Coordination Sequence:
#
# PCOD9109564 Si02
#       7
#     2   2   2   2   2   2   2
#     4  12  23  40  63  96 135 165 210 267 324 391
#     4   9  20  40  64  92 123 164 218 260 318 383
#     4  10  22  41  62  87 129 169 213 264 311 382
#     4  10  22  41  68  95 126 171 213 268 328 378
#     4  10  20  41  66  88 126 165 211 269 318 376
#     4  10  22  42  66  98 127 164 218 265 326 386
#     4  11  23  40  60  96 127 166 216 256 324 385
#
# _framework density 26.701937000000001
#
# number of rings (size 3 to 8) (size 9 to 14) (size 15 to 20)
#    0.000    1.714    1.429    2.571    0.000    2.286 
#   12.857    0.000    0.000    0.000    0.000    0.000 
#    0.000    0.000    0.000    0.000    0.000    0.000 
#
# Total GULP energy -78057.287005 kJ/mol
# GULP energy per Si atom -5575.520500 kJ/mol
# Density = 2.664116 g / cm^3
# Si number density = 26.701937 Si / 1000 Ang^3
#
#
#
# Elastic Constant Matrix: (Units=GPa)
#
#
# Indices 1 2 3 4 5 6 
#
# 1 72.2367 2.9417 23.5665 -7.4996 -1.4654 1.1996
# 2 2.9417 90.8309 34.0325 -14.3692 -1.5455 12.9268
# 3 23.5665 34.0325 79.0363 -15.7300 7.5408 9.9594
# 4 -7.4996 -14.3692 -15.7300 53.2369 6.8084 3.2414
# 5 -1.4654 -1.5455 7.5408 6.8084 49.0516 -15.2099
# 6 1.1996 12.9268 9.9594 3.2414 -15.2099 43.2717
#
#
#
# Elastic Compliance Matrix: (Units=1/GPa)
#
#
# Indices 1 2 3 4 5 6 
#
# 1 0.015648 0.001560 -0.005428 0.000781 0.001496 0.000817
# 2 0.001560 0.013877 -0.005556 0.002507 0.000033 -0.003086
# 3 -0.005428 -0.005556 0.018568 0.004167 -0.005197 -0.004603
# 4 0.000781 0.002507 0.004167 0.021778 -0.005166 -0.005177
# 5 0.001496 0.000033 -0.005197 -0.005166 0.025166 0.010378
# 6 0.000817 -0.003086 -0.004603 -0.005177 0.010378 0.029104
#
#
# Mechanical properties :
#
#
# Convention : Reuss Voigt Hill
#
# Bulk Modulus (GPa) = 34.19261 40.35392 37.27326
# Shear Modulus (GPa) = 32.73572 41.21627 36.97599
#
# Velocity S-wave (km/s) = 3.50518 3.93309 3.72528
# Velocity P-wave (km/s) = 5.40507 5.98090 5.70026
#
# Compressibility (1/GPa) = 0.02924609
#
# Stress axis : x y z
#
# Youngs Moduli (GPa) = 63.90408 72.06178 53.85554
#
# Poissons Ratio (x) = -0.11238 0.29232
# Poissons Ratio (y) = -0.09966 0.29919
# Poissons Ratio (z) = 0.34686 0.40034
#
# Static dielectric constant tensor:
#      x y z
#    x 2.600240 -0.423900 0.436880 
#    y -0.423900 2.913460 -0.762260 
#    z 0.436880 -0.762260 2.973710 
# 
# From -- ./inp_files/270962.got.cif
#   From: 2010.05.17/outbox.cif.g08.bks.cpg/sg2_136_cif.got.tgz:270962.got - 2010.06.03 11:33:40.
