data_PCOD9109638
_publ_section_title
;
Structure prediction by ZEFSAII (Michael W. Deem and Ramdas Pophale) SiO2 
 PCOD9109638
Probable space group: P -1
;
_chemical_formula_sum "Si O2"
_cell_formula_units_Z 16
_cell_length_a 26.585546
_cell_length_b 9.545771
_cell_length_c 22.982065
_cell_angle_alpha 151.102062
_cell_angle_beta 17.021172
_cell_angle_gamma 153.557175
_cell_volume 751.861125
_symmetry_space_group_name_H-M "P -1"
_symmetry_group_IT_number 2
_symmetry_cell_setting 'triclinic'
loop_
_space_group_symop_operation_xyz
x,y,z
-x,-y,-z
loop_
_atom_site_type_symbol
_atom_site_label
_atom_site_fract_x
_atom_site_fract_y
_atom_site_fract_z
Si Si1 0.969346 0.877161 0.786931
Si Si2 0.373146 0.102258 0.760902
Si Si3 0.561774 0.466352 0.572737
Si Si4 0.298720 0.722702 0.890341
Si Si5 0.590402 0.275530 0.689975
Si Si6 0.285670 0.243441 0.646290
Si Si7 0.957994 0.731843 0.498468
Si Si8 0.028708 0.085890 0.667969
O O1 0.959600 0.537968 0.696224
O O2 0.828419 0.975863 0.016128
O O3 0.174369 0.151176 0.675719
O O4 0.951466 0.886010 0.740514
O O5 0.414295 0.261998 0.710951
O O6 0.506351 0.352390 0.752727
O O7 0.411659 0.786208 0.593120
O O8 0.456305 0.670532 0.735730
O O9 0.761711 0.662467 0.454930
O O10 0.199558 0.403641 0.845377
O O11 0.419384 0.019969 0.823151
O O12 0.125404 0.776477 0.128352
O O13 0.731167 0.537649 0.672066
O O14 0.708229 0.087716 0.464441
O O15 0.500000 0.500000 0.500000
O O16 0.000000 0.000000 0.500000
O O17 0.027669 0.882784 0.539112
#
# Coordination Sequence:
#
# PCOD9109638 Si02
#       8
#     2   2   2   2   2   2   2   2
#     4  11  24  42  71  96 131 176 228 279 325 397
#     4  11  23  43  64 102 140 171 214 273 350 392
#     4  11  25  42  66 103 145 171 210 281 336 408
#     4  11  22  39  70 102 131 172 221 270 334 404
#     4  10  20  41  66  93 132 170 219 277 322 394
#     4   9  18  35  64  99 133 164 208 269 336 383
#     4  11  26  46  66  93 133 180 227 281 331 389
#     4  12  25  44  69 100 132 178 230 273 330 393
#
# _framework density 21.280525000000001
#
# number of rings (size 3 to 8) (size 9 to 14) (size 15 to 20)
#    0.000    1.250    2.500    4.125    3.500    1.500 
#    2.250    3.125    0.000    0.000    0.000    0.000 
#    0.000    0.000    0.000    0.000    0.000    0.000 
#
# Total GULP energy -89162.017199 kJ/mol
# GULP energy per Si atom -5572.626075 kJ/mol
# Density = 2.123209 g / cm^3
# Si number density = 21.280525 Si / 1000 Ang^3
#
#
#
# Elastic Constant Matrix: (Units=GPa)
#
#
# Indices 1 2 3 4 5 6 
#
# 1 118.9651 42.7002 44.9447 -7.2358 -4.7349 12.7940
# 2 42.7002 58.8641 17.9010 -5.1760 -1.7025 8.9835
# 3 44.9447 17.9010 74.3565 -3.1360 -9.7419 2.1710
# 4 -7.2358 -5.1760 -3.1360 11.2280 1.4677 -2.1303
# 5 -4.7349 -1.7025 -9.7419 1.4677 26.7373 -2.1327
# 6 12.7940 8.9835 2.1710 -2.1303 -2.1327 50.1157
#
#
#
# Elastic Compliance Matrix: (Units=1/GPa)
#
#
# Indices 1 2 3 4 5 6 
#
# 1 0.013965 -0.007594 -0.006509 0.003432 -0.000715 -0.001806
# 2 -0.007594 0.023530 -0.000868 0.005405 -0.000622 -0.002038
# 3 -0.006509 -0.000868 0.018284 0.000025 0.005553 0.001263
# 4 0.003432 0.005405 0.000025 0.094687 -0.004076 0.002005
# 5 -0.000715 -0.000622 0.005553 -0.004076 0.039607 0.001566
# 6 -0.001806 -0.002038 0.001263 0.002005 0.001566 0.020878
#
#
# Mechanical properties :
#
#
# Convention : Reuss Voigt Hill
#
# Bulk Modulus (GPa) = 38.70667 51.47528 45.09098
# Shear Modulus (GPa) = 20.03964 27.39218 23.71591
#
# Velocity S-wave (km/s) = 3.07202 3.59164 3.34195
# Velocity P-wave (km/s) = 5.55080 6.43749 6.01052
#
# Compressibility (1/GPa) = 0.02583534
#
# Stress axis : x y z
#
# Youngs Moduli (GPa) = 71.60574 42.49964 54.69250
#
# Poissons Ratio (x) = 0.32275 0.35601
# Poissons Ratio (y) = 0.54379 0.04749
# Poissons Ratio (z) = 0.46610 0.03690
#
# Static dielectric constant tensor:
#      x y z
#    x 1.804760 -0.004090 -0.016530 
#    y -0.004090 1.788140 -0.010470 
#    z -0.016530 -0.010470 1.815030 
# 
# From -- ./inp_files/601964.got.cif
#   From: 2010.05.17/outbox.cif.g08.bks.cpg/sg2_301_cif.got.tgz:601964.got - 2010.06.03 11:33:40.
