data_PCOD9109765
_publ_section_title
;
Structure prediction by ZEFSAII (Michael W. Deem and Ramdas Pophale) SiO2 
 PCOD9109765
Probable space group: P -1
;
_chemical_formula_sum "Si O2"
_cell_formula_units_Z 16
_cell_length_a 17.458658
_cell_length_b 12.016444
_cell_length_c 24.247621
_cell_angle_alpha 28.100056
_cell_angle_beta 16.388359
_cell_angle_gamma 35.444779
_cell_volume 656.621560
_symmetry_space_group_name_H-M "P -1"
_symmetry_group_IT_number 2
_symmetry_cell_setting 'triclinic'
loop_
_space_group_symop_operation_xyz
x,y,z
-x,-y,-z
loop_
_atom_site_type_symbol
_atom_site_label
_atom_site_fract_x
_atom_site_fract_y
_atom_site_fract_z
Si Si1 0.615705 0.324397 0.459165
Si Si2 0.695842 0.318132 0.288683
Si Si3 0.162861 0.865942 0.986711
Si Si4 0.432046 0.454944 0.950128
Si Si5 0.101879 0.152086 0.605110
Si Si6 0.901926 0.877419 0.761503
Si Si7 0.147673 0.355945 0.599422
Si Si8 0.120076 0.214618 0.366545
O O1 0.500000 0.500000 0.500000
O O2 0.549984 0.380763 0.417624
O O3 0.939381 0.331478 0.240223
O O4 0.460858 0.051511 0.700194
O O5 0.475910 0.348149 0.380388
O O6 0.746599 0.050024 0.384304
O O7 0.000000 0.500000 0.000000
O O8 0.196062 0.611984 0.050025
O O9 0.021620 0.841816 0.154385
O O10 0.000000 0.000000 0.000000
O O11 0.404985 0.350686 0.077529
O O12 0.698139 0.644865 0.659298
O O13 0.347587 0.248981 0.051423
O O14 0.871352 0.004334 0.785834
O O15 0.030883 0.290658 0.647267
O O16 0.102719 0.074044 0.497389
O O17 0.078047 0.601810 0.563228
O O18 0.000000 0.000000 0.500000
#
# Coordination Sequence:
#
# PCOD9109765 Si02
#       8
#     2   2   2   2   2   2   2   2
#     4  11  23  37  65 100 131 171 222 282 337 395
#     4  11  25  42  64  99 142 181 218 277 341 402
#     4  11  19  39  62  96 125 172 225 277 331 392
#     4  10  20  41  67  90 131 177 220 281 331 389
#     4  11  24  42  63 101 136 183 219 273 343 405
#     4  10  22  42  67  97 134 172 229 277 337 396
#     4  11  24  41  68  97 138 180 228 271 342 407
#     4   9  22  43  72  99 130 177 232 287 328 397
#
# _framework density 24.367156999999999
#
# number of rings (size 3 to 8) (size 9 to 14) (size 15 to 20)
#    0.000    1.500    3.750    1.125    8.750    1.000 
#    0.000    2.500    2.750    0.000    0.000    0.000 
#    0.000    0.000    0.000    0.000    0.000    0.000 
#
# Total GULP energy -89285.710641 kJ/mol
# GULP energy per Si atom -5580.356915 kJ/mol
# Density = 2.431170 g / cm^3
# Si number density = 24.367157 Si / 1000 Ang^3
#
#
#
# Elastic Constant Matrix: (Units=GPa)
#
#
# Indices 1 2 3 4 5 6 
#
# 1 120.0223 60.8342 30.5779 -10.7755 0.4629 29.3058
# 2 60.8342 114.1730 22.2149 -1.8163 -1.7089 25.3301
# 3 30.5779 22.2149 88.4845 -5.2584 5.5992 21.0939
# 4 -10.7755 -1.8163 -5.2584 24.8301 -0.7592 -1.9791
# 5 0.4629 -1.7089 5.5992 -0.7592 29.4331 -3.8983
# 6 29.3058 25.3301 21.0939 -1.9791 -3.8983 45.1742
#
#
#
# Elastic Compliance Matrix: (Units=1/GPa)
#
#
# Indices 1 2 3 4 5 6 
#
# 1 0.013102 -0.005601 -0.001763 0.004532 -0.000661 -0.004395
# 2 -0.005601 0.012538 -0.000600 -0.001878 0.000463 -0.003159
# 3 -0.001763 -0.000600 0.013565 0.001562 -0.003218 -0.005063
# 4 0.004532 -0.001878 0.001562 0.042393 0.000522 -0.000714
# 5 -0.000661 0.000463 -0.003218 0.000522 0.035266 0.004738
# 6 -0.004395 -0.003159 -0.005063 -0.000714 0.004738 0.029500
#
#
# Mechanical properties :
#
#
# Convention : Reuss Voigt Hill
#
# Bulk Modulus (GPa) = 42.96134 61.10377 52.03255
# Shear Modulus (GPa) = 29.40302 33.82433 31.61368
#
# Velocity S-wave (km/s) = 3.47748 3.72978 3.60584
# Velocity P-wave (km/s) = 5.81317 6.60901 6.22382
#
# Compressibility (1/GPa) = 0.02327674
#
# Stress axis : x y z
#
# Youngs Moduli (GPa) = 76.32231 79.75998 73.72070
#
# Poissons Ratio (x) = 0.44674 0.12996
# Poissons Ratio (y) = 0.42749 0.04424
# Poissons Ratio (z) = 0.13454 0.04786
#
# Static dielectric constant tensor:
#      x y z
#    x 1.970840 -0.028420 -0.045550 
#    y -0.028420 1.826590 -0.029550 
#    z -0.045550 -0.029550 2.013210 
# 
# From -- ./inp_files/417277.got.cif
#   From: 2010.05.17/outbox.cif.g08.bks.cpg/sg2_209_cif.got.tgz:417277.got - 2010.06.03 11:33:40.
