data_PCOD9109622
_publ_section_title
;
Structure prediction by ZEFSAII (Michael W. Deem and Ramdas Pophale) SiO2 
 PCOD9109622
Probable space group: P -1
;
_chemical_formula_sum "Si O2"
_cell_formula_units_Z 14
_cell_length_a 7.758272
_cell_length_b 11.057286
_cell_length_c 13.963182
_cell_angle_alpha 134.691557
_cell_angle_beta 59.584040
_cell_angle_gamma 127.305262
_cell_volume 670.516009
_symmetry_space_group_name_H-M "P -1"
_symmetry_group_IT_number 2
_symmetry_cell_setting 'triclinic'
loop_
_space_group_symop_operation_xyz
x,y,z
-x,-y,-z
loop_
_atom_site_type_symbol
_atom_site_label
_atom_site_fract_x
_atom_site_fract_y
_atom_site_fract_z
Si Si1 0.499113 0.577864 0.386847
Si Si2 0.231530 0.235585 0.979061
Si Si3 0.684693 0.209760 0.564637
Si Si4 0.335660 0.146408 0.216551
Si Si5 0.571898 0.600096 0.169149
Si Si6 0.770845 0.088166 0.081074
Si Si7 0.100070 0.137321 0.457658
O O1 0.344161 0.684278 0.463128
O O2 0.364530 0.359725 0.318761
O O3 0.634530 0.599115 0.261007
O O4 0.676837 0.691340 0.477620
O O5 0.243891 0.277168 0.886724
O O6 0.229789 0.038468 0.899078
O O7 0.450320 0.391899 0.049083
O O8 0.015241 0.244470 0.089746
O O9 0.611406 0.314659 0.727128
O O10 0.916279 0.205704 0.513621
O O11 0.500000 0.000000 0.500000
O O12 0.172398 0.052244 0.297809
O O13 0.574759 0.152229 0.175032
O O14 0.262039 0.038721 0.076487
O O15 0.000000 0.000000 0.500000
#
# Coordination Sequence:
#
# PCOD9109622 Si02
#       7
#     2   2   2   2   2   2   2
#     4  10  23  44  62  96 132 161 211 265 315 385
#     4  10  20  41  66  93 121 176 209 264 317 375
#     4  10  22  41  65  93 126 165 208 260 320 371
#     4  11  25  43  60  94 133 162 217 265 314 383
#     4   9  21  40  65  94 130 156 222 262 309 384
#     4  10  23  41  65  90 127 171 210 263 321 373
#     4  12  25  42  68  96 125 174 211 262 322 377
#
# _framework density 20.879439999999999
#
# number of rings (size 3 to 8) (size 9 to 14) (size 15 to 20)
#    0.857    0.857    2.857    0.429    8.000    0.571 
#    2.571    0.714    0.000    0.000    0.000    0.000 
#    0.000    0.000    0.000    0.000    0.000    0.000 
#
# Total GULP energy -78096.447710 kJ/mol
# GULP energy per Si atom -5578.317694 kJ/mol
# Density = 2.083192 g / cm^3
# Si number density = 20.879440 Si / 1000 Ang^3
#
#
#
# Elastic Constant Matrix: (Units=GPa)
#
#
# Indices 1 2 3 4 5 6 
#
# 1 94.2573 32.1187 8.8915 4.0048 -20.7322 -4.3383
# 2 32.1187 84.3006 24.9625 -16.2295 -0.1118 -12.1089
# 3 8.8915 24.9625 46.0683 -10.7571 0.9053 -10.6981
# 4 4.0048 -16.2295 -10.7571 31.3425 -0.2112 6.7286
# 5 -20.7322 -0.1118 0.9053 -0.2112 34.3094 -0.1728
# 6 -4.3383 -12.1089 -10.6981 6.7286 -0.1728 19.3704
#
#
#
# Elastic Compliance Matrix: (Units=1/GPa)
#
#
# Indices 1 2 3 4 5 6 
#
# 1 0.015202 -0.006535 -0.000671 -0.005713 0.009153 0.001015
# 2 -0.006535 0.018052 -0.005804 0.007297 -0.003672 0.004048
# 3 -0.000671 -0.005804 0.028484 0.004630 -0.001095 0.010335
# 4 -0.005713 0.007297 0.004630 0.039694 -0.003346 -0.007979
# 5 0.009153 -0.003672 -0.001095 -0.003346 0.034677 0.000621
# 6 0.001015 0.004048 0.010335 -0.007979 0.000621 0.062868
#
#
# Mechanical properties :
#
#
# Convention : Reuss Voigt Hill
#
# Bulk Modulus (GPa) = 27.99775 39.61908 33.80842
# Shear Modulus (GPa) = 21.10558 27.58134 24.34346
#
# Velocity S-wave (km/s) = 3.18281 3.63847 3.41824
# Velocity P-wave (km/s) = 5.19089 6.05538 5.63973
#
# Compressibility (1/GPa) = 0.03571716
#
# Stress axis : x y z
#
# Youngs Moduli (GPa) = 65.78052 55.39423 35.10705
#
# Poissons Ratio (x) = 0.36201 0.02356
# Poissons Ratio (y) = 0.42989 0.20378
# Poissons Ratio (z) = 0.04415 0.32153
#
# Static dielectric constant tensor:
#      x y z
#    x 1.574860 0.015560 -0.027450 
#    y 0.015560 1.757340 0.003080 
#    z -0.027450 0.003080 1.772060 
# 
# From -- ./inp_files/400408.got.cif
#   From: 2010.05.17/outbox.cif.g08.bks.cpg/sg2_201_cif.got.tgz:400408.got - 2010.06.03 11:33:40.
