data_PCOD9109437
_publ_section_title
;
Structure prediction by ZEFSAII (Michael W. Deem and Ramdas Pophale) SiO2 
 PCOD9109437
Probable space group: P -1
;
_chemical_formula_sum "Si O2"
_cell_formula_units_Z 16
_cell_length_a 8.585309
_cell_length_b 15.876063
_cell_length_c 8.653985
_cell_angle_alpha 97.477323
_cell_angle_beta 120.030314
_cell_angle_gamma 125.335898
_cell_volume 670.125452
_symmetry_space_group_name_H-M "P -1"
_symmetry_group_IT_number 2
_symmetry_cell_setting 'triclinic'
loop_
_space_group_symop_operation_xyz
x,y,z
-x,-y,-z
loop_
_atom_site_type_symbol
_atom_site_label
_atom_site_fract_x
_atom_site_fract_y
_atom_site_fract_z
Si Si1 0.137697 0.554908 0.344790
Si Si2 0.893990 0.640713 0.823030
Si Si3 0.439204 0.780106 0.743917
Si Si4 0.479075 0.127730 0.847229
Si Si5 0.389021 0.533703 0.061563
Si Si6 0.648469 0.769485 0.411402
Si Si7 0.492403 0.966101 0.664472
Si Si8 0.911381 0.839179 0.852842
O O1 0.141725 0.453761 0.327691
O O2 0.223050 0.630299 0.563864
O O3 0.371161 0.665761 0.358279
O O4 0.844666 0.486567 0.128489
O O5 0.804670 0.704040 0.749326
O O6 0.745505 0.561379 0.884609
O O7 0.213409 0.762296 0.040450
O O8 0.718739 0.831343 0.854251
O O9 0.361940 0.828592 0.598684
O O10 0.474437 0.832601 0.942117
O O11 0.337724 0.149618 0.682753
O O12 0.369539 0.996146 0.718734
O O13 0.500000 0.500000 0.000000
O O14 0.630179 0.677872 0.280396
O O15 0.892019 0.865755 0.675774
O O16 0.500000 0.000000 0.500000
O O17 0.797140 0.059138 0.901167
#
# Coordination Sequence:
#
# PCOD9109437 Si02
#       8
#     2   2   2   2   2   2   2   2
#     4  10  20  41  65  91 135 179 219 261 327 396
#     4  10  21  40  65  90 134 179 216 261 336 384
#     4  11  25  40  67 102 132 168 226 276 319 386
#     4  11  22  42  67  93 130 177 219 271 330 386
#     4  11  22  35  64  98 136 168 226 267 316 394
#     4  10  20  42  62  92 132 180 209 267 332 380
#     4  11  24  46  71  93 127 178 220 268 338 392
#     4  10  24  41  68  97 130 169 225 270 323 398
#
# _framework density 23.876128000000001
#
# number of rings (size 3 to 8) (size 9 to 14) (size 15 to 20)
#    0.000    1.500    2.500    3.000    3.500    7.000 
#    0.000    5.000    0.000    0.000    0.000    0.000 
#    0.000    0.000    0.000    0.000    0.000    0.000 
#
# Total GULP energy -89506.713918 kJ/mol
# GULP energy per Si atom -5594.169620 kJ/mol
# Density = 2.382178 g / cm^3
# Si number density = 23.876128 Si / 1000 Ang^3
#
#
#
# Elastic Constant Matrix: (Units=GPa)
#
#
# Indices 1 2 3 4 5 6 
#
# 1 103.8843 38.7038 20.9735 1.2097 -41.2325 -18.7262
# 2 38.7038 94.6895 10.1642 -6.3566 -12.7582 -29.7559
# 3 20.9735 10.1642 103.2185 -11.7635 -20.3464 0.0573
# 4 1.2097 -6.3566 -11.7635 43.6665 -5.6873 -2.8206
# 5 -41.2325 -12.7582 -20.3464 -5.6873 36.0682 14.7906
# 6 -18.7262 -29.7559 0.0573 -2.8206 14.7906 30.6362
#
#
#
# Elastic Compliance Matrix: (Units=1/GPa)
#
#
# Indices 1 2 3 4 5 6 
#
# 1 0.020645 -0.007056 0.001563 0.001652 0.024715 -0.006017
# 2 -0.007056 0.018273 -0.002104 0.002177 -0.010024 0.018479
# 3 0.001563 -0.002104 0.012215 0.003988 0.011056 -0.006081
# 4 0.001652 0.002177 0.003988 0.025424 0.008328 0.001437
# 5 0.024715 -0.010024 0.011056 0.008328 0.071662 -0.028480
# 6 -0.006017 0.018479 -0.006081 0.001437 -0.028480 0.060805
#
#
# Mechanical properties :
#
#
# Convention : Reuss Voigt Hill
#
# Bulk Modulus (GPa) = 27.82414 49.05281 38.43848
# Shear Modulus (GPa) = 21.16870 37.53756 29.35313
#
# Velocity S-wave (km/s) = 2.98082 3.96937 3.51007
# Velocity P-wave (km/s) = 4.85035 6.44959 5.70627
#
# Compressibility (1/GPa) = 0.03594001
#
# Stress axis : x y z
#
# Youngs Moduli (GPa) = 48.43764 54.72441 81.86673
#
# Poissons Ratio (x) = 0.38615 -0.12798
# Poissons Ratio (y) = 0.34179 0.17223
# Poissons Ratio (z) = -0.07572 0.11513
#
# Static dielectric constant tensor:
#      x y z
#    x 1.936830 0.006830 0.014370 
#    y 0.006830 1.967330 0.041830 
#    z 0.014370 0.041830 1.919480 
# 
# From -- ./inp_files/188217.got.cif
#   From: 2010.05.17/outbox.cif.g08.bks.cpg/sg2_95_cif.got.tgz:188217.got - 2010.06.03 11:33:40.
