data_PCOD9109707
_publ_section_title
;
Structure prediction by ZEFSAII (Michael W. Deem and Ramdas Pophale) SiO2 
 PCOD9109707
Probable space group: P -1
;
_chemical_formula_sum "Si O2"
_cell_formula_units_Z 16
_cell_length_a 9.994490
_cell_length_b 15.352413
_cell_length_c 10.003811
_cell_angle_alpha 125.641021
_cell_angle_beta 82.264701
_cell_angle_gamma 139.168189
_cell_volume 666.492548
_symmetry_space_group_name_H-M "P -1"
_symmetry_group_IT_number 2
_symmetry_cell_setting 'triclinic'
loop_
_space_group_symop_operation_xyz
x,y,z
-x,-y,-z
loop_
_atom_site_type_symbol
_atom_site_label
_atom_site_fract_x
_atom_site_fract_y
_atom_site_fract_z
Si Si1 0.086106 0.930531 0.570730
Si Si2 0.449219 0.044510 0.170690
Si Si3 0.409747 0.840285 0.210708
Si Si4 0.218200 0.542569 0.596482
Si Si5 0.159287 0.014747 0.327198
Si Si6 0.554301 0.487027 0.334452
Si Si7 0.701020 0.495114 0.713565
Si Si8 0.078484 0.559595 0.230725
O O1 0.109130 0.935013 0.410721
O O2 0.838463 0.703323 0.447597
O O3 0.334664 0.052687 0.713446
O O4 0.042272 0.025914 0.700082
O O5 0.453680 0.975237 0.239824
O O6 0.201214 0.952699 0.152321
O O7 0.659718 0.272544 0.319754
O O8 0.500000 0.000000 0.000000
O O9 0.283020 0.763350 0.304454
O O10 0.186847 0.626948 0.975206
O O11 0.431456 0.628791 0.737322
O O12 0.151187 0.423383 0.372811
O O13 0.990624 0.425271 0.612579
O O14 0.424907 0.256044 0.518383
O O15 0.500000 0.500000 0.500000
O O16 0.372162 0.427827 0.203050
O O17 0.828407 0.500692 0.808491
#
# Coordination Sequence:
#
# PCOD9109707 Si02
#       8
#     2   2   2   2   2   2   2   2
#     4  10  20  41  66  99 130 163 216 270 331 387
#     4  11  23  44  63  92 135 176 219 263 326 394
#     4  11  25  40  62  92 135 176 212 267 325 395
#     4  10  21  39  63  92 125 170 216 271 318 380
#     4   9  20  38  69  95 127 166 211 273 322 382
#     4   9  20  37  64  97 125 160 215 275 327 384
#     4   9  18  38  65  94 125 162 214 268 327 381
#     4  11  22  40  61  94 132 170 217 265 321 391
#
# _framework density 24.006269
#
# number of rings (size 3 to 8) (size 9 to 14) (size 15 to 20)
#    0.000    2.000    2.500    1.125    1.750    4.500 
#    0.000    1.875    0.000    3.000    0.000    0.000 
#    0.000    0.000    0.000    0.000    0.000    0.000 
#
# Total GULP energy -89334.789937 kJ/mol
# GULP energy per Si atom -5583.424371 kJ/mol
# Density = 2.395163 g / cm^3
# Si number density = 24.006269 Si / 1000 Ang^3
#
#
#
# Elastic Constant Matrix: (Units=GPa)
#
#
# Indices 1 2 3 4 5 6 
#
# 1 181.4486 70.4594 32.2881 -7.6421 15.5280 7.2406
# 2 70.4594 180.6496 31.0104 -19.0741 1.9980 5.3318
# 3 32.2881 31.0104 38.1829 -0.1937 -2.2819 11.5321
# 4 -7.6421 -19.0741 -0.1937 19.8338 10.2535 1.9349
# 5 15.5280 1.9980 -2.2819 10.2535 32.1191 -0.3052
# 6 7.2406 5.3318 11.5321 1.9349 -0.3052 43.3415
#
#
#
# Elastic Compliance Matrix: (Units=1/GPa)
#
#
# Indices 1 2 3 4 5 6 
#
# 1 0.007752 -0.001556 -0.005644 0.004207 -0.005393 0.000172
# 2 -0.001556 0.007982 -0.005387 0.008452 -0.002822 0.000314
# 3 -0.005644 -0.005387 0.038254 -0.010958 0.009204 -0.008019
# 4 0.004207 0.008452 -0.010958 0.074286 -0.027075 -0.002334
# 5 -0.005393 -0.002822 0.009204 -0.027075 0.043217 0.000312
# 6 0.000172 0.000314 -0.008019 -0.002334 0.000312 0.025245
#
#
# Mechanical properties :
#
#
# Convention : Reuss Voigt Hill
#
# Bulk Modulus (GPa) = 34.70715 74.19965 54.45340
# Shear Modulus (GPa) = 21.59692 36.82708 29.21200
#
# Velocity S-wave (km/s) = 3.00265 3.92096 3.49212
# Velocity P-wave (km/s) = 5.14880 7.17455 6.24437
#
# Compressibility (1/GPa) = 0.02881250
#
# Stress axis : x y z
#
# Youngs Moduli (GPa) = 129.00703 125.28912 26.14073
#
# Poissons Ratio (x) = 0.19491 0.14755
# Poissons Ratio (y) = 0.20070 0.14083
# Poissons Ratio (z) = 0.72816 0.67499
#
# Static dielectric constant tensor:
#      x y z
#    x 1.997450 0.006510 -0.016290 
#    y 0.006510 1.915170 -0.051650 
#    z -0.016290 -0.051650 2.028810 
# 
# From -- ./inp_files/399437.got.cif
#   From: 2010.05.17/outbox.cif.g08.bks.cpg/sg2_200_cif.got.tgz:399437.got - 2010.06.03 11:33:40.
