data_PCOD9109745
_publ_section_title
;
Structure prediction by ZEFSAII (Michael W. Deem and Ramdas Pophale) SiO2 
 PCOD9109745
Probable space group: P -1
;
_chemical_formula_sum "Si O2"
_cell_formula_units_Z 14
_cell_length_a 8.447162
_cell_length_b 13.721204
_cell_length_c 10.828969
_cell_angle_alpha 55.917985
_cell_angle_beta 138.582141
_cell_angle_gamma 136.129516
_cell_volume 574.907977
_symmetry_space_group_name_H-M "P -1"
_symmetry_group_IT_number 2
_symmetry_cell_setting 'triclinic'
loop_
_space_group_symop_operation_xyz
x,y,z
-x,-y,-z
loop_
_atom_site_type_symbol
_atom_site_label
_atom_site_fract_x
_atom_site_fract_y
_atom_site_fract_z
Si Si1 0.545766 0.821734 0.041158
Si Si2 0.445428 0.000744 0.285600
Si Si3 0.647432 0.461803 0.006183
Si Si4 0.946646 0.417543 0.402439
Si Si5 0.108842 0.287151 0.216575
Si Si6 0.388984 0.151727 0.358746
Si Si7 0.128071 0.234151 0.537770
O O1 0.654187 0.961360 0.923204
O O2 0.524407 0.698606 0.030098
O O3 0.220626 0.765160 0.927661
O O4 0.718047 0.830284 0.257049
O O5 0.299102 0.026316 0.298769
O O6 0.790022 0.114550 0.409291
O O7 0.437618 0.861760 0.415921
O O8 0.936601 0.490616 0.220249
O O9 0.500000 0.500000 0.000000
O O10 0.728064 0.567992 0.865393
O O11 0.620616 0.286422 0.321336
O O12 0.000000 0.500000 0.500000
O O13 0.135943 0.353846 0.539537
O O14 0.152499 0.176038 0.250579
O O15 0.232895 0.296346 0.419038
#
# Coordination Sequence:
#
# PCOD9109745 Si02
#       7
#     2   2   2   2   2   2   2
#     4  11  22  40  62  91 126 165 207 254 314 371
#     4   9  20  44  67  87 122 162 218 255 310 364
#     4  12  21  40  62  88 128 165 205 256 309 371
#     4  11  22  40  62  95 125 164 214 254 307 370
#     4  11  23  39  61  94 128 164 204 254 324 367
#     4  10  20  41  67  88 123 168 203 266 312 362
#     4  10  23  40  61  93 125 166 206 259 309 369
#
# _framework density 24.351723
#
# number of rings (size 3 to 8) (size 9 to 14) (size 15 to 20)
#    0.000    1.429    5.714    1.286    0.000    4.000 
#    0.000   12.143    0.000    0.000    0.000    0.000 
#    0.000    0.000    0.000    0.000    0.000    0.000 
#
# Total GULP energy -78290.513802 kJ/mol
# GULP energy per Si atom -5592.179557 kJ/mol
# Density = 2.429630 g / cm^3
# Si number density = 24.351723 Si / 1000 Ang^3
#
#
#
# Elastic Constant Matrix: (Units=GPa)
#
#
# Indices 1 2 3 4 5 6 
#
# 1 99.3272 17.6189 46.7287 -14.4445 -6.5519 3.7846
# 2 17.6189 35.0625 26.6385 -13.1834 -7.1802 -4.1829
# 3 46.7287 26.6385 216.6107 -22.5991 -25.0491 8.4652
# 4 -14.4445 -13.1834 -22.5991 36.7217 3.8117 -5.8231
# 5 -6.5519 -7.1802 -25.0491 3.8117 51.0156 -16.4169
# 6 3.7846 -4.1829 8.4652 -5.8231 -16.4169 19.8315
#
#
#
# Elastic Compliance Matrix: (Units=1/GPa)
#
#
# Indices 1 2 3 4 5 6 
#
# 1 0.012035 -0.004587 -0.001878 0.001586 -0.001067 -0.002881
# 2 -0.004587 0.043654 -0.002477 0.015122 0.011209 0.024860
# 3 -0.001878 -0.002477 0.005740 0.001619 0.001935 -0.000537
# 4 0.001586 0.015122 0.001619 0.036499 0.006209 0.018053
# 5 -0.001067 0.011209 0.001935 0.006209 0.030910 0.029153
# 6 -0.002881 0.024860 -0.000537 0.018053 0.029153 0.085882
#
#
# Mechanical properties :
#
#
# Convention : Reuss Voigt Hill
#
# Bulk Modulus (GPa) = 22.96408 59.21920 41.09164
# Shear Modulus (GPa) = 20.23332 38.84804 29.54068
#
# Velocity S-wave (km/s) = 2.88562 3.99844 3.48671
# Velocity P-wave (km/s) = 4.53355 6.75927 5.75503
#
# Compressibility (1/GPa) = 0.04354627
#
# Stress axis : x y z
#
# Youngs Moduli (GPa) = 83.09370 22.90732 174.22253
#
# Poissons Ratio (x) = 0.10508 0.32710
# Poissons Ratio (y) = 0.38116 0.43147
# Poissons Ratio (z) = 0.15601 0.05673
#
# Static dielectric constant tensor:
#      x y z
#    x 1.925200 -0.005630 -0.014920 
#    y -0.005630 2.005130 -0.012740 
#    z -0.014920 -0.012740 1.992560 
# 
# From -- ./inp_files/253358.got.cif
#   From: 2010.05.17/outbox.cif.g08.bks.cpg/sg2_127_cif.got.tgz:253358.got - 2010.06.03 11:33:40.
