data_PCOD9109004
_publ_section_title
;
Structure prediction by ZEFSAII (Michael W. Deem and Ramdas Pophale) SiO2 
 PCOD9109004
Probable space group: P -1
;
_chemical_formula_sum "Si O2"
_cell_formula_units_Z 13
_cell_length_a 8.673537
_cell_length_b 6.673661
_cell_length_c 9.346971
_cell_angle_alpha 104.095933
_cell_angle_beta 67.631967
_cell_angle_gamma 80.202957
_cell_volume 463.963339
_symmetry_space_group_name_H-M "P -1"
_symmetry_group_IT_number 2
_symmetry_cell_setting 'triclinic'
loop_
_space_group_symop_operation_xyz
x,y,z
-x,-y,-z
loop_
_atom_site_type_symbol
_atom_site_label
_atom_site_fract_x
_atom_site_fract_y
_atom_site_fract_z
Si Si1 0.355902 0.891400 0.870180
Si Si2 0.143393 0.185325 0.566434
Si Si3 0.000000 0.500000 0.500000
Si Si4 0.233191 0.551983 0.708562
Si Si5 0.094745 0.727216 0.066132
Si Si6 0.320664 0.448871 0.168794
Si Si7 0.523146 0.191377 0.698959
O O1 0.321665 0.744205 0.722330
O O2 0.513563 0.752507 0.887906
O O3 0.408190 0.089102 0.824153
O O4 0.182109 0.916610 0.028493
O O5 0.157835 0.444188 0.585102
O O6 0.008479 0.228054 0.492969
O O7 0.059858 0.191108 0.752866
O O8 0.322894 0.006982 0.451358
O O9 0.834039 0.586672 0.690423
O O10 0.388555 0.343374 0.663499
O O11 0.083723 0.626461 0.895921
O O12 0.242240 0.533777 0.056933
O O13 0.382862 0.651622 0.233606
#
# Coordination Sequence:
#
# PCOD9109004 Si02
#       7
#     2   2   1   2   2   2   2
#     4   9  20  39  61  92 120 164 203 241 313 356
#     4  11  21  42  64  90 127 157 209 249 306 360
#     4  10  22  38  64  90 116 168 192 254 308 350
#     4   9  22  41  64  88 125 163 202 250 302 362
#     4   9  21  39  64  87 124 167 197 251 306 355
#     4  10  20  41  61  91 126 154 211 246 303 363
#     4  11  22  38  66  93 122 160 203 255 301 358
#
# _framework density 28.019454
#
# number of rings (size 3 to 8) (size 9 to 14) (size 15 to 20)
#    0.923    1.231    1.538    1.385    0.000    3.692 
#    2.769    2.308    0.000    0.000    0.000    0.000 
#    0.000    0.000    0.000    0.000    0.000    0.000 
#
# Total GULP energy -72598.479541 kJ/mol
# GULP energy per Si atom -5584.498426 kJ/mol
# Density = 2.795568 g / cm^3
# Si number density = 28.019454 Si / 1000 Ang^3
#
#
#
# Elastic Constant Matrix: (Units=GPa)
#
#
# Indices 1 2 3 4 5 6 
#
# 1 146.3626 55.5311 37.8247 10.4134 3.1523 -13.6148
# 2 55.5311 151.6113 56.9353 3.7247 -8.3711 -8.2173
# 3 37.8247 56.9353 134.0510 -11.3017 -13.8465 -12.8523
# 4 10.4134 3.7247 -11.3017 42.6969 5.0324 -4.0520
# 5 3.1523 -8.3711 -13.8465 5.0324 49.1935 5.2936
# 6 -13.6148 -8.2173 -12.8523 -4.0520 5.2936 46.6066
#
#
#
# Elastic Compliance Matrix: (Units=1/GPa)
#
#
# Indices 1 2 3 4 5 6 
#
# 1 0.008476 -0.002488 -0.001483 -0.001929 -0.001361 0.001615
# 2 -0.002488 0.008704 -0.003011 -0.001080 0.000927 -0.000222
# 3 -0.001483 -0.003011 0.009786 0.003172 0.001818 0.001803
# 4 -0.001929 -0.001080 0.003172 0.025307 -0.002031 0.002551
# 5 -0.001361 0.000927 0.001818 -0.002031 0.021546 -0.002356
# 6 0.001615 -0.000222 0.001803 0.002551 -0.002356 0.022876
#
#
# Mechanical properties :
#
#
# Convention : Reuss Voigt Hill
#
# Bulk Modulus (GPa) = 76.91964 81.40079 79.16022
# Shear Modulus (GPa) = 43.48120 46.48163 44.98141
#
# Velocity S-wave (km/s) = 3.94359 4.07739 4.01105
# Velocity P-wave (km/s) = 6.94606 7.16110 7.05440
#
# Compressibility (1/GPa) = 0.01300058
#
# Stress axis : x y z
#
# Youngs Moduli (GPa) = 117.97438 114.89582 102.19191
#
# Poissons Ratio (x) = 0.28583 0.15160
# Poissons Ratio (y) = 0.29349 0.30772
# Poissons Ratio (z) = 0.17501 0.34598
#
# Static dielectric constant tensor:
#      x y z
#    x 2.274510 0.048220 0.070680 
#    y 0.048220 2.324720 -0.009160 
#    z 0.070680 -0.009160 2.193180 
# 
# From -- ./inp_files/410680.got.cif
#   From: 2010.05.17/outbox.cif.g08.bks.cpg/sg2_206_cif.got.tgz:410680.got - 2010.06.03 11:33:40.
