data_PCOD9109782
_publ_section_title
;
Structure prediction by ZEFSAII (Michael W. Deem and Ramdas Pophale) SiO2 
 PCOD9109782
Probable space group: P -1
;
_chemical_formula_sum "Si O2"
_cell_formula_units_Z 14
_cell_length_a 8.840561
_cell_length_b 9.518679
_cell_length_c 11.125689
_cell_angle_alpha 137.351014
_cell_angle_beta 118.202440
_cell_angle_gamma 75.522143
_cell_volume 551.482037
_symmetry_space_group_name_H-M "P -1"
_symmetry_group_IT_number 2
_symmetry_cell_setting 'triclinic'
loop_
_space_group_symop_operation_xyz
x,y,z
-x,-y,-z
loop_
_atom_site_type_symbol
_atom_site_label
_atom_site_fract_x
_atom_site_fract_y
_atom_site_fract_z
Si Si1 0.328706 0.495054 0.514330
Si Si2 0.961919 0.875445 0.752977
Si Si3 0.199296 0.782198 0.974115
Si Si4 0.429029 0.040802 0.675908
Si Si5 0.875592 0.582466 0.103800
Si Si6 0.525397 0.375779 0.722524
Si Si7 0.105528 0.828965 0.530233
O O1 0.500000 0.500000 0.500000
O O2 0.408693 0.513966 0.690969
O O3 0.209149 0.646935 0.505449
O O4 0.198613 0.276150 0.342982
O O5 0.974963 0.862581 0.608273
O O6 0.134132 0.807692 0.831692
O O7 0.935304 0.104388 0.926921
O O8 0.391260 0.900857 0.148414
O O9 0.171487 0.554815 0.878385
O O10 0.424705 0.815333 0.463913
O O11 0.264869 0.016317 0.685344
O O12 0.431240 0.231804 0.703626
O O13 0.005559 0.774117 0.333852
O O14 0.690462 0.532546 0.933873
O O15 0.000000 0.500000 0.000000
#
# Coordination Sequence:
#
# PCOD9109782 Si02
#       7
#     2   2   2   2   2   2   2
#     4  12  21  40  66  99 127 173 214 270 326 387
#     4  11  24  41  67  99 132 168 219 279 321 386
#     4  10  22  42  68  90 130 178 217 257 334 399
#     4  10  20  41  67  92 128 182 213 261 325 403
#     4  11  21  39  67  99 126 175 216 269 321 397
#     4  10  21  38  66  90 134 174 219 251 329 406
#     4  12  24  41  72 100 132 163 228 280 320 368
#
# _framework density 25.386139
#
# number of rings (size 3 to 8) (size 9 to 14) (size 15 to 20)
#    0.000    1.143    5.714    0.429    0.000    0.571 
#    0.000    3.571    0.000    0.000    0.000    0.000 
#    0.000    0.000    0.000    0.000    0.000    0.000 
#
# Total GULP energy -78324.497189 kJ/mol
# GULP energy per Si atom -5594.606942 kJ/mol
# Density = 2.532836 g / cm^3
# Si number density = 25.386139 Si / 1000 Ang^3
#
#
#
# Elastic Constant Matrix: (Units=GPa)
#
#
# Indices 1 2 3 4 5 6 
#
# 1 88.2199 32.9437 39.7469 2.0360 10.6418 8.5502
# 2 32.9437 99.4500 41.9032 -18.3784 21.0910 -0.4806
# 3 39.7469 41.9032 163.9024 -15.4490 21.6505 4.4569
# 4 2.0360 -18.3784 -15.4490 43.3552 0.6300 14.1518
# 5 10.6418 21.0910 21.6505 0.6300 41.4171 -8.9321
# 6 8.5502 -0.4806 4.4569 14.1518 -8.9321 45.7353
#
#
#
# Elastic Compliance Matrix: (Units=1/GPa)
#
#
# Indices 1 2 3 4 5 6 
#
# 1 0.014305 -0.004039 -0.002564 -0.002719 -0.000613 -0.001745
# 2 -0.004039 0.014465 -0.001188 0.006738 -0.006304 -0.002293
# 3 -0.002564 -0.001188 0.007797 0.003054 -0.003262 -0.001875
# 4 -0.002719 0.006738 0.003054 0.030701 -0.007083 -0.010602
# 5 -0.000613 -0.006304 -0.003262 -0.007083 0.031191 0.008650
# 6 -0.001745 -0.002293 -0.001875 -0.010602 0.008650 0.027320
#
#
# Mechanical properties :
#
#
# Convention : Reuss Voigt Hill
#
# Bulk Modulus (GPa) = 47.65691 64.52890 56.09290
# Shear Modulus (GPa) = 33.70275 41.90007 37.80141
#
# Velocity S-wave (km/s) = 3.64758 4.06705 3.86302
# Velocity P-wave (km/s) = 6.04594 6.89411 6.48391
#
# Compressibility (1/GPa) = 0.02098331
#
# Stress axis : x y z
#
# Youngs Moduli (GPa) = 69.90693 69.13196 128.25957
#
# Poissons Ratio (x) = 0.27922 0.32888
# Poissons Ratio (y) = 0.28235 0.15243
# Poissons Ratio (z) = 0.17925 0.08216
#
# Static dielectric constant tensor:
#      x y z
#    x 2.056840 -0.084150 -0.058570 
#    y -0.084150 2.077280 0.059430 
#    z -0.058570 0.059430 2.022940 
# 
# From -- ./inp_files/393203.got.cif
#   From: 2010.05.17/outbox.cif.g08.bks.cpg/sg2_197_cif.got.tgz:393203.got - 2010.06.03 11:33:40.
