data_PCOD9109320
_publ_section_title
;
Structure prediction by ZEFSAII (Michael W. Deem and Ramdas Pophale) SiO2 
 PCOD9109320
Probable space group: P -1
;
_chemical_formula_sum "Si O2"
_cell_formula_units_Z 16
_cell_length_a 7.834726
_cell_length_b 11.255335
_cell_length_c 9.269643
_cell_angle_alpha 90.058529
_cell_angle_beta 90.222083
_cell_angle_gamma 58.236683
_cell_volume 694.989182
_symmetry_space_group_name_H-M "P -1"
_symmetry_group_IT_number 2
_symmetry_cell_setting 'triclinic'
loop_
_space_group_symop_operation_xyz
x,y,z
-x,-y,-z
loop_
_atom_site_type_symbol
_atom_site_label
_atom_site_fract_x
_atom_site_fract_y
_atom_site_fract_z
Si Si1 0.903414 0.635182 0.330419
Si Si2 0.713541 0.479571 0.182620
Si Si3 0.242664 0.600386 0.140984
Si Si4 0.660976 0.003674 0.659609
Si Si5 0.103661 0.924883 0.144869
Si Si6 0.043214 0.127482 0.603930
Si Si7 0.656648 0.346717 0.433197
Si Si8 0.622450 0.766025 0.566754
O O1 0.770941 0.587774 0.244641
O O2 0.836998 0.645235 0.500107
O O3 0.124680 0.559505 0.255316
O O4 0.865962 0.790546 0.317379
O O5 0.478359 0.530043 0.173984
O O6 0.783769 0.360911 0.305508
O O7 0.791014 0.437375 0.020469
O O8 0.172124 0.763451 0.135359
O O9 0.722627 0.050092 0.802833
O O10 0.489569 0.137544 0.574080
O O11 0.628166 0.874565 0.675918
O O12 0.834203 0.943339 0.538041
O O13 0.951821 0.977940 0.280044
O O14 0.000000 0.000000 0.000000
O O15 0.816558 0.243036 0.552554
O O16 0.500000 0.500000 0.500000
O O17 0.517561 0.289124 0.383825
#
# Coordination Sequence:
#
# PCOD9109320 Si02
#       8
#     2   2   2   2   2   2   2   2
#     4  10  20  41  64  95 126 174 213 267 333 393
#     4  11  23  41  68  92 135 173 216 274 326 400
#     4  10  24  44  62  94 131 179 220 265 332 398
#     4  10  21  41  64  94 128 175 222 276 328 390
#     4  11  22  38  63  92 130 172 222 268 329 394
#     4  10  23  39  64  96 130 171 222 274 332 392
#     4  12  22  39  65 101 133 168 217 275 334 391
#     4  10  21  38  67  97 131 166 222 279 335 383
#
# _framework density 23.021943
#
# number of rings (size 3 to 8) (size 9 to 14) (size 15 to 20)
#    0.000    1.500    2.500    3.000    1.750    0.500 
#    4.500    5.000    0.000   15.750    0.000    0.000 
#    0.000    0.000    0.000    0.000    0.000    0.000 
#
# Total GULP energy -89255.137915 kJ/mol
# GULP energy per Si atom -5578.446120 kJ/mol
# Density = 2.296954 g / cm^3
# Si number density = 23.021943 Si / 1000 Ang^3
#
#
#
# Elastic Constant Matrix: (Units=GPa)
#
#
# Indices 1 2 3 4 5 6 
#
# 1 121.3165 43.0520 39.5032 5.2763 2.7802 30.9034
# 2 43.0520 77.9377 34.8708 4.4589 5.5959 12.5690
# 3 39.5032 34.8708 97.4736 -6.1568 9.6094 19.4809
# 4 5.2763 4.4589 -6.1568 34.2964 5.9753 10.6836
# 5 2.7802 5.5959 9.6094 5.9753 35.9727 11.4279
# 6 30.9034 12.5690 19.4809 10.6836 11.4279 53.3394
#
#
#
# Elastic Compliance Matrix: (Units=1/GPa)
#
#
# Indices 1 2 3 4 5 6 
#
# 1 0.012074 -0.004911 -0.002295 -0.000333 0.002217 -0.005409
# 2 -0.004911 0.017643 -0.004595 -0.002520 -0.001068 0.001100
# 3 -0.002295 -0.004595 0.014031 0.004908 -0.002680 -0.003121
# 4 -0.000333 -0.002520 0.004908 0.033266 -0.004274 -0.006754
# 5 0.002217 -0.001068 -0.002680 -0.004274 0.031080 -0.005857
# 6 -0.005409 0.001100 -0.003121 -0.006754 -0.005857 0.025370
#
#
# Mechanical properties :
#
#
# Convention : Reuss Voigt Hill
#
# Bulk Modulus (GPa) = 49.63687 59.06442 54.35064
# Shear Modulus (GPa) = 30.52843 36.67514 33.60179
#
# Velocity S-wave (km/s) = 3.64546 3.99564 3.82456
# Velocity P-wave (km/s) = 6.27110 6.85552 6.56981
#
# Compressibility (1/GPa) = 0.02014632
#
# Stress axis : x y z
#
# Youngs Moduli (GPa) = 82.82003 56.68014 71.26958
#
# Poissons Ratio (x) = 0.27834 0.16358
# Poissons Ratio (y) = 0.40671 0.32749
# Poissons Ratio (z) = 0.19009 0.26045
#
# Static dielectric constant tensor:
#      x y z
#    x 1.953890 -0.060770 -0.041960 
#    y -0.060770 1.947450 0.028660 
#    z -0.041960 0.028660 1.905170 
# 
# From -- ./inp_files/187642.got.cif
#   From: 2010.05.17/outbox.cif.g08.bks.cpg/sg2_94_cif.got.tgz:187642.got - 2010.06.03 11:33:40.
