data_PCOD9109526
_publ_section_title
;
Structure prediction by ZEFSAII (Michael W. Deem and Ramdas Pophale) SiO2 
 PCOD9109526
Probable space group: P -1
;
_chemical_formula_sum "Si O2"
_cell_formula_units_Z 13
_cell_length_a 8.915265
_cell_length_b 23.685828
_cell_length_c 13.157100
_cell_angle_alpha 25.876655
_cell_angle_beta 125.645230
_cell_angle_gamma 144.455659
_cell_volume 569.892090
_symmetry_space_group_name_H-M "P -1"
_symmetry_group_IT_number 2
_symmetry_cell_setting 'triclinic'
loop_
_space_group_symop_operation_xyz
x,y,z
-x,-y,-z
loop_
_atom_site_type_symbol
_atom_site_label
_atom_site_fract_x
_atom_site_fract_y
_atom_site_fract_z
Si Si1 0.505966 0.113130 0.627733
Si Si2 0.970019 0.698979 0.340400
Si Si3 0.377359 0.257337 0.945394
Si Si4 0.239340 0.498151 0.795663
Si Si5 0.824787 0.794139 0.834202
Si Si6 0.488330 0.950525 0.691281
Si Si7 0.000000 0.500000 0.500000
O O1 0.584424 0.304084 0.379435
O O2 0.682481 0.120285 0.765115
O O3 0.606734 0.124533 0.536886
O O4 0.126331 0.887090 0.848664
O O5 0.714597 0.505919 0.636990
O O6 0.884933 0.795399 0.118546
O O7 0.922053 0.572854 0.433106
O O8 0.357257 0.249177 0.072891
O O9 0.339794 0.089229 0.165332
O O10 0.221909 0.557890 0.582983
O O11 0.364142 0.423638 0.949652
O O12 0.880222 0.283467 0.045246
O O13 0.000000 0.000000 0.500000
O O14 0.500000 0.000000 0.500000
#
# Coordination Sequence:
#
# PCOD9109526 Si02
#       7
#     2   2   2   2   2   2   1
#     4  10  23  44  65  96 119 184 219 241 346 390
#     4  10  22  40  71  95 125 177 213 267 331 378
#     4  11  21  41  64 101 135 159 217 284 315 364
#     4  10  21  43  66  91 127 177 212 257 324 396
#     4  11  24  43  64  95 135 169 216 273 319 380
#     4  11  23  42  65  94 136 169 211 271 324 376
#     4  10  16  40  66  90 128 176 202 256 338 370
#
# _framework density 22.811336000000001
#
# number of rings (size 3 to 8) (size 9 to 14) (size 15 to 20)
#    0.000    1.538    4.615    1.846    0.000    2.462 
#    8.308    0.000    0.000    0.000    0.000    0.000 
#    0.000    0.000    0.000    0.000    0.000    0.000 
#
# Total GULP energy -72400.883103 kJ/mol
# GULP energy per Si atom -5569.298700 kJ/mol
# Density = 2.275942 g / cm^3
# Si number density = 22.811336 Si / 1000 Ang^3
#
#
#
# Elastic Constant Matrix: (Units=GPa)
#
#
# Indices 1 2 3 4 5 6 
#
# 1 109.7181 32.7060 28.9903 4.5573 8.1515 -41.1432
# 2 32.7060 84.7430 22.8909 3.2838 -3.9608 -28.8571
# 3 28.9903 22.8909 70.9546 15.7930 13.9815 -23.9064
# 4 4.5573 3.2838 15.7930 31.7843 -10.8083 4.3633
# 5 8.1515 -3.9608 13.9815 -10.8083 37.4239 -1.2210
# 6 -41.1432 -28.8571 -23.9064 4.3633 -1.2210 57.0166
#
#
#
# Elastic Compliance Matrix: (Units=1/GPa)
#
#
# Indices 1 2 3 4 5 6 
#
# 1 0.013628 -0.002230 -0.000066 -0.004322 -0.004137 0.008920
# 2 -0.002230 0.015335 -0.003477 0.001142 0.003891 0.004690
# 3 -0.000066 -0.003477 0.025926 -0.019089 -0.015220 0.010198
# 4 -0.004322 0.001142 -0.019089 0.051007 0.022469 -0.013967
# 5 -0.004137 0.003891 -0.015220 0.022469 0.039939 -0.008262
# 6 0.008920 0.004690 0.010198 -0.013967 -0.008262 0.031517
#
#
# Mechanical properties :
#
#
# Convention : Reuss Voigt Hill
#
# Bulk Modulus (GPa) = 23.07179 48.28780 35.67979
# Shear Modulus (GPa) = 24.58861 37.30019 30.94440
#
# Velocity S-wave (km/s) = 3.28672 4.04810 3.68711
# Velocity P-wave (km/s) = 4.95374 6.56230 5.81392
#
# Compressibility (1/GPa) = 0.04334298
#
# Stress axis : x y z
#
# Youngs Moduli (GPa) = 73.37663 65.21049 38.57143
#
# Poissons Ratio (x) = 0.14544 0.00255
# Poissons Ratio (y) = 0.16366 0.13410
# Poissons Ratio (z) = 0.00485 0.22671
#
# Static dielectric constant tensor:
#      x y z
#    x 1.872980 0.000010 0.038850 
#    y 0.000010 1.886010 0.008130 
#    z 0.038850 0.008130 1.901140 
# 
# From -- ./inp_files/236565.got.cif
#   From: 2010.05.17/outbox.cif.g08.bks.cpg/sg2_119_cif.got.tgz:236565.got - 2010.06.03 11:33:40.
