data_PCOD9109957
_publ_section_title
;
Structure prediction by ZEFSAII (Michael W. Deem and Ramdas Pophale) SiO2 
 PCOD9109957
Probable space group: P -1
;
_chemical_formula_sum "Si O2"
_cell_formula_units_Z 12
_cell_length_a 9.195729
_cell_length_b 5.980863
_cell_length_c 18.494858
_cell_angle_alpha 125.284777
_cell_angle_beta 41.214472
_cell_angle_gamma 97.624551
_cell_volume 452.798981
_symmetry_space_group_name_H-M "P -1"
_symmetry_group_IT_number 2
_symmetry_cell_setting 'triclinic'
loop_
_space_group_symop_operation_xyz
x,y,z
-x,-y,-z
loop_
_atom_site_type_symbol
_atom_site_label
_atom_site_fract_x
_atom_site_fract_y
_atom_site_fract_z
Si Si1 0.577132 0.729453 0.051254
Si Si2 0.790843 0.310336 0.389797
Si Si3 0.877957 0.519856 0.627483
Si Si4 0.425376 0.699233 0.386435
Si Si5 0.285591 0.426207 0.866644
Si Si6 0.003919 0.840940 0.866212
O O1 0.566545 0.706256 0.137742
O O2 0.352638 0.113554 0.192451
O O3 0.500000 0.500000 0.000000
O O4 0.858637 0.654656 0.903556
O O5 0.500000 0.500000 0.500000
O O6 0.768056 0.151610 0.443821
O O7 0.887698 0.551938 0.419608
O O8 0.984635 0.095692 0.211447
O O9 0.736849 0.332934 0.625155
O O10 0.000000 0.500000 0.500000
O O11 0.584531 0.800585 0.295157
O O12 0.688922 0.365945 0.260175
O O13 0.000000 0.500000 0.000000
O O14 0.193998 0.802663 0.957794
#
# Coordination Sequence:
#
# PCOD9109957 Si02
#       6
#     2   2   2   2   2   2
#     4  12  26  40  68 106 135 175 229 274 337 402
#     4   9  21  39  68  91 125 183 216 263 342 396
#     4  10  21  42  69  92 134 176 222 273 338 393
#     4  10  20  41  68  95 131 180 219 271 338 393
#     4  12  23  39  69 100 132 174 227 277 331 399
#     4  11  22  43  68  94 142 177 217 281 336 394
#
# _framework density 26.501826999999999
#
# number of rings (size 3 to 8) (size 9 to 14) (size 15 to 20)
#    0.000    1.333    3.333    2.500    2.333    1.333 
#    0.000    4.167   25.667    0.000    0.000    0.000 
#    0.000    0.000    0.000    0.000    0.000    0.000 
#
# Total GULP energy -66933.899201 kJ/mol
# GULP energy per Si atom -5577.824933 kJ/mol
# Density = 2.644151 g / cm^3
# Si number density = 26.501827 Si / 1000 Ang^3
#
#
#
# Elastic Constant Matrix: (Units=GPa)
#
#
# Indices 1 2 3 4 5 6 
#
# 1 150.2252 27.6852 31.6026 -7.1300 -0.0864 -0.9621
# 2 27.6852 62.0399 35.1147 -22.3023 6.4213 8.2580
# 3 31.6026 35.1147 137.3776 -28.0863 26.4773 -14.6004
# 4 -7.1300 -22.3023 -28.0863 54.8706 -21.4835 3.9834
# 5 -0.0864 6.4213 26.4773 -21.4835 59.3421 -13.8302
# 6 -0.9621 8.2580 -14.6004 3.9834 -13.8302 43.9202
#
#
#
# Elastic Compliance Matrix: (Units=1/GPa)
#
#
# Indices 1 2 3 4 5 6 
#
# 1 0.007435 -0.003063 -0.001131 -0.000598 0.000785 0.000664
# 2 -0.003063 0.023616 -0.004610 0.007600 0.000734 -0.006498
# 3 -0.001131 -0.004610 0.009917 0.001837 -0.002522 0.003178
# 4 -0.000598 0.007600 0.001837 0.025072 0.007241 -0.000825
# 5 0.000785 0.000734 -0.002522 0.007241 0.021739 0.005229
# 6 0.000664 -0.006498 0.003178 -0.000825 0.005229 0.026783
#
#
# Mechanical properties :
#
#
# Convention : Reuss Voigt Hill
#
# Bulk Modulus (GPa) = 42.80583 59.82753 51.31668
# Shear Modulus (GPa) = 35.72565 48.64260 42.18413
#
# Velocity S-wave (km/s) = 3.67556 4.28886 3.99400
# Velocity P-wave (km/s) = 5.84808 6.86656 6.37768
#
# Compressibility (1/GPa) = 0.02336130
#
# Stress axis : x y z
#
# Youngs Moduli (GPa) = 134.49423 42.34439 100.83591
#
# Poissons Ratio (x) = 0.12969 0.11400
# Poissons Ratio (y) = 0.41194 0.46486
# Poissons Ratio (z) = 0.15205 0.19521
#
# Static dielectric constant tensor:
#      x y z
#    x 2.230020 0.272140 -0.205320 
#    y 0.272140 3.075180 -0.619110 
#    z -0.205320 -0.619110 2.529350 
# 
# From -- ./inp_files/42680.got.cif
#   From: 2010.05.17/outbox.cif.g08.bks.cpg/sg2_22_cif.got.tgz:42680.got - 2010.06.03 11:33:40.
