data_PCOD9109293
_publ_section_title
;
Structure prediction by ZEFSAII (Michael W. Deem and Ramdas Pophale) SiO2 
 PCOD9109293
Probable space group: P -1
;
_chemical_formula_sum "Si O2"
_cell_formula_units_Z 16
_cell_length_a 13.611587
_cell_length_b 13.845321
_cell_length_c 8.471782
_cell_angle_alpha 118.189537
_cell_angle_beta 91.178518
_cell_angle_gamma 38.145162
_cell_volume 664.458472
_symmetry_space_group_name_H-M "P -1"
_symmetry_group_IT_number 2
_symmetry_cell_setting 'triclinic'
loop_
_space_group_symop_operation_xyz
x,y,z
-x,-y,-z
loop_
_atom_site_type_symbol
_atom_site_label
_atom_site_fract_x
_atom_site_fract_y
_atom_site_fract_z
Si Si1 0.715310 0.498843 0.130750
Si Si2 0.611241 0.224617 0.942921
Si Si3 0.455188 0.861942 0.846164
Si Si4 0.637857 0.865749 0.698423
Si Si5 0.181307 0.014193 0.693765
Si Si6 0.898137 0.777921 0.452920
Si Si7 0.795594 0.629214 0.058637
Si Si8 0.523491 0.523623 0.343406
O O1 0.542005 0.632280 0.100830
O O2 0.737809 0.606895 0.185753
O O3 0.651328 0.509935 0.304444
O O4 0.940516 0.233143 0.886529
O O5 0.502016 0.267766 0.116739
O O6 0.628406 0.330652 0.086196
O O7 0.824780 0.948386 0.698344
O O8 0.640202 0.739150 0.660722
O O9 0.290851 0.964168 0.806658
O O10 0.352490 0.065084 0.093868
O O11 0.801084 0.762062 0.507257
O O12 0.411179 0.105415 0.795446
O O13 0.293745 0.788832 0.490225
O O14 0.205336 0.076323 0.599911
O O15 0.127415 0.523168 0.202783
O O16 0.000000 0.500000 0.000000
O O17 0.500000 0.500000 0.500000
#
# Coordination Sequence:
#
# PCOD9109293 Si02
#       8
#     2   2   2   2   2   2   2   2
#     4  11  24  44  69  97 135 172 225 273 330 398
#     4  11  22  47  66  94 136 175 225 275 326 400
#     4  10  21  40  65  92 138 174 216 280 320 395
#     4  10  20  41  64  92 136 183 218 264 340 382
#     4  11  23  42  66 101 129 168 226 277 331 390
#     4  10  22  40  68  95 132 175 223 269 325 398
#     4  11  22  40  68 106 134 168 228 270 319 402
#     4  12  25  45  71  98 131 175 224 280 338 384
#
# _framework density 24.079761000000001
#
# number of rings (size 3 to 8) (size 9 to 14) (size 15 to 20)
#    0.000    1.250    5.000    1.875    0.000    4.000 
#    2.250   10.625    0.000    0.000    0.000    0.000 
#    0.000    0.000    0.000    0.000    0.000    0.000 
#
# Total GULP energy -89367.034325 kJ/mol
# GULP energy per Si atom -5585.439645 kJ/mol
# Density = 2.402495 g / cm^3
# Si number density = 24.079761 Si / 1000 Ang^3
#
#
#
# Elastic Constant Matrix: (Units=GPa)
#
#
# Indices 1 2 3 4 5 6 
#
# 1 99.1478 26.2586 33.6350 -19.4504 -3.3879 26.9348
# 2 26.2586 55.5309 11.7738 -24.3230 -16.6805 31.9860
# 3 33.6350 11.7738 80.3889 -6.6472 -6.0540 8.0243
# 4 -19.4504 -24.3230 -6.6472 34.8528 15.0571 -6.4914
# 5 -3.3879 -16.6805 -6.0540 15.0571 48.2536 -10.1182
# 6 26.9348 31.9860 8.0243 -6.4914 -10.1182 44.2205
#
#
#
# Elastic Compliance Matrix: (Units=1/GPa)
#
#
# Indices 1 2 3 4 5 6 
#
# 1 0.015589 0.002089 -0.005412 0.008923 -0.003649 -0.009549
# 2 0.002089 0.048175 -0.002401 0.027977 0.001205 -0.031300
# 3 -0.005412 -0.002401 0.014767 -0.002222 0.001850 0.002451
# 4 0.008923 0.027977 -0.002222 0.053795 -0.010935 -0.019874
# 5 -0.003649 0.001205 0.001850 -0.010935 0.025635 0.005276
# 6 -0.009549 -0.031300 0.002451 -0.019874 0.005276 0.048915
#
#
# Mechanical properties :
#
#
# Convention : Reuss Voigt Hill
#
# Bulk Modulus (GPa) = 14.90747 42.04472 28.47610
# Shear Modulus (GPa) = 20.77409 36.35870 28.56640
#
# Velocity S-wave (km/s) = 2.94040 3.88999 3.44804
# Velocity P-wave (km/s) = 4.21096 6.13796 5.26340
#
# Compressibility (1/GPa) = 0.06708045
#
# Stress axis : x y z
#
# Youngs Moduli (GPa) = 64.14908 20.75784 67.72056
#
# Poissons Ratio (x) = -0.04335 0.36651
# Poissons Ratio (y) = -0.13398 0.16260
# Poissons Ratio (z) = 0.34718 0.04984
#
# Static dielectric constant tensor:
#      x y z
#    x 1.934120 0.025440 0.023050 
#    y 0.025440 1.928220 -0.039390 
#    z 0.023050 -0.039390 1.999370 
# 
# From -- ./inp_files/313905.got.cif
#   From: 2010.05.17/outbox.cif.g08.bks.cpg/sg2_157_cif.got.tgz:313905.got - 2010.06.03 11:33:40.
