data_PCOD9109614
_publ_section_title
;
Structure prediction by ZEFSAII (Michael W. Deem and Ramdas Pophale) SiO2 
 PCOD9109614
Probable space group: P -1
;
_chemical_formula_sum "Si O2"
_cell_formula_units_Z 12
_cell_length_a 6.730620
_cell_length_b 18.590200
_cell_length_c 9.394876
_cell_angle_alpha 34.960943
_cell_angle_beta 127.822969
_cell_angle_gamma 119.471044
_cell_volume 531.932977
_symmetry_space_group_name_H-M "P -1"
_symmetry_group_IT_number 2
_symmetry_cell_setting 'triclinic'
loop_
_space_group_symop_operation_xyz
x,y,z
-x,-y,-z
loop_
_atom_site_type_symbol
_atom_site_label
_atom_site_fract_x
_atom_site_fract_y
_atom_site_fract_z
Si Si1 0.674958 0.843859 0.959098
Si Si2 0.618600 0.569059 0.303065
Si Si3 0.355764 0.127682 0.770170
Si Si4 0.768409 0.450088 0.063318
Si Si5 0.342060 0.638879 0.558547
Si Si6 0.889884 0.056844 0.506086
O O1 0.374991 0.870900 0.758474
O O2 0.822555 0.941465 0.768320
O O3 0.742969 0.699159 0.186179
O O4 0.723236 0.868224 0.106827
O O5 0.500000 0.500000 0.500000
O O6 0.745178 0.455356 0.450776
O O7 0.404009 0.615175 0.022341
O O8 0.568313 0.231204 0.672227
O O9 0.106868 0.137301 0.546554
O O10 0.500000 0.000000 0.000000
O O11 0.818104 0.368811 0.356102
O O12 0.391261 0.424561 0.168390
O O13 0.000000 0.500000 0.000000
O O14 0.000000 0.000000 0.500000
#
# Coordination Sequence:
#
# PCOD9109614 Si02
#       6
#     2   2   2   2   2   2
#     4  11  24  46  67 100 132 172 227 271 329 393
#     4  10  20  41  66  92 131 161 209 276 325 386
#     4  12  24  45  68  95 138 172 222 274 328 392
#     4   9  20  40  64  94 122 168 210 262 325 386
#     4   9  22  40  65  94 128 166 212 269 325 386
#     4  11  26  43  69  97 130 182 219 270 329 392
#
# _framework density 22.559232999999999
#
# number of rings (size 3 to 8) (size 9 to 14) (size 15 to 20)
#    1.000    0.667    3.333    0.500    4.667    0.000 
#    6.000    0.833    0.000    0.000    0.000    0.000 
#    0.000    0.000    0.000    0.000    0.000    0.000 
#
# Total GULP energy -66963.446603 kJ/mol
# GULP energy per Si atom -5580.287217 kJ/mol
# Density = 2.250789 g / cm^3
# Si number density = 22.559233 Si / 1000 Ang^3
#
#
#
# Elastic Constant Matrix: (Units=GPa)
#
#
# Indices 1 2 3 4 5 6 
#
# 1 105.1818 51.6955 39.2508 7.7380 -25.3079 -10.9921
# 2 51.6955 162.9415 56.3683 6.5971 -16.4751 -12.9185
# 3 39.2508 56.3683 81.9787 -0.9542 -16.9708 -8.3635
# 4 7.7380 6.5971 -0.9542 47.4796 3.4277 -7.6145
# 5 -25.3079 -16.4751 -16.9708 3.4277 47.8197 19.8988
# 6 -10.9921 -12.9185 -8.3635 -7.6145 19.8988 35.1866
#
#
#
# Elastic Compliance Matrix: (Units=1/GPa)
#
#
# Indices 1 2 3 4 5 6 
#
# 1 0.013537 -0.002399 -0.003813 -0.002582 0.005736 -0.001361
# 2 -0.002399 0.008630 -0.004757 -0.000630 -0.000548 0.001462
# 3 -0.003813 -0.004757 0.017848 0.001499 0.002474 0.000230
# 4 -0.002582 -0.000630 0.001499 0.023263 -0.005924 0.007703
# 5 0.005736 -0.000548 0.002474 -0.005924 0.032286 -0.017362
# 6 -0.001361 0.001462 0.000230 0.007703 -0.017362 0.040072
#
#
# Mechanical properties :
#
#
# Convention : Reuss Voigt Hill
#
# Bulk Modulus (GPa) = 55.32041 71.63679 63.47860
# Shear Modulus (GPa) = 30.56232 39.61633 35.08932
#
# Velocity S-wave (km/s) = 3.68470 4.19513 3.94817
# Velocity P-wave (km/s) = 6.53285 7.43569 6.99884
#
# Compressibility (1/GPa) = 0.01807651
#
# Stress axis : x y z
#
# Youngs Moduli (GPa) = 73.86945 115.87610 56.02882
#
# Poissons Ratio (x) = 0.27800 0.21366
# Poissons Ratio (y) = 0.17722 0.26652
# Poissons Ratio (z) = 0.28170 0.55120
#
# Static dielectric constant tensor:
#      x y z
#    x 1.915660 0.032720 0.051670 
#    y 0.032720 1.860700 -0.008230 
#    z 0.051670 -0.008230 1.884680 
# 
# From -- ./inp_files/137084.got.cif
#   From: 2010.05.17/outbox.cif.g08.bks.cpg/sg2_69_cif.got.tgz:137084.got - 2010.06.03 11:33:40.
