data_PCOD9109928
_publ_section_title
;
Structure prediction by ZEFSAII (Michael W. Deem and Ramdas Pophale) SiO2 
 PCOD9109928
Probable space group: P -1
;
_chemical_formula_sum "Si O2"
_cell_formula_units_Z 10
_cell_length_a 10.284568
_cell_length_b 12.592753
_cell_length_c 9.968826
_cell_angle_alpha 146.586892
_cell_angle_beta 41.804491
_cell_angle_gamma 147.483968
_cell_volume 378.380781
_symmetry_space_group_name_H-M "P -1"
_symmetry_group_IT_number 2
_symmetry_cell_setting 'triclinic'
loop_
_space_group_symop_operation_xyz
x,y,z
-x,-y,-z
loop_
_atom_site_type_symbol
_atom_site_label
_atom_site_fract_x
_atom_site_fract_y
_atom_site_fract_z
Si Si1 0.757833 0.112943 0.350784
Si Si2 0.151351 0.229547 0.725364
Si Si3 0.851775 0.877830 0.808047
Si Si4 0.405591 0.773010 0.642385
Si Si5 0.351224 0.684743 0.892971
O O1 0.769528 0.277419 0.397848
O O2 0.981493 0.207930 0.379947
O O3 0.500000 0.000000 0.500000
O O4 0.756653 0.910516 0.055125
O O5 0.420758 0.300005 0.606187
O O6 0.173196 0.450162 0.872144
O O7 0.000000 0.000000 0.500000
O O8 0.022561 0.131401 0.864340
O O9 0.612697 0.726647 0.740590
O O10 0.292964 0.678205 0.775487
O O11 0.583234 0.067032 0.834867
#
# Coordination Sequence:
#
# PCOD9109928 Si02
#       5
#     2   2   2   2   2
#     4  10  20  41  68  92 138 171 220 272 323 394
#     4  12  23  40  70  99 133 173 217 276 333 386
#     4  10  22  41  67  97 133 176 215 274 328 388
#     4  10  21  41  66  96 133 171 216 273 326 386
#     4  10  23  43  65  98 136 166 225 274 321 400
#
# _framework density 26.428404
#
# number of rings (size 3 to 8) (size 9 to 14) (size 15 to 20)
#    0.000    1.600    4.000    0.600    0.000    0.800 
#    0.000   10.000    0.000    0.000    0.000    0.000 
#    0.000    0.000    0.000    0.000    0.000    0.000 
#
# Total GULP energy -56014.342752 kJ/mol
# GULP energy per Si atom -5601.434275 kJ/mol
# Density = 2.636825 g / cm^3
# Si number density = 26.428404 Si / 1000 Ang^3
#
#
#
# Elastic Constant Matrix: (Units=GPa)
#
#
# Indices 1 2 3 4 5 6 
#
# 1 182.2085 53.2777 40.4982 -6.7300 -31.9729 -27.1414
# 2 53.2777 161.2324 68.6133 2.8142 -2.2657 -42.2959
# 3 40.4982 68.6133 103.8013 -12.2103 -15.9404 -3.8650
# 4 -6.7300 2.8142 -12.2103 57.3375 1.3850 -6.9527
# 5 -31.9729 -2.2657 -15.9404 1.3850 51.1972 2.9680
# 6 -27.1414 -42.2959 -3.8650 -6.9527 2.9680 45.8962
#
#
#
# Elastic Compliance Matrix: (Units=1/GPa)
#
#
# Indices 1 2 3 4 5 6 
#
# 1 0.007255 -0.000915 -0.001411 0.000893 0.003840 0.003215
# 2 -0.000915 0.012806 -0.008338 -0.001151 -0.003184 0.010590
# 3 -0.001411 -0.008338 0.016407 0.002789 0.004187 -0.006985
# 4 0.000893 -0.001151 0.002789 0.018476 0.000733 0.002454
# 5 0.003840 -0.003184 0.004187 0.000733 0.023172 -0.001697
# 6 0.003215 0.010590 -0.006985 0.002454 -0.001697 0.033342
#
#
# Mechanical properties :
#
#
# Convention : Reuss Voigt Hill
#
# Bulk Modulus (GPa) = 66.05006 85.78007 75.91507
# Shear Modulus (GPa) = 36.27558 49.87637 43.07598
#
# Velocity S-wave (km/s) = 3.70888 4.34893 4.04160
# Velocity P-wave (km/s) = 6.58691 7.59905 7.11101
#
# Compressibility (1/GPa) = 0.01514003
#
# Stress axis : x y z
#
# Youngs Moduli (GPa) = 137.83047 78.08710 60.94996
#
# Poissons Ratio (x) = 0.07145 0.08602
# Poissons Ratio (y) = 0.12611 0.50819
# Poissons Ratio (z) = 0.19452 0.65108
#
# Static dielectric constant tensor:
#      x y z
#    x 2.127040 0.024900 0.001030 
#    y 0.024900 2.090420 0.038830 
#    z 0.001030 0.038830 2.126240 
# 
# From -- ./inp_files/21594.got.cif
#   From: 2010.05.17/outbox.cif.g08.bks.cpg/sg2_11_cif.got.tgz:21594.got - 2010.06.03 11:33:40.
