data_PCOD9109814
_publ_section_title
;
Structure prediction by ZEFSAII (Michael W. Deem and Ramdas Pophale) SiO2 
 PCOD9109814
Probable space group: P -1
;
_chemical_formula_sum "Si O2"
_cell_formula_units_Z 16
_cell_length_a 8.783140
_cell_length_b 17.384598
_cell_length_c 5.246434
_cell_angle_alpha 99.991842
_cell_angle_beta 98.799587
_cell_angle_gamma 52.733616
_cell_volume 626.682536
_symmetry_space_group_name_H-M "P -1"
_symmetry_group_IT_number 2
_symmetry_cell_setting 'triclinic'
loop_
_space_group_symop_operation_xyz
x,y,z
-x,-y,-z
loop_
_atom_site_type_symbol
_atom_site_label
_atom_site_fract_x
_atom_site_fract_y
_atom_site_fract_z
Si Si1 0.280072 0.743953 0.980165
Si Si2 0.367231 0.025126 0.228586
Si Si3 0.294070 0.397908 0.747841
Si Si4 0.513335 0.236488 0.333512
Si Si5 0.022158 0.341560 0.637824
Si Si6 0.190913 0.227815 0.104364
Si Si7 0.725873 0.428468 0.992928
Si Si8 0.812427 0.074311 0.666497
O O1 0.505494 0.674446 0.088726
O O2 0.216197 0.674781 0.951512
O O3 0.166255 0.847293 0.149578
O O4 0.306297 0.768036 0.718814
O O5 0.213939 0.138938 0.199244
O O6 0.500000 0.000000 0.500000
O O7 0.248423 0.979977 0.199911
O O8 0.500000 0.000000 0.000000
O O9 0.366482 0.345457 0.463323
O O10 0.126112 0.390097 0.776310
O O11 0.219956 0.507655 0.816083
O O12 0.393027 0.213276 0.117499
O O13 0.613335 0.148153 0.506097
O O14 0.081141 0.308504 0.345926
O O15 0.802770 0.410452 0.712141
O O16 0.110512 0.252664 0.811778
O O17 0.500000 0.500000 0.000000
O O18 0.000000 0.000000 0.500000
#
# Coordination Sequence:
#
# PCOD9109814 Si02
#       8
#     2   2   2   2   2   2   2   2
#     4  10  21  42  65  89 136 178 221 274 353 399
#     4  12  25  44  73 104 138 184 241 287 344 414
#     4   9  20  40  67  94 128 170 228 279 334 403
#     4  10  20  41  67  94 131 179 218 285 347 403
#     4  11  23  44  70 100 134 176 226 285 340 402
#     4  11  23  42  72 100 135 174 232 286 337 403
#     4  10  23  44  65  98 136 176 226 276 345 418
#     4  11  26  42  65  99 141 181 230 286 351 419
#
# _framework density 25.531267
#
# number of rings (size 3 to 8) (size 9 to 14) (size 15 to 20)
#    0.000    1.500    2.500    1.875    3.500    2.000 
#    9.000    1.875    0.000    0.000    0.000    0.000 
#    0.000    0.000    0.000    0.000    0.000    0.000 
#
# Total GULP energy -89309.841339 kJ/mol
# GULP energy per Si atom -5581.865084 kJ/mol
# Density = 2.547316 g / cm^3
# Si number density = 25.531267 Si / 1000 Ang^3
#
#
#
# Elastic Constant Matrix: (Units=GPa)
#
#
# Indices 1 2 3 4 5 6 
#
# 1 123.8802 52.7644 32.1864 12.3052 -17.7962 29.0211
# 2 52.7644 159.0459 41.4786 25.0965 -10.8192 39.3310
# 3 32.1864 41.4786 85.9915 13.9256 -25.9886 0.7939
# 4 12.3052 25.0965 13.9256 40.9845 -11.0767 -0.9208
# 5 -17.7962 -10.8192 -25.9886 -11.0767 40.9614 -1.3761
# 6 29.0211 39.3310 0.7939 -0.9208 -1.3761 53.7334
#
#
#
# Elastic Compliance Matrix: (Units=1/GPa)
#
#
# Indices 1 2 3 4 5 6 
#
# 1 0.010881 -0.001495 -0.002434 -0.000992 0.002362 -0.004703
# 2 -0.001495 0.010183 -0.004120 -0.005129 -0.002187 -0.006729
# 3 -0.002434 -0.004120 0.017185 -0.000089 0.008878 0.004302
# 4 -0.000992 -0.005129 -0.000089 0.029697 0.006355 0.004963
# 5 0.002362 -0.002187 0.008878 0.006355 0.032251 0.001129
# 6 -0.004703 -0.006729 0.004302 0.004963 0.001129 0.026126
#
#
# Mechanical properties :
#
#
# Convention : Reuss Voigt Hill
#
# Bulk Modulus (GPa) = 45.14477 69.08627 57.11552
# Shear Modulus (GPa) = 33.37665 43.30173 38.33919
#
# Velocity S-wave (km/s) = 3.61956 4.12275 3.87932
# Velocity P-wave (km/s) = 5.93202 7.05557 6.51805
#
# Compressibility (1/GPa) = 0.02215096
#
# Stress axis : x y z
#
# Youngs Moduli (GPa) = 91.90319 98.20758 58.18867
#
# Poissons Ratio (x) = 0.14681 0.14161
# Poissons Ratio (y) = 0.13738 0.23976
# Poissons Ratio (z) = 0.22367 0.40466
#
# Static dielectric constant tensor:
#      x y z
#    x 2.032810 -0.038010 -0.015370 
#    y -0.038010 2.124010 0.002510 
#    z -0.015370 0.002510 2.165170 
# 
# From -- ./inp_files/48264.got.cif
#   From: 2010.05.17/outbox.cif.g08.bks.cpg/sg2_25_cif.got.tgz:48264.got - 2010.06.03 11:33:40.
