data_PCOD9109777
_publ_section_title
;
Structure prediction by ZEFSAII (Michael W. Deem and Ramdas Pophale) SiO2 
 PCOD9109777
Probable space group: P -1
;
_chemical_formula_sum "Si O2"
_cell_formula_units_Z 14
_cell_length_a 15.119980
_cell_length_b 9.436231
_cell_length_c 9.799234
_cell_angle_alpha 43.079953
_cell_angle_beta 133.049420
_cell_angle_gamma 102.721351
_cell_volume 579.212332
_symmetry_space_group_name_H-M "P -1"
_symmetry_group_IT_number 2
_symmetry_cell_setting 'triclinic'
loop_
_space_group_symop_operation_xyz
x,y,z
-x,-y,-z
loop_
_atom_site_type_symbol
_atom_site_label
_atom_site_fract_x
_atom_site_fract_y
_atom_site_fract_z
Si Si1 0.216224 0.607148 0.107179
Si Si2 0.995873 0.759362 0.005319
Si Si3 0.200620 0.661994 0.543699
Si Si4 0.603335 0.205737 0.436585
Si Si5 0.238438 0.019827 0.977261
Si Si6 0.535613 0.881699 0.408592
Si Si7 0.908718 0.421334 0.263603
O O1 0.088530 0.654557 0.039390
O O2 0.348944 0.319340 0.433586
O O3 0.147084 0.692816 0.823642
O O4 0.270662 0.772101 0.109640
O O5 0.113246 0.676646 0.308280
O O6 0.906014 0.639724 0.027144
O O7 0.892021 0.058740 0.685185
O O8 0.189112 0.496263 0.762182
O O9 0.358483 0.605676 0.716152
O O10 0.582143 0.049421 0.411586
O O11 0.482640 0.273475 0.378500
O O12 0.746044 0.032929 0.806810
O O13 0.075591 0.232536 0.616812
O O14 0.370380 0.049421 0.059726
#
# Coordination Sequence:
#
# PCOD9109777 Si02
#       7
#     2   2   2   2   2   2   2
#     4  12  22  42  65 100 135 171 216 270 332 387
#     4  11  23  40  64  96 137 175 212 268 335 385
#     4  11  21  42  66  97 133 174 218 271 323 388
#     4   9  19  41  70  89 130 178 218 261 326 391
#     4  10  20  41  67  91 138 167 213 271 325 383
#     4   9  21  40  70  94 126 184 216 261 332 393
#     4  12  25  38  67 104 132 165 224 273 324 386
#
# _framework density 24.170757999999999
#
# number of rings (size 3 to 8) (size 9 to 14) (size 15 to 20)
#    0.857    0.571    2.857    3.429    0.000    1.143 
#    0.000    1.429    3.143    0.000    0.000    0.000 
#    0.000    0.000    0.000    0.000    0.000    0.000 
#
# Total GULP energy -78325.746723 kJ/mol
# GULP energy per Si atom -5594.696195 kJ/mol
# Density = 2.411574 g / cm^3
# Si number density = 24.170758 Si / 1000 Ang^3
#
#
#
# Elastic Constant Matrix: (Units=GPa)
#
#
# Indices 1 2 3 4 5 6 
#
# 1 89.6148 19.8266 13.8080 -5.2143 -3.8640 -1.1019
# 2 19.8266 139.6134 26.5331 12.0111 -1.9426 10.0961
# 3 13.8080 26.5331 83.7494 13.7395 20.6619 -3.5339
# 4 -5.2143 12.0111 13.7395 41.7028 2.6933 4.9365
# 5 -3.8640 -1.9426 20.6619 2.6933 25.7955 -1.9652
# 6 -1.1019 10.0961 -3.5339 4.9365 -1.9652 41.2306
#
#
#
# Elastic Compliance Matrix: (Units=1/GPa)
#
#
# Indices 1 2 3 4 5 6 
#
# 1 0.012237 -0.001369 -0.002948 0.002615 0.003840 0.000280
# 2 -0.001369 0.008218 -0.002885 -0.001530 0.002733 -0.001983
# 3 -0.002948 -0.002885 0.017696 -0.004692 -0.014189 0.002030
# 4 0.002615 -0.001530 -0.004692 0.026593 0.001022 -0.003093
# 5 0.003840 0.002733 -0.014189 0.001022 0.050845 0.000518
# 6 0.000280 -0.001983 0.002030 -0.003093 0.000518 0.025316
#
#
# Mechanical properties :
#
#
# Convention : Reuss Voigt Hill
#
# Bulk Modulus (GPa) = 42.11058 48.14587 45.12823
# Shear Modulus (GPa) = 30.63225 38.59977 34.61601
#
# Velocity S-wave (km/s) = 3.56382 4.00054 3.78847
# Velocity P-wave (km/s) = 5.86467 6.42661 6.15206
#
# Compressibility (1/GPa) = 0.02374700
#
# Stress axis : x y z
#
# Youngs Moduli (GPa) = 81.71793 121.67831 56.50841
#
# Poissons Ratio (x) = 0.16661 0.16660
# Poissons Ratio (y) = 0.11189 0.16303
# Poissons Ratio (z) = 0.24092 0.35105
#
# Static dielectric constant tensor:
#      x y z
#    x 1.935240 0.050140 -0.012340 
#    y 0.050140 1.901700 -0.000830 
#    z -0.012340 -0.000830 1.969130 
# 
# From -- ./inp_files/175995.got.cif
#   From: 2010.05.17/outbox.cif.g08.bks.cpg/sg2_88_cif.got.tgz:175995.got - 2010.06.03 11:33:40.
