data_PCOD9109268
_publ_section_title
;
Structure prediction by ZEFSAII (Michael W. Deem and Ramdas Pophale) SiO2 
 PCOD9109268
Probable space group: P -1
;
_chemical_formula_sum "Si O2"
_cell_formula_units_Z 14
_cell_length_a 14.283068
_cell_length_b 12.009779
_cell_length_c 9.292830
_cell_angle_alpha 47.440010
_cell_angle_beta 118.053203
_cell_angle_gamma 147.864105
_cell_volume 602.829837
_symmetry_space_group_name_H-M "P -1"
_symmetry_group_IT_number 2
_symmetry_cell_setting 'triclinic'
loop_
_space_group_symop_operation_xyz
x,y,z
-x,-y,-z
loop_
_atom_site_type_symbol
_atom_site_label
_atom_site_fract_x
_atom_site_fract_y
_atom_site_fract_z
Si Si1 0.602605 0.543613 0.718800
Si Si2 0.883560 0.427682 0.348535
Si Si3 0.891870 0.665274 0.902625
Si Si4 0.238979 0.269495 0.638157
Si Si5 0.711760 0.009280 0.374962
Si Si6 0.717331 0.224556 0.944088
Si Si7 0.311355 0.663484 0.465746
O O1 0.703212 0.541121 0.894715
O O2 0.388298 0.330310 0.765934
O O3 0.651732 0.550827 0.584172
O O4 0.699483 0.818463 0.557710
O O5 0.845135 0.246332 0.372129
O O6 0.713827 0.301101 0.425186
O O7 0.000000 0.500000 0.500000
O O8 0.947184 0.636122 0.108865
O O9 0.835849 0.483073 0.894964
O O10 0.053405 0.970748 0.722885
O O11 0.205851 0.382059 0.608635
O O12 0.517817 0.856523 0.411810
O O13 0.751741 0.106825 0.154622
O O14 0.747872 0.285045 0.744944
O O15 0.500000 0.000000 0.000000
#
# Coordination Sequence:
#
# PCOD9109268 Si02
#       7
#     2   2   2   2   2   2   2
#     4  10  21  41  70  95 131 160 215 267 317 383
#     4  11  26  43  59  91 130 170 216 260 315 381
#     4  11  23  43  66  94 130 171 210 265 318 378
#     4  10  22  38  67 104 124 165 212 265 323 373
#     4   9  21  41  64  94 124 167 211 263 320 373
#     4   9  19  37  67  95 125 165 211 261 320 369
#     4  10  20  41  64  91 128 169 210 264 314 379
#
# _framework density 23.223799
#
# number of rings (size 3 to 8) (size 9 to 14) (size 15 to 20)
#    0.000    2.000    1.429    0.857    4.000    1.714 
#    7.714    4.286    0.000    0.000    0.000    0.000 
#    0.000    0.000    0.000    0.000    0.000    0.000 
#
# Total GULP energy -78239.586717 kJ/mol
# GULP energy per Si atom -5588.541908 kJ/mol
# Density = 2.317094 g / cm^3
# Si number density = 23.223799 Si / 1000 Ang^3
#
#
#
# Elastic Constant Matrix: (Units=GPa)
#
#
# Indices 1 2 3 4 5 6 
#
# 1 64.2411 4.1374 12.8805 6.0032 4.1513 2.1943
# 2 4.1374 94.7375 24.9319 -6.6178 7.7658 9.1158
# 3 12.8805 24.9319 76.3730 20.6506 4.6988 1.8709
# 4 6.0032 -6.6178 20.6506 32.3271 5.2055 2.2019
# 5 4.1513 7.7658 4.6988 5.2055 37.5119 1.3900
# 6 2.1943 9.1158 1.8709 2.2019 1.3900 33.0938
#
#
#
# Elastic Compliance Matrix: (Units=1/GPa)
#
#
# Indices 1 2 3 4 5 6 
#
# 1 0.016259 -0.000015 -0.002287 -0.001298 -0.001300 -0.000804
# 2 -0.000015 0.013234 -0.006017 0.007265 -0.002857 -0.003668
# 3 -0.002287 -0.006017 0.018901 -0.013132 0.000895 0.001577
# 4 -0.001298 0.007265 -0.013132 0.042181 -0.005430 -0.003751
# 5 -0.001300 -0.002857 0.000895 -0.005430 0.028035 0.000006
# 6 -0.000804 -0.003668 0.001577 -0.003751 0.000006 0.031441
#
#
# Mechanical properties :
#
#
# Convention : Reuss Voigt Hill
#
# Bulk Modulus (GPa) = 31.48941 35.47235 33.48088
# Shear Modulus (GPa) = 28.20534 33.48001 30.84267
#
# Velocity S-wave (km/s) = 3.48875 3.80099 3.64821
# Velocity P-wave (km/s) = 5.46050 5.87968 5.67396
#
# Compressibility (1/GPa) = 0.03175671
#
# Stress axis : x y z
#
# Youngs Moduli (GPa) = 61.50629 75.56241 52.90857
#
# Poissons Ratio (x) = 0.00114 0.12098
# Poissons Ratio (y) = 0.00092 0.31833
# Poissons Ratio (z) = 0.14064 0.45463
#
# Static dielectric constant tensor:
#      x y z
#    x 1.926640 0.039790 0.018230 
#    y 0.039790 1.916110 -0.001050 
#    z 0.018230 -0.001050 1.863620 
# 
# From -- ./inp_files/153790.got.cif
#   From: 2010.05.17/outbox.cif.g08.bks.cpg/sg2_77_cif.got.tgz:153790.got - 2010.06.03 11:33:40.
