data_PCOD9109209
_publ_section_title
;
Structure prediction by ZEFSAII (Michael W. Deem and Ramdas Pophale) SiO2 
 PCOD9109209
Probable space group: P -1
;
_chemical_formula_sum "Si O2"
_cell_formula_units_Z 16
_cell_length_a 14.308129
_cell_length_b 5.579776
_cell_length_c 9.749631
_cell_angle_alpha 96.750756
_cell_angle_beta 61.120456
_cell_angle_gamma 110.306299
_cell_volume 638.024398
_symmetry_space_group_name_H-M "P -1"
_symmetry_group_IT_number 2
_symmetry_cell_setting 'triclinic'
loop_
_space_group_symop_operation_xyz
x,y,z
-x,-y,-z
loop_
_atom_site_type_symbol
_atom_site_label
_atom_site_fract_x
_atom_site_fract_y
_atom_site_fract_z
Si Si1 0.817694 0.027182 0.752060
Si Si2 0.976212 0.492746 0.355657
Si Si3 0.599969 0.390981 0.440366
Si Si4 0.288578 0.351486 0.949501
Si Si5 0.449354 0.050628 0.745565
Si Si6 0.376044 0.721494 0.144787
Si Si7 0.045379 0.294898 0.036652
Si Si8 0.766115 0.635792 0.544266
O O1 0.718072 0.141852 0.796284
O O2 0.930804 0.240911 0.736730
O O3 0.775595 0.836077 0.894230
O O4 0.836790 0.895986 0.587981
O O5 0.848432 0.480792 0.437164
O O6 0.000000 0.500000 0.500000
O O7 0.001681 0.293116 0.224152
O O8 0.500000 0.500000 0.500000
O O9 0.555965 0.174781 0.576084
O O10 0.700196 0.624551 0.449711
O O11 0.610229 0.236490 0.287079
O O12 0.374732 0.582250 0.992021
O O13 0.182882 0.393386 0.948852
O O14 0.360763 0.203639 0.809853
O O15 0.506527 0.103625 0.859222
O O16 0.323232 0.501090 0.282490
O O17 0.000000 0.500000 0.000000
O O18 0.000000 0.000000 0.000000
#
# Coordination Sequence:
#
# PCOD9109209 Si02
#       8
#     2   2   2   2   2   2   2   2
#     4  11  21  40  68 100 143 178 242 309 358 437
#     4  12  23  46  74 105 136 192 250 303 368 440
#     4  10  22  42  61  97 133 177 237 290 358 443
#     4  11  24  43  67  98 140 190 236 294 369 453
#     4  10  23  40  67  94 138 180 231 298 363 440
#     4  10  20  41  64 101 135 170 241 298 358 430
#     4  12  29  50  72 108 157 198 248 311 381 455
#     4  10  22  37  65  97 133 177 235 299 363 425
#
# _framework density 25.077411999999999
#
# number of rings (size 3 to 8) (size 9 to 14) (size 15 to 20)
#    0.000    1.250    2.500    3.000    1.750    3.500 
#    0.000    0.000    0.000    0.000    0.000    0.000 
#    0.000    0.000    0.000    0.000    0.000    0.000 
#
# Total GULP energy -89486.138554 kJ/mol
# GULP energy per Si atom -5592.883660 kJ/mol
# Density = 2.502033 g / cm^3
# Si number density = 25.077412 Si / 1000 Ang^3
#
#
#
# Elastic Constant Matrix: (Units=GPa)
#
#
# Indices 1 2 3 4 5 6 
#
# 1 130.1611 14.7674 36.9396 22.2821 17.0531 3.1245
# 2 14.7674 94.7853 40.1734 29.4774 17.2580 19.2045
# 3 36.9396 40.1734 143.2279 40.7865 12.7810 13.4347
# 4 22.2821 29.4774 40.7865 54.2279 -3.9571 1.9972
# 5 17.0531 17.2580 12.7810 -3.9571 37.2094 4.9606
# 6 3.1245 19.2045 13.4347 1.9972 4.9606 39.0103
#
#
#
# Elastic Compliance Matrix: (Units=1/GPa)
#
#
# Indices 1 2 3 4 5 6 
#
# 1 0.009164 0.001144 -0.001153 -0.003861 -0.004731 -0.000101
# 2 0.001144 0.016271 -0.001046 -0.008866 -0.007815 -0.006294
# 3 -0.001153 -0.001046 0.009873 -0.006509 -0.002789 -0.002105
# 4 -0.003861 -0.008866 -0.006509 0.030385 0.010818 0.003984
# 5 -0.004731 -0.007815 -0.002789 0.010818 0.034748 0.000214
# 6 -0.000101 -0.006294 -0.002105 0.003984 0.000214 0.029234
#
#
# Mechanical properties :
#
#
# Convention : Reuss Voigt Hill
#
# Bulk Modulus (GPa) = 30.12419 61.32614 45.72517
# Shear Modulus (GPa) = 35.00171 44.50911 39.75541
#
# Velocity S-wave (km/s) = 3.74002 4.21749 3.98591
# Velocity P-wave (km/s) = 5.53976 6.94436 6.28144
#
# Compressibility (1/GPa) = 0.03319591
#
# Stress axis : x y z
#
# Youngs Moduli (GPa) = 109.12824 61.46001 101.29111
#
# Poissons Ratio (x) = -0.07029 0.11678
# Poissons Ratio (y) = -0.12480 0.10597
# Poissons Ratio (z) = 0.12581 0.06430
#
# Static dielectric constant tensor:
#      x y z
#    x 1.909630 -0.017880 0.062200 
#    y -0.017880 2.081670 -0.048490 
#    z 0.062200 -0.048490 2.033120 
# 
# From -- ./inp_files/441297.got.cif
#   From: 2010.05.17/outbox.cif.g08.bks.cpg/sg2_221_cif.got.tgz:441297.got - 2010.06.03 11:33:40.
