data_PCOD9109980
_publ_section_title
;
Structure prediction by ZEFSAII (Michael W. Deem and Ramdas Pophale) SiO2 
 PCOD9109980
Probable space group: P -1
;
_chemical_formula_sum "Si O2"
_cell_formula_units_Z 10
_cell_length_a 8.173313
_cell_length_b 8.148161
_cell_length_c 11.792937
_cell_angle_alpha 144.027540
_cell_angle_beta 129.957768
_cell_angle_gamma 62.175297
_cell_volume 351.160318
_symmetry_space_group_name_H-M "P -1"
_symmetry_group_IT_number 2
_symmetry_cell_setting 'triclinic'
loop_
_space_group_symop_operation_xyz
x,y,z
-x,-y,-z
loop_
_atom_site_type_symbol
_atom_site_label
_atom_site_fract_x
_atom_site_fract_y
_atom_site_fract_z
Si Si1 0.612232 0.767141 0.266533
Si Si2 0.978625 0.114727 0.716486
Si Si3 0.638416 0.873675 0.797351
Si Si4 0.645386 0.538174 0.828253
Si Si5 0.988410 0.745712 0.721162
O O1 0.521207 0.683057 0.304523
O O2 0.867896 0.856338 0.446285
O O3 0.521198 0.031049 0.313516
O O4 0.500000 0.500000 0.000000
O O5 0.838930 0.369581 0.778104
O O6 0.938830 0.010206 0.770283
O O7 0.230305 0.230744 0.899494
O O8 0.553797 0.701671 0.774477
O O9 0.810349 0.703721 0.714818
O O10 0.782162 0.154301 0.064495
O O11 0.000000 0.500000 0.500000
#
# Coordination Sequence:
#
# PCOD9109980 Si02
#       5
#     2   2   2   2   2
#     4  12  25  44  68 100 140 175 222 285 334 396
#     4  10  22  44  68  95 134 176 221 278 333 401
#     4  10  23  42  66  98 136 176 223 280 335 397
#     4  10  23  45  67  97 135 178 226 272 337 402
#     4  10  20  41  68  96 136 177 221 279 335 398
#
# _framework density 28.477024
#
# number of rings (size 3 to 8) (size 9 to 14) (size 15 to 20)
#    0.000    1.600    2.000    1.800    2.800    2.400 
#    7.200    0.000    0.000    0.000    0.000    0.000 
#    0.000    0.000    0.000    0.000    0.000    0.000 
#
# Total GULP energy -56072.475246 kJ/mol
# GULP energy per Si atom -5607.247525 kJ/mol
# Density = 2.841221 g / cm^3
# Si number density = 28.477024 Si / 1000 Ang^3
#
#
#
# Elastic Constant Matrix: (Units=GPa)
#
#
# Indices 1 2 3 4 5 6 
#
# 1 112.6236 51.8095 39.8832 7.0591 7.7016 32.9525
# 2 51.8095 193.9420 36.6215 -23.2206 12.9222 23.0866
# 3 39.8832 36.6215 227.3049 -10.1009 16.6143 15.8693
# 4 7.0591 -23.2206 -10.1009 42.8620 -8.7299 -4.2990
# 5 7.7016 12.9222 16.6143 -8.7299 55.7183 10.8892
# 6 32.9525 23.0866 15.8693 -4.2990 10.8892 33.5911
#
#
#
# Elastic Compliance Matrix: (Units=1/GPa)
#
#
# Indices 1 2 3 4 5 6 
#
# 1 0.014741 -0.002835 -0.001536 -0.005457 0.000708 -0.012714
# 2 -0.002835 0.006563 -0.000302 0.003799 -0.000245 -0.001022
# 3 -0.001536 -0.000302 0.004843 0.001019 -0.000977 -0.000126
# 4 -0.005457 0.003799 0.001019 0.027614 0.002950 0.004838
# 5 0.000708 -0.000245 -0.000977 0.002950 0.019857 -0.006123
# 6 -0.012714 -0.001022 -0.000126 0.004838 -0.006123 0.045609
#
#
# Mechanical properties :
#
#
# Convention : Reuss Voigt Hill
#
# Bulk Modulus (GPa) = 59.51916 87.83321 73.67618
# Shear Modulus (GPa) = 37.26531 53.47137 45.36834
#
# Velocity S-wave (km/s) = 3.62140 4.33795 3.99577
# Velocity P-wave (km/s) = 6.19937 7.48337 6.87143
#
# Compressibility (1/GPa) = 0.01680131
#
# Stress axis : x y z
#
# Youngs Moduli (GPa) = 67.83811 152.36300 206.47844
#
# Poissons Ratio (x) = 0.43191 0.31722
# Poissons Ratio (y) = 0.19230 0.06235
# Poissons Ratio (z) = 0.10422 0.04601
#
# Static dielectric constant tensor:
#      x y z
#    x 2.255180 -0.005310 -0.111030 
#    y -0.005310 2.152670 0.039680 
#    z -0.111030 0.039680 2.287100 
# 
# From -- ./inp_files/148088.got.cif
#   From: 2010.05.17/outbox.cif.g08.bks.cpg/sg2_75_cif.got.tgz:148088.got - 2010.06.03 11:33:40.
