data_PCOD9109043
_publ_section_title
;
Structure prediction by ZEFSAII (Michael W. Deem and Ramdas Pophale) SiO2 
 PCOD9109043
Probable space group: P -1
;
_chemical_formula_sum "Si O2"
_cell_formula_units_Z 16
_cell_length_a 10.335397
_cell_length_b 17.931431
_cell_length_c 8.402473
_cell_angle_alpha 44.430813
_cell_angle_beta 133.728050
_cell_angle_gamma 138.104511
_cell_volume 684.168011
_symmetry_space_group_name_H-M "P -1"
_symmetry_group_IT_number 2
_symmetry_cell_setting 'triclinic'
loop_
_space_group_symop_operation_xyz
x,y,z
-x,-y,-z
loop_
_atom_site_type_symbol
_atom_site_label
_atom_site_fract_x
_atom_site_fract_y
_atom_site_fract_z
Si Si1 0.502130 0.168804 0.995808
Si Si2 0.095684 0.977840 0.773825
Si Si3 0.515902 0.277565 0.434103
Si Si4 0.281320 0.363880 0.708429
Si Si5 0.162359 0.463170 0.755478
Si Si6 0.381695 0.357512 0.486133
Si Si7 0.852276 0.241585 0.972830
Si Si8 0.716889 0.878088 0.806300
O O1 0.508755 0.300559 0.777883
O O2 0.724116 0.187659 0.108235
O O3 0.327193 0.079493 0.858773
O O4 0.409545 0.105684 0.183095
O O5 0.949186 0.971659 0.805717
O O6 0.102317 0.853953 0.934238
O O7 0.000000 0.000000 0.500000
O O8 0.627816 0.409041 0.237489
O O9 0.357903 0.289650 0.401610
O O10 0.690527 0.265869 0.697451
O O11 0.412022 0.164293 0.400980
O O12 0.172992 0.390241 0.722486
O O13 0.209318 0.335691 0.504008
O O14 0.484271 0.498406 0.656477
O O15 0.282439 0.244046 0.950546
O O16 0.000000 0.500000 0.500000
O O17 0.061629 0.372238 0.956483
#
# Coordination Sequence:
#
# PCOD9109043 Si02
#       8
#     2   2   2   2   2   2   2   2
#     4  10  22  40  61  86 123 164 199 247 301 352
#     4  12  24  41  63  89 117 158 210 253 296 353
#     4   9  19  36  61  91 120 159 196 243 307 366
#     4   9  16  31  55  87 115 152 191 249 300 343
#     4   9  17  32  59  88 121 155 197 237 302 365
#     4   8  16  31  55  84 116 148 196 238 295 351
#     4  10  20  41  62  85 120 162 197 247 305 359
#     4  11  22  39  61  90 123 153 207 253 294 358
#
# _framework density 23.38607
#
# number of rings (size 3 to 8) (size 9 to 14) (size 15 to 20)
#    0.000    2.250    1.250    3.000    0.000    2.000 
#    2.250    4.375    5.500    0.000    0.000    0.000 
#    0.000    0.000    0.000    0.000    0.000    0.000 
#
# Total GULP energy -89144.619172 kJ/mol
# GULP energy per Si atom -5571.538698 kJ/mol
# Density = 2.333284 g / cm^3
# Si number density = 23.386070 Si / 1000 Ang^3
#
#
#
# Elastic Constant Matrix: (Units=GPa)
#
#
# Indices 1 2 3 4 5 6 
#
# 1 123.1558 12.8929 11.1661 6.0599 -31.8111 16.1071
# 2 12.8929 63.0611 1.6009 -6.8618 -6.8888 6.9891
# 3 11.1661 1.6009 47.8471 -1.8187 -4.2841 3.7240
# 4 6.0599 -6.8618 -1.8187 27.9363 -2.7146 -5.5698
# 5 -31.8111 -6.8888 -4.2841 -2.7146 29.7616 -6.5920
# 6 16.1071 6.9891 3.7240 -5.5698 -6.5920 23.4686
#
#
#
# Elastic Compliance Matrix: (Units=1/GPa)
#
#
# Indices 1 2 3 4 5 6 
#
# 1 0.012034 -0.000950 -0.001489 -0.002942 0.010974 -0.005356
# 2 -0.000950 0.017099 0.000266 0.004148 0.002756 -0.002724
# 3 -0.001489 0.000266 0.021552 0.001576 0.001333 -0.001729
# 4 -0.002942 0.004148 0.001576 0.040208 0.004203 0.011257
# 5 0.010974 0.002756 0.001333 0.004203 0.047844 0.005872
# 6 -0.005356 -0.002724 -0.001729 0.011257 0.005872 0.051693
#
#
# Mechanical properties :
#
#
# Convention : Reuss Voigt Hill
#
# Bulk Modulus (GPa) = 21.57999 31.70932 26.64466
# Shear Modulus (GPa) = 23.78422 30.12689 26.95555
#
# Velocity S-wave (km/s) = 3.19254 3.59310 3.39873
# Velocity P-wave (km/s) = 4.77886 5.54998 5.17880
#
# Compressibility (1/GPa) = 0.04633922
#
# Stress axis : x y z
#
# Youngs Moduli (GPa) = 83.09742 58.48145 46.39862
#
# Poissons Ratio (x) = 0.05558 0.06909
# Poissons Ratio (y) = 0.07897 -0.01234
# Poissons Ratio (z) = 0.12373 -0.01556
#
# Static dielectric constant tensor:
#      x y z
#    x 2.091290 -0.045900 -0.121580 
#    y -0.045900 1.934200 0.031210 
#    z -0.121580 0.031210 1.972810 
# 
# From -- ./inp_files/216828.got.cif
#   From: 2010.05.17/outbox.cif.g08.bks.cpg/sg2_109_cif.got.tgz:216828.got - 2010.06.03 11:33:40.
