data_PCOD9109575
_publ_section_title
;
Structure prediction by ZEFSAII (Michael W. Deem and Ramdas Pophale) SiO2 
 PCOD9109575
Probable space group: P -1
;
_chemical_formula_sum "Si O2"
_cell_formula_units_Z 16
_cell_length_a 13.819484
_cell_length_b 11.948159
_cell_length_c 8.464392
_cell_angle_alpha 64.739903
_cell_angle_beta 55.869729
_cell_angle_gamma 109.502818
_cell_volume 672.850396
_symmetry_space_group_name_H-M "P -1"
_symmetry_group_IT_number 2
_symmetry_cell_setting 'triclinic'
loop_
_space_group_symop_operation_xyz
x,y,z
-x,-y,-z
loop_
_atom_site_type_symbol
_atom_site_label
_atom_site_fract_x
_atom_site_fract_y
_atom_site_fract_z
Si Si1 0.897649 0.539061 0.239613
Si Si2 0.290727 0.866811 0.263982
Si Si3 0.982609 0.031415 0.813397
Si Si4 0.822074 0.293773 0.866979
Si Si5 0.855335 0.083559 0.379276
Si Si6 0.485062 0.755496 0.738160
Si Si7 0.704646 0.556913 0.643563
Si Si8 0.583169 0.663687 0.448763
O O1 0.820543 0.337236 0.425496
O O2 0.751420 0.494662 0.504409
O O3 0.084420 0.686300 0.078840
O O4 0.967370 0.684120 0.948765
O O5 0.248726 0.843166 0.131418
O O6 0.239855 0.948101 0.355582
O O7 0.500000 0.000000 0.000000
O O8 0.069369 0.994200 0.650510
O O9 0.769183 0.866953 0.082834
O O10 0.106141 0.252592 0.559710
O O11 0.000000 0.000000 0.000000
O O12 0.000000 0.500000 0.500000
O O13 0.659228 0.251860 0.095458
O O14 0.691749 0.956145 0.475589
O O15 0.474596 0.689280 0.611878
O O16 0.427115 0.606473 0.009739
O O17 0.631492 0.617180 0.584152
O O18 0.500000 0.500000 0.500000
#
# Coordination Sequence:
#
# PCOD9109575 Si02
#       8
#     2   2   2   2   2   2   2   2
#     4  11  22  42  67  93 129 179 209 263 332 379
#     4  11  22  41  62  96 129 166 220 271 308 379
#     4  10  20  41  66  89 128 171 206 262 319 392
#     4  10  22  42  64  91 133 167 211 269 316 381
#     4  12  22  40  69  93 129 174 221 259 323 388
#     4  12  22  42  70  93 127 178 215 262 323 388
#     4  11  20  43  72  89 127 177 215 251 335 389
#     4  11  24  41  65 100 130 158 218 278 313 379
#
# _framework density 23.779430999999999
#
# number of rings (size 3 to 8) (size 9 to 14) (size 15 to 20)
#    0.000    1.000    8.750    0.750    0.000    2.500 
#    2.250    4.375    0.000    0.000    0.000    0.000 
#    0.000    0.000    0.000    0.000    0.000    0.000 
#
# Total GULP energy -89405.787108 kJ/mol
# GULP energy per Si atom -5587.861694 kJ/mol
# Density = 2.372531 g / cm^3
# Si number density = 23.779431 Si / 1000 Ang^3
#
#
#
# Elastic Constant Matrix: (Units=GPa)
#
#
# Indices 1 2 3 4 5 6 
#
# 1 20.6294 -5.2763 4.3965 2.9818 -9.6676 -4.4328
# 2 -5.2763 141.6522 44.7595 36.1372 -15.9009 -4.7733
# 3 4.3965 44.7595 129.6944 -8.2920 -8.2754 -5.2723
# 4 2.9818 36.1372 -8.2920 54.7241 -17.6285 -15.3729
# 5 -9.6676 -15.9009 -8.2754 -17.6285 24.0625 -2.8475
# 6 -4.4328 -4.7733 -5.2723 -15.3729 -2.8475 31.8099
#
#
#
# Elastic Compliance Matrix: (Units=1/GPa)
#
#
# Indices 1 2 3 4 5 6 
#
# 1 0.073713 0.005010 0.000422 0.013499 0.045529 0.021693
# 2 0.005010 0.010856 -0.004470 -0.008386 0.001227 -0.002357
# 3 0.000422 -0.004470 0.010569 0.008852 0.008062 0.006139
# 4 0.013499 -0.008386 0.008852 0.044493 0.038724 0.027058
# 5 0.045529 0.001227 0.008062 0.038724 0.095966 0.035170
# 6 0.021693 -0.002357 0.006139 0.027058 0.035170 0.051349
#
#
# Mechanical properties :
#
#
# Convention : Reuss Voigt Hill
#
# Bulk Modulus (GPa) = 10.30270 42.19282 26.24776
# Shear Modulus (GPa) = 15.75426 38.65906 27.20666
#
# Velocity S-wave (km/s) = 2.57673 4.03642 3.38616
# Velocity P-wave (km/s) = 3.63246 6.28534 5.13323
#
# Compressibility (1/GPa) = 0.09706191
#
# Stress axis : x y z
#
# Youngs Moduli (GPa) = 13.56622 92.11153 94.61808
#
# Poissons Ratio (x) = -0.46150 -0.03994
# Poissons Ratio (y) = -0.06797 0.42296
# Poissons Ratio (z) = -0.00573 0.41176
#
# Static dielectric constant tensor:
#      x y z
#    x 2.032190 -0.025650 -0.047980 
#    y -0.025650 1.978590 0.066080 
#    z -0.047980 0.066080 2.013220 
# 
# From -- ./inp_files/187449.got.cif
#   From: 2010.05.17/outbox.cif.g08.bks.cpg/sg2_94_cif.got.tgz:187449.got - 2010.06.03 11:33:40.
