data_PCOD9109276
_publ_section_title
;
Structure prediction by ZEFSAII (Michael W. Deem and Ramdas Pophale) SiO2 
 PCOD9109276
Probable space group: P -1
;
_chemical_formula_sum "Si O2"
_cell_formula_units_Z 16
_cell_length_a 6.246405
_cell_length_b 14.188916
_cell_length_c 10.728967
_cell_angle_alpha 116.159987
_cell_angle_beta 75.430509
_cell_angle_gamma 128.260784
_cell_volume 669.858439
_symmetry_space_group_name_H-M "P -1"
_symmetry_group_IT_number 2
_symmetry_cell_setting 'triclinic'
loop_
_space_group_symop_operation_xyz
x,y,z
-x,-y,-z
loop_
_atom_site_type_symbol
_atom_site_label
_atom_site_fract_x
_atom_site_fract_y
_atom_site_fract_z
Si Si1 0.690262 0.635644 0.616051
Si Si2 0.894277 0.290491 0.213700
Si Si3 0.738330 0.775005 0.441315
Si Si4 0.295850 0.607045 0.876889
Si Si5 0.295913 0.393672 0.864726
Si Si6 0.373260 0.034190 0.148688
Si Si7 0.346880 0.009840 0.414847
Si Si8 0.834374 0.810080 0.039443
O O1 0.500000 0.500000 0.500000
O O2 0.767771 0.738686 0.555845
O O3 0.498843 0.622050 0.748491
O O4 0.952469 0.650220 0.645669
O O5 0.927949 0.384289 0.153825
O O6 0.570477 0.188350 0.211086
O O7 0.021651 0.215410 0.106633
O O8 0.613519 0.650818 0.295177
O O9 0.596071 0.849126 0.505612
O O10 0.034779 0.889923 0.412927
O O11 0.168231 0.466116 0.872960
O O12 0.512614 0.730349 0.007002
O O13 0.500000 0.500000 0.000000
O O14 0.141259 0.263285 0.891323
O O15 0.416558 0.995382 0.255344
O O16 0.500000 0.000000 0.000000
O O17 0.050530 0.962110 0.127895
O O18 0.500000 0.000000 0.500000
#
# Coordination Sequence:
#
# PCOD9109276 Si02
#       8
#     2   2   2   2   2   2   2   2
#     4  11  22  40  62  89 129 169 215 265 324 397
#     4  10  22  38  60  93 127 165 217 268 322 388
#     4  11  23  43  68  93 130 179 212 269 341 387
#     4  10  21  39  62  91 126 169 213 271 322 388
#     4  10  20  41  64  91 132 171 220 266 324 395
#     4  10  20  41  66  94 133 170 216 278 328 392
#     4  11  24  44  68  99 135 171 224 276 329 405
#     4   9  20  39  61  88 130 164 214 268 330 383
#
# _framework density 23.885643000000002
#
# number of rings (size 3 to 8) (size 9 to 14) (size 15 to 20)
#    0.000    1.750    2.500    1.500    0.000    1.500 
#   11.250    2.500    0.000    0.000    0.000    0.000 
#    0.000    0.000    0.000    0.000    0.000    0.000 
#
# Total GULP energy -89177.425578 kJ/mol
# GULP energy per Si atom -5573.589099 kJ/mol
# Density = 2.383128 g / cm^3
# Si number density = 23.885643 Si / 1000 Ang^3
#
#
#
# Elastic Constant Matrix: (Units=GPa)
#
#
# Indices 1 2 3 4 5 6 
#
# 1 71.8841 30.2904 46.0337 14.1578 25.6311 -21.7122
# 2 30.2904 90.1333 28.2289 -1.6300 19.9567 -13.1544
# 3 46.0337 28.2289 129.2625 0.6956 23.5138 -6.0343
# 4 14.1578 -1.6300 0.6956 45.6162 8.1043 7.5624
# 5 25.6311 19.9567 23.5138 8.1043 34.7925 -13.2648
# 6 -21.7122 -13.1544 -6.0343 7.5624 -13.2648 31.9106
#
#
#
# Elastic Compliance Matrix: (Units=1/GPa)
#
#
# Indices 1 2 3 4 5 6 
#
# 1 0.030342 -0.004140 -0.008102 -0.011573 -0.004901 0.018111
# 2 -0.004140 0.013866 -0.000642 0.002690 -0.005086 0.000026
# 3 -0.008102 -0.000642 0.011309 0.004286 -0.004847 -0.006669
# 4 -0.011573 0.002690 0.004286 0.030023 -0.009376 -0.016968
# 5 -0.004901 -0.005086 -0.004847 -0.009376 0.046531 0.015216
# 6 0.018111 0.000026 -0.006669 -0.016968 0.015216 0.052756
#
#
# Mechanical properties :
#
#
# Convention : Reuss Voigt Hill
#
# Bulk Modulus (GPa) = 33.61501 55.59843 44.60672
# Shear Modulus (GPa) = 22.67463 34.91232 28.79347
#
# Velocity S-wave (km/s) = 3.08441 3.82729 3.47576
# Velocity P-wave (km/s) = 5.17578 6.54663 5.90114
#
# Compressibility (1/GPa) = 0.02974861
#
# Stress axis : x y z
#
# Youngs Moduli (GPa) = 32.95812 72.12130 88.42503
#
# Poissons Ratio (x) = 0.29859 0.71642
# Poissons Ratio (y) = 0.13645 0.05674
# Poissons Ratio (z) = 0.26703 0.04628
#
# Static dielectric constant tensor:
#      x y z
#    x 1.996250 -0.034970 -0.009870 
#    y -0.034970 2.098610 -0.011250 
#    z -0.009870 -0.011250 2.038820 
# 
# From -- ./inp_files/367863.got.cif
#   From: 2010.05.17/outbox.cif.g08.bks.cpg/sg2_184_cif.got.tgz:367863.got - 2010.06.03 11:33:40.
