data_PCOD9109625
_publ_section_title
;
Structure prediction by ZEFSAII (Michael W. Deem and Ramdas Pophale) SiO2 
 PCOD9109625
Probable space group: P -1
;
_chemical_formula_sum "Si O2"
_cell_formula_units_Z 16
_cell_length_a 8.136406
_cell_length_b 11.873902
_cell_length_c 11.599918
_cell_angle_alpha 138.417988
_cell_angle_beta 56.213390
_cell_angle_gamma 100.661412
_cell_volume 561.372277
_symmetry_space_group_name_H-M "P -1"
_symmetry_group_IT_number 2
_symmetry_cell_setting 'triclinic'
loop_
_space_group_symop_operation_xyz
x,y,z
-x,-y,-z
loop_
_atom_site_type_symbol
_atom_site_label
_atom_site_fract_x
_atom_site_fract_y
_atom_site_fract_z
Si Si1 0.527937 0.102933 0.202309
Si Si2 0.783095 0.584817 0.073046
Si Si3 0.940951 0.850647 0.578459
Si Si4 0.593915 0.527898 0.312629
Si Si5 0.140160 0.616898 0.535030
Si Si6 0.827712 0.916231 0.414392
Si Si7 0.078228 0.816067 0.947633
Si Si8 0.362475 0.176393 0.871766
O O1 0.286515 0.146260 0.284931
O O2 0.471505 0.266601 0.448890
O O3 0.734782 0.107981 0.059898
O O4 0.592787 0.896291 0.070927
O O5 0.630013 0.518820 0.154585
O O6 0.721084 0.799837 0.298128
O O7 0.755281 0.611843 0.968174
O O8 0.000000 0.500000 0.000000
O O9 0.937933 0.808771 0.409117
O O10 0.115185 0.719263 0.500895
O O11 0.993017 0.034015 0.683089
O O12 0.385540 0.485732 0.377903
O O13 0.805561 0.381152 0.181189
O O14 0.070588 0.770336 0.780473
O O15 0.000000 0.500000 0.500000
O O16 0.611894 0.098955 0.670863
O O17 0.821424 0.905178 0.145035
#
# Coordination Sequence:
#
# PCOD9109625 Si02
#       8
#     2   2   2   2   2   2   2   2
#     4  10  21  40  67  88 125 167 207 263 311 377
#     4  12  23  39  66  95 124 163 214 272 309 376
#     4  10  20  41  66  93 125 169 213 254 324 377
#     4  11  21  41  62  92 125 165 217 259 309 372
#     4  11  23  37  65  93 129 177 206 256 319 384
#     4  10  23  40  68  92 128 167 207 270 321 372
#     4  11  23  39  63  96 131 163 215 260 311 375
#     4  11  22  38  64  95 127 159 215 259 320 369
#
# _framework density 28.501584999999999
#
# number of rings (size 3 to 8) (size 9 to 14) (size 15 to 20)
#    0.000    1.250    3.750    4.500    3.500    0.000 
#    0.000    6.250    0.000    9.750    0.000    0.000 
#    0.000    0.000    0.000    0.000    0.000    0.000 
#
# Total GULP energy -89296.682687 kJ/mol
# GULP energy per Si atom -5581.042668 kJ/mol
# Density = 2.843671 g / cm^3
# Si number density = 28.501585 Si / 1000 Ang^3
#
#
#
# Elastic Constant Matrix: (Units=GPa)
#
#
# Indices 1 2 3 4 5 6 
#
# 1 116.4357 8.8497 36.4843 -5.0959 -8.0032 3.4265
# 2 8.8497 154.1908 31.0098 -11.4483 -11.6681 -18.1078
# 3 36.4843 31.0098 69.2546 2.2409 -34.6116 2.8782
# 4 -5.0959 -11.4483 2.2409 35.8344 3.5443 -26.7367
# 5 -8.0032 -11.6681 -34.6116 3.5443 64.9918 -0.0456
# 6 3.4265 -18.1078 2.8782 -26.7367 -0.0456 57.4355
#
#
#
# Elastic Compliance Matrix: (Units=1/GPa)
#
#
# Indices 1 2 3 4 5 6 
#
# 1 0.010951 0.001380 -0.008110 0.004500 -0.002967 0.002281
# 2 0.001380 0.009108 -0.006489 0.009265 -0.002150 0.007426
# 3 -0.008110 -0.006489 0.029595 -0.013417 0.014323 -0.009279
# 4 0.004500 0.009265 -0.013417 0.054546 -0.007882 0.028710
# 5 -0.002967 -0.002150 0.014323 -0.007882 0.022689 -0.004870
# 6 0.002281 0.007426 -0.009279 0.028710 -0.004870 0.033442
#
#
# Mechanical properties :
#
#
# Convention : Reuss Voigt Hill
#
# Bulk Modulus (GPa) = 43.07140 54.72986 48.90063
# Shear Modulus (GPa) = 25.70601 49.22150 37.46375
#
# Velocity S-wave (km/s) = 3.00645 4.16020 3.62946
# Velocity P-wave (km/s) = 5.21501 6.50541 5.89562
#
# Compressibility (1/GPa) = 0.02321726
#
# Stress axis : x y z
#
# Youngs Moduli (GPa) = 91.31863 109.78810 33.78946
#
# Poissons Ratio (x) = -0.15151 0.27403
# Poissons Ratio (y) = -0.12602 0.21924
# Poissons Ratio (z) = 0.74059 0.71237
#
# Static dielectric constant tensor:
#      x y z
#    x 2.194020 -0.047000 0.110180 
#    y -0.047000 2.307360 -0.034130 
#    z 0.110180 -0.034130 2.316950 
# 
# From -- ./inp_files/500786.got.cif
#   From: 2010.05.17/outbox.cif.g08.bks.cpg/sg2_251_cif.got.tgz:500786.got - 2010.06.03 11:33:40.
