data_PCOD9109432
_publ_section_title
;
Structure prediction by ZEFSAII (Michael W. Deem and Ramdas Pophale) SiO2 
 PCOD9109432
Probable space group: P -1
;
_chemical_formula_sum "Si O2"
_cell_formula_units_Z 12
_cell_length_a 9.026588
_cell_length_b 16.164226
_cell_length_c 5.058923
_cell_angle_alpha 82.633966
_cell_angle_beta 82.391304
_cell_angle_gamma 142.557773
_cell_volume 410.108929
_symmetry_space_group_name_H-M "P -1"
_symmetry_group_IT_number 2
_symmetry_cell_setting 'triclinic'
loop_
_space_group_symop_operation_xyz
x,y,z
-x,-y,-z
loop_
_atom_site_type_symbol
_atom_site_label
_atom_site_fract_x
_atom_site_fract_y
_atom_site_fract_z
Si Si1 0.515838 0.614653 0.758729
Si Si2 0.841934 0.065738 0.019930
Si Si3 0.721193 0.854465 0.363864
Si Si4 0.359392 0.869384 0.798342
Si Si5 0.813658 0.595511 0.582656
Si Si6 0.205633 0.664433 0.273724
O O1 0.606098 0.751067 0.676295
O O2 0.764607 0.669980 0.611608
O O3 0.318264 0.499771 0.614987
O O4 0.367636 0.526682 0.096547
O O5 0.057041 0.104874 0.818792
O O6 0.594228 0.963803 0.922530
O O7 0.886568 0.181545 0.043485
O O8 0.791165 0.983566 0.325587
O O9 0.483292 0.755027 0.255903
O O10 0.500000 0.000000 0.500000
O O11 0.225977 0.714629 0.954516
O O12 0.114232 0.702673 0.459582
O O13 0.000000 0.500000 0.500000
#
# Coordination Sequence:
#
# PCOD9109432 Si02
#       6
#     2   2   2   2   2   2
#     4  10  21  41  65  93 135 179 227 282 341 411
#     4   9  21  43  64  92 124 173 226 274 336 407
#     4  10  20  41  65  91 131 171 223 282 338 404
#     4  10  22  44  68  92 126 174 225 277 338 410
#     4  10  22  41  62  97 134 180 224 278 350 409
#     4  11  22  41  65  98 136 174 223 285 345 409
#
# _framework density 29.260518999999999
#
# number of rings (size 3 to 8) (size 9 to 14) (size 15 to 20)
#    0.000    2.000    1.667    1.000    0.000    2.000 
#   21.000    4.167    0.000    0.000    0.000    0.000 
#    0.000    0.000    0.000    0.000    0.000    0.000 
#
# Total GULP energy -66997.770699 kJ/mol
# GULP energy per Si atom -5583.147558 kJ/mol
# Density = 2.919392 g / cm^3
# Si number density = 29.260519 Si / 1000 Ang^3
#
#
#
# Elastic Constant Matrix: (Units=GPa)
#
#
# Indices 1 2 3 4 5 6 
#
# 1 266.5894 51.0310 77.0642 -26.5598 -6.2630 -18.9084
# 2 51.0310 67.3333 46.4532 -20.3478 18.4413 -1.2346
# 3 77.0642 46.4532 150.4007 -11.3846 26.8945 -14.1364
# 4 -26.5598 -20.3478 -11.3846 40.9304 -21.2062 21.7971
# 5 -6.2630 18.4413 26.8945 -21.2062 70.7695 -19.5408
# 6 -18.9084 -1.2346 -14.1364 21.7971 -19.5408 64.4007
#
#
#
# Elastic Compliance Matrix: (Units=1/GPa)
#
#
# Indices 1 2 3 4 5 6 
#
# 1 0.005259 -0.002535 -0.002155 0.002536 0.003002 0.001075
# 2 -0.002535 0.024480 -0.005486 0.010642 -0.002983 -0.005986
# 3 -0.002155 -0.005486 0.009891 -0.004009 -0.003221 0.001813
# 4 0.002536 0.010642 -0.004009 0.040329 0.007978 -0.011161
# 5 0.003002 -0.002983 -0.003221 0.007978 0.019727 0.003403
# 6 0.001075 -0.005986 0.001813 -0.011161 0.003403 0.020936
#
#
# Mechanical properties :
#
#
# Convention : Reuss Voigt Hill
#
# Bulk Modulus (GPa) = 51.87438 92.60223 72.23830
# Shear Modulus (GPa) = 33.92109 55.87177 44.89643
#
# Velocity S-wave (km/s) = 3.40851 4.37448 3.92135
# Velocity P-wave (km/s) = 5.76694 7.56511 6.72638
#
# Compressibility (1/GPa) = 0.01927734
#
# Stress axis : x y z
#
# Youngs Moduli (GPa) = 190.16041 40.84915 101.10556
#
# Poissons Ratio (x) = 0.10354 0.21793
# Poissons Ratio (y) = 0.48198 0.55468
# Poissons Ratio (z) = 0.40989 0.22410
#
# Static dielectric constant tensor:
#      x y z
#    x 2.230770 0.029310 -0.009330 
#    y 0.029310 2.553730 0.055730 
#    z -0.009330 0.055730 2.507700 
# 
# From -- ./inp_files/43703.got.cif
#   From: 2010.05.17/outbox.cif.g08.bks.cpg/sg2_22_cif.got.tgz:43703.got - 2010.06.03 11:33:40.
