data_PCOD9109302
_publ_section_title
;
Structure prediction by ZEFSAII (Michael W. Deem and Ramdas Pophale) SiO2 
 PCOD9109302
Probable space group: P -1
;
_chemical_formula_sum "Si O2"
_cell_formula_units_Z 13
_cell_length_a 6.879634
_cell_length_b 11.049936
_cell_length_c 6.650336
_cell_angle_alpha 76.758292
_cell_angle_beta 117.343021
_cell_angle_gamma 92.443175
_cell_volume 435.984743
_symmetry_space_group_name_H-M "P -1"
_symmetry_group_IT_number 2
_symmetry_cell_setting 'triclinic'
loop_
_space_group_symop_operation_xyz
x,y,z
-x,-y,-z
loop_
_atom_site_type_symbol
_atom_site_label
_atom_site_fract_x
_atom_site_fract_y
_atom_site_fract_z
Si Si1 0.884034 0.206360 0.554676
Si Si2 0.649205 0.608345 0.099072
Si Si3 0.037018 0.414348 0.284726
Si Si4 0.586758 0.836102 0.693838
Si Si5 0.000000 0.000000 0.000000
Si Si6 0.282834 0.621690 0.223352
Si Si7 0.408062 0.930063 0.167306
O O1 0.670557 0.154332 0.367444
O O2 0.764886 0.304524 0.621310
O O3 0.031008 0.290649 0.459688
O O4 0.016258 0.093207 0.766584
O O5 0.878039 0.527714 0.261426
O O6 0.499072 0.661575 0.192817
O O7 0.500000 0.500000 0.000000
O O8 0.671145 0.714076 0.901321
O O9 0.267821 0.474309 0.333725
O O10 0.910330 0.378425 0.035493
O O11 0.713845 0.951980 0.797906
O O12 0.564208 0.863299 0.434190
O O13 0.174305 0.883197 0.022267
O O14 0.500000 0.000000 0.000000
#
# Coordination Sequence:
#
# PCOD9109302 Si02
#       7
#     2   2   2   2   1   2   2
#     4  11  22  43  65  95 134 167 215 275 309 384
#     4  10  20  41  64  93 130 167 206 264 317 382
#     4  10  22  43  61  97 134 166 214 267 314 382
#     4  10  22  42  66  96 130 162 216 270 315 379
#     4  10  26  44  64 100 124 162 228 260 316 384
#     4  10  22  39  66  94 130 171 213 256 326 382
#     4  10  24  48  68  91 127 173 215 269 321 381
#
# _framework density 29.817557000000001
#
# number of rings (size 3 to 8) (size 9 to 14) (size 15 to 20)
#    0.000    1.846    3.077    0.462    6.462    0.615 
#    8.308    7.692    0.000    0.000    0.000    0.000 
#    0.000    0.000    0.000    0.000    0.000    0.000 
#
# Total GULP energy -72555.530266 kJ/mol
# GULP energy per Si atom -5581.194636 kJ/mol
# Density = 2.974969 g / cm^3
# Si number density = 29.817557 Si / 1000 Ang^3
#
#
#
# Elastic Constant Matrix: (Units=GPa)
#
#
# Indices 1 2 3 4 5 6 
#
# 1 169.2252 19.1280 65.6891 -19.8524 -11.1454 9.0030
# 2 19.1280 140.7526 70.8130 -21.0053 -2.0570 32.1320
# 3 65.6891 70.8130 205.6835 -60.6785 -6.8535 11.2098
# 4 -19.8524 -21.0053 -60.6785 87.2478 16.5799 -12.7156
# 5 -11.1454 -2.0570 -6.8535 16.5799 57.2344 -12.2659
# 6 9.0030 32.1320 11.2098 -12.7156 -12.2659 63.0762
#
#
#
# Elastic Compliance Matrix: (Units=1/GPa)
#
#
# Indices 1 2 3 4 5 6 
#
# 1 0.006836 0.000347 -0.002309 -0.000246 0.001011 -0.000595
# 2 0.000347 0.009739 -0.003366 -0.000434 -0.000860 -0.004667
# 3 -0.002309 -0.003366 0.008004 0.004557 -0.000628 0.001418
# 4 -0.000246 -0.000434 0.004557 0.015423 -0.003587 0.001858
# 5 0.001011 -0.000860 -0.000628 -0.003587 0.019340 0.003443
# 6 -0.000595 -0.004667 0.001418 0.001858 0.003443 0.019108
#
#
# Mechanical properties :
#
#
# Convention : Reuss Voigt Hill
#
# Bulk Modulus (GPa) = 71.82657 91.88016 81.85336
# Shear Modulus (GPa) = 53.33458 65.51376 59.42417
#
# Velocity S-wave (km/s) = 4.23389 4.69247 4.46906
# Velocity P-wave (km/s) = 6.93124 7.76144 7.35806
#
# Compressibility (1/GPa) = 0.01392242
#
# Stress axis : x y z
#
# Youngs Moduli (GPa) = 146.29003 102.67817 124.93421
#
# Poissons Ratio (x) = -0.03558 0.28845
# Poissons Ratio (y) = -0.05069 0.42054
# Poissons Ratio (z) = 0.33775 0.34562
#
# Static dielectric constant tensor:
#      x y z
#    x 2.641440 0.017980 0.076830 
#    y 0.017980 2.614270 0.038490 
#    z 0.076830 0.038490 2.465590 
# 
# From -- ./inp_files/26611.got.cif
#   From: 2010.05.17/outbox.cif.g08.bks.cpg/sg2_14_cif.got.tgz:26611.got - 2010.06.03 11:33:40.
