data_PCOD9109167
_publ_section_title
;
Structure prediction by ZEFSAII (Michael W. Deem and Ramdas Pophale) SiO2 
 PCOD9109167
Probable space group: P -1
;
_chemical_formula_sum "Si O2"
_cell_formula_units_Z 14
_cell_length_a 8.528270
_cell_length_b 12.296702
_cell_length_c 18.731741
_cell_angle_alpha 39.170903
_cell_angle_beta 51.512673
_cell_angle_gamma 29.653016
_cell_volume 605.512173
_symmetry_space_group_name_H-M "P -1"
_symmetry_group_IT_number 2
_symmetry_cell_setting 'triclinic'
loop_
_space_group_symop_operation_xyz
x,y,z
-x,-y,-z
loop_
_atom_site_type_symbol
_atom_site_label
_atom_site_fract_x
_atom_site_fract_y
_atom_site_fract_z
Si Si1 0.647052 0.774170 0.428568
Si Si2 0.739460 0.057549 0.305978
Si Si3 0.520142 0.483917 0.617624
Si Si4 0.791118 0.175836 0.075866
Si Si5 0.496130 0.158936 0.721725
Si Si6 0.259156 0.605402 0.784685
Si Si7 0.391726 0.911993 0.968485
O O1 0.434786 0.743447 0.508803
O O2 0.668248 0.794939 0.327549
O O3 0.000000 0.500000 0.500000
O O4 0.533952 0.020577 0.377712
O O5 0.804821 0.068153 0.200783
O O6 0.607673 0.312116 0.255143
O O7 0.098360 0.777207 0.374449
O O8 0.385649 0.428521 0.631352
O O9 0.432901 0.478259 0.724348
O O10 0.721642 0.100974 0.066441
O O11 0.500000 0.500000 0.000000
O O12 0.106601 0.074786 0.022245
O O13 0.442855 0.073894 0.849042
O O14 0.879671 0.887139 0.738711
O O15 0.323960 0.394249 0.922569
#
# Coordination Sequence:
#
# PCOD9109167 Si02
#       7
#     2   2   2   2   2   2   2
#     4  10  22  43  70  89 123 169 218 272 316 362
#     4  10  20  41  63  93 126 165 214 268 312 370
#     4  10  23  42  64  89 132 169 213 260 316 376
#     4  11  21  37  65  95 130 163 211 264 314 374
#     4  11  24  42  64  96 129 171 212 258 319 383
#     4  11  23  40  64  95 135 169 208 257 320 385
#     4  11  23  38  65  97 132 169 205 258 323 380
#
# _framework density 23.120923999999999
#
# number of rings (size 3 to 8) (size 9 to 14) (size 15 to 20)
#    0.000    1.429    4.286    0.857    0.000    2.857 
#    0.000    0.000    0.000    0.000    0.000    0.000 
#    0.000    0.000    0.000    0.000    0.000    0.000 
#
# Total GULP energy -78189.428696 kJ/mol
# GULP energy per Si atom -5584.959193 kJ/mol
# Density = 2.306830 g / cm^3
# Si number density = 23.120924 Si / 1000 Ang^3
#
#
#
# Elastic Constant Matrix: (Units=GPa)
#
#
# Indices 1 2 3 4 5 6 
#
# 1 92.1245 26.3636 38.3043 -8.4106 -6.6145 19.2714
# 2 26.3636 45.6178 5.1270 -5.0833 -4.9602 1.8948
# 3 38.3043 5.1270 110.9084 -9.7455 -7.4852 -0.3501
# 4 -8.4106 -5.0833 -9.7455 10.9098 4.0695 1.8002
# 5 -6.6145 -4.9602 -7.4852 4.0695 41.2030 -2.8880
# 6 19.2714 1.8948 -0.3501 1.8002 -2.8880 22.3954
#
#
#
# Elastic Compliance Matrix: (Units=1/GPa)
#
#
# Indices 1 2 3 4 5 6 
#
# 1 0.020610 -0.009561 -0.005976 0.009471 -0.001120 -0.017925
# 2 -0.009561 0.027836 0.002730 0.006323 0.002085 0.005676
# 3 -0.005976 0.002730 0.011557 0.005736 0.001238 0.004791
# 4 0.009471 0.006323 0.005736 0.113593 -0.009221 -0.018915
# 5 -0.001120 0.002085 0.001238 -0.009221 0.025819 0.004877
# 6 -0.017925 0.005676 0.004791 -0.018915 0.004877 0.061820
#
#
# Mechanical properties :
#
#
# Convention : Reuss Voigt Hill
#
# Bulk Modulus (GPa) = 29.08041 43.13784 36.10913
# Shear Modulus (GPa) = 16.76101 26.82537 21.79319
#
# Velocity S-wave (km/s) = 2.69537 3.40990 3.07347
# Velocity P-wave (km/s) = 4.72139 5.84818 5.31473
#
# Compressibility (1/GPa) = 0.03438741
#
# Stress axis : x y z
#
# Youngs Moduli (GPa) = 48.52119 35.92523 86.52860
#
# Poissons Ratio (x) = 0.34348 0.51709
# Poissons Ratio (y) = 0.46391 -0.23619
# Poissons Ratio (z) = 0.28996 -0.09806
#
# Static dielectric constant tensor:
#      x y z
#    x 1.890630 -0.006950 -0.042570 
#    y -0.006950 1.832390 -0.027910 
#    z -0.042570 -0.027910 1.901240 
# 
# From -- ./inp_files/28166.got.cif
#   From: 2010.05.17/outbox.cif.g08.bks.cpg/sg2_15_cif.got.tgz:28166.got - 2010.06.03 11:33:40.
