data_PCOD9109387
_publ_section_title
;
Structure prediction by ZEFSAII (Michael W. Deem and Ramdas Pophale) SiO2 
 PCOD9109387
Probable space group: P -1
;
_chemical_formula_sum "Si O2"
_cell_formula_units_Z 12
_cell_length_a 11.913024
_cell_length_b 22.612034
_cell_length_c 8.956162
_cell_angle_alpha 25.804411
_cell_angle_beta 30.198633
_cell_angle_gamma 30.995044
_cell_volume 492.568610
_symmetry_space_group_name_H-M "P -1"
_symmetry_group_IT_number 2
_symmetry_cell_setting 'triclinic'
loop_
_space_group_symop_operation_xyz
x,y,z
-x,-y,-z
loop_
_atom_site_type_symbol
_atom_site_label
_atom_site_fract_x
_atom_site_fract_y
_atom_site_fract_z
Si Si1 0.811780 0.409412 0.752201
Si Si2 0.958903 0.896993 0.406553
Si Si3 0.656146 0.381400 0.314477
Si Si4 0.701803 0.851837 0.552803
Si Si5 0.204583 0.430440 0.048587
Si Si6 0.088339 0.898489 0.773090
O O1 0.613888 0.551457 0.585485
O O2 0.065580 0.392920 0.432112
O O3 0.796163 0.414540 0.936015
O O4 0.761475 0.265572 0.078858
O O5 0.845394 0.800472 0.660745
O O6 0.207560 0.789899 0.430751
O O7 0.802606 0.007366 0.460424
O O8 0.000000 0.000000 0.000000
O O9 0.677357 0.464561 0.251808
O O10 0.626118 0.723095 0.866947
O O11 0.500000 0.000000 0.500000
O O12 0.874477 0.882434 0.159075
O O13 0.000000 0.500000 0.000000
O O14 0.000000 0.000000 0.500000
#
# Coordination Sequence:
#
# PCOD9109387 Si02
#       6
#     2   2   2   2   2   2
#     4  10  24  41  65  94 126 171 210 261 322 379
#     4  10  21  39  63  89 126 165 207 262 317 382
#     4  11  22  43  65  93 129 165 213 261 322 380
#     4  10  23  41  59  93 126 165 211 261 325 375
#     4  11  23  41  62  93 127 166 212 263 315 379
#     4  10  20  41  65  88 124 164 214 260 311 382
#
# _framework density 24.362086999999999
#
# number of rings (size 3 to 8) (size 9 to 14) (size 15 to 20)
#    0.000    1.667    3.333    0.500    2.333    3.333 
#    0.000    0.833    0.000    0.000    0.000    0.000 
#    0.000    0.000    0.000    0.000    0.000    0.000 
#
# Total GULP energy -67025.243803 kJ/mol
# GULP energy per Si atom -5585.436984 kJ/mol
# Density = 2.430664 g / cm^3
# Si number density = 24.362087 Si / 1000 Ang^3
#
#
#
# Elastic Constant Matrix: (Units=GPa)
#
#
# Indices 1 2 3 4 5 6 
#
# 1 103.4567 30.4760 34.0098 -17.0057 16.5766 38.4561
# 2 30.4760 121.5003 23.8463 -20.9321 5.3575 22.5862
# 3 34.0098 23.8463 74.0763 -16.8752 1.3455 9.6489
# 4 -17.0057 -20.9321 -16.8752 48.7442 4.6141 6.7430
# 5 16.5766 5.3575 1.3455 4.6141 33.8343 -16.2176
# 6 38.4561 22.5862 9.6489 6.7430 -16.2176 49.3552
#
#
#
# Elastic Compliance Matrix: (Units=1/GPa)
#
#
# Indices 1 2 3 4 5 6 
#
# 1 0.050543 0.010398 -0.008692 0.034487 -0.063344 -0.067966
# 2 0.010398 0.013379 -0.002870 0.013233 -0.019369 -0.021835
# 3 -0.008692 -0.002870 0.017364 0.000058 0.007429 0.007125
# 4 0.034487 0.013233 0.000058 0.051282 -0.053572 -0.057548
# 5 -0.063344 -0.019369 0.007429 -0.053572 0.120340 0.103629
# 6 -0.067966 -0.021835 0.007125 -0.057548 0.103629 0.123732
#
#
# Mechanical properties :
#
#
# Convention : Reuss Voigt Hill
#
# Bulk Modulus (GPa) = 12.66513 52.85526 32.76020
# Shear Modulus (GPa) = 12.33694 40.43349 26.38521
#
# Velocity S-wave (km/s) = 2.25277 4.07835 3.29453
# Velocity P-wave (km/s) = 3.46073 6.62722 5.28662
#
# Compressibility (1/GPa) = 0.07895694
#
# Stress axis : x y z
#
# Youngs Moduli (GPa) = 19.78524 74.74617 57.58938
#
# Poissons Ratio (x) = -0.77717 0.50057
# Poissons Ratio (y) = -0.20572 0.16527
# Poissons Ratio (z) = 0.17197 0.21451
#
# Static dielectric constant tensor:
#      x y z
#    x 2.047990 -0.023470 -0.086510 
#    y -0.023470 1.958820 0.005220 
#    z -0.086510 0.005220 1.992930 
# 
# From -- ./inp_files/61110.got.cif
#   From: 2010.05.17/outbox.cif.g08.bks.cpg/sg2_31_cif.got.tgz:61110.got - 2010.06.03 11:33:40.
