data_PCOD9109854
_publ_section_title
;
Structure prediction by ZEFSAII (Michael W. Deem and Ramdas Pophale) SiO2 
 PCOD9109854
Probable space group: P -1
;
_chemical_formula_sum "Si O2"
_cell_formula_units_Z 16
_cell_length_a 17.745979
_cell_length_b 11.727455
_cell_length_c 8.145226
_cell_angle_alpha 98.374205
_cell_angle_beta 94.794108
_cell_angle_gamma 153.347718
_cell_volume 659.294568
_symmetry_space_group_name_H-M "P -1"
_symmetry_group_IT_number 2
_symmetry_cell_setting 'triclinic'
loop_
_space_group_symop_operation_xyz
x,y,z
-x,-y,-z
loop_
_atom_site_type_symbol
_atom_site_label
_atom_site_fract_x
_atom_site_fract_y
_atom_site_fract_z
Si Si1 0.168153 0.740748 0.342975
Si Si2 0.477359 0.056851 0.657193
Si Si3 0.778635 0.308440 0.176893
Si Si4 0.589712 0.846403 0.829233
Si Si5 0.883188 0.574077 0.920176
Si Si6 0.180404 0.175387 0.020256
Si Si7 0.477591 0.449440 0.679674
Si Si8 0.198557 0.228777 0.649443
O O1 0.123105 0.553291 0.212964
O O2 0.975943 0.530616 0.326052
O O3 0.332364 0.952353 0.551089
O O4 0.266647 0.947265 0.254433
O O5 0.695976 0.389300 0.808543
O O6 0.500000 0.000000 0.500000
O O7 0.365736 0.844506 0.746407
O O8 0.848449 0.491362 0.085310
O O9 0.662483 0.041464 0.011617
O O10 0.565940 0.681837 0.846784
O O11 0.366797 0.547648 0.674162
O O12 0.076450 0.907615 0.980800
O O13 0.383776 0.457432 0.213074
O O14 0.000000 0.000000 0.000000
O O15 0.210236 0.247075 0.851174
O O16 0.500000 0.500000 0.500000
O O17 0.253241 0.170911 0.604116
O O18 0.000000 0.000000 0.500000
#
# Coordination Sequence:
#
# PCOD9109854 Si02
#       8
#     2   2   2   2   2   2   2   2
#     4  10  20  41  67  98 128 167 219 277 336 398
#     4  10  23  39  59 100 137 170 209 274 328 403
#     4  11  20  42  70  95 128 176 220 271 342 402
#     4   9  22  39  72  94 133 168 231 271 345 400
#     4  10  23  40  65  92 133 171 219 275 335 397
#     4  12  25  42  66 100 135 184 236 272 340 412
#     4  10  22  44  65  96 136 178 225 285 336 398
#     4  10  24  44  68  98 137 180 225 283 346 405
#
# _framework density 24.268363000000001
#
# number of rings (size 3 to 8) (size 9 to 14) (size 15 to 20)
#    0.750    1.000    0.000    4.875    3.500    0.000 
#    0.000    5.000    0.000    0.000    0.000    0.000 
#    0.000    0.000    0.000    0.000    0.000    0.000 
#
# Total GULP energy -89228.644695 kJ/mol
# GULP energy per Si atom -5576.790293 kJ/mol
# Density = 2.421313 g / cm^3
# Si number density = 24.268363 Si / 1000 Ang^3
#
#
#
# Elastic Constant Matrix: (Units=GPa)
#
#
# Indices 1 2 3 4 5 6 
#
# 1 70.7271 25.3300 34.8273 20.4576 20.1129 21.7810
# 2 25.3300 103.7332 34.3228 22.4271 -5.3425 26.2870
# 3 34.8273 34.3228 103.1738 11.0707 35.0934 22.3737
# 4 20.4576 22.4271 11.0707 51.2388 15.4457 3.0359
# 5 20.1129 -5.3425 35.0934 15.4457 39.0922 21.0197
# 6 21.7810 26.2870 22.3737 3.0359 21.0197 50.8862
#
#
#
# Elastic Compliance Matrix: (Units=1/GPa)
#
#
# Indices 1 2 3 4 5 6 
#
# 1 0.020410 -0.001062 -0.004170 -0.005957 -0.001702 -0.005296
# 2 -0.001062 0.023286 -0.012183 -0.015198 0.030244 -0.017804
# 3 -0.004170 -0.012183 0.021509 0.010231 -0.028026 0.009588
# 4 -0.005957 -0.015198 0.010231 0.034634 -0.030780 0.016550
# 5 -0.001702 0.030244 -0.028026 -0.030780 0.087809 -0.037008
# 6 -0.005296 -0.017804 0.009588 0.016550 -0.037008 0.041200
#
#
# Mechanical properties :
#
#
# Convention : Reuss Voigt Hill
#
# Bulk Modulus (GPa) = 32.92292 51.84380 42.38336
# Shear Modulus (GPa) = 18.26131 40.45372 29.35752
#
# Velocity S-wave (km/s) = 2.74610 4.08724 3.48185
# Velocity P-wave (km/s) = 4.86317 6.60932 5.80231
#
# Compressibility (1/GPa) = 0.03037398
#
# Stress axis : x y z
#
# Youngs Moduli (GPa) = 48.99491 42.94485 46.49252
#
# Poissons Ratio (x) = 0.04560 0.19388
# Poissons Ratio (y) = 0.05203 0.56644
# Poissons Ratio (z) = 0.20431 0.52322
#
# Static dielectric constant tensor:
#      x y z
#    x 2.089230 0.010340 0.030440 
#    y 0.010340 1.930320 0.011380 
#    z 0.030440 0.011380 1.988910 
# 
# From -- ./inp_files/347606.got.cif
#   From: 2010.05.17/outbox.cif.g08.bks.cpg/sg2_174_cif.got.tgz:347606.got - 2010.06.03 11:33:40.
