data_PCOD9109594
_publ_section_title
;
Structure prediction by ZEFSAII (Michael W. Deem and Ramdas Pophale) SiO2 
 PCOD9109594
Probable space group: P -1
;
_chemical_formula_sum "Si O2"
_cell_formula_units_Z 14
_cell_length_a 9.010074
_cell_length_b 10.432285
_cell_length_c 14.014957
_cell_angle_alpha 126.454697
_cell_angle_beta 108.403728
_cell_angle_gamma 115.640096
_cell_volume 585.703233
_symmetry_space_group_name_H-M "P -1"
_symmetry_group_IT_number 2
_symmetry_cell_setting 'triclinic'
loop_
_space_group_symop_operation_xyz
x,y,z
-x,-y,-z
loop_
_atom_site_type_symbol
_atom_site_label
_atom_site_fract_x
_atom_site_fract_y
_atom_site_fract_z
Si Si1 0.377296 0.368572 0.313604
Si Si2 0.486302 0.582753 0.236234
Si Si3 0.088856 0.460466 0.793574
Si Si4 0.829849 0.104825 0.037316
Si Si5 0.268387 0.733725 0.220252
Si Si6 0.193944 0.922947 0.597662
Si Si7 0.652084 0.841691 0.075976
O O1 0.500000 0.500000 0.500000
O O2 0.556625 0.572749 0.349612
O O3 0.107826 0.250862 0.191925
O O4 0.297575 0.119235 0.166062
O O5 0.314352 0.600249 0.218953
O O6 0.726347 0.844919 0.335052
O O7 0.314530 0.308307 0.023394
O O8 0.142591 0.692262 0.899995
O O9 0.352272 0.598683 0.952013
O O10 0.817721 0.213097 0.691700
O O11 0.040621 0.349257 0.630477
O O12 0.657054 0.953376 0.032365
O O13 0.543851 0.976035 0.323406
O O14 0.000000 0.500000 0.000000
O O15 0.157118 0.930488 0.703842
#
# Coordination Sequence:
#
# PCOD9109594 Si02
#       7
#     2   2   2   2   2   2   2
#     4  10  21  42  68  92 123 168 213 261 320 361
#     4   9  21  42  63  93 128 156 218 266 301 383
#     4  12  22  41  61  92 131 163 211 259 314 376
#     4  10  23  41  61  93 131 161 216 265 296 391
#     4  10  20  41  66  91 122 168 207 263 322 362
#     4  10  23  38  64  92 127 161 209 263 313 379
#     4  11  23  40  63  90 129 173 204 254 328 363
#
# _framework density 23.902888999999998
#
# number of rings (size 3 to 8) (size 9 to 14) (size 15 to 20)
#    0.857    0.857    2.857    1.286    0.000    4.571 
#    2.571    2.857    0.000    0.000    0.000    0.000 
#    0.000    0.000    0.000    0.000    0.000    0.000 
#
# Total GULP energy -78183.713433 kJ/mol
# GULP energy per Si atom -5584.550960 kJ/mol
# Density = 2.384849 g / cm^3
# Si number density = 23.902889 Si / 1000 Ang^3
#
#
#
# Elastic Constant Matrix: (Units=GPa)
#
#
# Indices 1 2 3 4 5 6 
#
# 1 56.6039 8.9497 12.7759 -10.4234 -11.1001 11.9691
# 2 8.9497 57.9264 23.5832 -6.4051 -18.8883 3.7067
# 3 12.7759 23.5832 130.8331 -37.0107 -34.1795 -3.1051
# 4 -10.4234 -6.4051 -37.0107 31.8632 12.3981 -9.4211
# 5 -11.1001 -18.8883 -34.1795 12.3981 41.7261 -2.1454
# 6 11.9691 3.7067 -3.1051 -9.4211 -2.1454 30.2891
#
#
#
# Elastic Compliance Matrix: (Units=1/GPa)
#
#
# Indices 1 2 3 4 5 6 
#
# 1 0.020576 -0.001169 -0.000242 0.002791 0.003563 -0.006892
# 2 -0.001169 0.020859 -0.002497 -0.002931 0.007818 -0.002704
# 3 -0.000242 -0.002497 0.014418 0.015872 0.006273 0.007260
# 4 0.002791 -0.002931 0.015872 0.056955 -0.003562 0.018346
# 5 0.003563 0.007818 0.006273 -0.003562 0.034630 -0.000377
# 6 -0.006892 -0.002704 0.007260 0.018346 -0.000377 0.042493
#
#
# Mechanical properties :
#
#
# Convention : Reuss Voigt Hill
#
# Bulk Modulus (GPa) = 20.81713 37.33121 29.07417
# Shear Modulus (GPa) = 23.39086 34.11266 28.75176
#
# Velocity S-wave (km/s) = 3.13162 3.78184 3.47199
# Velocity P-wave (km/s) = 4.66947 5.89250 5.31627
#
# Compressibility (1/GPa) = 0.04803737
#
# Stress axis : x y z
#
# Youngs Moduli (GPa) = 48.60025 47.94208 69.35735
#
# Poissons Ratio (x) = 0.05606 0.01677
# Poissons Ratio (y) = 0.05683 0.17316
# Poissons Ratio (z) = 0.01175 0.11969
#
# Static dielectric constant tensor:
#      x y z
#    x 1.983560 0.125760 0.034060 
#    y 0.125760 1.970150 0.016750 
#    z 0.034060 0.016750 1.902440 
# 
# From -- ./inp_files/500863.got.cif
#   From: 2010.05.17/outbox.cif.g08.bks.cpg/sg2_251_cif.got.tgz:500863.got - 2010.06.03 11:33:40.
