data_PCOD9109691
_publ_section_title
;
Structure prediction by ZEFSAII (Michael W. Deem and Ramdas Pophale) SiO2 
 PCOD9109691
Probable space group: P -1
;
_chemical_formula_sum "Si O2"
_cell_formula_units_Z 14
_cell_length_a 16.939011
_cell_length_b 11.378448
_cell_length_c 9.190444
_cell_angle_alpha 53.638303
_cell_angle_beta 27.858432
_cell_angle_gamma 62.584627
_cell_volume 656.939980
_symmetry_space_group_name_H-M "P -1"
_symmetry_group_IT_number 2
_symmetry_cell_setting 'triclinic'
loop_
_space_group_symop_operation_xyz
x,y,z
-x,-y,-z
loop_
_atom_site_type_symbol
_atom_site_label
_atom_site_fract_x
_atom_site_fract_y
_atom_site_fract_z
Si Si1 0.901602 0.729469 0.108614
Si Si2 0.030330 0.939507 0.226186
Si Si3 0.061742 0.353574 0.564994
Si Si4 0.561796 0.634761 0.195199
Si Si5 0.188168 0.809879 0.341834
Si Si6 0.638474 0.952078 0.917367
Si Si7 0.640100 0.453554 0.698819
O O1 0.934299 0.653517 0.262803
O O2 0.760301 0.608382 0.351013
O O3 0.062792 0.757148 0.719201
O O4 0.863297 0.894607 0.086319
O O5 0.079322 0.875655 0.347968
O O6 0.047502 0.805677 0.187758
O O7 0.830618 0.959728 0.532569
O O8 0.000000 0.500000 0.500000
O O9 0.250595 0.361785 0.182350
O O10 0.500000 0.500000 0.500000
O O11 0.437717 0.625404 0.264110
O O12 0.571323 0.779479 0.173031
O O13 0.267323 0.665520 0.280074
O O14 0.332082 0.942798 0.067949
O O15 0.500000 0.000000 0.000000
O O16 0.500000 0.500000 0.000000
#
# Coordination Sequence:
#
# PCOD9109691 Si02
#       7
#     2   2   2   2   2   2   2
#     4  11  23  42  68  96 133 172 222 274 329 397
#     4  10  24  41  69  99 131 177 224 271 330 397
#     4  11  24  43  66  96 134 175 224 272 328 397
#     4  11  26  41  66  96 133 175 220 274 331 395
#     4  11  24  44  72  98 130 179 225 271 329 401
#     4  10  20  41  66  97 129 167 221 273 323 383
#     4  12  25  44  65  98 138 171 219 277 338 389
#
# _framework density 21.310928000000001
#
# number of rings (size 3 to 8) (size 9 to 14) (size 15 to 20)
#    0.000    1.143    2.857    3.429    8.000    0.000 
#    0.000    2.143    0.000    0.000    0.000    0.000 
#    0.000    0.000    0.000    0.000    0.000    0.000 
#
# Total GULP energy -78174.109320 kJ/mol
# GULP energy per Si atom -5583.864951 kJ/mol
# Density = 2.126242 g / cm^3
# Si number density = 21.310928 Si / 1000 Ang^3
#
#
#
# Elastic Constant Matrix: (Units=GPa)
#
#
# Indices 1 2 3 4 5 6 
#
# 1 84.7888 29.7251 34.8072 4.2300 -2.2659 -8.7390
# 2 29.7251 127.5823 41.9095 -27.4067 -21.1199 -2.1406
# 3 34.8072 41.9095 61.9737 -26.4057 -9.2299 -3.6305
# 4 4.2300 -27.4067 -26.4057 34.9243 5.4712 -9.0044
# 5 -2.2659 -21.1199 -9.2299 5.4712 36.1117 -10.6529
# 6 -8.7390 -2.1406 -3.6305 -9.0044 -10.6529 42.6693
#
#
#
# Elastic Compliance Matrix: (Units=1/GPa)
#
#
# Indices 1 2 3 4 5 6 
#
# 1 0.021255 -0.003671 -0.018341 -0.019407 -0.003238 -0.002295
# 2 -0.003671 0.012057 -0.001244 0.008818 0.006090 0.003128
# 3 -0.018341 -0.001244 0.044114 0.035922 0.006662 0.009178
# 4 -0.019407 0.008818 0.035922 0.067949 0.007465 0.015727
# 5 -0.003238 0.006090 0.006662 0.007465 0.034705 0.010449
# 6 -0.002295 0.003128 0.009178 0.015727 0.010449 0.029831
#
#
# Mechanical properties :
#
#
# Convention : Reuss Voigt Hill
#
# Bulk Modulus (GPa) = 32.34843 54.13648 43.24245
# Shear Modulus (GPa) = 18.74561 33.93461 26.34011
#
# Velocity S-wave (km/s) = 2.96906 3.99476 3.51948
# Velocity P-wave (km/s) = 5.19288 6.83636 6.07050
#
# Compressibility (1/GPa) = 0.03091340
#
# Stress axis : x y z
#
# Youngs Moduli (GPa) = 47.04669 82.93980 22.66846
#
# Poissons Ratio (x) = 0.30445 0.41577
# Poissons Ratio (y) = 0.17270 0.02821
# Poissons Ratio (z) = 0.86290 0.10321
#
# Static dielectric constant tensor:
#      x y z
#    x 1.786940 0.008550 -0.046250 
#    y 0.008550 1.782460 0.032070 
#    z -0.046250 0.032070 1.739370 
# 
# From -- ./inp_files/156692.got.cif
#   From: 2010.05.17/outbox.cif.g08.bks.cpg/sg2_79_cif.got.tgz:156692.got - 2010.06.03 11:33:40.
