data_PCOD9109023
_publ_section_title
;
Structure prediction by ZEFSAII (Michael W. Deem and Ramdas Pophale) SiO2 
 PCOD9109023
Probable space group: P -1
;
_chemical_formula_sum "Si O2"
_cell_formula_units_Z 16
_cell_length_a 8.784024
_cell_length_b 5.217139
_cell_length_c 16.429605
_cell_angle_alpha 104.418084
_cell_angle_beta 112.333479
_cell_angle_gamma 90.644798
_cell_volume 669.786909
_symmetry_space_group_name_H-M "P -1"
_symmetry_group_IT_number 2
_symmetry_cell_setting 'triclinic'
loop_
_space_group_symop_operation_xyz
x,y,z
-x,-y,-z
loop_
_atom_site_type_symbol
_atom_site_label
_atom_site_fract_x
_atom_site_fract_y
_atom_site_fract_z
Si Si1 0.594322 0.195145 0.600782
Si Si2 0.013573 0.847630 0.796963
Si Si3 0.609336 0.874713 0.896448
Si Si4 0.363176 0.246975 0.290236
Si Si5 0.869059 0.212699 0.536175
Si Si6 0.331059 0.650744 0.933430
Si Si7 0.105151 0.289632 0.964144
Si Si8 0.936149 0.224100 0.383411
O O1 0.533187 0.467570 0.643357
O O2 0.745070 0.308776 0.582592
O O3 0.500000 0.000000 0.500000
O O4 0.633397 0.993075 0.663861
O O5 0.829780 0.693497 0.750025
O O6 0.161484 0.733977 0.866817
O O7 0.078427 0.881003 0.719786
O O8 0.991618 0.112626 0.864058
O O9 0.583942 0.858601 0.794411
O O10 0.467841 0.665392 0.892492
O O11 0.799478 0.831760 0.951977
O O12 0.598543 0.148309 0.964486
O O13 0.804590 0.174615 0.426968
O O14 0.016040 0.457949 0.585808
O O15 0.922614 0.938469 0.560651
O O16 0.262003 0.386434 0.945581
O O17 0.000000 0.500000 0.000000
#
# Coordination Sequence:
#
# PCOD9109023 Si02
#       8
#     2   2   2   2   2   2   2   2
#     4  12  26  46  69  97 138 175 230 288 352 409
#     4  11  23  39  66 105 130 178 235 282 333 411
#     4  10  24  44  64  99 138 189 224 278 349 407
#     4  12  26  44  74 100 133 185 232 285 340 423
#     4  10  20  41  61  94 123 174 211 283 336 400
#     4  10  23  43  65  95 148 175 229 283 342 405
#     4  11  23  39  69 103 141 177 228 285 336 408
#     4  10  21  36  66  91 131 165 222 271 343 391
#
# _framework density 23.888196000000001
#
# number of rings (size 3 to 8) (size 9 to 14) (size 15 to 20)
#    0.000    1.250    2.500    2.250    7.000    3.000 
#    2.250    0.000    0.000    0.000    0.000    0.000 
#    0.000    0.000    0.000    0.000    0.000    0.000 
#
# Total GULP energy -89240.963270 kJ/mol
# GULP energy per Si atom -5577.560204 kJ/mol
# Density = 2.383383 g / cm^3
# Si number density = 23.888196 Si / 1000 Ang^3
#
#
#
# Elastic Constant Matrix: (Units=GPa)
#
#
# Indices 1 2 3 4 5 6 
#
# 1 62.0396 0.7153 38.2709 -0.7060 -19.8218 1.7130
# 2 0.7153 53.3199 32.1115 5.1305 -8.7341 8.7566
# 3 38.2709 32.1115 163.7624 -4.2584 -50.8595 4.8171
# 4 -0.7060 5.1305 -4.2584 37.7140 2.1382 -2.9562
# 5 -19.8218 -8.7341 -50.8595 2.1382 39.7456 -1.6139
# 6 1.7130 8.7566 4.8171 -2.9562 -1.6139 31.6161
#
#
#
# Elastic Compliance Matrix: (Units=1/GPa)
#
#
# Indices 1 2 3 4 5 6 
#
# 1 0.020224 0.003055 -0.003274 -0.000872 0.006567 -0.001189
# 2 0.003055 0.023271 -0.005228 -0.004181 -0.000079 -0.006209
# 3 -0.003274 -0.005228 0.011675 0.001328 0.012111 0.000589
# 4 -0.000872 -0.004181 0.001328 0.027551 -0.000994 0.003528
# 5 0.006567 -0.000079 0.012111 -0.000994 0.043967 -0.000028
# 6 -0.001189 -0.006209 0.000589 0.003528 -0.000028 0.033653
#
#
# Mechanical properties :
#
#
# Convention : Reuss Voigt Hill
#
# Bulk Modulus (GPa) = 22.58473 46.81303 34.69888
# Shear Modulus (GPa) = 26.88284 35.68341 31.28313
#
# Velocity S-wave (km/s) = 3.35828 3.86912 3.62272
# Velocity P-wave (km/s) = 4.95099 6.29281 5.66179
#
# Compressibility (1/GPa) = 0.04427771
#
# Stress axis : x y z
#
# Youngs Moduli (GPa) = 49.44621 42.97151 85.65354
#
# Poissons Ratio (x) = -0.13128 0.28039
# Poissons Ratio (y) = -0.15107 0.44779
# Poissons Ratio (z) = 0.16186 0.22465
#
# Static dielectric constant tensor:
#      x y z
#    x 2.165960 0.097270 0.080950 
#    y 0.097270 2.011650 0.034210 
#    z 0.080950 0.034210 1.944540 
# 
# From -- ./inp_files/488465.got.cif
#   From: 2010.05.17/outbox.cif.g08.bks.cpg/sg2_245_cif.got.tgz:488465.got - 2010.06.03 11:33:40.
