data_PCOD9109025
_publ_section_title
;
Structure prediction by ZEFSAII (Michael W. Deem and Ramdas Pophale) SiO2 
 PCOD9109025
Probable space group: P -1
;
_chemical_formula_sum "Si O2"
_cell_formula_units_Z 14
_cell_length_a 18.272703
_cell_length_b 7.266187
_cell_length_c 7.888688
_cell_angle_alpha 104.701063
_cell_angle_beta 49.420211
_cell_angle_gamma 128.266008
_cell_volume 604.748748
_symmetry_space_group_name_H-M "P -1"
_symmetry_group_IT_number 2
_symmetry_cell_setting 'triclinic'
loop_
_space_group_symop_operation_xyz
x,y,z
-x,-y,-z
loop_
_atom_site_type_symbol
_atom_site_label
_atom_site_fract_x
_atom_site_fract_y
_atom_site_fract_z
Si Si1 0.524658 0.559270 0.278534
Si Si2 0.976759 0.513506 0.773745
Si Si3 0.039291 0.247671 0.827066
Si Si4 0.344593 0.654137 0.080336
Si Si5 0.322764 0.599496 0.485548
Si Si6 0.316011 0.881050 0.868584
Si Si7 0.933209 0.796256 0.694949
O O1 0.500000 0.500000 0.500000
O O2 0.407887 0.520361 0.363619
O O3 0.632734 0.846033 0.164956
O O4 0.562758 0.406616 0.103580
O O5 0.999865 0.680497 0.619000
O O6 0.040214 0.393895 0.698088
O O7 0.004646 0.681214 0.932794
O O8 0.831155 0.297381 0.942882
O O9 0.180887 0.366233 0.663077
O O10 0.950813 0.962276 0.864775
O O11 0.342927 0.707156 0.292202
O O12 0.208280 0.411750 0.180389
O O13 0.366620 0.848009 0.957076
O O14 0.349521 0.786102 0.636460
O O15 0.000000 0.000000 0.500000
#
# Coordination Sequence:
#
# PCOD9109025 Si02
#       7
#     2   2   2   2   2   2   2
#     4  12  25  46  71  94 130 176 220 273 334 382
#     4   9  21  39  65  92 125 171 212 260 323 386
#     4  10  20  41  61  94 127 168 217 259 318 384
#     4  11  24  45  66 100 132 173 218 270 325 387
#     4  11  23  44  67  96 133 171 223 269 321 391
#     4  10  23  46  67  93 133 173 217 273 326 384
#     4  11  21  39  64  93 134 164 204 263 322 378
#
# _framework density 23.150110999999999
#
# number of rings (size 3 to 8) (size 9 to 14) (size 15 to 20)
#    0.000    1.429    2.857    2.143    0.000    1.143 
#   12.857    0.000    0.000    0.000    0.000    0.000 
#    0.000    0.000    0.000    0.000    0.000    0.000 
#
# Total GULP energy -78365.018410 kJ/mol
# GULP energy per Si atom -5597.501315 kJ/mol
# Density = 2.309742 g / cm^3
# Si number density = 23.150111 Si / 1000 Ang^3
#
#
#
# Elastic Constant Matrix: (Units=GPa)
#
#
# Indices 1 2 3 4 5 6 
#
# 1 101.5597 23.4137 11.5857 -5.1933 14.1851 -10.9299
# 2 23.4137 87.3618 12.7392 -15.7086 4.2440 -19.4407
# 3 11.5857 12.7392 65.3836 0.0360 21.0333 -5.3043
# 4 -5.1933 -15.7086 0.0360 27.3920 -14.3774 2.0293
# 5 14.1851 4.2440 21.0333 -14.3774 50.6795 -5.4569
# 6 -10.9299 -19.4407 -5.3043 2.0293 -5.4569 36.2591
#
#
#
# Elastic Compliance Matrix: (Units=1/GPa)
#
#
# Indices 1 2 3 4 5 6 
#
# 1 0.010994 -0.002594 -0.000419 -0.000985 -0.002805 0.001495
# 2 -0.002594 0.015977 -0.003560 0.010574 0.004659 0.007373
# 3 -0.000419 -0.003560 0.019126 -0.007155 -0.009582 -0.000279
# 4 -0.000985 0.010574 -0.007155 0.051182 0.017318 0.004068
# 5 -0.002805 0.004659 -0.009582 0.017318 0.029416 0.003709
# 6 0.001495 0.007373 -0.000279 0.004068 0.003709 0.032273
#
#
# Mechanical properties :
#
#
# Convention : Reuss Voigt Hill
#
# Bulk Modulus (GPa) = 30.34650 38.86470 34.60560
# Shear Modulus (GPa) = 27.30806 36.63724 31.97265
#
# Velocity S-wave (km/s) = 3.43827 3.98250 3.72035
# Velocity P-wave (km/s) = 5.37581 6.16211 5.78234
#
# Compressibility (1/GPa) = 0.03295273
#
# Stress axis : x y z
#
# Youngs Moduli (GPa) = 90.95502 62.59153 52.28490
#
# Poissons Ratio (x) = 0.16235 0.02189
# Poissons Ratio (y) = 0.23591 0.18612
# Poissons Ratio (z) = 0.03808 0.22281
#
# Static dielectric constant tensor:
#      x y z
#    x 1.904210 0.021030 0.066550 
#    y 0.021030 1.834510 0.029050 
#    z 0.066550 0.029050 1.891080 
# 
# From -- ./inp_files/116039.got.cif
#   From: 2010.05.17/outbox.cif.g08.bks.cpg/sg2_59_cif.got.tgz:116039.got - 2010.06.03 11:33:40.
