data_PCOD9109851
_publ_section_title
;
Structure prediction by ZEFSAII (Michael W. Deem and Ramdas Pophale) SiO2 
 PCOD9109851
Probable space group: P -1
;
_chemical_formula_sum "Si O2"
_cell_formula_units_Z 16
_cell_length_a 17.672607
_cell_length_b 18.078434
_cell_length_c 8.234353
_cell_angle_alpha 131.194058
_cell_angle_beta 52.968805
_cell_angle_gamma 158.811748
_cell_volume 714.832365
_symmetry_space_group_name_H-M "P -1"
_symmetry_group_IT_number 2
_symmetry_cell_setting 'triclinic'
loop_
_space_group_symop_operation_xyz
x,y,z
-x,-y,-z
loop_
_atom_site_type_symbol
_atom_site_label
_atom_site_fract_x
_atom_site_fract_y
_atom_site_fract_z
Si Si1 0.989632 0.688211 0.435305
Si Si2 0.937159 0.825517 0.109824
Si Si3 0.711553 0.893522 0.141841
Si Si4 0.368314 0.516855 0.279514
Si Si5 0.466073 0.105681 0.829880
Si Si6 0.391511 0.340687 0.553756
Si Si7 0.815119 0.065166 0.802846
Si Si8 0.842287 0.323319 0.591498
O O1 0.077217 0.796196 0.300043
O O2 0.036508 0.622066 0.343005
O O3 0.751608 0.504031 0.506838
O O4 0.122554 0.877526 0.663792
O O5 0.819454 0.798027 0.324695
O O6 0.008647 0.801551 0.098220
O O7 0.776190 0.650625 0.923086
O O8 0.150816 0.051372 0.066608
O O9 0.586761 0.741073 0.235379
O O10 0.551812 0.804884 0.104622
O O11 0.431283 0.495981 0.300283
O O12 0.324759 0.903957 0.607941
O O13 0.700050 0.280304 0.782117
O O14 0.344960 0.005433 0.011491
O O15 0.500000 0.500000 0.500000
O O16 0.317794 0.159122 0.368338
O O17 0.000000 0.500000 0.500000
#
# Coordination Sequence:
#
# PCOD9109851 Si02
#       8
#     2   2   2   2   2   2   2   2
#     4  10  21  40  65  95 130 172 205 263 329 378
#     4  10  24  40  65  91 127 172 224 267 312 377
#     4   9  19  40  64  91 124 171 214 261 315 371
#     4  11  22  42  65  94 125 172 228 261 309 387
#     4   9  21  38  66  93 127 168 209 257 321 388
#     4  12  26  43  64  95 131 175 218 272 328 372
#     4  11  23  46  62  94 139 169 207 272 334 377
#     4  10  20  41  67  98 126 163 218 259 310 394
#
# _framework density 22.38287
#
# number of rings (size 3 to 8) (size 9 to 14) (size 15 to 20)
#    0.000    1.750    1.250    3.000    3.500    1.000 
#    2.250    0.625    0.000    0.000    0.000    0.000 
#    0.000    0.000    0.000    0.000    0.000    0.000 
#
# Total GULP energy -89349.858340 kJ/mol
# GULP energy per Si atom -5584.366146 kJ/mol
# Density = 2.233193 g / cm^3
# Si number density = 22.382870 Si / 1000 Ang^3
#
#
#
# Elastic Constant Matrix: (Units=GPa)
#
#
# Indices 1 2 3 4 5 6 
#
# 1 139.4361 67.7085 38.2954 -33.6774 14.2165 5.3852
# 2 67.7085 63.9165 29.2965 -31.0764 -5.9147 11.4434
# 3 38.2954 29.2965 79.1210 -45.7168 -5.2706 11.1853
# 4 -33.6774 -31.0764 -45.7168 50.4242 8.1611 -4.6942
# 5 14.2165 -5.9147 -5.2706 8.1611 34.7058 -14.8121
# 6 5.3852 11.4434 11.1853 -4.6942 -14.8121 33.4365
#
#
#
# Elastic Compliance Matrix: (Units=1/GPa)
#
#
# Indices 1 2 3 4 5 6 
#
# 1 0.018444 -0.019396 -0.002464 -0.000068 -0.011475 -0.000601
# 2 -0.019396 0.044076 0.003387 0.015108 0.009539 -0.006747
# 3 -0.002464 0.003387 0.028704 0.026304 -0.003807 -0.008358
# 4 -0.000068 0.015108 0.026304 0.053651 -0.010804 -0.011213
# 5 -0.011475 0.009539 -0.003807 -0.010804 0.044879 0.018221
# 6 -0.000601 -0.006747 -0.008358 -0.011213 0.018221 0.041607
#
#
# Mechanical properties :
#
#
# Convention : Reuss Voigt Hill
#
# Bulk Modulus (GPa) = 18.42383 61.45270 39.93827
# Shear Modulus (GPa) = 17.45811 33.52484 25.49148
#
# Velocity S-wave (km/s) = 2.79584 3.87433 3.37840
# Velocity P-wave (km/s) = 4.32104 6.89411 5.75326
#
# Compressibility (1/GPa) = 0.05427752
#
# Stress axis : x y z
#
# Youngs Moduli (GPa) = 54.21931 22.68797 34.83823
#
# Poissons Ratio (x) = 0.44005 0.08584
# Poissons Ratio (y) = 1.05163 -0.11798
# Poissons Ratio (z) = 0.13359 -0.07683
#
# Static dielectric constant tensor:
#      x y z
#    x 1.841110 0.015350 -0.003080 
#    y 0.015350 1.849800 0.027830 
#    z -0.003080 0.027830 1.905730 
# 
# From -- ./inp_files/335420.got.cif
#   From: 2010.05.17/outbox.cif.g08.bks.cpg/sg2_168_cif.got.tgz:335420.got - 2010.06.03 11:33:40.
