data_PCOD9109124
_publ_section_title
;
Structure prediction by ZEFSAII (Michael W. Deem and Ramdas Pophale) SiO2 
 PCOD9109124
Probable space group: P -1
;
_chemical_formula_sum "Si O2"
_cell_formula_units_Z 16
_cell_length_a 12.165364
_cell_length_b 17.363806
_cell_length_c 8.168057
_cell_angle_alpha 86.791745
_cell_angle_beta 45.739066
_cell_angle_gamma 51.943477
_cell_volume 727.791899
_symmetry_space_group_name_H-M "P -1"
_symmetry_group_IT_number 2
_symmetry_cell_setting 'triclinic'
loop_
_space_group_symop_operation_xyz
x,y,z
-x,-y,-z
loop_
_atom_site_type_symbol
_atom_site_label
_atom_site_fract_x
_atom_site_fract_y
_atom_site_fract_z
Si Si1 0.055648 0.710354 0.898277
Si Si2 0.655959 0.933882 0.056243
Si Si3 0.247254 0.692346 0.053177
Si Si4 0.537892 0.344796 0.670016
Si Si5 0.989093 0.557107 0.345611
Si Si6 0.802431 0.787879 0.620112
Si Si7 0.930017 0.116411 0.530846
Si Si8 0.742045 0.534275 0.378664
O O1 0.273287 0.660068 0.559570
O O2 0.091634 0.604193 0.851964
O O3 0.783110 0.854823 0.101675
O O4 0.129142 0.711174 0.000791
O O5 0.683859 0.849507 0.915142
O O6 0.835062 0.928498 0.787862
O O7 0.367393 0.084796 0.329834
O O8 0.155615 0.809651 0.217316
O O9 0.104619 0.691251 0.325133
O O10 0.551162 0.577708 0.712922
O O11 0.695829 0.221098 0.631352
O O12 0.443849 0.358365 0.585363
O O13 0.275901 0.472260 0.020723
O O14 0.795811 0.705784 0.564063
O O15 0.905527 0.536022 0.287013
O O16 0.000000 0.500000 0.500000
O O17 0.000000 0.000000 0.500000
#
# Coordination Sequence:
#
# PCOD9109124 Si02
#       8
#     2   2   2   2   2   2   2   2
#     4  10  20  41  63  88 119 158 201 244 298 365
#     4   9  21  38  61  83 121 163 197 244 301 344
#     4  10  21  39  63  88 113 158 204 244 298 355
#     4  10  22  41  60  88 121 160 196 246 312 345
#     4  12  24  36  61  94 122 159 201 247 300 353
#     4  10  21  40  58  86 123 157 203 245 288 363
#     4  10  22  40  62  86 121 160 202 252 293 360
#     4  11  22  39  63  92 125 153 198 254 298 355
#
# _framework density 21.984307000000001
#
# number of rings (size 3 to 8) (size 9 to 14) (size 15 to 20)
#    0.000    1.750    0.000    4.875    3.500    0.500 
#    4.500   10.000    0.000    0.000    0.000    0.000 
#    0.000    0.000    0.000    0.000    0.000    0.000 
#
# Total GULP energy -89342.947880 kJ/mol
# GULP energy per Si atom -5583.934242 kJ/mol
# Density = 2.193427 g / cm^3
# Si number density = 21.984307 Si / 1000 Ang^3
#
#
#
# Elastic Constant Matrix: (Units=GPa)
#
#
# Indices 1 2 3 4 5 6 
#
# 1 103.7394 60.3881 5.4569 17.3479 17.7482 4.5548
# 2 60.3881 105.7037 21.7764 20.7706 19.5496 3.7517
# 3 5.4569 21.7764 77.7859 4.0862 2.7091 5.7377
# 4 17.3479 20.7706 4.0862 21.0619 1.2273 5.5079
# 5 17.7482 19.5496 2.7091 1.2273 33.2975 10.1042
# 6 4.5548 3.7517 5.7377 5.5079 10.1042 29.4314
#
#
#
# Elastic Compliance Matrix: (Units=1/GPa)
#
#
# Indices 1 2 3 4 5 6 
#
# 1 0.015400 -0.007197 0.001326 -0.005807 -0.004112 0.000774
# 2 -0.007197 0.017838 -0.003943 -0.011590 -0.007176 0.004241
# 3 0.001326 -0.003943 0.014002 0.000798 0.001366 -0.003050
# 4 -0.005807 -0.011590 0.000798 0.066583 0.011708 -0.014260
# 5 -0.004112 -0.007176 0.001366 0.011708 0.040376 -0.014768
# 6 0.000774 0.004241 -0.003050 -0.014260 -0.014768 0.041650
#
#
# Mechanical properties :
#
#
# Convention : Reuss Voigt Hill
#
# Bulk Modulus (GPa) = 36.21683 51.38574 43.80128
# Shear Modulus (GPa) = 22.25369 30.06535 26.15952
#
# Velocity S-wave (km/s) = 3.18504 3.70210 3.45326
# Velocity P-wave (km/s) = 5.48049 6.45744 5.98892
#
# Compressibility (1/GPa) = 0.02761147
#
# Stress axis : x y z
#
# Youngs Moduli (GPa) = 64.93621 56.05908 71.41730
#
# Poissons Ratio (x) = 0.40345 -0.09467
# Poissons Ratio (y) = 0.46734 0.28161
# Poissons Ratio (z) = -0.08608 0.22105
#
# Static dielectric constant tensor:
#      x y z
#    x 1.822710 -0.028530 -0.009450 
#    y -0.028530 1.818780 -0.034230 
#    z -0.009450 -0.034230 1.849380 
# 
# From -- ./inp_files/277959.got.cif
#   From: 2010.05.17/outbox.cif.g08.bks.cpg/sg2_139_cif.got.tgz:277959.got - 2010.06.03 11:33:40.
