data_PCOD9109464
_publ_section_title
;
Structure prediction by ZEFSAII (Michael W. Deem and Ramdas Pophale) SiO2 
 PCOD9109464
Probable space group: P -1
;
_chemical_formula_sum "Si O2"
_cell_formula_units_Z 16
_cell_length_a 9.076884
_cell_length_b 16.778400
_cell_length_c 12.545406
_cell_angle_alpha 58.232900
_cell_angle_beta 52.674163
_cell_angle_gamma 26.964015
_cell_volume 688.388452
_symmetry_space_group_name_H-M "P -1"
_symmetry_group_IT_number 2
_symmetry_cell_setting 'triclinic'
loop_
_space_group_symop_operation_xyz
x,y,z
-x,-y,-z
loop_
_atom_site_type_symbol
_atom_site_label
_atom_site_fract_x
_atom_site_fract_y
_atom_site_fract_z
Si Si1 0.297970 0.170963 0.913945
Si Si2 0.629820 0.159607 0.491383
Si Si3 0.481027 0.553757 0.357523
Si Si4 0.270753 0.370705 0.697009
Si Si5 0.290883 0.108679 0.623954
Si Si6 0.066160 0.815307 0.086500
Si Si7 0.440844 0.712563 0.794396
Si Si8 0.716424 0.424072 0.138795
O O1 0.454035 0.194613 0.774899
O O2 0.069242 0.218955 0.891036
O O3 0.062851 0.310912 0.012942
O O4 0.500000 0.000000 0.000000
O O5 0.384031 0.331779 0.550984
O O6 0.470283 0.123263 0.584937
O O7 0.642561 0.189511 0.342056
O O8 0.000000 0.000000 0.500000
O O9 0.500000 0.500000 0.500000
O O10 0.580851 0.617202 0.295299
O O11 0.749620 0.392992 0.270766
O O12 0.097771 0.700552 0.377507
O O13 0.849170 0.549116 0.759949
O O14 0.214940 0.059122 0.781369
O O15 0.500000 0.000000 0.500000
O O16 0.432585 0.626805 0.107639
O O17 0.178376 0.836301 0.924779
O O18 0.391102 0.625805 0.837832
#
# Coordination Sequence:
#
# PCOD9109464 Si02
#       8
#     2   2   2   2   2   2   2   2
#     4  11  22  37  66 101 133 172 223 283 339 398
#     4  12  26  41  67 101 133 173 233 285 337 410
#     4  11  24  41  67  98 135 181 229 276 342 404
#     4  12  22  42  68 102 135 175 236 280 328 415
#     4  11  24  46  66  90 141 182 212 281 350 405
#     4  10  20  42  67  93 126 174 225 272 346 393
#     4  11  21  41  71  96 129 175 229 283 333 403
#     4  10  20  41  65  93 131 173 220 278 342 392
#
# _framework density 23.24269
#
# number of rings (size 3 to 8) (size 9 to 14) (size 15 to 20)
#    0.000    1.000    3.750    4.125    3.500    1.500 
#    0.000    0.625    0.000    0.000    0.000    0.000 
#    0.000    0.000    0.000    0.000    0.000    0.000 
#
# Total GULP energy -89261.125912 kJ/mol
# GULP energy per Si atom -5578.820369 kJ/mol
# Density = 2.318979 g / cm^3
# Si number density = 23.242690 Si / 1000 Ang^3
#
#
#
# Elastic Constant Matrix: (Units=GPa)
#
#
# Indices 1 2 3 4 5 6 
#
# 1 110.5513 19.0903 27.7896 8.3804 -6.5520 -13.2547
# 2 19.0903 46.8230 45.6834 -0.4211 -0.9191 -12.7177
# 3 27.7896 45.6834 189.0656 17.1055 21.8449 -10.7049
# 4 8.3804 -0.4211 17.1055 43.8310 10.8090 6.9162
# 5 -6.5520 -0.9191 21.8449 10.8090 40.8975 1.3862
# 6 -13.2547 -12.7177 -10.7049 6.9162 1.3862 20.1555
#
#
#
# Elastic Compliance Matrix: (Units=1/GPa)
#
#
# Indices 1 2 3 4 5 6 
#
# 1 0.010771 -0.001840 -0.000777 -0.003493 0.002802 0.006515
# 2 -0.001840 0.033746 -0.007447 0.000132 0.003870 0.015816
# 3 -0.000777 -0.007447 0.007834 -0.001992 -0.003947 -0.000095
# 4 -0.003493 0.000132 -0.001992 0.027796 -0.006420 -0.012368
# 5 0.002802 0.003870 -0.003947 -0.006420 0.028710 0.002417
# 6 0.006515 0.015816 -0.000095 -0.012368 0.002417 0.067906
#
#
# Mechanical properties :
#
#
# Convention : Reuss Voigt Hill
#
# Bulk Modulus (GPa) = 31.03478 59.06294 45.04886
# Shear Modulus (GPa) = 24.08111 37.90191 30.99151
#
# Velocity S-wave (km/s) = 3.22230 4.04258 3.65552
# Velocity P-wave (km/s) = 5.21783 6.87433 6.10255
#
# Compressibility (1/GPa) = 0.03222191
#
# Stress axis : x y z
#
# Youngs Moduli (GPa) = 92.84530 29.63303 127.65319
#
# Poissons Ratio (x) = 0.05451 0.09924
# Poissons Ratio (y) = 0.17080 0.95066
# Poissons Ratio (z) = 0.07218 0.22068
#
# Static dielectric constant tensor:
#      x y z
#    x 1.634040 0.069800 -0.251740 
#    y 0.069800 1.899640 0.075520 
#    z -0.251740 0.075520 1.672210 
# 
# From -- ./inp_files/223872.got.cif
#   From: 2010.05.17/outbox.cif.g08.bks.cpg/sg2_112_cif.got.tgz:223872.got - 2010.06.03 11:33:40.
