data_PCOD9109044
_publ_section_title
;
Structure prediction by ZEFSAII (Michael W. Deem and Ramdas Pophale) SiO2 
 PCOD9109044
Probable space group: P -1
;
_chemical_formula_sum "Si O2"
_cell_formula_units_Z 16
_cell_length_a 10.129233
_cell_length_b 11.488574
_cell_length_c 13.213528
_cell_angle_alpha 30.989275
_cell_angle_beta 103.961576
_cell_angle_gamma 88.247691
_cell_volume 676.052571
_symmetry_space_group_name_H-M "P -1"
_symmetry_group_IT_number 2
_symmetry_cell_setting 'triclinic'
loop_
_space_group_symop_operation_xyz
x,y,z
-x,-y,-z
loop_
_atom_site_type_symbol
_atom_site_label
_atom_site_fract_x
_atom_site_fract_y
_atom_site_fract_z
Si Si1 0.231446 0.658390 0.039800
Si Si2 0.853237 0.338834 0.581267
Si Si3 0.219436 0.110921 0.807100
Si Si4 0.911637 0.759759 0.851714
Si Si5 0.645352 0.647266 0.919064
Si Si6 0.293419 0.691447 0.626200
Si Si7 0.616807 0.196541 0.738118
Si Si8 0.461872 0.179671 0.533745
O O1 0.046922 0.777071 0.922552
O O2 0.297799 0.427210 0.305982
O O3 0.299650 0.520273 0.047867
O O4 0.266222 0.892628 0.892962
O O5 0.781998 0.619857 0.410395
O O6 0.798420 0.382319 0.420380
O O7 0.772124 0.181950 0.729440
O O8 0.037793 0.203237 0.729093
O O9 0.331847 0.960602 0.032503
O O10 0.778264 0.729226 0.906811
O O11 0.000000 0.500000 0.000000
O O12 0.825462 0.018295 0.578261
O O13 0.641743 0.487136 0.132561
O O14 0.491139 0.919808 0.676381
O O15 0.430021 0.712262 0.577541
O O16 0.500000 0.500000 0.500000
O O17 0.527370 0.101269 0.716667
#
# Coordination Sequence:
#
# PCOD9109044 Si02
#       8
#     2   2   2   2   2   2   2   2
#     4  11  21  40  61  91 128 153 204 255 291 360
#     4  10  23  41  63  89 122 159 203 250 300 361
#     4  11  22  42  61  90 124 159 200 252 302 352
#     4   9  20  38  60  88 119 155 199 252 291 349
#     4  10  22  40  66  87 119 169 198 242 311 358
#     4  10  20  41  62  85 122 161 200 244 302 361
#     4  11  22  41  66  89 120 161 200 248 308 356
#     4  10  22  41  61  89 122 160 201 250 300 360
#
# _framework density 23.666798
#
# number of rings (size 3 to 8) (size 9 to 14) (size 15 to 20)
#    0.000    1.750    2.500    1.500    0.000    3.000 
#    6.750    3.750    0.000    0.000    0.000    0.000 
#    0.000    0.000    0.000    0.000    0.000    0.000 
#
# Total GULP energy -89439.434852 kJ/mol
# GULP energy per Si atom -5589.964678 kJ/mol
# Density = 2.361293 g / cm^3
# Si number density = 23.666798 Si / 1000 Ang^3
#
#
#
# Elastic Constant Matrix: (Units=GPa)
#
#
# Indices 1 2 3 4 5 6 
#
# 1 49.7909 5.1435 11.9616 7.1403 4.3897 11.1619
# 2 5.1435 111.3578 33.2583 -13.2762 -7.3009 7.3436
# 3 11.9616 33.2583 113.8431 -9.1213 12.4900 9.2739
# 4 7.1403 -13.2762 -9.1213 50.7582 3.5997 5.4027
# 5 4.3897 -7.3009 12.4900 3.5997 27.5825 -6.0630
# 6 11.1619 7.3436 9.2739 5.4027 -6.0630 19.2168
#
#
#
# Elastic Compliance Matrix: (Units=1/GPa)
#
#
# Indices 1 2 3 4 5 6 
#
# 1 0.024615 -0.000612 -0.000478 -0.001540 -0.007100 -0.015640
# 2 -0.000612 0.010546 -0.003106 0.002203 0.003647 -0.001644
# 3 -0.000478 -0.003106 0.011405 0.002633 -0.007849 -0.007256
# 4 -0.001540 0.002203 0.002633 0.022318 -0.005291 -0.009161
# 5 -0.007100 0.003647 -0.007849 -0.005291 0.047660 0.023043
# 6 -0.015640 -0.001644 -0.007256 -0.009161 0.023043 0.075098
#
#
# Mechanical properties :
#
#
# Convention : Reuss Voigt Hill
#
# Bulk Modulus (GPa) = 26.19608 41.74649 33.97128
# Shear Modulus (GPa) = 23.50086 34.48674 28.99380
#
# Velocity S-wave (km/s) = 3.15459 3.82144 3.50392
# Velocity P-wave (km/s) = 4.93572 6.09498 5.54572
#
# Compressibility (1/GPa) = 0.03817365
#
# Stress axis : x y z
#
# Youngs Moduli (GPa) = 40.62576 94.82091 87.68133
#
# Poissons Ratio (x) = 0.05802 0.04191
# Poissons Ratio (y) = 0.02486 0.27237
# Poissons Ratio (z) = 0.01942 0.29454
#
# Static dielectric constant tensor:
#      x y z
#    x 1.913310 0.016960 0.038000 
#    y 0.016960 1.965030 -0.011500 
#    z 0.038000 -0.011500 1.868330 
# 
# From -- ./inp_files/364396.got.cif
#   From: 2010.05.17/outbox.cif.g08.bks.cpg/sg2_183_cif.got.tgz:364396.got - 2010.06.03 11:33:40.
