data_PCOD9109480
_publ_section_title
;
Structure prediction by ZEFSAII (Michael W. Deem and Ramdas Pophale) SiO2 
 PCOD9109480
Probable space group: P -1
;
_chemical_formula_sum "Si O2"
_cell_formula_units_Z 16
_cell_length_a 8.388330
_cell_length_b 18.400075
_cell_length_c 11.120677
_cell_angle_alpha 136.594731
_cell_angle_beta 41.724578
_cell_angle_gamma 135.702263
_cell_volume 726.313213
_symmetry_space_group_name_H-M "P -1"
_symmetry_group_IT_number 2
_symmetry_cell_setting 'triclinic'
loop_
_space_group_symop_operation_xyz
x,y,z
-x,-y,-z
loop_
_atom_site_type_symbol
_atom_site_label
_atom_site_fract_x
_atom_site_fract_y
_atom_site_fract_z
Si Si1 0.583362 0.384180 0.067553
Si Si2 0.600308 0.042157 0.803415
Si Si3 0.956537 0.780452 0.075664
Si Si4 0.983225 0.443704 0.132150
Si Si5 0.552931 0.195059 0.510164
Si Si6 0.951323 0.587907 0.544178
Si Si7 0.467595 0.863021 0.297825
Si Si8 0.965148 0.037761 0.929751
O O1 0.753744 0.398093 0.108903
O O2 0.310586 0.393247 0.257852
O O3 0.541691 0.261304 0.887261
O O4 0.754054 0.485079 0.002861
O O5 0.626215 0.093961 0.716768
O O6 0.841255 0.118858 0.836979
O O7 0.560234 0.910898 0.644381
O O8 0.336028 0.040169 0.013993
O O9 0.675332 0.766829 0.268143
O O10 0.011633 0.836553 0.978793
O O11 0.994779 0.662721 0.935286
O O12 0.933548 0.532885 0.356022
O O13 0.663992 0.156265 0.521521
O O14 0.791103 0.300339 0.455497
O O15 0.000000 0.500000 0.500000
O O16 0.761691 0.952282 0.269010
O O17 0.000000 0.000000 0.000000
#
# Coordination Sequence:
#
# PCOD9109480 Si02
#       8
#     2   2   2   2   2   2   2   2
#     4  11  23  46  71  97 140 179 225 281 343 403
#     4  11  21  40  63  97 130 176 224 275 336 401
#     4  11  23  41  66  95 137 176 221 279 340 397
#     4  11  25  45  71  99 137 181 225 281 341 403
#     4  11  24  40  64  97 135 174 227 277 332 408
#     4  12  27  43  69 103 132 179 230 282 338 405
#     4  10  20  41  65  94 132 180 220 277 342 395
#     4   9  21  38  63  90 128 172 220 272 337 400
#
# _framework density 22.029064000000002
#
# number of rings (size 3 to 8) (size 9 to 14) (size 15 to 20)
#    0.000    1.250    2.500    3.000    5.250    1.000 
#    0.000    0.000    0.000    0.000    0.000    0.000 
#    0.000    0.000    0.000    0.000    0.000    0.000 
#
# Total GULP energy -89283.219926 kJ/mol
# GULP energy per Si atom -5580.201245 kJ/mol
# Density = 2.197892 g / cm^3
# Si number density = 22.029064 Si / 1000 Ang^3
#
#
#
# Elastic Constant Matrix: (Units=GPa)
#
#
# Indices 1 2 3 4 5 6 
#
# 1 80.8650 57.7882 30.8209 3.2517 -7.0055 7.2417
# 2 57.7882 160.2508 53.9681 0.3813 -17.0153 -7.3555
# 3 30.8209 53.9681 83.3840 20.2363 -4.9745 11.9871
# 4 3.2517 0.3813 20.2363 40.9355 5.0783 1.2158
# 5 -7.0055 -17.0153 -4.9745 5.0783 30.2208 4.9019
# 6 7.2417 -7.3555 11.9871 1.2158 4.9019 52.2043
#
#
#
# Elastic Compliance Matrix: (Units=1/GPa)
#
#
# Indices 1 2 3 4 5 6 
#
# 1 0.017595 -0.005553 -0.002400 -0.000206 0.001041 -0.002765
# 2 -0.005553 0.010636 -0.005813 0.002778 0.002745 0.003281
# 3 -0.002400 -0.005813 0.019807 -0.009629 0.001857 -0.004984
# 4 -0.000206 0.002778 -0.009629 0.029785 -0.005471 0.002451
# 5 0.001041 0.002745 0.001857 -0.005471 0.036669 -0.003500
# 6 -0.002765 0.003281 -0.004984 0.002451 -0.003500 0.021417
#
#
# Mechanical properties :
#
#
# Convention : Reuss Voigt Hill
#
# Bulk Modulus (GPa) = 48.76837 67.73939 58.25388
# Shear Modulus (GPa) = 29.36382 36.80028 33.08205
#
# Velocity S-wave (km/s) = 3.65493 4.09165 3.87944
# Velocity P-wave (km/s) = 6.32437 7.28964 6.82409
#
# Compressibility (1/GPa) = 0.02050509
#
# Stress axis : x y z
#
# Youngs Moduli (GPa) = 56.83360 94.02137 50.48800
#
# Poissons Ratio (x) = 0.52207 0.12118
# Poissons Ratio (y) = 0.31558 0.29351
# Poissons Ratio (z) = 0.13641 0.54659
#
# Static dielectric constant tensor:
#      x y z
#    x 1.829600 -0.038990 -0.037380 
#    y -0.038990 1.815040 0.043120 
#    z -0.037380 0.043120 1.921320 
# 
# From -- ./inp_files/333879.got.cif
#   From: 2010.05.17/outbox.cif.g08.bks.cpg/sg2_167_cif.got.tgz:333879.got - 2010.06.03 11:33:40.
