data_PCOD9109106
_publ_section_title
;
Structure prediction by ZEFSAII (Michael W. Deem and Ramdas Pophale) SiO2 
 PCOD9109106
Probable space group: P -1
;
_chemical_formula_sum "Si O2"
_cell_formula_units_Z 14
_cell_length_a 9.248566
_cell_length_b 13.813767
_cell_length_c 7.018385
_cell_angle_alpha 125.483979
_cell_angle_beta 108.261203
_cell_angle_gamma 103.532151
_cell_volume 584.536204
_symmetry_space_group_name_H-M "P -1"
_symmetry_group_IT_number 2
_symmetry_cell_setting 'triclinic'
loop_
_space_group_symop_operation_xyz
x,y,z
-x,-y,-z
loop_
_atom_site_type_symbol
_atom_site_label
_atom_site_fract_x
_atom_site_fract_y
_atom_site_fract_z
Si Si1 0.318087 0.441131 0.475508
Si Si2 0.250166 0.199065 0.397498
Si Si3 0.260203 0.941729 0.142344
Si Si4 0.972156 0.116136 0.516844
Si Si5 0.956716 0.325751 0.046727
Si Si6 0.390559 0.659378 0.052869
Si Si7 0.409684 0.058850 0.766046
O O1 0.500000 0.500000 0.500000
O O2 0.244380 0.278115 0.300954
O O3 0.353940 0.517261 0.780948
O O4 0.159702 0.451466 0.322255
O O5 0.190766 0.038843 0.162825
O O6 0.122109 0.192143 0.504673
O O7 0.458297 0.282283 0.653922
O O8 0.326697 0.988856 0.444195
O O9 0.440431 0.972766 0.153591
O O10 0.117475 0.776554 0.914456
O O11 0.000000 0.000000 0.500000
O O12 0.762659 0.017561 0.259124
O O13 0.982306 0.238229 0.791878
O O14 0.795969 0.353349 0.976688
O O15 0.486038 0.776060 0.054317
#
# Coordination Sequence:
#
# PCOD9109106 Si02
#       7
#     2   2   2   2   2   2   2
#     4  12  27  41  56  83 124 165 198 243 292 339
#     4  11  21  37  63  91 117 149 205 244 288 349
#     4   8  15  32  55  87 112 148 180 242 290 349
#     4  11  17  33  64  97 114 143 193 251 299 346
#     4  10  21  39  62  89 122 155 188 245 308 347
#     4  10  20  41  63  84 118 164 202 231 281 365
#     4   8  15  29  58  86 116 140 188 234 297 334
#
# _framework density 23.950613000000001
#
# number of rings (size 3 to 8) (size 9 to 14) (size 15 to 20)
#    0.000    2.000    4.286    4.286    0.000    0.571 
#    0.000    7.143    0.000    3.429    0.000    0.000 
#    0.000    0.000    0.000    0.000    0.000    0.000 
#
# Total GULP energy -78196.055900 kJ/mol
# GULP energy per Si atom -5585.432564 kJ/mol
# Density = 2.389610 g / cm^3
# Si number density = 23.950613 Si / 1000 Ang^3
#
#
#
# Elastic Constant Matrix: (Units=GPa)
#
#
# Indices 1 2 3 4 5 6 
#
# 1 188.6327 35.7352 27.4764 -15.8588 36.4009 4.9432
# 2 35.7352 47.0823 -1.3198 -3.8289 9.9679 -0.7169
# 3 27.4764 -1.3198 33.7354 -14.9999 15.6558 -0.4279
# 4 -15.8588 -3.8289 -14.9999 25.5606 -1.5379 2.9200
# 5 36.4009 9.9679 15.6558 -1.5379 48.8939 -1.1765
# 6 4.9432 -0.7169 -0.4279 2.9200 -1.1765 37.6535
#
#
#
# Elastic Compliance Matrix: (Units=1/GPa)
#
#
# Indices 1 2 3 4 5 6 
#
# 1 0.007702 -0.005180 -0.004345 0.001412 -0.003275 -0.001371
# 2 -0.005180 0.027019 0.010428 0.006591 -0.004767 0.000653
# 3 -0.004345 0.010428 0.053852 0.029712 -0.015233 -0.001399
# 4 0.001412 0.006591 0.029712 0.058331 -0.010184 -0.004564
# 5 -0.003275 -0.004767 -0.015233 -0.010184 0.028465 0.001845
# 6 -0.001371 0.000653 -0.001399 -0.004564 0.001845 0.027146
#
#
# Mechanical properties :
#
#
# Convention : Reuss Voigt Hill
#
# Bulk Modulus (GPa) = 11.06478 43.69268 27.37873
# Shear Modulus (GPa) = 21.66035 36.25885 28.95960
#
# Velocity S-wave (km/s) = 3.01055 3.89511 3.48104
# Velocity P-wave (km/s) = 4.08832 6.20577 5.25481
#
# Compressibility (1/GPa) = 0.09037681
#
# Stress axis : x y z
#
# Youngs Moduli (GPa) = 129.82971 37.01117 18.56944
#
# Poissons Ratio (x) = 0.19173 0.08069
# Poissons Ratio (y) = 0.67258 -0.19364
# Poissons Ratio (z) = 0.56416 -0.38594
#
# Static dielectric constant tensor:
#      x y z
#    x 1.952230 -0.011590 0.001960 
#    y -0.011590 1.943230 -0.000440 
#    z 0.001960 -0.000440 1.986310 
# 
# From -- ./inp_files/204454.got.cif
#   From: 2010.05.17/outbox.cif.g08.bks.cpg/sg2_103_cif.got.tgz:204454.got - 2010.06.03 11:33:40.
