data_PCOD9109770
_publ_section_title
;
Structure prediction by ZEFSAII (Michael W. Deem and Ramdas Pophale) SiO2 
 PCOD9109770
Probable space group: P -1
;
_chemical_formula_sum "Si O2"
_cell_formula_units_Z 16
_cell_length_a 8.650326
_cell_length_b 10.727528
_cell_length_c 12.016655
_cell_angle_alpha 51.884721
_cell_angle_beta 119.160346
_cell_angle_gamma 91.692594
_cell_volume 703.916875
_symmetry_space_group_name_H-M "P -1"
_symmetry_group_IT_number 2
_symmetry_cell_setting 'triclinic'
loop_
_space_group_symop_operation_xyz
x,y,z
-x,-y,-z
loop_
_atom_site_type_symbol
_atom_site_label
_atom_site_fract_x
_atom_site_fract_y
_atom_site_fract_z
Si Si1 0.962434 0.597271 0.747254
Si Si2 0.810554 0.161666 0.060901
Si Si3 0.822668 0.105914 0.749224
Si Si4 0.188948 0.055325 0.618733
Si Si5 0.280025 0.523302 0.441272
Si Si6 0.506756 0.831170 0.215606
Si Si7 0.742759 0.547287 0.898542
Si Si8 0.612750 0.120139 0.438791
O O1 0.953772 0.758075 0.581002
O O2 0.835005 0.517685 0.676938
O O3 0.853230 0.635186 0.808318
O O4 0.172204 0.477513 0.932726
O O5 0.875088 0.056128 0.256432
O O6 0.623954 0.138696 0.956515
O O7 0.769632 0.360547 0.961602
O O8 0.985215 0.067811 0.087072
O O9 0.849068 0.285346 0.671054
O O10 0.658567 0.125867 0.770804
O O11 0.732719 0.115323 0.592034
O O12 0.359290 0.081727 0.732625
O O13 0.271953 0.952395 0.592594
O O14 0.500000 0.500000 0.500000
O O15 0.336864 0.366107 0.633182
O O16 0.527366 0.683546 0.742093
O O17 0.500000 0.000000 0.500000
#
# Coordination Sequence:
#
# PCOD9109770 Si02
#       8
#     2   2   2   2   2   2   2   2
#     4  10  21  39  64  91 130 167 214 261 322 376
#     4  12  26  40  62 102 137 163 212 273 328 370
#     4  11  22  38  67  95 129 170 215 266 317 382
#     4  11  24  43  65  93 136 174 205 267 331 380
#     4   9  18  37  62  92 123 164 214 267 308 364
#     4  10  20  41  67  91 129 176 220 255 312 390
#     4  11  23  38  64  95 123 169 219 268 309 387
#     4  12  22  42  67  92 123 168 223 255 320 389
#
# _framework density 22.729958
#
# number of rings (size 3 to 8) (size 9 to 14) (size 15 to 20)
#    0.000    1.250    2.500    5.250    1.750    3.500 
#    0.000    3.750    0.000    0.000    0.000    0.000 
#    0.000    0.000    0.000    0.000    0.000    0.000 
#
# Total GULP energy -89261.270460 kJ/mol
# GULP energy per Si atom -5578.829404 kJ/mol
# Density = 2.267822 g / cm^3
# Si number density = 22.729958 Si / 1000 Ang^3
#
#
#
# Elastic Constant Matrix: (Units=GPa)
#
#
# Indices 1 2 3 4 5 6 
#
# 1 18.1327 8.1555 22.7033 -6.0708 -12.2312 2.0488
# 2 8.1555 96.5780 52.6148 -9.2861 8.3763 4.6995
# 3 22.7033 52.6148 160.4538 9.7893 3.8014 9.0942
# 4 -6.0708 -9.2861 9.7893 34.4674 1.1669 9.9461
# 5 -12.2312 8.3763 3.8014 1.1669 44.1644 7.0033
# 6 2.0488 4.6995 9.0942 9.9461 7.0033 12.0501
#
#
#
# Elastic Compliance Matrix: (Units=1/GPa)
#
#
# Indices 1 2 3 4 5 6 
#
# 1 0.145829 0.004717 -0.021919 0.056845 0.053883 -0.088327
# 2 0.004717 0.014166 -0.005305 0.009033 0.000428 -0.010027
# 3 -0.021919 -0.005305 0.011323 -0.011439 -0.007488 0.011044
# 4 0.056845 0.009033 -0.011439 0.064765 0.024787 -0.072417
# 5 0.053883 0.000428 -0.007488 0.024787 0.045494 -0.050576
# 6 -0.088327 -0.010027 0.011044 -0.072417 -0.050576 0.182746
#
#
# Mechanical properties :
#
#
# Convention : Reuss Voigt Hill
#
# Bulk Modulus (GPa) = 7.91750 49.12353 28.52052
# Shear Modulus (GPa) = 9.06718 30.91579 19.99148
#
# Velocity S-wave (km/s) = 1.99944 3.69200 2.96889
# Velocity P-wave (km/s) = 2.97005 6.31136 4.93226
#
# Compressibility (1/GPa) = 0.12630244
#
# Stress axis : x y z
#
# Youngs Moduli (GPa) = 6.85734 70.59298 88.31686
#
# Poissons Ratio (x) = -0.33300 1.93585
# Poissons Ratio (y) = -0.03235 0.46856
# Poissons Ratio (z) = 0.15031 0.37453
#
# Static dielectric constant tensor:
#      x y z
#    x 1.957130 0.163680 0.021100 
#    y 0.163680 2.019700 0.007570 
#    z 0.021100 0.007570 1.880670 
# 
# From -- ./inp_files/392160.got.cif
#   From: 2010.05.17/outbox.cif.g08.bks.cpg/sg2_197_cif.got.tgz:392160.got - 2010.06.03 11:33:40.
