data_PCOD9109184
_publ_section_title
;
Structure prediction by ZEFSAII (Michael W. Deem and Ramdas Pophale) SiO2 
 PCOD9109184
Probable space group: P -1
;
_chemical_formula_sum "Si O2"
_cell_formula_units_Z 14
_cell_length_a 22.687339
_cell_length_b 24.443988
_cell_length_c 11.711446
_cell_angle_alpha 23.057908
_cell_angle_beta 23.001698
_cell_angle_gamma 13.373892
_cell_volume 564.906009
_symmetry_space_group_name_H-M "P -1"
_symmetry_group_IT_number 2
_symmetry_cell_setting 'triclinic'
loop_
_space_group_symop_operation_xyz
x,y,z
-x,-y,-z
loop_
_atom_site_type_symbol
_atom_site_label
_atom_site_fract_x
_atom_site_fract_y
_atom_site_fract_z
Si Si1 0.984869 0.178982 0.665613
Si Si2 0.233473 0.545064 0.862873
Si Si3 0.762489 0.857955 0.931341
Si Si4 0.714490 0.652335 0.243720
Si Si5 0.782906 0.132225 0.727641
Si Si6 0.848229 0.523145 0.635794
Si Si7 0.760092 0.933771 0.340632
O O1 0.103302 0.145281 0.399929
O O2 0.154645 0.108119 0.603081
O O3 0.721830 0.478655 0.573669
O O4 0.000000 0.000000 0.000000
O O5 0.526272 0.253062 0.894191
O O6 0.281673 0.663796 0.503624
O O7 0.978038 0.685839 0.978216
O O8 0.196513 0.574467 0.010442
O O9 0.485573 0.150249 0.879389
O O10 0.670534 0.778856 0.193191
O O11 0.000000 0.500000 0.000000
O O12 0.000000 0.000000 0.500000
O O13 0.849677 0.993843 0.985421
O O14 0.000000 0.500000 0.500000
O O15 0.055911 0.327089 0.542216
O O16 0.560789 0.813690 0.572244
#
# Coordination Sequence:
#
# PCOD9109184 Si02
#       7
#     2   2   2   2   2   2   2
#     4  11  25  44  66 100 138 185 233 282 357 417
#     4  10  22  39  67  96 132 172 231 278 347 416
#     4  10  22  43  67 102 133 179 230 292 348 418
#     4   9  22  43  65  96 133 178 231 284 348 408
#     4  10  20  41  63  95 130 172 220 282 341 405
#     4  11  25  44  68 103 135 183 227 282 355 416
#     4  11  25  45  69  98 141 179 228 292 344 421
#
# _framework density 24.782885
#
# number of rings (size 3 to 8) (size 9 to 14) (size 15 to 20)
#    0.000    1.714    1.429    1.286    4.000    5.143 
#    2.571    0.000    0.000    0.000    0.000    0.000 
#    0.000    0.000    0.000    0.000    0.000    0.000 
#
# Total GULP energy -77988.083241 kJ/mol
# GULP energy per Si atom -5570.577374 kJ/mol
# Density = 2.472648 g / cm^3
# Si number density = 24.782885 Si / 1000 Ang^3
#
#
#
# Elastic Constant Matrix: (Units=GPa)
#
#
# Indices 1 2 3 4 5 6 
#
# 1 113.3889 74.5769 12.8907 10.2537 10.8435 -13.2494
# 2 74.5769 149.4092 33.5705 -8.1616 6.0887 -12.2420
# 3 12.8907 33.5705 101.6876 -25.7817 -1.6589 12.7815
# 4 10.2537 -8.1616 -25.7817 48.4666 7.4022 6.7414
# 5 10.8435 6.0887 -1.6589 7.4022 37.8986 -4.3624
# 6 -13.2494 -12.2420 12.7815 6.7414 -4.3624 41.3737
#
#
#
# Elastic Compliance Matrix: (Units=1/GPa)
#
#
# Indices 1 2 3 4 5 6 
#
# 1 0.014569 -0.006867 -0.001411 -0.005256 -0.001669 0.003750
# 2 -0.006867 0.010896 -0.002463 0.001781 -0.000070 0.001488
# 3 -0.001411 -0.002463 0.013791 0.008337 -0.001020 -0.006907
# 4 -0.005256 0.001781 0.008337 0.028482 -0.005005 -0.008900
# 5 -0.001669 -0.000070 -0.001020 -0.005005 0.028217 0.003551
# 6 0.003750 0.001488 -0.006907 -0.008900 0.003551 0.029770
#
#
# Mechanical properties :
#
#
# Convention : Reuss Voigt Hill
#
# Bulk Modulus (GPa) = 56.26224 67.39577 61.82901
# Shear Modulus (GPa) = 32.65161 41.77764 37.21462
#
# Velocity S-wave (km/s) = 3.63369 4.11024 3.87929
# Velocity P-wave (km/s) = 6.35266 7.05542 6.71324
#
# Compressibility (1/GPa) = 0.01777391
#
# Stress axis : x y z
#
# Youngs Moduli (GPa) = 68.63826 91.77510 72.50916
#
# Poissons Ratio (x) = 0.63021 0.10232
# Poissons Ratio (y) = 0.47133 0.17862
# Poissons Ratio (z) = 0.09686 0.22608
#
# Static dielectric constant tensor:
#      x y z
#    x 2.028080 0.120600 -0.012760 
#    y 0.120600 2.266840 0.013380 
#    z -0.012760 0.013380 2.187980 
# 
# From -- ./inp_files/544618.got.cif
#   From: 2010.05.17/outbox.cif.g08.bks.cpg/sg2_273_cif.got.tgz:544618.got - 2010.06.03 11:33:40.
