data_PCOD9109801
_publ_section_title
;
Structure prediction by ZEFSAII (Michael W. Deem and Ramdas Pophale) SiO2 
 PCOD9109801
Probable space group: P -1
;
_chemical_formula_sum "Si O2"
_cell_formula_units_Z 16
_cell_length_a 14.276846
_cell_length_b 9.002224
_cell_length_c 10.188050
_cell_angle_alpha 109.676216
_cell_angle_beta 95.734184
_cell_angle_gamma 40.302057
_cell_volume 770.583756
_symmetry_space_group_name_H-M "P -1"
_symmetry_group_IT_number 2
_symmetry_cell_setting 'triclinic'
loop_
_space_group_symop_operation_xyz
x,y,z
-x,-y,-z
loop_
_atom_site_type_symbol
_atom_site_label
_atom_site_fract_x
_atom_site_fract_y
_atom_site_fract_z
Si Si1 0.767245 0.564909 0.681677
Si Si2 0.565925 0.119216 0.213571
Si Si3 0.964633 0.391203 0.880352
Si Si4 0.564747 0.562283 0.951605
Si Si5 0.172478 0.854304 0.339755
Si Si6 0.746136 0.146832 0.368437
Si Si7 0.242314 0.437543 0.881574
Si Si8 0.839818 0.370596 0.366258
O O1 0.594142 0.752958 0.740997
O O2 0.846753 0.575442 0.799834
O O3 0.850636 0.290654 0.646329
O O4 0.790671 0.557786 0.528688
O O5 0.554976 0.193305 0.084857
O O6 0.602569 0.227752 0.335536
O O7 0.688428 0.826188 0.168450
O O8 0.114665 0.121529 0.762322
O O9 0.886521 0.377731 0.971335
O O10 0.000000 0.500000 0.000000
O O11 0.696316 0.332339 0.803670
O O12 0.500000 0.500000 0.000000
O O13 0.633117 0.598189 0.072274
O O14 0.224962 0.886870 0.481894
O O15 0.016389 0.112141 0.334630
O O16 0.751618 0.320518 0.368689
O O17 0.190478 0.531998 0.754977
#
# Coordination Sequence:
#
# PCOD9109801 Si02
#       8
#     2   2   2   2   2   2   2   2
#     4  10  21  43  67  90 130 179 217 265 333 383
#     4  11  24  41  65  91 138 177 210 267 330 398
#     4  12  22  41  68  95 125 176 225 260 327 395
#     4  11  24  42  65  97 132 170 224 272 325 383
#     4  10  20  41  67  93 129 171 220 278 319 380
#     4  11  21  40  70  97 124 174 229 260 330 389
#     4  12  25  40  63 100 134 171 217 269 332 387
#     4  11  22  40  69  96 132 166 222 281 317 381
#
# _framework density 20.763477999999999
#
# number of rings (size 3 to 8) (size 9 to 14) (size 15 to 20)
#    0.000    1.000    6.250    1.875    0.000    9.000 
#    0.000    2.500    0.000    0.000    0.000    0.000 
#    0.000    0.000    0.000    0.000    0.000    0.000 
#
# Total GULP energy -89434.547671 kJ/mol
# GULP energy per Si atom -5589.659229 kJ/mol
# Density = 2.071622 g / cm^3
# Si number density = 20.763478 Si / 1000 Ang^3
#
#
#
# Elastic Constant Matrix: (Units=GPa)
#
#
# Indices 1 2 3 4 5 6 
#
# 1 78.7207 19.1903 31.5946 -11.4745 17.1186 -5.6252
# 2 19.1903 88.9367 46.3890 -25.2681 -4.7248 -3.1609
# 3 31.5946 46.3890 139.8367 -29.2442 12.2606 1.1163
# 4 -11.4745 -25.2681 -29.2442 35.8726 -2.1794 3.3200
# 5 17.1186 -4.7248 12.2606 -2.1794 36.0841 -13.3595
# 6 -5.6252 -3.1609 1.1163 3.3200 -13.3595 17.2471
#
#
#
# Elastic Compliance Matrix: (Units=1/GPa)
#
#
# Indices 1 2 3 4 5 6 
#
# 1 0.015805 -0.002536 -0.001724 0.001531 -0.007688 -0.001448
# 2 -0.002536 0.016759 -0.004198 0.007383 0.007957 0.007259
# 3 -0.001724 -0.004198 0.010663 0.005534 -0.005838 -0.007609
# 4 0.001531 0.007383 0.005534 0.038651 -0.002112 -0.007582
# 5 -0.007688 0.007957 -0.005838 -0.002112 0.047896 0.036835
# 6 -0.001448 0.007259 -0.007609 -0.007582 0.036835 0.089323
#
#
# Mechanical properties :
#
#
# Convention : Reuss Voigt Hill
#
# Bulk Modulus (GPa) = 38.00723 55.76021 46.88372
# Shear Modulus (GPa) = 20.42621 31.86212 26.14417
#
# Velocity S-wave (km/s) = 3.13989 3.92155 3.55229
# Velocity P-wave (km/s) = 5.61158 6.88607 6.28124
#
# Compressibility (1/GPa) = 0.02631078
#
# Stress axis : x y z
#
# Youngs Moduli (GPa) = 63.27235 59.66846 93.77930
#
# Poissons Ratio (x) = 0.15133 0.16166
# Poissons Ratio (y) = 0.16047 0.39371
# Poissons Ratio (z) = 0.10907 0.25051
#
# Static dielectric constant tensor:
#      x y z
#    x 1.788330 -0.029040 0.027830 
#    y -0.029040 1.744350 0.024750 
#    z 0.027830 0.024750 1.776570 
# 
# From -- ./inp_files/242948.got.cif
#   From: 2010.05.17/outbox.cif.g08.bks.cpg/sg2_122_cif.got.tgz:242948.got - 2010.06.03 11:33:40.
