data_PCOD9109633
_publ_section_title
;
Structure prediction by ZEFSAII (Michael W. Deem and Ramdas Pophale) SiO2 
 PCOD9109633
Probable space group: P -1
;
_chemical_formula_sum "Si O2"
_cell_formula_units_Z 16
_cell_length_a 18.101052
_cell_length_b 8.575877
_cell_length_c 10.681594
_cell_angle_alpha 150.178041
_cell_angle_beta 131.677603
_cell_angle_gamma 61.239073
_cell_volume 595.085618
_symmetry_space_group_name_H-M "P -1"
_symmetry_group_IT_number 2
_symmetry_cell_setting 'triclinic'
loop_
_space_group_symop_operation_xyz
x,y,z
-x,-y,-z
loop_
_atom_site_type_symbol
_atom_site_label
_atom_site_fract_x
_atom_site_fract_y
_atom_site_fract_z
Si Si1 0.486460 0.626512 0.768430
Si Si2 0.712017 0.815140 0.896049
Si Si3 0.656110 0.423410 0.214461
Si Si4 0.890470 0.452430 0.139196
Si Si5 0.668959 0.537613 0.027317
Si Si6 0.055902 0.637499 0.288696
Si Si7 0.151373 0.094455 0.123062
Si Si8 0.214670 0.794969 0.385132
O O1 0.395143 0.405019 0.430467
O O2 0.446748 0.557666 0.819261
O O3 0.586601 0.483388 0.784816
O O4 0.500000 0.000000 0.000000
O O5 0.793328 0.961668 0.980676
O O6 0.763822 0.557572 0.837752
O O7 0.684033 0.140370 0.132964
O O8 0.641891 0.360437 0.006564
O O9 0.751887 0.734572 0.560090
O O10 0.782907 0.514171 0.104202
O O11 0.981101 0.735062 0.376606
O O12 0.861298 0.210983 0.819397
O O13 0.916739 0.238338 0.130676
O O14 0.685274 0.924106 0.332836
O O15 0.088448 0.351503 0.200242
O O16 0.162726 0.844674 0.493764
O O17 0.000000 0.500000 0.000000
#
# Coordination Sequence:
#
# PCOD9109633 Si02
#       8
#     2   2   2   2   2   2   2   2
#     4  11  25  42  65  96 129 167 219 266 316 378
#     4  10  22  42  65  95 124 169 215 263 318 379
#     4  11  24  42  66  92 131 169 213 263 323 375
#     4  11  22  39  66  95 125 171 215 261 321 379
#     4  12  24  42  63  95 130 170 214 263 319 378
#     4   9  21  41  66  96 128 169 209 264 322 374
#     4  10  20  41  66  93 130 165 212 263 315 383
#     4  10  22  40  65  91 135 163 209 268 318 375
#
# _framework density 26.886889
#
# number of rings (size 3 to 8) (size 9 to 14) (size 15 to 20)
#    0.000    1.500    3.750    0.750    1.750    2.500 
#    0.000    5.625    0.000    0.000    0.000    0.000 
#    0.000    0.000    0.000    0.000    0.000    0.000 
#
# Total GULP energy -89381.404788 kJ/mol
# GULP energy per Si atom -5586.337799 kJ/mol
# Density = 2.682569 g / cm^3
# Si number density = 26.886889 Si / 1000 Ang^3
#
#
#
# Elastic Constant Matrix: (Units=GPa)
#
#
# Indices 1 2 3 4 5 6 
#
# 1 122.7153 42.8225 10.9541 7.6693 11.3984 5.1388
# 2 42.8225 116.1845 7.0782 5.8116 16.8341 8.6584
# 3 10.9541 7.0782 58.8332 11.5794 20.5848 12.6091
# 4 7.6693 5.8116 11.5794 36.4922 1.0495 7.2080
# 5 11.3984 16.8341 20.5848 1.0495 29.6491 11.0664
# 6 5.1388 8.6584 12.6091 7.2080 11.0664 44.6884
#
#
#
# Elastic Compliance Matrix: (Units=1/GPa)
#
#
# Indices 1 2 3 4 5 6 
#
# 1 0.009536 -0.003225 -0.000703 -0.001283 -0.001406 0.000282
# 2 -0.003225 0.010626 0.001691 -0.001280 -0.005720 -0.000542
# 3 -0.000703 0.001691 0.024606 -0.007073 -0.016820 -0.001883
# 4 -0.001283 -0.001280 -0.007073 0.030762 0.006612 -0.004208
# 5 -0.001406 -0.005720 -0.016820 0.006612 0.051911 -0.007906
# 6 0.000282 -0.000542 -0.001883 -0.004208 -0.007906 0.025618
#
#
# Mechanical properties :
#
#
# Convention : Reuss Voigt Hill
#
# Bulk Modulus (GPa) = 24.81785 46.60472 35.71129
# Shear Modulus (GPa) = 29.24616 37.95780 33.60198
#
# Velocity S-wave (km/s) = 3.30168 3.76141 3.53902
# Velocity P-wave (km/s) = 4.87702 6.01960 5.47818
#
# Compressibility (1/GPa) = 0.04029357
#
# Stress axis : x y z
#
# Youngs Moduli (GPa) = 104.86469 94.11080 40.64130
#
# Poissons Ratio (x) = 0.30350 0.02859
# Poissons Ratio (y) = 0.33818 -0.06874
# Poissons Ratio (z) = 0.07376 -0.15918
#
# Static dielectric constant tensor:
#      x y z
#    x 2.210640 -0.090910 0.046470 
#    y -0.090910 2.125930 -0.022140 
#    z 0.046470 -0.022140 2.116690 
# 
# From -- ./inp_files/37233.got.cif
#   From: 2010.05.17/outbox.cif.g08.bks.cpg/sg2_19_cif.got.tgz:37233.got - 2010.06.03 11:33:40.
