data_PCOD9109183
_publ_section_title
;
Structure prediction by ZEFSAII (Michael W. Deem and Ramdas Pophale) SiO2 
 PCOD9109183
Probable space group: P -1
;
_chemical_formula_sum "Si O2"
_cell_formula_units_Z 16
_cell_length_a 12.619331
_cell_length_b 9.017056
_cell_length_c 13.645374
_cell_angle_alpha 100.125889
_cell_angle_beta 93.983972
_cell_angle_gamma 147.028809
_cell_volume 760.568211
_symmetry_space_group_name_H-M "P -1"
_symmetry_group_IT_number 2
_symmetry_cell_setting 'triclinic'
loop_
_space_group_symop_operation_xyz
x,y,z
-x,-y,-z
loop_
_atom_site_type_symbol
_atom_site_label
_atom_site_fract_x
_atom_site_fract_y
_atom_site_fract_z
Si Si1 0.950379 0.617264 0.503655
Si Si2 0.696592 0.629656 0.773050
Si Si3 0.008093 0.258935 0.923382
Si Si4 0.819536 0.221445 0.087491
Si Si5 0.908049 0.606845 0.728415
Si Si6 0.484210 0.055710 0.397904
Si Si7 0.387803 0.232117 0.520437
Si Si8 0.587308 0.442226 0.964622
O O1 0.000000 0.500000 0.500000
O O2 0.925466 0.639050 0.616591
O O3 0.721725 0.355533 0.407097
O O4 0.143853 0.942639 0.504352
O O5 0.890590 0.751674 0.785139
O O6 0.532178 0.394172 0.646624
O O7 0.586743 0.457076 0.848819
O O8 0.804817 0.927479 0.821182
O O9 0.114534 0.525693 0.899361
O O10 0.179528 0.338419 0.968223
O O11 0.926427 0.244279 0.014525
O O12 0.909903 0.272143 0.201972
O O13 0.572078 0.877556 0.037487
O O14 0.687966 0.253896 0.705119
O O15 0.394015 0.104546 0.428139
O O16 0.500000 0.000000 0.500000
O O17 0.500000 0.500000 0.500000
O O18 0.500000 0.500000 0.000000
#
# Coordination Sequence:
#
# PCOD9109183 Si02
#       8
#     2   2   2   2   2   2   2   2
#     4  11  20  41  72  91 127 180 226 269 325 400
#     4  12  23  44  68  96 132 177 225 276 331 399
#     4  11  25  43  65 100 141 167 216 288 337 390
#     4  11  24  43  68  98 136 173 216 279 343 395
#     4  11  21  41  72  95 127 180 230 270 329 405
#     4  10  20  41  63  95 127 168 224 273 317 397
#     4  12  26  42  65  99 139 169 218 287 339 386
#     4  12  23  44  73  99 131 179 227 273 330 408
#
# _framework density 21.036902999999999
#
# number of rings (size 3 to 8) (size 9 to 14) (size 15 to 20)
#    0.000    0.750    7.500    2.250    1.750    0.500 
#    0.000    0.000    2.750    0.000    0.000    0.000 
#    0.000    0.000    0.000    0.000    0.000    0.000 
#
# Total GULP energy -89286.570107 kJ/mol
# GULP energy per Si atom -5580.410632 kJ/mol
# Density = 2.098902 g / cm^3
# Si number density = 21.036903 Si / 1000 Ang^3
#
#
#
# Elastic Constant Matrix: (Units=GPa)
#
#
# Indices 1 2 3 4 5 6 
#
# 1 69.5313 28.2084 19.4955 -3.1353 -23.8159 2.2385
# 2 28.2084 153.1237 16.2355 10.0585 -10.7933 2.2019
# 3 19.4955 16.2355 36.0558 10.4816 -10.0599 3.2320
# 4 -3.1353 10.0585 10.4816 34.8235 2.5491 0.0253
# 5 -23.8159 -10.7933 -10.0599 2.5491 27.9915 12.0801
# 6 2.2385 2.2019 3.2320 0.0253 12.0801 36.5861
#
#
#
# Elastic Compliance Matrix: (Units=1/GPa)
#
#
# Indices 1 2 3 4 5 6 
#
# 1 0.024780 -0.002508 -0.006872 0.003522 0.020588 -0.007559
# 2 -0.002508 0.007296 -0.001125 -0.002041 0.000631 -0.000393
# 3 -0.006872 -0.001125 0.039858 -0.013186 0.012303 -0.007086
# 4 0.003522 -0.002041 -0.013186 0.034109 -0.007099 0.003393
# 5 0.020588 0.000631 0.012303 -0.007099 0.069481 -0.025321
# 6 -0.007559 -0.000393 -0.007086 0.003393 -0.025321 0.036803
#
#
# Mechanical properties :
#
#
# Convention : Reuss Voigt Hill
#
# Bulk Modulus (GPa) = 19.63645 42.95441 31.29543
# Shear Modulus (GPa) = 19.97509 32.86497 26.42003
#
# Velocity S-wave (km/s) = 3.08478 3.95682 3.54770
# Velocity P-wave (km/s) = 4.69493 6.42948 5.62941
#
# Compressibility (1/GPa) = 0.05092570
#
# Stress axis : x y z
#
# Youngs Moduli (GPa) = 40.35477 137.05969 25.08902
#
# Poissons Ratio (x) = 0.34373 0.17240
# Poissons Ratio (y) = 0.10120 0.02822
# Poissons Ratio (z) = 0.27730 0.15418
#
# Static dielectric constant tensor:
#      x y z
#    x 1.747820 0.044420 0.052010 
#    y 0.044420 1.748370 -0.015350 
#    z 0.052010 -0.015350 1.645870 
# 
# From -- ./inp_files/288592.got.cif
#   From: 2010.05.17/outbox.cif.g08.bks.cpg/sg2_145_cif.got.tgz:288592.got - 2010.06.03 11:33:40.
