data_PCOD9109876
_publ_section_title
;
Structure prediction by ZEFSAII (Michael W. Deem and Ramdas Pophale) SiO2 
 PCOD9109876
Probable space group: P -1
;
_chemical_formula_sum "Si O2"
_cell_formula_units_Z 16
_cell_length_a 8.889763
_cell_length_b 12.887235
_cell_length_c 27.768434
_cell_angle_alpha 24.452643
_cell_angle_beta 36.004143
_cell_angle_gamma 30.675116
_cell_volume 666.692594
_symmetry_space_group_name_H-M "P -1"
_symmetry_group_IT_number 2
_symmetry_cell_setting 'triclinic'
loop_
_space_group_symop_operation_xyz
x,y,z
-x,-y,-z
loop_
_atom_site_type_symbol
_atom_site_label
_atom_site_fract_x
_atom_site_fract_y
_atom_site_fract_z
Si Si1 0.121258 0.727133 0.876599
Si Si2 0.330925 0.813722 0.014576
Si Si3 0.201037 0.103763 0.204007
Si Si4 0.872253 0.356773 0.275974
Si Si5 0.847406 0.306895 0.488818
Si Si6 0.832806 0.175926 0.848061
Si Si7 0.217296 0.373336 0.718482
Si Si8 0.348557 0.345812 0.379650
O O1 0.471620 0.538126 0.878684
O O2 0.021269 0.886262 0.783545
O O3 0.950808 0.953344 0.867655
O O4 0.000000 0.500000 0.000000
O O5 0.313919 0.910471 0.034204
O O6 0.552144 0.850280 0.906337
O O7 0.000000 0.000000 0.000000
O O8 0.016424 0.337880 0.194522
O O9 0.424490 0.794744 0.301216
O O10 0.901032 0.539234 0.233760
O O11 0.524746 0.453463 0.321604
O O12 0.031960 0.024541 0.391354
O O13 0.500000 0.500000 0.500000
O O14 0.917254 0.345265 0.399343
O O15 0.006406 0.432203 0.429517
O O16 0.635597 0.501270 0.739301
O O17 0.107035 0.177970 0.802831
O O18 0.500000 0.000000 0.500000
#
# Coordination Sequence:
#
# PCOD9109876 Si02
#       8
#     2   2   2   2   2   2   2   2
#     4  10  25  44  70  98 135 186 239 291 363 417
#     4  11  24  45  67 102 135 183 237 294 365 419
#     4  11  23  42  66 100 132 182 237 287 358 422
#     4  11  22  41  68  95 143 180 235 296 351 430
#     4  10  20  41  68 100 140 183 233 295 351 424
#     4  11  23  45  69 100 147 180 245 300 346 437
#     4  11  23  40  68 101 134 188 235 287 366 411
#     4   9  21  41  72 100 138 191 230 289 356 414
#
# _framework density 23.999067
#
# number of rings (size 3 to 8) (size 9 to 14) (size 15 to 20)
#    0.000    1.500    2.500    1.875    0.000    5.500 
#    0.000    0.625   13.750    0.000    0.000    0.000 
#    0.000    0.000    0.000    0.000    0.000    0.000 
#
# Total GULP energy -89110.293732 kJ/mol
# GULP energy per Si atom -5569.393358 kJ/mol
# Density = 2.394444 g / cm^3
# Si number density = 23.999067 Si / 1000 Ang^3
#
#
#
# Elastic Constant Matrix: (Units=GPa)
#
#
# Indices 1 2 3 4 5 6 
#
# 1 161.4640 83.5341 50.0409 2.3792 10.6542 -7.7116
# 2 83.5341 137.7844 30.2639 8.3049 -2.6726 8.7427
# 3 50.0409 30.2639 82.6085 -0.9954 13.6080 4.5308
# 4 2.3792 8.3049 -0.9954 21.8555 -6.3045 8.0461
# 5 10.6542 -2.6726 13.6080 -6.3045 42.2276 0.6585
# 6 -7.7116 8.7427 4.5308 8.0461 0.6585 68.5434
#
#
#
# Elastic Compliance Matrix: (Units=1/GPa)
#
#
# Indices 1 2 3 4 5 6 
#
# 1 0.010687 -0.005700 -0.004219 -0.000557 -0.001816 0.002291
# 2 -0.005700 0.011218 -0.000939 -0.002433 0.002115 -0.001745
# 3 -0.004219 -0.000939 0.015740 0.000948 -0.003903 -0.001469
# 4 -0.000557 -0.002433 0.000948 0.051084 0.007400 -0.005883
# 5 -0.001816 0.002115 -0.003903 0.007400 0.026657 -0.001341
# 6 0.002291 -0.001745 -0.001469 -0.005883 -0.001341 0.015870
#
#
# Mechanical properties :
#
#
# Convention : Reuss Voigt Hill
#
# Bulk Modulus (GPa) = 62.77590 78.83717 70.80653
# Shear Modulus (GPa) = 31.58963 41.05984 36.32474
#
# Velocity S-wave (km/s) = 3.63200 4.14078 3.89471
# Velocity P-wave (km/s) = 6.61838 7.46879 7.05641
#
# Compressibility (1/GPa) = 0.01592968
#
# Stress axis : x y z
#
# Youngs Moduli (GPa) = 93.57156 89.14428 63.53302
#
# Poissons Ratio (x) = 0.50808 0.26804
# Poissons Ratio (y) = 0.53331 0.05966
# Poissons Ratio (z) = 0.39477 0.08371
#
# Static dielectric constant tensor:
#      x y z
#    x 1.961510 -0.038510 0.069590 
#    y -0.038510 1.952300 0.028560 
#    z 0.069590 0.028560 2.072010 
# 
# From -- ./inp_files/617034.got.cif
#   From: 2010.05.17/outbox.cif.g08.bks.cpg/sg2_309_cif.got.tgz:617034.got - 2010.06.03 11:33:40.
