data_PCOD9109996
_publ_section_title
;
Structure prediction by ZEFSAII (Michael W. Deem and Ramdas Pophale) SiO2 
 PCOD9109996
Probable space group: P -1
;
_chemical_formula_sum "Si O2"
_cell_formula_units_Z 16
_cell_length_a 12.387275
_cell_length_b 9.135188
_cell_length_c 16.799864
_cell_angle_alpha 102.983467
_cell_angle_beta 140.568228
_cell_angle_gamma 49.245183
_cell_volume 744.439510
_symmetry_space_group_name_H-M "P -1"
_symmetry_group_IT_number 2
_symmetry_cell_setting 'triclinic'
loop_
_space_group_symop_operation_xyz
x,y,z
-x,-y,-z
loop_
_atom_site_type_symbol
_atom_site_label
_atom_site_fract_x
_atom_site_fract_y
_atom_site_fract_z
Si Si1 0.245921 0.400461 0.182046
Si Si2 0.717367 0.239325 0.331524
Si Si3 0.810933 0.883888 0.079764
Si Si4 0.186032 0.485588 0.551385
Si Si5 0.770603 0.777832 0.219238
Si Si6 0.586480 0.968982 0.640005
Si Si7 0.281112 0.767402 0.844150
Si Si8 0.116623 0.636295 0.821931
O O1 0.472745 0.328760 0.250405
O O2 0.383810 0.189330 0.298458
O O3 0.081079 0.637448 0.167142
O O4 0.000000 0.500000 0.000000
O O5 0.696954 0.437267 0.337474
O O6 0.735224 0.158796 0.243769
O O7 0.000000 0.000000 0.500000
O O8 0.785627 0.845122 0.151032
O O9 0.792364 0.073565 0.105379
O O10 0.535669 0.015183 0.897956
O O11 0.000000 0.500000 0.500000
O O12 0.985271 0.681994 0.392935
O O13 0.408877 0.223272 0.607388
O O14 0.852859 0.551551 0.215566
O O15 0.893302 0.806941 0.781178
O O16 0.500000 0.000000 0.500000
O O17 0.080938 0.765642 0.740813
O O18 0.595905 0.515588 0.998216
#
# Coordination Sequence:
#
# PCOD9109996 Si02
#       8
#     2   2   2   2   2   2   2   2
#     4  12  28  48  71 109 149 188 237 304 365 420
#     4  12  28  45  69 106 149 187 233 296 370 426
#     4  10  22  40  74  94 132 181 241 282 345 416
#     4  12  26  44  68 104 146 187 232 291 374 422
#     4  10  20  41  68  98 128 186 236 281 338 435
#     4  12  25  45  73 100 140 191 239 291 352 433
#     4  10  23  43  67  97 134 183 232 292 337 431
#     4  10  20  41  69  94 131 176 244 280 343 403
#
# _framework density 21.49268
#
# number of rings (size 3 to 8) (size 9 to 14) (size 15 to 20)
#    0.000    1.000    2.500    3.000   10.500    0.000 
#    0.000    3.125    0.000    0.000    0.000    0.000 
#    0.000    0.000    0.000    0.000    0.000    0.000 
#
# Total GULP energy -89215.273365 kJ/mol
# GULP energy per Si atom -5575.954585 kJ/mol
# Density = 2.144376 g / cm^3
# Si number density = 21.492680 Si / 1000 Ang^3
#
#
#
# Elastic Constant Matrix: (Units=GPa)
#
#
# Indices 1 2 3 4 5 6 
#
# 1 105.4629 42.8430 21.9688 2.0661 16.6310 5.5584
# 2 42.8430 126.8868 21.4656 -13.0710 18.1540 5.0802
# 3 21.9688 21.4656 65.8173 -3.0407 3.6820 3.5762
# 4 2.0661 -13.0710 -3.0407 28.2091 0.1968 0.1623
# 5 16.6310 18.1540 3.6820 0.1968 32.1281 -0.3325
# 6 5.5584 5.0802 3.5762 0.1623 -0.3325 26.3349
#
#
#
# Elastic Compliance Matrix: (Units=1/GPa)
#
#
# Indices 1 2 3 4 5 6 
#
# 1 0.012179 -0.003255 -0.002808 -0.002665 -0.004144 -0.001597
# 2 -0.003255 0.010413 -0.001794 0.004905 -0.004035 -0.001159
# 3 -0.002808 -0.001794 0.016815 0.001191 0.000519 -0.001345
# 4 -0.002665 0.004905 0.001191 0.038063 -0.001770 -0.000802
# 5 -0.004144 -0.004035 0.000519 -0.001770 0.035523 0.002042
# 6 -0.001597 -0.001159 -0.001345 -0.000802 0.002042 0.038747
#
#
# Mechanical properties :
#
#
# Convention : Reuss Voigt Hill
#
# Bulk Modulus (GPa) = 42.20791 52.30244 47.25517
# Shear Modulus (GPa) = 28.51427 31.46039 29.98733
#
# Velocity S-wave (km/s) = 3.64634 3.83008 3.73934
# Velocity P-wave (km/s) = 6.11626 6.62927 6.37792
#
# Compressibility (1/GPa) = 0.02369224
#
# Stress axis : x y z
#
# Youngs Moduli (GPa) = 82.10820 96.03804 59.47027
#
# Poissons Ratio (x) = 0.31259 0.16700
# Poissons Ratio (y) = 0.26725 0.10670
# Poissons Ratio (z) = 0.23057 0.17231
#
# Static dielectric constant tensor:
#      x y z
#    x 2.117590 0.164930 -0.169920 
#    y 0.164930 1.830110 -0.034430 
#    z -0.169920 -0.034430 1.878630 
# 
# From -- ./inp_files/566789.got.cif
#   From: 2010.05.17/outbox.cif.g08.bks.cpg/sg2_284_cif.got.tgz:566789.got - 2010.06.03 11:33:40.
