data_PCOD9109250
_publ_section_title
;
Structure prediction by ZEFSAII (Michael W. Deem and Ramdas Pophale) SiO2 
 PCOD9109250
Probable space group: P -1
;
_chemical_formula_sum "Si O2"
_cell_formula_units_Z 13
_cell_length_a 7.709738
_cell_length_b 17.605912
_cell_length_c 15.940606
_cell_angle_alpha 157.016234
_cell_angle_beta 126.052822
_cell_angle_gamma 41.648551
_cell_volume 518.654583
_symmetry_space_group_name_H-M "P -1"
_symmetry_group_IT_number 2
_symmetry_cell_setting 'triclinic'
loop_
_space_group_symop_operation_xyz
x,y,z
-x,-y,-z
loop_
_atom_site_type_symbol
_atom_site_label
_atom_site_fract_x
_atom_site_fract_y
_atom_site_fract_z
Si Si1 0.623776 0.688400 0.301061
Si Si2 0.961912 0.048443 0.171815
Si Si3 0.559839 0.093546 0.343367
Si Si4 0.249988 0.386141 0.174588
Si Si5 0.713531 0.426919 0.347503
Si Si6 0.170328 0.872142 0.228864
Si Si7 0.500000 0.000000 0.000000
O O1 0.531666 0.807151 0.487994
O O2 0.377456 0.862164 0.340042
O O3 0.927961 0.596118 0.269782
O O4 0.683425 0.421505 0.048081
O O5 0.119736 0.992803 0.246087
O O6 0.891198 0.281071 0.333681
O O7 0.670778 0.106150 0.164085
O O8 0.121826 0.795597 0.902215
O O9 0.346644 0.322002 0.447968
O O10 0.870694 0.999665 0.317538
O O11 0.583513 0.851274 0.084888
O O12 0.418681 0.485586 0.331986
O O13 0.271034 0.241629 0.116849
#
# Coordination Sequence:
#
# PCOD9109250 Si02
#       7
#     2   2   2   2   2   2   1
#     4  10  20  39  63  90 124 165 208 254 305 365
#     4  10  19  39  62  89 129 161 196 261 308 359
#     4  11  20  40  66  94 117 170 208 249 314 367
#     4  10  22  40  62  93 126 163 204 259 304 366
#     4  10  22  39  64  93 128 159 203 260 311 364
#     4  10  20  37  66  88 124 166 206 255 307 363
#     4  10  16  38  60  84 126 154 200 248 300 360
#
# _framework density 25.064851999999998
#
# number of rings (size 3 to 8) (size 9 to 14) (size 15 to 20)
#    0.000    1.846    4.615    0.462    0.000    0.615 
#    2.769   12.308    0.000    0.000    0.000    0.000 
#    0.000    0.000    0.000    0.000    0.000    0.000 
#
# Total GULP energy -72644.653206 kJ/mol
# GULP energy per Si atom -5588.050247 kJ/mol
# Density = 2.500780 g / cm^3
# Si number density = 25.064852 Si / 1000 Ang^3
#
#
#
# Elastic Constant Matrix: (Units=GPa)
#
#
# Indices 1 2 3 4 5 6 
#
# 1 78.3782 58.4179 50.5462 -23.0137 9.4820 -1.3005
# 2 58.4179 173.3300 22.9958 28.3615 -9.3724 15.6188
# 3 50.5462 22.9958 120.0029 26.6387 -6.5254 18.1786
# 4 -23.0137 28.3615 26.6387 4.6679 7.5403 -6.1588
# 5 9.4820 -9.3724 -6.5254 7.5403 38.7803 -4.9292
# 6 -1.3005 15.6188 18.1786 -6.1588 -4.9292 27.1153
#
#
#
# Elastic Compliance Matrix: (Units=1/GPa)
#
#
# Indices 1 2 3 4 5 6 
#
# 1 0.004242 0.001706 0.002772 -0.017245 0.002417 -0.006115
# 2 0.001706 0.004163 -0.003582 0.007867 -0.001336 0.001629
# 3 0.002772 -0.003582 0.005234 0.010709 -0.002664 0.000636
# 4 -0.017245 0.007867 0.010709 -0.011036 0.008346 -0.013528
# 5 0.002417 -0.001336 -0.002664 0.008346 0.023935 0.008919
# 6 -0.006115 0.001629 0.000636 -0.013528 0.008919 0.033770
#
#
# Mechanical properties :
#
#
# Convention : Reuss Voigt Hill
#
# Bulk Modulus (GPa) = 64.80682 70.62563 67.71623
# Shear Modulus (GPa) = 78.54324 30.09611 54.31968
#
# Velocity S-wave (km/s) = 5.60393 3.46891 4.66033
# Velocity P-wave (km/s) = 8.23309 6.65453 7.48554
#
# Compressibility (1/GPa) = 0.01543047
#
# Stress axis : x y z
#
# Youngs Moduli (GPa) = 235.73828 240.19788 191.07593
#
# Poissons Ratio (x) = -0.40977 -0.52970
# Poissons Ratio (y) = -0.40216 0.68449
# Poissons Ratio (z) = -0.65351 0.86046
#
# Static dielectric constant tensor:
#      x y z
#    x 1.966700 0.002520 -0.053330 
#    y 0.002520 1.932200 0.012080 
#    z -0.053330 0.012080 2.037740 
# 
# From -- ./inp_files/168996.got.cif
#   From: 2010.05.17/outbox.cif.g08.bks.cpg/sg2_85_cif.got.tgz:168996.got - 2010.06.03 11:33:40.
