data_PCOD9109968
_publ_section_title
;
Structure prediction by ZEFSAII (Michael W. Deem and Ramdas Pophale) SiO2 
 PCOD9109968
Probable space group: P -1
;
_chemical_formula_sum "Si O2"
_cell_formula_units_Z 16
_cell_length_a 12.124025
_cell_length_b 15.657567
_cell_length_c 14.854473
_cell_angle_alpha 35.999531
_cell_angle_beta 130.963607
_cell_angle_gamma 152.456464
_cell_volume 746.405038
_symmetry_space_group_name_H-M "P -1"
_symmetry_group_IT_number 2
_symmetry_cell_setting 'triclinic'
loop_
_space_group_symop_operation_xyz
x,y,z
-x,-y,-z
loop_
_atom_site_type_symbol
_atom_site_label
_atom_site_fract_x
_atom_site_fract_y
_atom_site_fract_z
Si Si1 0.281721 0.955980 0.009273
Si Si2 0.500839 0.442967 0.649673
Si Si3 0.218500 0.643218 0.567707
Si Si4 0.686282 0.222578 0.294815
Si Si5 0.765352 0.191773 0.064475
Si Si6 0.696133 0.899553 0.907682
Si Si7 0.768811 0.654138 0.247589
Si Si8 0.978149 0.676427 0.747736
O O1 0.381587 0.187495 0.821646
O O2 0.113811 0.764826 0.000980
O O3 0.472991 0.973883 0.097430
O O4 0.229871 0.951882 0.088391
O O5 0.500000 0.500000 0.500000
O O6 0.354887 0.431173 0.648872
O O7 0.784069 0.645475 0.653739
O O8 0.181371 0.622575 0.673764
O O9 0.301964 0.548881 0.667034
O O10 0.000000 0.500000 0.500000
O O11 0.439626 0.931783 0.427323
O O12 0.558160 0.246292 0.145104
O O13 0.865876 0.257921 0.307725
O O14 0.846691 0.153555 0.220267
O O15 0.832786 0.414604 0.924485
O O16 0.680803 0.722353 0.084629
O O17 0.933534 0.100269 0.798986
#
# Coordination Sequence:
#
# PCOD9109968 Si02
#       8
#     2   2   2   2   2   2   2   2
#     4   9  18  36  60  94 120 160 213 262 319 378
#     4  10  23  40  61  86 129 176 205 256 326 393
#     4  11  25  43  65  96 133 172 213 269 324 395
#     4  11  24  41  69  99 126 167 225 268 320 385
#     4   9  18  33  59  91 123 152 205 268 318 365
#     4  10  20  41  68  96 128 164 220 277 318 385
#     4  10  23  42  64  94 131 173 215 263 331 388
#     4  10  21  37  60  90 126 160 209 269 311 383
#
# _framework density 21.436081999999999
#
# number of rings (size 3 to 8) (size 9 to 14) (size 15 to 20)
#    0.000    2.000    2.500    0.000    5.250    1.500 
#    0.000    6.250    0.000    0.000    0.000    0.000 
#    0.000    0.000    0.000    0.000    0.000    0.000 
#
# Total GULP energy -89143.509531 kJ/mol
# GULP energy per Si atom -5571.469346 kJ/mol
# Density = 2.138729 g / cm^3
# Si number density = 21.436082 Si / 1000 Ang^3
#
#
#
# Elastic Constant Matrix: (Units=GPa)
#
#
# Indices 1 2 3 4 5 6 
#
# 1 162.4511 58.3562 43.4504 33.6233 -26.0199 -6.5700
# 2 58.3562 86.4971 30.5901 25.2380 -5.9333 -13.3034
# 3 43.4504 30.5901 55.3129 19.7750 -11.7651 -5.5908
# 4 33.6233 25.2380 19.7750 22.2283 -11.6109 -4.0663
# 5 -26.0199 -5.9333 -11.7651 -11.6109 29.6333 -1.7675
# 6 -6.5700 -13.3034 -5.5908 -4.0663 -1.7675 29.1840
#
#
#
# Elastic Compliance Matrix: (Units=1/GPa)
#
#
# Indices 1 2 3 4 5 6 
#
# 1 0.010347 -0.003898 -0.002727 -0.006480 0.004648 -0.000591
# 2 -0.003898 0.020739 -0.003080 -0.017702 -0.007125 0.005088
# 3 -0.002727 -0.003080 0.028291 -0.016329 0.001897 0.001242
# 4 -0.006480 -0.017702 -0.016329 0.102962 0.024816 0.003192
# 5 0.004648 -0.007125 0.001897 0.024816 0.047144 0.004475
# 6 -0.000591 0.005088 0.001242 0.003192 0.004475 0.037405
#
#
# Mechanical properties :
#
#
# Convention : Reuss Voigt Hill
#
# Bulk Modulus (GPa) = 25.02009 63.22826 44.12417
# Shear Modulus (GPa) = 17.88143 27.66676 22.77409
#
# Velocity S-wave (km/s) = 2.89134 3.59648 3.26301
# Velocity P-wave (km/s) = 4.77951 6.84152 5.90128
#
# Compressibility (1/GPa) = 0.03996789
#
# Stress axis : x y z
#
# Youngs Moduli (GPa) = 96.64693 48.21854 35.34676
#
# Poissons Ratio (x) = 0.18794 0.09638
# Poissons Ratio (y) = 0.37670 0.10887
# Poissons Ratio (z) = 0.26353 0.14852
#
# Static dielectric constant tensor:
#      x y z
#    x 1.798930 -0.000890 -0.052020 
#    y -0.000890 1.934120 -0.016980 
#    z -0.052020 -0.016980 1.828530 
# 
# From -- ./inp_files/522291.got.cif
#   From: 2010.05.17/outbox.cif.g08.bks.cpg/sg2_262_cif.got.tgz:522291.got - 2010.06.03 11:33:40.
