data_PCOD9109690
_publ_section_title
;
Structure prediction by ZEFSAII (Michael W. Deem and Ramdas Pophale) SiO2 
 PCOD9109690
Probable space group: P -1
;
_chemical_formula_sum "Si O2"
_cell_formula_units_Z 16
_cell_length_a 11.962814
_cell_length_b 9.201636
_cell_length_c 14.856482
_cell_angle_alpha 76.774387
_cell_angle_beta 154.383514
_cell_angle_gamma 96.855024
_cell_volume 673.443535
_symmetry_space_group_name_H-M "P -1"
_symmetry_group_IT_number 2
_symmetry_cell_setting 'triclinic'
loop_
_space_group_symop_operation_xyz
x,y,z
-x,-y,-z
loop_
_atom_site_type_symbol
_atom_site_label
_atom_site_fract_x
_atom_site_fract_y
_atom_site_fract_z
Si Si1 0.621594 0.151064 0.078794
Si Si2 0.720878 0.616320 0.808185
Si Si3 0.854507 0.668500 0.383246
Si Si4 0.209327 0.885676 0.605987
Si Si5 0.477763 0.341521 0.697991
Si Si6 0.051599 0.914239 0.843269
Si Si7 0.718991 0.918816 0.869225
Si Si8 0.513605 0.811147 0.459895
O O1 0.430348 0.290777 0.873574
O O2 0.625328 0.197445 0.177978
O O3 0.878724 0.102743 0.209593
O O4 0.500000 0.000000 0.000000
O O5 0.542497 0.507170 0.737850
O O6 0.789163 0.750574 0.901407
O O7 0.537992 0.708690 0.582403
O O8 0.000000 0.500000 0.000000
O O9 0.774479 0.693190 0.426500
O O10 0.000000 0.500000 0.500000
O O11 0.034417 0.774969 0.455470
O O12 0.417742 0.939572 0.685733
O O13 0.000000 0.000000 0.500000
O O14 0.439756 0.310795 0.570133
O O15 0.737543 0.221815 0.937330
O O16 0.757178 0.894002 0.641734
O O17 0.112422 0.057108 0.923066
O O18 0.706412 0.051636 0.765108
#
# Coordination Sequence:
#
# PCOD9109690 Si02
#       8
#     2   2   2   2   2   2   2   2
#     4  11  20  37  65  93 128 171 208 251 316 387
#     4  12  25  48  66  91 130 174 217 277 329 371
#     4  11  24  40  61  98 138 165 208 267 321 386
#     4  12  21  40  70  99 132 172 212 259 322 390
#     4  10  22  45  66  92 129 171 218 262 321 395
#     4  10  20  41  66  97 129 165 214 263 318 386
#     4  11  25  41  67 101 131 164 221 269 314 393
#     4  11  23  44  70  91 123 172 218 272 326 373
#
# _framework density 23.758486999999999
#
# number of rings (size 3 to 8) (size 9 to 14) (size 15 to 20)
#    0.000    1.000    3.750    4.500    0.000    1.000 
#    6.750    0.000    0.000    0.000    0.000    0.000 
#    0.000    0.000    0.000    0.000    0.000    0.000 
#
# Total GULP energy -89309.606089 kJ/mol
# GULP energy per Si atom -5581.850381 kJ/mol
# Density = 2.370441 g / cm^3
# Si number density = 23.758487 Si / 1000 Ang^3
#
#
#
# Elastic Constant Matrix: (Units=GPa)
#
#
# Indices 1 2 3 4 5 6 
#
# 1 78.5080 1.7761 14.4892 -11.0525 -5.2570 3.2763
# 2 1.7761 89.4339 13.8813 -16.7253 2.6457 -12.2467
# 3 14.4892 13.8813 61.3336 -5.8408 3.8524 -13.5116
# 4 -11.0525 -16.7253 -5.8408 32.9864 -1.3124 5.3407
# 5 -5.2570 2.6457 3.8524 -1.3124 37.4883 3.0887
# 6 3.2763 -12.2467 -13.5116 5.3407 3.0887 38.5605
#
#
#
# Elastic Compliance Matrix: (Units=1/GPa)
#
#
# Indices 1 2 3 4 5 6 
#
# 1 0.014526 0.000765 -0.004027 0.005198 0.002855 -0.003351
# 2 0.000765 0.012969 -0.001932 0.006047 -0.000611 0.002589
# 3 -0.004027 -0.001932 0.019360 -0.000115 -0.002979 0.006767
# 4 0.005198 0.006047 -0.000115 0.035771 0.001868 -0.003665
# 5 0.002855 -0.000611 -0.002979 0.001868 0.027817 -0.003968
# 6 -0.003351 0.002589 0.006767 -0.003665 -0.003968 0.030237
#
#
# Mechanical properties :
#
#
# Convention : Reuss Voigt Hill
#
# Bulk Modulus (GPa) = 27.42094 32.17431 29.79763
# Shear Modulus (GPa) = 30.63285 35.08230 32.85758
#
# Velocity S-wave (km/s) = 3.59464 3.84685 3.72288
# Velocity P-wave (km/s) = 5.36611 5.77085 5.57216
#
# Compressibility (1/GPa) = 0.03646848
#
# Stress axis : x y z
#
# Youngs Moduli (GPa) = 68.84035 77.10411 51.65342
#
# Poissons Ratio (x) = -0.05902 0.20803
# Poissons Ratio (y) = -0.05269 0.09978
# Poissons Ratio (z) = 0.27725 0.14894
#
# Static dielectric constant tensor:
#      x y z
#    x 1.925210 -0.020720 0.018370 
#    y -0.020720 1.902590 0.013060 
#    z 0.018370 0.013060 1.956110 
# 
# From -- ./inp_files/505300.got.cif
#   From: 2010.05.17/outbox.cif.g08.bks.cpg/sg2_253_cif.got.tgz:505300.got - 2010.06.03 11:33:40.
