data_PCOD9109427
_publ_section_title
;
Structure prediction by ZEFSAII (Michael W. Deem and Ramdas Pophale) SiO2 
 PCOD9109427
Probable space group: P -1
;
_chemical_formula_sum "Si O2"
_cell_formula_units_Z 16
_cell_length_a 7.461632
_cell_length_b 11.353078
_cell_length_c 9.748541
_cell_angle_alpha 56.543436
_cell_angle_beta 65.319352
_cell_angle_gamma 70.485267
_cell_volume 620.146451
_symmetry_space_group_name_H-M "P -1"
_symmetry_group_IT_number 2
_symmetry_cell_setting 'triclinic'
loop_
_space_group_symop_operation_xyz
x,y,z
-x,-y,-z
loop_
_atom_site_type_symbol
_atom_site_label
_atom_site_fract_x
_atom_site_fract_y
_atom_site_fract_z
Si Si1 0.731821 0.458041 0.479647
Si Si2 0.481230 0.928513 0.398561
Si Si3 0.619784 0.647141 0.633764
Si Si4 0.217636 0.185380 0.179930
Si Si5 0.011019 0.191052 0.509780
Si Si6 0.605272 0.327454 0.052617
Si Si7 0.862811 0.016784 0.166395
Si Si8 0.017693 0.404730 0.915700
O O1 0.500000 0.500000 0.500000
O O2 0.743251 0.531597 0.574772
O O3 0.826269 0.294872 0.561037
O O4 0.847670 0.527550 0.278980
O O5 0.459807 0.764641 0.533613
O O6 0.500000 0.000000 0.500000
O O7 0.326123 0.029329 0.291296
O O8 0.690524 0.918029 0.260276
O O9 0.485612 0.595514 0.829002
O O10 0.785080 0.738729 0.577760
O O11 0.402010 0.283553 0.074952
O O12 0.120785 0.246663 0.029535
O O13 0.026707 0.193733 0.339099
O O14 0.035026 0.048025 0.684405
O O15 0.728046 0.168011 0.134840
O O16 0.803082 0.402151 0.915761
O O17 0.000000 0.000000 0.000000
O O18 0.000000 0.500000 0.000000
#
# Coordination Sequence:
#
# PCOD9109427 Si02
#       8
#     2   2   2   2   2   2   2   2
#     4  12  27  44  60  92 141 176 216 274 324 391
#     4  10  16  38  68  94 129 167 212 273 329 388
#     4  10  20  41  67  96 126 173 222 266 332 402
#     4  10  20  43  71  97 130 176 223 270 331 392
#     4  10  20  42  69  93 127 179 219 267 335 388
#     4  10  22  43  71  99 129 173 219 276 339 383
#     4  10  20  36  69 103 130 160 221 281 324 393
#     4  12  26  44  64  98 138 173 225 275 316 396
#
# _framework density 25.800357000000002
#
# number of rings (size 3 to 8) (size 9 to 14) (size 15 to 20)
#    0.000    1.500    6.250    1.125    3.500    2.500 
#    4.500    1.875    0.000    0.000    0.000    0.000 
#    0.000    0.000    0.000    0.000    0.000    0.000 
#
# Total GULP energy -89290.079349 kJ/mol
# GULP energy per Si atom -5580.629959 kJ/mol
# Density = 2.574163 g / cm^3
# Si number density = 25.800357 Si / 1000 Ang^3
#
#
#
# Elastic Constant Matrix: (Units=GPa)
#
#
# Indices 1 2 3 4 5 6 
#
# 1 105.4663 29.9350 44.8215 4.9596 -8.1674 -23.3685
# 2 29.9350 117.2448 27.8433 14.3859 13.0600 -33.9029
# 3 44.8215 27.8433 144.0274 28.5569 -3.9177 -16.1270
# 4 4.9596 14.3859 28.5569 40.5702 -15.3272 5.9052
# 5 -8.1674 13.0600 -3.9177 -15.3272 37.3134 5.1945
# 6 -23.3685 -33.9029 -16.1270 5.9052 5.1945 40.4107
#
#
#
# Elastic Compliance Matrix: (Units=1/GPa)
#
#
# Indices 1 2 3 4 5 6 
#
# 1 0.012464 -0.002249 -0.003561 0.002811 0.003880 0.002990
# 2 -0.002249 0.017840 0.002183 -0.016339 -0.015859 0.018964
# 3 -0.003561 0.002183 0.010266 -0.010605 -0.005678 0.006148
# 4 0.002811 -0.016339 -0.010605 0.053391 0.031065 -0.028110
# 5 0.003880 -0.015859 -0.005678 0.031065 0.048724 -0.024130
# 6 0.002990 0.018964 0.006148 -0.028110 -0.024130 0.052048
#
#
# Mechanical properties :
#
#
# Convention : Reuss Voigt Hill
#
# Bulk Modulus (GPa) = 30.01626 63.54867 46.78246
# Shear Modulus (GPa) = 23.46392 41.26810 32.36601
#
# Velocity S-wave (km/s) = 3.01897 4.00373 3.54571
# Velocity P-wave (km/s) = 4.87970 6.78657 5.91055
#
# Compressibility (1/GPa) = 0.03331528
#
# Stress axis : x y z
#
# Youngs Moduli (GPa) = 80.22890 56.05376 97.40892
#
# Poissons Ratio (x) = 0.12608 0.34688
# Poissons Ratio (y) = 0.18045 -0.21262
# Poissons Ratio (z) = 0.28570 -0.12235
#
# Static dielectric constant tensor:
#      x y z
#    x -2.833490 -2.644460 -4.168830 
#    y -2.644460 0.623840 -2.428150 
#    z -4.168830 -2.428150 -1.442560 
# 
# From -- ./inp_files/398542.got.cif
#   From: 2010.05.17/outbox.cif.g08.bks.cpg/sg2_200_cif.got.tgz:398542.got - 2010.06.03 11:33:40.
