data_PCOD9109451
_publ_section_title
;
Structure prediction by ZEFSAII (Michael W. Deem and Ramdas Pophale) SiO2 
 PCOD9109451
Probable space group: P -1
;
_chemical_formula_sum "Si O2"
_cell_formula_units_Z 16
_cell_length_a 12.276447
_cell_length_b 8.371089
_cell_length_c 15.440774
_cell_angle_alpha 99.074863
_cell_angle_beta 151.117708
_cell_angle_gamma 77.110366
_cell_volume 744.746255
_symmetry_space_group_name_H-M "P -1"
_symmetry_group_IT_number 2
_symmetry_cell_setting 'triclinic'
loop_
_space_group_symop_operation_xyz
x,y,z
-x,-y,-z
loop_
_atom_site_type_symbol
_atom_site_label
_atom_site_fract_x
_atom_site_fract_y
_atom_site_fract_z
Si Si1 0.526164 0.677144 0.999063
Si Si2 0.609988 0.410933 0.283252
Si Si3 0.779078 0.750113 0.415980
Si Si4 0.037228 0.203987 0.638980
Si Si5 0.128347 0.598572 0.031648
Si Si6 0.797002 0.825066 0.706343
Si Si7 0.404691 0.870588 0.299524
Si Si8 0.096611 0.883027 0.769325
O O1 0.427210 0.695464 0.835184
O O2 0.365697 0.813452 0.957177
O O3 0.500000 0.500000 0.000000
O O4 0.787734 0.695804 0.185074
O O5 0.723789 0.568108 0.348349
O O6 0.361858 0.485226 0.153356
O O7 0.782368 0.304842 0.460437
O O8 0.863016 0.819527 0.391551
O O9 0.556261 0.856261 0.316150
O O10 0.979744 0.746435 0.626300
O O11 0.048342 0.040024 0.687524
O O12 0.213055 0.758492 0.144568
O O13 0.000000 0.500000 0.000000
O O14 0.954643 0.663048 0.838678
O O15 0.585521 0.800701 0.495735
O O16 0.964275 0.912104 0.769899
O O17 0.699207 0.946456 0.726534
#
# Coordination Sequence:
#
# PCOD9109451 Si02
#       8
#     2   2   2   2   2   2   2   2
#     4  12  23  40  63  92 129 174 210 257 325 379
#     4  11  24  42  64  92 129 174 211 261 326 381
#     4  10  20  41  65  92 129 171 210 259 317 380
#     4  12  24  41  63  97 134 167 217 264 315 384
#     4  11  25  43  66  99 125 165 219 268 316 383
#     4  10  22  45  65  92 130 168 215 264 322 381
#     4   9  22  42  70  92 124 175 210 259 330 373
#     4  11  24  40  64  95 132 170 213 268 318 376
#
# _framework density 21.483827999999999
#
# number of rings (size 3 to 8) (size 9 to 14) (size 15 to 20)
#    0.000    1.250    2.500    3.000    1.750    6.500 
#    0.000    0.000    0.000    0.000    0.000    0.000 
#    0.000    0.000    0.000    0.000    0.000    0.000 
#
# Total GULP energy -89473.944623 kJ/mol
# GULP energy per Si atom -5592.121539 kJ/mol
# Density = 2.143493 g / cm^3
# Si number density = 21.483828 Si / 1000 Ang^3
#
#
#
# Elastic Constant Matrix: (Units=GPa)
#
#
# Indices 1 2 3 4 5 6 
#
# 1 73.0823 18.2834 8.4585 -19.9961 7.1916 6.1146
# 2 18.2834 34.0273 22.8768 -16.1597 0.3205 5.4260
# 3 8.4585 22.8768 123.1091 -21.8944 17.3464 1.7609
# 4 -19.9961 -16.1597 -21.8944 42.4513 -0.6480 -6.3165
# 5 7.1916 0.3205 17.3464 -0.6480 21.4344 -0.2817
# 6 6.1146 5.4260 1.7609 -6.3165 -0.2817 33.7409
#
#
#
# Elastic Compliance Matrix: (Units=1/GPa)
#
#
# Indices 1 2 3 4 5 6 
#
# 1 0.018027 -0.008094 0.002524 0.006451 -0.007787 -0.000954
# 2 -0.008094 0.042958 -0.006973 0.008557 0.007931 -0.003409
# 3 0.002524 -0.006973 0.011397 0.004383 -0.009823 0.000808
# 4 0.006451 0.008557 0.004383 0.032527 -0.004813 0.003275
# 5 -0.007787 0.007931 -0.009823 -0.004813 0.056955 0.000223
# 6 -0.000954 -0.003409 0.000808 0.003275 0.000223 0.030932
#
#
# Mechanical properties :
#
#
# Convention : Reuss Voigt Hill
#
# Bulk Modulus (GPa) = 21.14359 36.60624 28.87491
# Shear Modulus (GPa) = 21.39967 31.56533 26.48250
#
# Velocity S-wave (km/s) = 3.15950 3.83725 3.51475
# Velocity P-wave (km/s) = 4.81383 6.05876 5.47182
#
# Compressibility (1/GPa) = 0.04729566
#
# Stress axis : x y z
#
# Youngs Moduli (GPa) = 55.47155 23.27845 87.74028
#
# Poissons Ratio (x) = 0.18841 -0.22143
# Poissons Ratio (y) = 0.44897 0.61185
# Poissons Ratio (z) = -0.13999 0.16233
#
# Static dielectric constant tensor:
#      x y z
#    x 1.781340 -0.038880 0.003970 
#    y -0.038880 1.764140 0.012870 
#    z 0.003970 0.012870 1.803620 
# 
# From -- ./inp_files/515696.got.cif
#   From: 2010.05.17/outbox.cif.g08.bks.cpg/sg2_258_cif.got.tgz:515696.got - 2010.06.03 11:33:40.
