data_PCOD9109736
_publ_section_title
;
Structure prediction by ZEFSAII (Michael W. Deem and Ramdas Pophale) SiO2 
 PCOD9109736
Probable space group: P -1
;
_chemical_formula_sum "Si O2"
_cell_formula_units_Z 13
_cell_length_a 10.651127
_cell_length_b 16.520484
_cell_length_c 11.675330
_cell_angle_alpha 29.013153
_cell_angle_beta 48.630607
_cell_angle_gamma 35.461711
_cell_volume 568.358171
_symmetry_space_group_name_H-M "P -1"
_symmetry_group_IT_number 2
_symmetry_cell_setting 'triclinic'
loop_
_space_group_symop_operation_xyz
x,y,z
-x,-y,-z
loop_
_atom_site_type_symbol
_atom_site_label
_atom_site_fract_x
_atom_site_fract_y
_atom_site_fract_z
Si Si1 0.739101 0.269850 0.490531
Si Si2 0.500000 0.500000 0.000000
Si Si3 0.027279 0.234391 0.001715
Si Si4 0.169695 0.135376 0.789813
Si Si5 0.489192 0.898438 0.517259
Si Si6 0.936465 0.703506 0.855364
Si Si7 0.732594 0.307650 0.712277
O O1 0.775040 0.313837 0.544228
O O2 0.478916 0.460372 0.397684
O O3 0.867797 0.291833 0.291392
O O4 0.834771 0.023144 0.733492
O O5 0.471744 0.716155 0.780570
O O6 0.229207 0.644545 0.002225
O O7 0.074904 0.322661 0.970763
O O8 0.121354 0.229524 0.829665
O O9 0.295954 0.190845 0.573245
O O10 0.942446 0.228261 0.754191
O O11 0.301995 0.871557 0.038538
O O12 0.500000 0.000000 0.500000
O O13 0.283595 0.081017 0.334796
O O14 0.000000 0.500000 0.000000
#
# Coordination Sequence:
#
# PCOD9109736 Si02
#       7
#     2   1   2   2   2   2   2
#     4  10  20  41  67 106 136 192 237 298 367 437
#     4  12  28  48  72 108 150 196 250 312 364 446
#     4  11  26  44  71 104 145 195 245 301 376 432
#     4  10  23  43  70 111 144 194 241 302 366 448
#     4  12  27  48  77 109 149 197 249 306 376 446
#     4  12  25  44  72 104 146 191 249 305 368 444
#     4   9  20  38  73 103 148 185 239 301 372 435
#
# _framework density 22.872900999999999
#
# number of rings (size 3 to 8) (size 9 to 14) (size 15 to 20)
#    0.000    1.231    1.538    3.231    6.462    1.231 
#    0.000    0.000    0.000    0.000    0.000    0.000 
#    0.000    0.000    0.000    0.000    0.000    0.000 
#
# Total GULP energy -72560.135986 kJ/mol
# GULP energy per Si atom -5581.548922 kJ/mol
# Density = 2.282084 g / cm^3
# Si number density = 22.872901 Si / 1000 Ang^3
#
#
#
# Elastic Constant Matrix: (Units=GPa)
#
#
# Indices 1 2 3 4 5 6 
#
# 1 54.6088 103.2466 48.2184 5.4987 -11.2299 19.5937
# 2 103.2466 49.9911 6.7727 -12.5815 9.2864 22.8282
# 3 48.2184 6.7727 53.3446 -4.9816 -10.9545 16.0518
# 4 5.4987 -12.5815 -4.9816 41.5212 0.7205 14.5453
# 5 -11.2299 9.2864 -10.9545 0.7205 27.3179 -12.1543
# 6 19.5937 22.8282 16.0518 14.5453 -12.1543 11.6105
#
#
#
# Elastic Compliance Matrix: (Units=1/GPa)
#
#
# Indices 1 2 3 4 5 6 
#
# 1 -0.043717 0.012673 0.002397 -0.037315 0.038799 0.132908
# 2 0.012673 -0.001016 -0.009304 -0.000276 -0.001720 -0.007982
# 3 0.002397 -0.009304 0.020601 -0.000331 0.011735 -0.001535
# 4 -0.037315 -0.000276 -0.000331 -0.020604 0.047006 0.138992
# 5 0.038799 -0.001720 0.011735 0.047006 -0.008311 -0.145907
# 6 0.132908 -0.007982 -0.001535 0.138992 -0.145907 -0.447216
#
#
# Mechanical properties :
#
#
# Convention : Reuss Voigt Hill
#
# Bulk Modulus (GPa) = -79.37678 52.71331 -13.33173
# Shear Modulus (GPa) = -9.69002 16.07039 3.19019
#
# Velocity S-wave (km/s) = -2.06050 2.65353 1.18227
# Velocity P-wave (km/s) = 6.35922 5.69952 1.99438
#
# Compressibility (1/GPa) = -0.01259814
#
# Stress axis : x y z
#
# Youngs Moduli (GPa) = -22.87440 -984.54397 48.54041
#
# Poissons Ratio (x) = 12.47760 -0.11635
# Poissons Ratio (y) = 0.28990 0.45161
# Poissons Ratio (z) = 0.05483 -9.16000
#
# Static dielectric constant tensor:
#      x y z
#    x 1.743840 -0.027840 -0.008480 
#    y -0.027840 1.816070 -0.036580 
#    z -0.008480 -0.036580 1.848150 
# 
# From -- ./inp_files/200997.got.cif
#   From: 2010.05.17/outbox.cif.g08.bks.cpg/sg2_101_cif.got.tgz:200997.got - 2010.06.03 11:33:40.
