data_PCOD9109282
_publ_section_title
;
Structure prediction by ZEFSAII (Michael W. Deem and Ramdas Pophale) SiO2 
 PCOD9109282
Probable space group: P -1
;
_chemical_formula_sum "Si O2"
_cell_formula_units_Z 14
_cell_length_a 19.281430
_cell_length_b 8.126021
_cell_length_c 10.799266
_cell_angle_alpha 122.966375
_cell_angle_beta 32.287258
_cell_angle_gamma 135.342547
_cell_volume 627.857805
_symmetry_space_group_name_H-M "P -1"
_symmetry_group_IT_number 2
_symmetry_cell_setting 'triclinic'
loop_
_space_group_symop_operation_xyz
x,y,z
-x,-y,-z
loop_
_atom_site_type_symbol
_atom_site_label
_atom_site_fract_x
_atom_site_fract_y
_atom_site_fract_z
Si Si1 0.113502 0.570987 0.977005
Si Si2 0.819734 0.929231 0.655527
Si Si3 0.668421 0.190701 0.873127
Si Si4 0.316115 0.450515 0.490576
Si Si5 0.947308 0.555852 0.471389
Si Si6 0.348914 0.132578 0.870306
Si Si7 0.570986 0.478504 0.258898
O O1 0.208263 0.451381 0.759822
O O2 0.247261 0.852369 0.892100
O O3 0.000000 0.500000 0.000000
O O4 0.017996 0.510560 0.224801
O O5 0.794151 0.719568 0.522296
O O6 0.744416 0.057197 0.754341
O O7 0.715256 0.822065 0.890823
O O8 0.992754 0.168837 0.512692
O O9 0.763400 0.371030 0.690804
O O10 0.651963 0.337867 0.068190
O O11 0.500000 0.000000 0.000000
O O12 0.460385 0.721450 0.349963
O O13 0.420344 0.357866 0.344977
O O14 0.000000 0.500000 0.500000
O O15 0.319304 0.258153 0.854154
O O16 0.500000 0.500000 0.500000
#
# Coordination Sequence:
#
# PCOD9109282 Si02
#       7
#     2   2   2   2   2   2   2
#     4  11  24  42  63  94 131 168 211 264 324 374
#     4  10  20  41  64  92 127 167 208 259 320 372
#     4  11  21  41  64  92 122 163 214 257 306 389
#     4  10  22  40  64  94 126 163 214 264 309 369
#     4   9  23  40  62  89 124 170 205 256 320 371
#     4   9  22  40  63  90 124 173 206 259 312 371
#     4  10  24  37  62  97 126 159 216 262 311 365
#
# _framework density 22.298041999999999
#
# number of rings (size 3 to 8) (size 9 to 14) (size 15 to 20)
#    0.857    1.143    1.429    0.857    6.000    4.571 
#    0.000    5.714    0.000    0.000    0.000    0.000 
#    0.000    0.000    0.000    0.000    0.000    0.000 
#
# Total GULP energy -78071.762653 kJ/mol
# GULP energy per Si atom -5576.554475 kJ/mol
# Density = 2.224729 g / cm^3
# Si number density = 22.298042 Si / 1000 Ang^3
#
#
#
# Elastic Constant Matrix: (Units=GPa)
#
#
# Indices 1 2 3 4 5 6 
#
# 1 37.9891 19.6968 31.4432 -10.1434 15.8187 6.6616
# 2 19.6968 98.1178 79.3313 -9.1840 19.0456 10.0571
# 3 31.4432 79.3313 161.8158 -9.0074 26.9924 15.2012
# 4 -10.1434 -9.1840 -9.0074 46.4121 0.4158 -0.9120
# 5 15.8187 19.0456 26.9924 0.4158 46.2983 1.1654
# 6 6.6616 10.0571 15.2012 -0.9120 1.1654 36.0932
#
#
#
# Elastic Compliance Matrix: (Units=1/GPa)
#
#
# Indices 1 2 3 4 5 6 
#
# 1 0.037078 -0.000970 -0.004315 0.007077 -0.009710 -0.004263
# 2 -0.000970 0.017375 -0.007730 0.001721 -0.002292 -0.001289
# 3 -0.004315 -0.007730 0.011267 -0.000304 -0.001868 -0.001742
# 4 0.007077 0.001721 -0.000304 0.023384 -0.003135 -0.000966
# 5 -0.009710 -0.002292 -0.001868 -0.003135 0.026919 0.002269
# 6 -0.004263 -0.001289 -0.001742 -0.000966 0.002269 0.029488
#
#
# Mechanical properties :
#
#
# Convention : Reuss Voigt Hill
#
# Bulk Modulus (GPa) = 25.19624 62.09615 43.64620
# Shear Modulus (GPa) = 27.06034 36.92414 31.99224
#
# Velocity S-wave (km/s) = 3.48742 4.07373 3.79193
# Velocity P-wave (km/s) = 5.24790 7.07360 6.22801
#
# Compressibility (1/GPa) = 0.03968846
#
# Stress axis : x y z
#
# Youngs Moduli (GPa) = 26.96983 57.55365 88.75850
#
# Poissons Ratio (x) = 0.05585 0.38299
# Poissons Ratio (y) = 0.02617 0.68615
# Poissons Ratio (z) = 0.11638 0.44492
#
# Static dielectric constant tensor:
#      x y z
#    x 2.147230 0.154620 0.006930 
#    y 0.154620 1.914310 0.016400 
#    z 0.006930 0.016400 1.878830 
# 
# From -- ./inp_files/473989.got.cif
#   From: 2010.05.17/outbox.cif.g08.bks.cpg/sg2_237_cif.got.tgz:473989.got - 2010.06.03 11:33:40.
