data_PCOD9109419
_publ_section_title
;
Structure prediction by ZEFSAII (Michael W. Deem and Ramdas Pophale) SiO2 
 PCOD9109419
Probable space group: P -1
;
_chemical_formula_sum "Si O2"
_cell_formula_units_Z 13
_cell_length_a 20.235826
_cell_length_b 12.501118
_cell_length_c 6.549434
_cell_angle_alpha 69.493910
_cell_angle_beta 66.584652
_cell_angle_gamma 19.032756
_cell_volume 494.022517
_symmetry_space_group_name_H-M "P -1"
_symmetry_group_IT_number 2
_symmetry_cell_setting 'triclinic'
loop_
_space_group_symop_operation_xyz
x,y,z
-x,-y,-z
loop_
_atom_site_type_symbol
_atom_site_label
_atom_site_fract_x
_atom_site_fract_y
_atom_site_fract_z
Si Si1 0.421379 0.356170 0.639844
Si Si2 0.692144 0.797919 0.933298
Si Si3 0.691144 0.168320 0.840168
Si Si4 0.725741 0.881877 0.227147
Si Si5 0.500000 0.500000 0.500000
Si Si6 0.989857 0.333397 0.529561
Si Si7 0.949831 0.201997 0.355686
O O1 0.596959 0.053944 0.780127
O O2 0.385955 0.540783 0.595549
O O3 0.226139 0.561370 0.751999
O O4 0.516955 0.194623 0.405555
O O5 0.900841 0.460105 0.779117
O O6 0.500000 0.000000 0.000000
O O7 0.730375 0.771880 0.135240
O O8 0.764674 0.040972 0.579285
O O9 0.846916 0.034147 0.809598
O O10 0.473046 0.536918 0.782222
O O11 0.738063 0.981761 0.022253
O O12 0.907098 0.573590 0.366344
O O13 0.890733 0.372356 0.504674
O O14 0.000000 0.000000 0.500000
#
# Coordination Sequence:
#
# PCOD9109419 Si02
#       7
#     2   2   2   2   1   2   2
#     4  11  23  42  68  94 133 171 217 272 320 391
#     4  11  22  39  66 101 133 168 217 268 329 385
#     4  10  23  42  68  95 128 177 216 268 325 388
#     4  11  22  42  69  96 129 175 219 267 330 381
#     4  12  22  46  64  96 132 172 220 268 322 386
#     4   9  22  41  66  95 133 169 217 270 320 385
#     4  10  20  41  65  90 130 176 209 265 327 381
#
# _framework density 26.314589000000002
#
# number of rings (size 3 to 8) (size 9 to 14) (size 15 to 20)
#    0.923    0.615    3.077    2.308    0.000    3.692 
#    2.769    0.000    0.000    5.538    0.000    0.000 
#    0.000    0.000    0.000    0.000    0.000    0.000 
#
# Total GULP energy -72486.040778 kJ/mol
# GULP energy per Si atom -5575.849291 kJ/mol
# Density = 2.625470 g / cm^3
# Si number density = 26.314589 Si / 1000 Ang^3
#
#
#
# Elastic Constant Matrix: (Units=GPa)
#
#
# Indices 1 2 3 4 5 6 
#
# 1 199.8776 33.2138 43.0235 2.2358 -12.8953 -4.2182
# 2 33.2138 90.7510 31.4716 -2.9137 -8.6449 4.5387
# 3 43.0235 31.4716 97.9823 -19.2738 -22.0061 2.2275
# 4 2.2358 -2.9137 -19.2738 51.0431 -2.7055 -6.2255
# 5 -12.8953 -8.6449 -22.0061 -2.7055 38.5405 -7.7981
# 6 -4.2182 4.5387 2.2275 -6.2255 -7.7981 42.8359
#
#
#
# Elastic Compliance Matrix: (Units=1/GPa)
#
#
# Indices 1 2 3 4 5 6 
#
# 1 0.005764 -0.001371 -0.002218 -0.001053 0.000434 0.000754
# 2 -0.001371 0.012828 -0.003633 -0.000752 0.000006 -0.001413
# 3 -0.002218 -0.003633 0.015348 0.006322 0.008003 0.001744
# 4 -0.001053 -0.000752 0.006322 0.022755 0.005486 0.003953
# 5 0.000434 0.000006 0.008003 0.005486 0.032324 0.006308
# 6 0.000754 -0.001413 0.001744 0.003953 0.006308 0.025201
#
#
# Mechanical properties :
#
#
# Convention : Reuss Voigt Hill
#
# Bulk Modulus (GPa) = 51.28877 67.11430 59.20153
# Shear Modulus (GPa) = 36.99307 45.21072 41.10190
#
# Velocity S-wave (km/s) = 3.75347 4.14948 3.95643
# Velocity P-wave (km/s) = 6.19012 6.96545 6.58920
#
# Compressibility (1/GPa) = 0.01949745
#
# Stress axis : x y z
#
# Youngs Moduli (GPa) = 173.49629 77.95607 65.15549
#
# Poissons Ratio (x) = 0.10685 0.14448
# Poissons Ratio (y) = 0.23781 0.23670
# Poissons Ratio (z) = 0.38473 0.28320
#
# Static dielectric constant tensor:
#      x y z
#    x 2.079190 -0.068000 0.280240 
#    y -0.068000 2.561300 -0.166650 
#    z 0.280240 -0.166650 2.666840 
# 
# From -- ./inp_files/117755.got.cif
#   From: 2010.05.17/outbox.cif.g08.bks.cpg/sg2_59_cif.got.tgz:117755.got - 2010.06.03 11:33:40.
