data_PCOD9109873
_publ_section_title
;
Structure prediction by ZEFSAII (Michael W. Deem and Ramdas Pophale) SiO2 
 PCOD9109873
Probable space group: P -1
;
_chemical_formula_sum "Si O2"
_cell_formula_units_Z 14
_cell_length_a 8.799684
_cell_length_b 24.513597
_cell_length_c 9.202133
_cell_angle_alpha 26.544749
_cell_angle_beta 131.735630
_cell_angle_gamma 140.698659
_cell_volume 559.405880
_symmetry_space_group_name_H-M "P -1"
_symmetry_group_IT_number 2
_symmetry_cell_setting 'triclinic'
loop_
_space_group_symop_operation_xyz
x,y,z
-x,-y,-z
loop_
_atom_site_type_symbol
_atom_site_label
_atom_site_fract_x
_atom_site_fract_y
_atom_site_fract_z
Si Si1 0.723578 0.639873 0.625530
Si Si2 0.885561 0.620704 0.476549
Si Si3 0.543909 0.154823 0.707551
Si Si4 0.845951 0.833450 0.749597
Si Si5 0.738290 0.416666 0.604635
Si Si6 0.870738 0.198049 0.260020
Si Si7 0.717839 0.910685 0.992148
O O1 0.803470 0.581226 0.684076
O O2 0.435000 0.548296 0.683328
O O3 0.917891 0.697490 0.739774
O O4 0.715656 0.777256 0.233360
O O5 0.770550 0.484077 0.623508
O O6 0.175794 0.720058 0.414629
O O7 0.803248 0.724190 0.110726
O O8 0.394920 0.193113 0.413483
O O9 0.431649 0.137500 0.837503
O O10 0.500000 0.000000 0.000000
O O11 0.001113 0.810889 0.781263
O O12 0.000000 0.000000 0.500000
O O13 0.000000 0.500000 0.500000
O O14 0.701216 0.258718 0.972770
O O15 0.715597 0.039176 0.606154
O O16 0.000000 0.000000 0.000000
#
# Coordination Sequence:
#
# PCOD9109873 Si02
#       7
#     2   2   2   2   2   2   2
#     4  11  25  47  73  99 146 182 232 299 346 414
#     4  12  27  46  70 107 143 183 239 287 346 419
#     4  12  23  42  72 105 144 180 226 292 356 415
#     4  12  24  42  71 107 138 180 230 289 354 406
#     4  12  27  47  72 104 138 187 244 285 342 426
#     4  11  25  45  72 101 140 189 230 283 366 409
#     4  10  20  41  68 100 134 178 227 283 348 409
#
# _framework density 25.026554000000001
#
# number of rings (size 3 to 8) (size 9 to 14) (size 15 to 20)
#    0.000    0.571    5.714    3.857    0.000    5.143 
#    0.000    0.000    0.000    0.000    0.000    0.000 
#    0.000    0.000    0.000    0.000    0.000    0.000 
#
# Total GULP energy -78359.868273 kJ/mol
# GULP energy per Si atom -5597.133448 kJ/mol
# Density = 2.496959 g / cm^3
# Si number density = 25.026554 Si / 1000 Ang^3
#
#
#
# Elastic Constant Matrix: (Units=GPa)
#
#
# Indices 1 2 3 4 5 6 
#
# 1 112.3219 36.0688 -0.0243 15.0024 5.8469 -12.6821
# 2 36.0688 99.2927 2.9022 30.8638 13.1846 -7.7734
# 3 -0.0243 2.9022 79.7825 1.3394 8.5282 -3.1553
# 4 15.0024 30.8638 1.3394 42.7086 3.4046 13.5626
# 5 5.8469 13.1846 8.5282 3.4046 38.0146 -1.9556
# 6 -12.6821 -7.7734 -3.1553 13.5626 -1.9556 63.8791
#
#
#
# Elastic Compliance Matrix: (Units=1/GPa)
#
#
# Indices 1 2 3 4 5 6 
#
# 1 0.010390 -0.002861 0.000270 -0.002261 -0.000351 0.002197
# 2 -0.002861 0.015236 0.000163 -0.010817 -0.003733 0.003476
# 3 0.000270 0.000163 0.012878 -0.000625 -0.002892 0.000754
# 4 -0.002261 -0.010817 -0.000625 0.034912 0.000640 -0.009189
# 5 -0.000351 -0.003733 -0.002892 0.000640 0.028249 0.000062
# 6 0.002197 0.003476 0.000754 -0.009189 0.000062 0.018504
#
#
# Mechanical properties :
#
#
# Convention : Reuss Voigt Hill
#
# Bulk Modulus (GPa) = 29.72030 41.03227 35.37629
# Shear Modulus (GPa) = 36.69973 45.75050 41.22511
#
# Velocity S-wave (km/s) = 3.83356 4.28024 4.06304
# Velocity P-wave (km/s) = 5.61214 6.39206 6.01475
#
# Compressibility (1/GPa) = 0.03364703
#
# Stress axis : x y z
#
# Youngs Moduli (GPa) = 96.24651 65.63461 77.65371
#
# Poissons Ratio (x) = 0.18777 -0.02093
# Poissons Ratio (y) = 0.27535 -0.01266
# Poissons Ratio (z) = -0.02595 -0.01070
#
# Static dielectric constant tensor:
#      x y z
#    x 1.898240 -0.029740 0.001340 
#    y -0.029740 1.342110 0.139370 
#    z 0.001340 0.139370 2.031020 
# 
# From -- ./inp_files/225898.got.cif
#   From: 2010.05.17/outbox.cif.g08.bks.cpg/sg2_113_cif.got.tgz:225898.got - 2010.06.03 11:33:40.
