data_PCOD9109925
_publ_section_title
;
Structure prediction by ZEFSAII (Michael W. Deem and Ramdas Pophale) SiO2 
 PCOD9109925
Probable space group: P -1
;
_chemical_formula_sum "Si O2"
_cell_formula_units_Z 14
_cell_length_a 7.298786
_cell_length_b 21.838859
_cell_length_c 9.312960
_cell_angle_alpha 152.534723
_cell_angle_beta 128.921305
_cell_angle_gamma 49.490116
_cell_volume 514.804225
_symmetry_space_group_name_H-M "P -1"
_symmetry_group_IT_number 2
_symmetry_cell_setting 'triclinic'
loop_
_space_group_symop_operation_xyz
x,y,z
-x,-y,-z
loop_
_atom_site_type_symbol
_atom_site_label
_atom_site_fract_x
_atom_site_fract_y
_atom_site_fract_z
Si Si1 0.537822 0.879696 0.156446
Si Si2 0.025802 0.228795 0.477385
Si Si3 0.000710 0.317053 0.061829
Si Si4 0.318216 0.631665 0.611326
Si Si5 0.765772 0.051357 0.143873
Si Si6 0.842744 0.571577 0.367833
Si Si7 0.489661 0.740832 0.323776
O O1 0.824485 0.831990 0.169533
O O2 0.500000 0.000000 0.500000
O O3 0.442037 0.757592 0.928541
O O4 0.406069 0.918872 0.020322
O O5 0.285736 0.263364 0.680194
O O6 0.799466 0.355242 0.582364
O O7 0.949053 0.146531 0.398771
O O8 0.085632 0.107213 0.128016
O O9 0.732957 0.306473 0.952225
O O10 0.945471 0.408531 0.080555
O O11 0.177284 0.389779 0.393754
O O12 0.500000 0.500000 0.500000
O O13 0.059034 0.639882 0.575876
O O14 0.619870 0.113666 0.344981
O O15 0.612278 0.636853 0.295364
#
# Coordination Sequence:
#
# PCOD9109925 Si02
#       7
#     2   2   2   2   2   2   2
#     4  11  24  41  66 100 132 173 224 272 333 395
#     4   9  22  37  63  94 127 177 217 264 330 397
#     4  11  23  39  67  94 130 175 216 271 335 394
#     4  10  20  41  68  92 130 176 220 275 329 390
#     4  10  21  43  65  88 140 179 208 276 337 387
#     4  10  22  44  63  93 133 173 218 274 332 389
#     4  11  22  40  65  97 128 171 222 273 329 396
#
# _framework density 27.194804999999999
#
# number of rings (size 3 to 8) (size 9 to 14) (size 15 to 20)
#    0.000    1.714    2.857    0.857    6.000    1.143 
#    0.000    1.429    0.000    6.000    0.000    0.000 
#    0.000    0.000    0.000    0.000    0.000    0.000 
#
# Total GULP energy -78275.642228 kJ/mol
# GULP energy per Si atom -5591.117302 kJ/mol
# Density = 2.713291 g / cm^3
# Si number density = 27.194805 Si / 1000 Ang^3
#
#
#
# Elastic Constant Matrix: (Units=GPa)
#
#
# Indices 1 2 3 4 5 6 
#
# 1 92.6830 31.5733 28.5448 -1.3368 33.4136 -23.0489
# 2 31.5733 167.1524 45.7452 -1.1655 13.9504 -26.8306
# 3 28.5448 45.7452 101.4398 -5.7640 12.9626 -1.7011
# 4 -1.3368 -1.1655 -5.7640 51.4093 1.9809 5.6582
# 5 33.4136 13.9504 12.9626 1.9809 51.2434 -0.3816
# 6 -23.0489 -26.8306 -1.7011 5.6582 -0.3816 43.2576
#
#
#
# Elastic Compliance Matrix: (Units=1/GPa)
#
#
# Indices 1 2 3 4 5 6 
#
# 1 0.018164 -0.000023 -0.003588 -0.000559 -0.010838 0.009500
# 2 -0.000023 0.007744 -0.003291 -0.000669 -0.001199 0.004738
# 3 -0.003588 -0.003291 0.012381 0.001625 0.000014 -0.003679
# 4 -0.000559 -0.000669 0.001625 0.019989 -0.000662 -0.003269
# 5 -0.010838 -0.001199 0.000014 -0.000662 0.026884 -0.006194
# 6 0.009500 0.004738 -0.003679 -0.003269 -0.006194 0.031346
#
#
# Mechanical properties :
#
#
# Convention : Reuss Voigt Hill
#
# Bulk Modulus (GPa) = 40.84394 63.66686 52.25540
# Shear Modulus (GPa) = 36.10777 46.20953 41.15865
#
# Velocity S-wave (km/s) = 3.64778 4.12661 3.89456
# Velocity P-wave (km/s) = 5.72655 6.79466 6.28334
#
# Compressibility (1/GPa) = 0.02448343
#
# Stress axis : x y z
#
# Youngs Moduli (GPa) = 55.05324 129.14024 80.77117
#
# Poissons Ratio (x) = 0.00303 0.28983
# Poissons Ratio (y) = 0.00129 0.26580
# Poissons Ratio (z) = 0.19755 0.42497
#
# Static dielectric constant tensor:
#      x y z
#    x 2.225130 0.044090 -0.078010 
#    y 0.044090 2.127790 0.007850 
#    z -0.078010 0.007850 2.244210 
# 
# From -- ./inp_files/285123.got.cif
#   From: 2010.05.17/outbox.cif.g08.bks.cpg/sg2_143_cif.got.tgz:285123.got - 2010.06.03 11:33:40.
