data_PCOD9109113
_publ_section_title
;
Structure prediction by ZEFSAII (Michael W. Deem and Ramdas Pophale) SiO2 
 PCOD9109113
Probable space group: P -1
;
_chemical_formula_sum "Si O2"
_cell_formula_units_Z 16
_cell_length_a 19.089987
_cell_length_b 6.516031
_cell_length_c 13.588991
_cell_angle_alpha 87.236667
_cell_angle_beta 131.199528
_cell_angle_gamma 52.137733
_cell_volume 650.560448
_symmetry_space_group_name_H-M "P -1"
_symmetry_group_IT_number 2
_symmetry_cell_setting 'triclinic'
loop_
_space_group_symop_operation_xyz
x,y,z
-x,-y,-z
loop_
_atom_site_type_symbol
_atom_site_label
_atom_site_fract_x
_atom_site_fract_y
_atom_site_fract_z
Si Si1 0.172639 0.296207 0.039163
Si Si2 0.146834 0.731144 0.825927
Si Si3 0.216878 0.869580 0.252328
Si Si4 0.664697 0.599184 0.795481
Si Si5 0.602128 0.249698 0.400036
Si Si6 0.212407 0.929616 0.718850
Si Si7 0.564937 0.166037 0.945205
Si Si8 0.959646 0.684628 0.649477
O O1 0.126448 0.317926 0.884692
O O2 0.329571 0.167087 0.193959
O O3 0.984299 0.752139 0.896057
O O4 0.213169 0.031780 0.152903
O O5 0.126926 0.942892 0.721305
O O6 0.973605 0.908201 0.668153
O O7 0.192316 0.726090 0.976979
O O8 0.320910 0.256596 0.965105
O O9 0.278017 0.549864 0.260767
O O10 0.351411 0.707245 0.460938
O O11 0.492548 0.784676 0.658611
O O12 0.495802 0.582410 0.211424
O O13 0.799457 0.853919 0.543274
O O14 0.375755 0.497607 0.822599
O O15 0.076322 0.260162 0.500111
O O16 0.310278 0.930608 0.866095
#
# Coordination Sequence:
#
# PCOD9109113 Si02
#       8
#     2   2   2   2   2   2   2   2
#     4   9  21  40  62  90 120 155 202 245 292 356
#     4  11  22  38  63  90 119 157 203 243 292 361
#     4  10  21  41  63  85 124 160 195 247 299 349
#     4  11  22  36  62  87 121 156 200 241 298 350
#     4  10  21  41  59  88 124 161 191 248 298 345
#     4  10  20  41  63  86 121 159 195 244 305 349
#     4  10  22  39  63  89 123 154 196 250 297 352
#     4   9  21  38  62  86 124 154 195 248 296 346
#
# _framework density 24.594176999999998
#
# number of rings (size 3 to 8) (size 9 to 14) (size 15 to 20)
#    0.000    2.000    1.250    1.500    3.500    1.000 
#    2.250    2.500   13.750    0.000    0.000    0.000 
#    0.000    0.000    0.000    0.000    0.000    0.000 
#
# Total GULP energy -89366.821647 kJ/mol
# GULP energy per Si atom -5585.426353 kJ/mol
# Density = 2.453820 g / cm^3
# Si number density = 24.594177 Si / 1000 Ang^3
#
#
#
# Elastic Constant Matrix: (Units=GPa)
#
#
# Indices 1 2 3 4 5 6 
#
# 1 99.0811 7.9692 33.4915 5.3054 -7.3064 4.1479
# 2 7.9692 53.3051 25.3508 18.5828 -0.0443 -2.8282
# 3 33.4915 25.3508 129.0553 33.5815 -10.7884 -2.6984
# 4 5.3054 18.5828 33.5815 44.4842 -7.6795 -4.6399
# 5 -7.3064 -0.0443 -10.7884 -7.6795 63.7146 6.6869
# 6 4.1479 -2.8282 -2.6984 -4.6399 6.6869 29.2720
#
#
#
# Elastic Compliance Matrix: (Units=1/GPa)
#
#
# Indices 1 2 3 4 5 6 
#
# 1 0.011288 -0.000786 -0.003053 0.001274 0.001142 -0.002016
# 2 -0.000786 0.022771 -0.002346 -0.007786 -0.001537 0.001212
# 3 -0.003053 -0.002346 0.010800 -0.006694 0.000671 -0.000013
# 4 0.001274 -0.007786 -0.006694 0.031361 0.002488 0.002853
# 5 0.001142 -0.001537 0.000671 0.002488 0.016622 -0.003651
# 6 -0.002016 0.001212 -0.000013 0.002853 -0.003651 0.035850
#
#
# Mechanical properties :
#
#
# Convention : Reuss Voigt Hill
#
# Bulk Modulus (GPa) = 30.78014 46.11829 38.44921
# Shear Modulus (GPa) = 32.91841 41.80282 37.36061
#
# Velocity S-wave (km/s) = 3.66247 4.12722 3.90177
# Velocity P-wave (km/s) = 5.51610 6.44239 5.99715
#
# Compressibility (1/GPa) = 0.03248848
#
# Stress axis : x y z
#
# Youngs Moduli (GPa) = 88.58645 43.91630 92.59687
#
# Poissons Ratio (x) = 0.03450 0.28272
# Poissons Ratio (y) = 0.06959 0.21724
# Poissons Ratio (z) = 0.27048 0.10303
#
# Static dielectric constant tensor:
#      x y z
#    x 1.968880 -0.071770 0.036150 
#    y -0.071770 2.002060 -0.053190 
#    z 0.036150 -0.053190 1.922250 
# 
# From -- ./inp_files/128400.got.cif
#   From: 2010.05.17/outbox.cif.g08.bks.cpg/sg2_65_cif.got.tgz:128400.got - 2010.06.03 11:33:40.
