data_PCOD9109837
_publ_section_title
;
Structure prediction by ZEFSAII (Michael W. Deem and Ramdas Pophale) SiO2 
 PCOD9109837
Probable space group: P -1
;
_chemical_formula_sum "Si O2"
_cell_formula_units_Z 16
_cell_length_a 10.135966
_cell_length_b 7.289313
_cell_length_c 11.168793
_cell_angle_alpha 69.616473
_cell_angle_beta 79.867139
_cell_angle_gamma 58.164132
_cell_volume 657.126954
_symmetry_space_group_name_H-M "P -1"
_symmetry_group_IT_number 2
_symmetry_cell_setting 'triclinic'
loop_
_space_group_symop_operation_xyz
x,y,z
-x,-y,-z
loop_
_atom_site_type_symbol
_atom_site_label
_atom_site_fract_x
_atom_site_fract_y
_atom_site_fract_z
Si Si1 0.427557 0.253203 0.404322
Si Si2 0.800705 0.493939 0.001260
Si Si3 0.529687 0.469646 0.179201
Si Si4 0.929059 0.555509 0.629587
Si Si5 0.189413 0.867019 0.070295
Si Si6 0.803737 0.893043 0.759474
Si Si7 0.457242 0.285027 0.655014
Si Si8 0.184123 0.255319 0.829215
O O1 0.519454 0.252902 0.270753
O O2 0.248496 0.378566 0.366893
O O3 0.426915 0.367341 0.505095
O O4 0.500000 0.000000 0.500000
O O5 0.644940 0.493205 0.065976
O O6 0.858491 0.552829 0.102617
O O7 0.886021 0.254254 0.969298
O O8 0.780140 0.699109 0.873643
O O9 0.571764 0.523693 0.289417
O O10 0.356593 0.660050 0.130541
O O11 0.914547 0.770801 0.656137
O O12 0.000000 0.500000 0.500000
O O13 0.042258 0.342923 0.740663
O O14 0.131195 0.003151 0.175007
O O15 0.221078 0.027409 0.942263
O O16 0.634527 0.084561 0.695600
O O17 0.329914 0.224039 0.736996
#
# Coordination Sequence:
#
# PCOD9109837 Si02
#       8
#     2   2   2   2   2   2   2   2
#     4  12  24  40  70  96 129 180 228 275 331 393
#     4  10  21  40  70 103 140 170 218 283 335 397
#     4  10  22  38  66 106 133 166 226 282 335 392
#     4  12  25  44  68  96 137 182 227 271 327 404
#     4  10  21  38  68  97 136 173 212 276 334 395
#     4  10  22  42  67 104 132 174 227 272 332 398
#     4  10  20  41  67  96 137 171 223 276 331 393
#     4  10  23  42  68 102 137 178 219 268 341 402
#
# _framework density 24.348414999999999
#
# number of rings (size 3 to 8) (size 9 to 14) (size 15 to 20)
#    0.000    1.500    2.500    2.250    1.750    5.000 
#    0.000    6.875    0.000    9.000    0.000    0.000 
#    0.000    0.000    0.000    0.000    0.000    0.000 
#
# Total GULP energy -89331.173579 kJ/mol
# GULP energy per Si atom -5583.198349 kJ/mol
# Density = 2.429300 g / cm^3
# Si number density = 24.348415 Si / 1000 Ang^3
#
#
#
# Elastic Constant Matrix: (Units=GPa)
#
#
# Indices 1 2 3 4 5 6 
#
# 1 85.9777 29.3795 54.2875 -5.5066 21.4736 10.3667
# 2 29.3795 96.0512 44.7123 17.1451 0.4024 24.8547
# 3 54.2875 44.7123 111.1200 15.3809 9.1182 5.9929
# 4 -5.5066 17.1451 15.3809 51.1149 3.3473 10.2627
# 5 21.4736 0.4024 9.1182 3.3473 53.1884 11.3420
# 6 10.3667 24.8547 5.9929 10.2627 11.3420 40.0114
#
#
#
# Elastic Compliance Matrix: (Units=1/GPa)
#
#
# Indices 1 2 3 4 5 6 
#
# 1 0.020858 -0.002621 -0.009410 0.006843 -0.006748 -0.002209
# 2 -0.002621 0.016221 -0.004693 -0.002739 0.003849 -0.009083
# 3 -0.009410 -0.004693 0.015923 -0.005094 0.000547 0.004120
# 4 0.006843 -0.002739 -0.005094 0.023863 -0.002355 -0.004761
# 5 -0.006748 0.003849 0.000547 -0.002355 0.022965 -0.006630
# 6 -0.002209 -0.009083 0.004120 -0.004761 -0.006630 0.033691
#
#
# Mechanical properties :
#
#
# Convention : Reuss Voigt Hill
#
# Bulk Modulus (GPa) = 51.14235 61.10084 56.12160
# Shear Modulus (GPa) = 28.82083 39.84757 34.33420
#
# Velocity S-wave (km/s) = 3.44420 4.04983 3.75923
# Velocity P-wave (km/s) = 6.07180 6.85689 6.47625
#
# Compressibility (1/GPa) = 0.01955327
#
# Stress axis : x y z
#
# Youngs Moduli (GPa) = 47.94335 61.64979 62.80296
#
# Poissons Ratio (x) = 0.16160 0.59096
# Poissons Ratio (y) = 0.12567 0.29474
# Poissons Ratio (z) = 0.45114 0.28933
#
# Static dielectric constant tensor:
#      x y z
#    x 2.088490 0.129370 -0.057520 
#    y 0.129370 2.079410 0.036240 
#    z -0.057520 0.036240 1.964490 
# 
# From -- ./inp_files/225416.got.cif
#   From: 2010.05.17/outbox.cif.g08.bks.cpg/sg2_113_cif.got.tgz:225416.got - 2010.06.03 11:33:40.
