data_PCOD9109915
_publ_section_title
;
Structure prediction by ZEFSAII (Michael W. Deem and Ramdas Pophale) SiO2 
 PCOD9109915
Probable space group: P -1
;
_chemical_formula_sum "Si O2"
_cell_formula_units_Z 12
_cell_length_a 9.342477
_cell_length_b 11.447625
_cell_length_c 9.305718
_cell_angle_alpha 127.396232
_cell_angle_beta 131.918255
_cell_angle_gamma 82.239151
_cell_volume 523.031062
_symmetry_space_group_name_H-M "P -1"
_symmetry_group_IT_number 2
_symmetry_cell_setting 'triclinic'
loop_
_space_group_symop_operation_xyz
x,y,z
-x,-y,-z
loop_
_atom_site_type_symbol
_atom_site_label
_atom_site_fract_x
_atom_site_fract_y
_atom_site_fract_z
Si Si1 0.325441 0.168293 0.395354
Si Si2 0.694676 0.671234 0.214648
Si Si3 0.149218 0.146088 0.819073
Si Si4 0.465807 0.666685 0.602392
Si Si5 0.980323 0.463196 0.627605
Si Si6 0.929712 0.190627 0.978796
O O1 0.320519 0.205934 0.587806
O O2 0.533444 0.281953 0.525170
O O3 0.260387 0.974995 0.207033
O O4 0.137308 0.206457 0.225165
O O5 0.695990 0.712694 0.081127
O O6 0.913542 0.656474 0.366892
O O7 0.500000 0.500000 0.000000
O O8 0.989228 0.173760 0.841223
O O9 0.337252 0.165501 0.072716
O O10 0.000000 0.000000 0.500000
O O11 0.500000 0.500000 0.500000
O O12 0.252802 0.617814 0.515426
O O13 0.000000 0.500000 0.500000
O O14 0.102526 0.647682 0.911591
#
# Coordination Sequence:
#
# PCOD9109915 Si02
#       6
#     2   2   2   2   2   2
#     4  10  20  41  68  91 127 176 217 260 326 396
#     4  12  25  41  67  98 130 169 222 276 331 376
#     4  11  22  41  66  97 136 170 211 273 335 377
#     4  11  21  42  69  96 127 176 221 263 322 395
#     4  12  23  42  69  96 128 172 229 266 314 401
#     4  10  21  40  67  91 131 176 215 262 326 392
#
# _framework density 22.943187999999999
#
# number of rings (size 3 to 8) (size 9 to 14) (size 15 to 20)
#    0.000    1.000    6.667    2.000    0.000    0.667 
#    0.000    5.833    0.000    0.000    0.000    0.000 
#    0.000    0.000    0.000    0.000    0.000    0.000 
#
# Total GULP energy -66928.399579 kJ/mol
# GULP energy per Si atom -5577.366632 kJ/mol
# Density = 2.289097 g / cm^3
# Si number density = 22.943188 Si / 1000 Ang^3
#
#
#
# Elastic Constant Matrix: (Units=GPa)
#
#
# Indices 1 2 3 4 5 6 
#
# 1 153.0234 30.6454 24.8814 3.5044 -2.3156 37.0665
# 2 30.6454 33.9395 5.8477 2.7560 -2.2621 35.9215
# 3 24.8814 5.8477 79.8528 13.5316 -15.3077 -0.6661
# 4 3.5044 2.7560 13.5316 35.8508 13.1917 5.1014
# 5 -2.3156 -2.2621 -15.3077 13.1917 37.4135 -6.7212
# 6 37.0665 35.9215 -0.6661 5.1014 -6.7212 41.8958
#
#
#
# Elastic Compliance Matrix: (Units=1/GPa)
#
#
# Indices 1 2 3 4 5 6 
#
# 1 0.016366 0.115560 -0.026556 0.030231 -0.035691 -0.123390
# 2 0.115560 1.922476 -0.367712 0.441698 -0.523068 -1.894118
# 3 -0.026556 -0.367712 0.088971 -0.097064 0.113250 0.370174
# 4 0.030231 0.441698 -0.097064 0.143553 -0.142104 -0.447279
# 5 -0.035691 -0.523068 0.113250 -0.142104 0.184318 0.528730
# 6 -0.123390 -1.894118 0.370174 -0.447279 0.528730 1.902226
#
#
# Mechanical properties :
#
#
# Convention : Reuss Voigt Hill
#
# Bulk Modulus (GPa) = 0.68009 43.28498 21.98253
# Shear Modulus (GPa) = 0.94243 36.72810 18.83526
#
# Velocity S-wave (km/s) = 0.64160 4.00538 2.86833
# Velocity P-wave (km/s) = 0.91975 6.34806 4.53562
#
# Compressibility (1/GPa) = 1.47039820
#
# Stress axis : x y z
#
# Youngs Moduli (GPa) = 61.10097 0.52016 11.23957
#
# Poissons Ratio (x) = -0.06011 0.29848
# Poissons Ratio (y) = -7.06084 4.13293
# Poissons Ratio (z) = 1.62261 0.19127
#
# Static dielectric constant tensor:
#      x y z
#    x 1.933790 0.168230 -0.080330 
#    y 0.168230 1.963900 0.027790 
#    z -0.080330 0.027790 1.944970 
# 
# From -- ./inp_files/148874.got.cif
#   From: 2010.05.17/outbox.cif.g08.bks.cpg/sg2_75_cif.got.tgz:148874.got - 2010.06.03 11:33:40.
