data_PCOD9109216
_publ_section_title
;
Structure prediction by ZEFSAII (Michael W. Deem and Ramdas Pophale) SiO2 
 PCOD9109216
Probable space group: P -1
;
_chemical_formula_sum "Si O2"
_cell_formula_units_Z 16
_cell_length_a 14.208991
_cell_length_b 9.715304
_cell_length_c 10.124088
_cell_angle_alpha 114.222281
_cell_angle_beta 69.937597
_cell_angle_gamma 131.527057
_cell_volume 948.991645
_symmetry_space_group_name_H-M "P -1"
_symmetry_group_IT_number 2
_symmetry_cell_setting 'triclinic'
loop_
_space_group_symop_operation_xyz
x,y,z
-x,-y,-z
loop_
_atom_site_type_symbol
_atom_site_label
_atom_site_fract_x
_atom_site_fract_y
_atom_site_fract_z
Si Si1 0.774224 0.597425 0.653006
Si Si2 0.505775 0.378220 0.062387
Si Si3 0.015247 0.655006 0.455690
Si Si4 0.699710 0.994589 0.573697
Si Si5 0.305281 0.685408 0.180127
Si Si6 0.087089 0.648682 0.125834
Si Si7 0.504230 0.590782 0.394664
Si Si8 0.246390 0.079291 0.192176
O O1 0.757231 0.477227 0.742101
O O2 0.636213 0.476692 0.601056
O O3 0.801761 0.795912 0.752816
O O4 0.893726 0.647473 0.534234
O O5 0.541195 0.504905 0.228043
O O6 0.369402 0.182087 0.082566
O O7 0.500000 0.500000 0.000000
O O8 0.593232 0.323942 0.947089
O O9 0.018307 0.609909 0.283544
O O10 0.000000 0.500000 0.500000
O O11 0.155867 0.854689 0.488679
O O12 0.604739 0.818812 0.454513
O O13 0.711508 0.911669 0.672444
O O14 0.654117 0.121226 0.689098
O O15 0.204262 0.649714 0.107969
O O16 0.143126 0.857959 0.130581
O O17 0.000000 0.500000 0.000000
O O18 0.500000 0.500000 0.500000
#
# Coordination Sequence:
#
# PCOD9109216 Si02
#       8
#     2   2   2   2   2   2   2   2
#     4  11  19  39  66  86 119 162 200 243 310 354
#     4  11  20  39  62  88 122 163 193 243 314 358
#     4  10  20  41  64  84 121 163 196 245 312 355
#     4  10  21  40  62  92 123 156 204 260 294 356
#     4  10  21  39  64  85 124 162 195 244 316 354
#     4  10  23  42  58  88 124 151 203 255 288 359
#     4  11  22  40  61  94 127 148 211 263 285 358
#     4   9  20  39  62  82 125 155 193 243 312 350
#
# _framework density 16.859999999999999
#
# number of rings (size 3 to 8) (size 9 to 14) (size 15 to 20)
#    0.000    2.000    7.500    0.000    0.000    5.500 
#    6.750    0.625    0.000    0.000    0.000    0.000 
#    0.000    0.000    0.000    0.000    0.000    0.000 
#
# Total GULP energy -89123.881286 kJ/mol
# GULP energy per Si atom -5570.242580 kJ/mol
# Density = 1.682163 g / cm^3
# Si number density = 16.860000 Si / 1000 Ang^3
#
#
#
# Elastic Constant Matrix: (Units=GPa)
#
#
# Indices 1 2 3 4 5 6 
#
# 1 59.8373 32.0438 31.7673 17.1941 -25.5247 8.8598
# 2 32.0438 129.0875 59.4916 10.6344 6.3277 5.3888
# 3 31.7673 59.4916 97.3126 11.7227 -18.2493 16.0647
# 4 17.1941 10.6344 11.7227 38.3571 4.9869 2.6346
# 5 -25.5247 6.3277 -18.2493 4.9869 42.5868 -2.7493
# 6 8.8598 5.3888 16.0647 2.6346 -2.7493 34.9196
#
#
#
# Elastic Compliance Matrix: (Units=1/GPa)
#
#
# Indices 1 2 3 4 5 6 
#
# 1 0.038979 -0.010047 0.001684 -0.018377 0.027369 -0.005573
# 2 -0.010047 0.014457 -0.008943 0.004620 -0.012342 0.003112
# 3 0.001684 -0.008943 0.018850 -0.004964 0.010577 -0.006512
# 4 -0.018377 0.004620 -0.004964 0.036745 -0.017999 0.002044
# 5 0.027369 -0.012342 0.010577 -0.017999 0.048051 -0.004764
# 6 -0.005573 0.003112 -0.006512 0.002044 -0.004764 0.032037
#
#
# Mechanical properties :
#
#
# Convention : Reuss Voigt Hill
#
# Bulk Modulus (GPa) = 26.54368 59.20474 42.87421
# Shear Modulus (GPa) = 21.16053 34.03501 27.59777
#
# Velocity S-wave (km/s) = 3.54654 4.49785 4.05022
# Velocity P-wave (km/s) = 5.70512 7.88454 6.88165
#
# Compressibility (1/GPa) = 0.03767375
#
# Stress axis : x y z
#
# Youngs Moduli (GPa) = 25.65499 69.17226 53.04985
#
# Poissons Ratio (x) = 0.69497 -0.08933
# Poissons Ratio (y) = 0.25775 0.47443
# Poissons Ratio (z) = -0.04320 0.61861
#
# Static dielectric constant tensor:
#      x y z
#    x 1.606650 0.015100 -0.044020 
#    y 0.015100 1.588480 -0.002260 
#    z -0.044020 -0.002260 1.597100 
# 
# From -- ./inp_files/296052.got.cif
#   From: 2010.05.17/outbox.cif.g08.bks.cpg/sg2_149_cif.got.tgz:296052.got - 2010.06.03 11:33:40.
