data_PCOD9109966
_publ_section_title
;
Structure prediction by ZEFSAII (Michael W. Deem and Ramdas Pophale) SiO2 
 PCOD9109966
Probable space group: P -1
;
_chemical_formula_sum "Si O2"
_cell_formula_units_Z 16
_cell_length_a 9.999650
_cell_length_b 22.510542
_cell_length_c 19.072892
_cell_angle_alpha 18.983962
_cell_angle_beta 34.782903
_cell_angle_gamma 34.309288
_cell_volume 768.024514
_symmetry_space_group_name_H-M "P -1"
_symmetry_group_IT_number 2
_symmetry_cell_setting 'triclinic'
loop_
_space_group_symop_operation_xyz
x,y,z
-x,-y,-z
loop_
_atom_site_type_symbol
_atom_site_label
_atom_site_fract_x
_atom_site_fract_y
_atom_site_fract_z
Si Si1 0.404542 0.725038 0.779828
Si Si2 0.441626 0.761646 0.461320
Si Si3 0.078798 0.115850 0.273858
Si Si4 0.742031 0.684408 0.559745
Si Si5 0.170603 0.823943 0.165859
Si Si6 0.752454 0.243485 0.037339
Si Si7 0.434818 0.346708 0.924390
Si Si8 0.305125 0.072554 0.942390
O O1 0.605449 0.777174 0.585323
O O2 0.159020 0.765414 0.795502
O O3 0.500000 0.500000 0.000000
O O4 0.341340 0.815770 0.782251
O O5 0.583502 0.766199 0.468119
O O6 0.346111 0.574141 0.715013
O O7 0.622233 0.762630 0.317607
O O8 0.231988 0.956338 0.333207
O O9 0.237284 0.247445 0.090653
O O10 0.000000 0.000000 0.500000
O O11 0.764739 0.461154 0.798708
O O12 0.000125 0.722224 0.394801
O O13 0.343539 0.694010 0.180551
O O14 0.324000 0.907450 0.061791
O O15 0.000000 0.000000 0.000000
O O16 0.557283 0.254571 0.046996
O O17 0.025920 0.130619 0.024114
O O18 0.500000 0.000000 0.000000
#
# Coordination Sequence:
#
# PCOD9109966 Si02
#       8
#     2   2   2   2   2   2   2   2
#     4  10  23  45  69  96 145 184 218 287 345 402
#     4  11  22  43  69 100 135 176 229 287 336 406
#     4  12  24  44  73  98 139 179 231 285 330 412
#     4  10  20  41  68  96 126 182 230 270 340 403
#     4  12  21  40  71  93 132 177 226 283 334 409
#     4  10  22  41  66  97 137 175 223 286 335 408
#     4  11  24  43  73 105 130 180 237 278 349 407
#     4  12  24  40  63  98 143 172 225 288 348 398
#
# _framework density 20.832668000000002
#
# number of rings (size 3 to 8) (size 9 to 14) (size 15 to 20)
#    0.000    1.000    5.000    1.500    0.000    2.500 
#    4.500    3.750    0.000    0.000    0.000    0.000 
#    0.000    0.000    0.000    0.000    0.000    0.000 
#
# Total GULP energy -89445.016980 kJ/mol
# GULP energy per Si atom -5590.313561 kJ/mol
# Density = 2.078525 g / cm^3
# Si number density = 20.832668 Si / 1000 Ang^3
#
#
#
# Elastic Constant Matrix: (Units=GPa)
#
#
# Indices 1 2 3 4 5 6 
#
# 1 133.1592 41.2901 43.5780 5.8525 9.4078 5.1197
# 2 41.2901 95.3509 28.3546 18.5229 7.5088 8.3697
# 3 43.5780 28.3546 82.5480 15.6929 -3.3671 0.3785
# 4 5.8525 18.5229 15.6929 41.3420 4.1381 10.2195
# 5 9.4078 7.5088 -3.3671 4.1381 31.7695 4.8887
# 6 5.1197 8.3697 0.3785 10.2195 4.8887 33.3479
#
#
#
# Elastic Compliance Matrix: (Units=1/GPa)
#
#
# Indices 1 2 3 4 5 6 
#
# 1 0.010218 -0.003104 -0.004891 0.002349 -0.002959 -0.001020
# 2 -0.003104 0.013600 -0.002286 -0.004277 -0.001774 -0.001340
# 3 -0.004891 -0.002286 0.016703 -0.005593 0.004142 0.002242
# 4 0.002349 -0.004277 -0.005593 0.030179 -0.002972 -0.008036
# 5 -0.002959 -0.001774 0.004142 -0.002972 0.034096 -0.003235
# 6 -0.001020 -0.001340 0.002242 -0.008036 -0.003235 0.033391
#
#
# Mechanical properties :
#
#
# Convention : Reuss Voigt Hill
#
# Bulk Modulus (GPa) = 50.10085 59.72262 54.91173
# Shear Modulus (GPa) = 30.22948 34.48090 32.35519
#
# Velocity S-wave (km/s) = 3.81341 4.07275 3.94521
# Velocity P-wave (km/s) = 6.59476 7.13067 6.86794
#
# Compressibility (1/GPa) = 0.01995974
#
# Stress axis : x y z
#
# Youngs Moduli (GPa) = 97.86770 73.53085 59.86980
#
# Poissons Ratio (x) = 0.22825 0.29279
# Poissons Ratio (y) = 0.30379 0.13685
# Poissons Ratio (z) = 0.47862 0.16807
#
# Static dielectric constant tensor:
#      x y z
#    x 1.609830 0.019240 -0.038440 
#    y 0.019240 1.796840 0.021460 
#    z -0.038440 0.021460 1.766300 
# 
# From -- ./inp_files/279622.got.cif
#   From: 2010.05.17/outbox.cif.g08.bks.cpg/sg2_140_cif.got.tgz:279622.got - 2010.06.03 11:33:40.
