data_PCOD9109877
_publ_section_title
;
Structure prediction by ZEFSAII (Michael W. Deem and Ramdas Pophale) SiO2 
 PCOD9109877
Probable space group: P -1
;
_chemical_formula_sum "Si O2"
_cell_formula_units_Z 16
_cell_length_a 12.450712
_cell_length_b 8.967737
_cell_length_c 9.344877
_cell_angle_alpha 131.696266
_cell_angle_beta 100.137867
_cell_angle_gamma 100.901646
_cell_volume 697.204009
_symmetry_space_group_name_H-M "P -1"
_symmetry_group_IT_number 2
_symmetry_cell_setting 'triclinic'
loop_
_space_group_symop_operation_xyz
x,y,z
-x,-y,-z
loop_
_atom_site_type_symbol
_atom_site_label
_atom_site_fract_x
_atom_site_fract_y
_atom_site_fract_z
Si Si1 0.797199 0.643273 0.933975
Si Si2 0.373832 0.284803 0.827887
Si Si3 0.629360 0.624011 0.674924
Si Si4 0.965043 0.775446 0.438953
Si Si5 0.227699 0.116606 0.396821
Si Si6 0.608194 0.977711 0.091663
Si Si7 0.131376 0.849843 0.780596
Si Si8 0.049072 0.656055 0.944862
O O1 0.702050 0.506843 0.700311
O O2 0.725730 0.655351 0.070015
O O3 0.913838 0.593790 0.925761
O O4 0.849645 0.896603 0.052715
O O5 0.319704 0.194232 0.601162
O O6 0.394382 0.085789 0.783944
O O7 0.500000 0.500000 0.000000
O O8 0.500000 0.500000 0.500000
O O9 0.706400 0.785573 0.672532
O O10 0.605802 0.757121 0.882322
O O11 0.863591 0.774094 0.521373
O O12 0.069560 0.772671 0.564102
O O13 0.926118 0.559827 0.197838
O O14 0.000000 0.000000 0.500000
O O15 0.146185 0.856756 0.187712
O O16 0.739058 0.159633 0.196961
O O17 0.500000 0.000000 0.000000
O O18 0.061887 0.740038 0.836821
#
# Coordination Sequence:
#
# PCOD9109877 Si02
#       8
#     2   2   2   2   2   2   2   2
#     4  10  20  41  68 100 144 187 236 294 348 431
#     4  10  23  44  70 102 146 190 229 294 360 416
#     4  10  21  40  69 100 140 183 235 295 352 409
#     4  12  27  44  67 106 151 187 229 300 368 427
#     4  12  23  45  72 102 147 184 237 297 358 430
#     4  10  22  42  69  95 136 181 235 290 340 421
#     4  10  20  44  67 101 143 180 237 295 350 423
#     4  12  24  42  76 104 137 193 244 287 367 431
#
# _framework density 22.948806999999999
#
# number of rings (size 3 to 8) (size 9 to 14) (size 15 to 20)
#    0.000    1.500    3.750    4.500    0.000    3.500 
#    0.000    0.625    5.500    0.000    0.000    0.000 
#    0.000    0.000    0.000    0.000    0.000    0.000 
#
# Total GULP energy -89302.777545 kJ/mol
# GULP energy per Si atom -5581.423597 kJ/mol
# Density = 2.289657 g / cm^3
# Si number density = 22.948807 Si / 1000 Ang^3
#
#
#
# Elastic Constant Matrix: (Units=GPa)
#
#
# Indices 1 2 3 4 5 6 
#
# 1 81.9327 27.7142 30.9987 19.9552 3.7710 -0.6644
# 2 27.7142 76.9988 30.8385 -1.8911 -12.1967 10.6510
# 3 30.9987 30.8385 161.2180 0.9188 18.8123 -2.0188
# 4 19.9552 -1.8911 0.9188 41.5834 -1.6683 -1.7636
# 5 3.7710 -12.1967 18.8123 -1.6683 33.6295 7.9812
# 6 -0.6644 10.6510 -2.0188 -1.7636 7.9812 22.5209
#
#
#
# Elastic Compliance Matrix: (Units=1/GPa)
#
#
# Indices 1 2 3 4 5 6 
#
# 1 0.017774 -0.007916 -0.001079 -0.008870 -0.006033 0.005615
# 2 -0.007916 0.022844 -0.004976 0.004883 0.016195 -0.016841
# 3 -0.001079 -0.004976 0.008336 0.000044 -0.007723 0.005809
# 4 -0.008870 0.004883 0.000044 0.028628 0.004628 -0.001965
# 5 -0.006033 0.016195 -0.007723 0.004628 0.046702 -0.024718
# 6 0.005615 -0.016841 0.005809 -0.001965 -0.024718 0.061660
#
#
# Mechanical properties :
#
#
# Convention : Reuss Voigt Hill
#
# Bulk Modulus (GPa) = 47.58937 55.47247 51.53092
# Shear Modulus (GPa) = 22.63570 34.91996 28.77783
#
# Velocity S-wave (km/s) = 3.14404 3.90506 3.54503
# Velocity P-wave (km/s) = 5.82771 6.67513 6.26576
#
# Compressibility (1/GPa) = 0.02101310
#
# Stress axis : x y z
#
# Youngs Moduli (GPa) = 56.26128 43.77492 119.96477
#
# Poissons Ratio (x) = 0.34651 0.12939
# Poissons Ratio (y) = 0.44535 0.59697
# Poissons Ratio (z) = 0.06068 0.21783
#
# Static dielectric constant tensor:
#      x y z
#    x 1.977720 -0.023260 0.166750 
#    y -0.023260 1.925280 -0.007240 
#    z 0.166750 -0.007240 2.081470 
# 
# From -- ./inp_files/259555.got.cif
#   From: 2010.05.17/outbox.cif.g08.bks.cpg/sg2_130_cif.got.tgz:259555.got - 2010.06.03 11:33:40.
