data_PCOD9109498
_publ_section_title
;
Structure prediction by ZEFSAII (Michael W. Deem and Ramdas Pophale) SiO2 
 PCOD9109498
Probable space group: P -1
;
_chemical_formula_sum "Si O2"
_cell_formula_units_Z 16
_cell_length_a 15.429565
_cell_length_b 9.116394
_cell_length_c 17.827266
_cell_angle_alpha 46.697997
_cell_angle_beta 36.657582
_cell_angle_gamma 30.514297
_cell_volume 760.056498
_symmetry_space_group_name_H-M "P -1"
_symmetry_group_IT_number 2
_symmetry_cell_setting 'triclinic'
loop_
_space_group_symop_operation_xyz
x,y,z
-x,-y,-z
loop_
_atom_site_type_symbol
_atom_site_label
_atom_site_fract_x
_atom_site_fract_y
_atom_site_fract_z
Si Si1 0.324657 0.083268 0.400122
Si Si2 0.525177 0.392680 0.657020
Si Si3 0.484056 0.924204 0.119905
Si Si4 0.949250 0.228623 0.179221
Si Si5 0.365359 0.256186 0.564773
Si Si6 0.046380 0.560292 0.042001
Si Si7 0.943308 0.441340 0.792843
Si Si8 0.060851 0.711139 0.309910
O O1 0.247028 0.376799 0.321028
O O2 0.139265 0.179233 0.546801
O O3 0.368258 0.876517 0.377571
O O4 0.526993 0.899877 0.375867
O O5 0.548105 0.277746 0.765159
O O6 0.281919 0.631986 0.719259
O O7 0.614127 0.525977 0.539556
O O8 0.281472 0.238819 0.179571
O O9 0.720782 0.719834 0.053882
O O10 0.500000 0.000000 0.000000
O O11 0.940219 0.447798 0.153177
O O12 0.037079 0.202303 0.045225
O O13 0.082789 0.926435 0.234907
O O14 0.128999 0.418060 0.667137
O O15 0.500000 0.000000 0.500000
O O16 0.055723 0.631967 0.095306
O O17 0.978128 0.258432 0.763411
#
# Coordination Sequence:
#
# PCOD9109498 Si02
#       8
#     2   2   2   2   2   2   2   2
#     4  11  23  41  59  93 129 170 204 254 316 381
#     4  11  21  39  70  89 126 173 204 249 323 382
#     4   9  20  41  61  92 123 159 209 263 305 365
#     4  10  20  41  65  96 122 166 211 263 316 372
#     4  12  24  40  62  99 130 162 211 259 311 383
#     4   9  21  38  69  91 120 163 225 259 301 382
#     4  11  21  41  63  91 130 164 206 261 315 367
#     4  11  23  40  61  90 135 164 202 265 316 367
#
# _framework density 21.051067
#
# number of rings (size 3 to 8) (size 9 to 14) (size 15 to 20)
#    0.000    1.500    3.750    1.125    1.750    1.000 
#    4.500    1.875    0.000    0.000    0.000    0.000 
#    0.000    0.000    0.000    0.000    0.000    0.000 
#
# Total GULP energy -89192.030310 kJ/mol
# GULP energy per Si atom -5574.501894 kJ/mol
# Density = 2.100315 g / cm^3
# Si number density = 21.051067 Si / 1000 Ang^3
#
#
#
# Elastic Constant Matrix: (Units=GPa)
#
#
# Indices 1 2 3 4 5 6 
#
# 1 49.3766 13.9984 24.4415 -5.2573 21.1267 3.9888
# 2 13.9984 104.6466 53.0308 -11.4099 11.4392 0.6984
# 3 24.4415 53.0308 70.1190 1.1749 3.6502 -1.9747
# 4 -5.2573 -11.4099 1.1749 40.5215 -6.7947 4.4972
# 5 21.1267 11.4392 3.6502 -6.7947 35.4934 0.5923
# 6 3.9888 0.6984 -1.9747 4.4972 0.5923 17.4607
#
#
#
# Elastic Compliance Matrix: (Units=1/GPa)
#
#
# Indices 1 2 3 4 5 6 
#
# 1 0.037813 0.006894 -0.017667 0.004981 -0.021768 -0.011456
# 2 0.006894 0.018238 -0.016077 0.005904 -0.007108 -0.005402
# 3 -0.017667 -0.016077 0.032407 -0.007024 0.010857 0.009785
# 4 0.004981 0.005904 -0.007024 0.028498 0.001470 -0.009558
# 5 -0.021768 -0.007108 0.010857 0.001470 0.042509 0.004664
# 6 -0.011456 -0.005402 0.009785 -0.009558 0.004664 0.063515
#
#
# Mechanical properties :
#
#
# Convention : Reuss Voigt Hill
#
# Bulk Modulus (GPa) = 28.77163 45.23151 37.00157
# Shear Modulus (GPa) = 17.34510 27.53989 22.44249
#
# Velocity S-wave (km/s) = 2.87357 3.62089 3.26866
# Velocity P-wave (km/s) = 4.97062 6.24614 5.64453
#
# Compressibility (1/GPa) = 0.03475646
#
# Stress axis : x y z
#
# Youngs Moduli (GPa) = 26.44602 54.83110 30.85745
#
# Poissons Ratio (x) = -0.37800 0.54517
# Poissons Ratio (y) = -0.18232 0.49610
# Poissons Ratio (z) = 0.46723 0.88154
#
# Static dielectric constant tensor:
#      x y z
#    x 1.807390 -0.036400 0.038240 
#    y -0.036400 1.792200 0.016970 
#    z 0.038240 0.016970 1.791500 
# 
# From -- ./inp_files/599706.got.cif
#   From: 2010.05.17/outbox.cif.g08.bks.cpg/sg2_300_cif.got.tgz:599706.got - 2010.06.03 11:33:40.
