data_PCOD9109768
_publ_section_title
;
Structure prediction by ZEFSAII (Michael W. Deem and Ramdas Pophale) SiO2 
 PCOD9109768
Probable space group: P -1
;
_chemical_formula_sum "Si O2"
_cell_formula_units_Z 16
_cell_length_a 7.774032
_cell_length_b 12.344422
_cell_length_c 11.594274
_cell_angle_alpha 119.247615
_cell_angle_beta 54.373286
_cell_angle_gamma 126.964260
_cell_volume 706.046114
_symmetry_space_group_name_H-M "P -1"
_symmetry_group_IT_number 2
_symmetry_cell_setting 'triclinic'
loop_
_space_group_symop_operation_xyz
x,y,z
-x,-y,-z
loop_
_atom_site_type_symbol
_atom_site_label
_atom_site_fract_x
_atom_site_fract_y
_atom_site_fract_z
Si Si1 0.184263 0.567880 0.591170
Si Si2 0.607546 0.221639 0.899141
Si Si3 0.149015 0.108311 0.168249
Si Si4 0.773246 0.524415 0.910469
Si Si5 0.529127 0.830595 0.706298
Si Si6 0.882321 0.176868 0.977534
Si Si7 0.025873 0.716602 0.560933
Si Si8 0.367947 0.945629 0.402419
O O1 0.397060 0.669623 0.639990
O O2 0.183577 0.425336 0.477535
O O3 0.937081 0.537497 0.739693
O O4 0.195034 0.655875 0.518022
O O5 0.752488 0.385438 0.907834
O O6 0.759511 0.172965 0.899893
O O7 0.541265 0.135858 0.762356
O O8 0.362460 0.185972 0.038616
O O9 0.270670 0.136336 0.260769
O O10 0.996382 0.191693 0.277924
O O11 0.036285 0.944338 0.108192
O O12 0.500000 0.500000 0.000000
O O13 0.918852 0.669249 0.995283
O O14 0.626741 0.928308 0.608289
O O15 0.326404 0.858140 0.865200
O O16 0.121375 0.821672 0.473017
O O17 0.500000 0.000000 0.500000
#
# Coordination Sequence:
#
# PCOD9109768 Si02
#       8
#     2   2   2   2   2   2   2   2
#     4  10  22  43  60  86 131 175 209 251 328 385
#     4  11  21  43  67  92 131 169 214 258 320 384
#     4  11  22  41  66  98 126 162 215 267 315 377
#     4  11  23  39  65  98 127 166 217 269 308 376
#     4  10  20  41  67  91 125 169 213 259 319 383
#     4  10  21  41  67  95 129 169 210 262 325 377
#     4  11  24  39  62  90 131 171 208 262 318 378
#     4  12  22  39  65  95 122 172 213 256 319 378
#
# _framework density 22.661411000000001
#
# number of rings (size 3 to 8) (size 9 to 14) (size 15 to 20)
#    0.000    1.250    5.000    1.875    0.000    2.000 
#    0.000    3.750    0.000    0.000    0.000    0.000 
#    0.000    0.000    0.000    0.000    0.000    0.000 
#
# Total GULP energy -89355.759860 kJ/mol
# GULP energy per Si atom -5584.734991 kJ/mol
# Density = 2.260983 g / cm^3
# Si number density = 22.661411 Si / 1000 Ang^3
#
#
#
# Elastic Constant Matrix: (Units=GPa)
#
#
# Indices 1 2 3 4 5 6 
#
# 1 48.4486 23.8779 21.0583 -0.3401 13.1034 4.7667
# 2 23.8779 164.8842 35.0515 13.7143 10.0336 -5.4392
# 3 21.0583 35.0515 71.9709 -0.5052 20.9627 -15.1841
# 4 -0.3401 13.7143 -0.5052 48.7880 3.1194 7.2433
# 5 13.1034 10.0336 20.9627 3.1194 30.2625 8.9055
# 6 4.7667 -5.4392 -15.1841 7.2433 8.9055 20.3764
#
#
#
# Elastic Compliance Matrix: (Units=1/GPa)
#
#
# Indices 1 2 3 4 5 6 
#
# 1 0.028027 -0.002671 -0.010528 0.003253 0.000568 -0.016519
# 2 -0.002671 0.007212 -0.002634 -0.002280 0.000475 0.001190
# 3 -0.010528 -0.002634 0.037863 -0.003614 -0.033994 0.046116
# 4 0.003253 -0.002280 -0.003614 0.022940 0.003536 -0.013763
# 5 0.000568 0.000475 -0.033994 0.003536 0.073044 -0.058519
# 6 -0.016519 0.001190 0.046116 -0.013763 -0.058519 0.118092
#
#
# Mechanical properties :
#
#
# Convention : Reuss Voigt Hill
#
# Bulk Modulus (GPa) = 24.13317 49.47546 36.80432
# Shear Modulus (GPa) = 15.03058 33.57312 24.30185
#
# Velocity S-wave (km/s) = 2.57819 3.85322 3.27829
# Velocity P-wave (km/s) = 4.41988 6.45571 5.53225
#
# Compressibility (1/GPa) = 0.04143674
#
# Stress axis : x y z
#
# Youngs Moduli (GPa) = 35.67983 138.66557 26.41100
#
# Poissons Ratio (x) = 0.37036 0.27804
# Poissons Ratio (y) = 0.09530 0.06956
# Poissons Ratio (z) = 0.37562 0.36524
#
# Static dielectric constant tensor:
#      x y z
#    x 1.871380 0.010190 -0.026070 
#    y 0.010190 1.860310 0.011990 
#    z -0.026070 0.011990 1.925940 
# 
# From -- ./inp_files/187833.got.cif
#   From: 2010.05.17/outbox.cif.g08.bks.cpg/sg2_94_cif.got.tgz:187833.got - 2010.06.03 11:33:40.
