data_PCOD9109423
_publ_section_title
;
Structure prediction by ZEFSAII (Michael W. Deem and Ramdas Pophale) SiO2 
 PCOD9109423
Probable space group: P -1
;
_chemical_formula_sum "Si O2"
_cell_formula_units_Z 12
_cell_length_a 12.547113
_cell_length_b 8.227923
_cell_length_c 12.520288
_cell_angle_alpha 113.662245
_cell_angle_beta 133.764805
_cell_angle_gamma 100.403211
_cell_volume 616.655962
_symmetry_space_group_name_H-M "P -1"
_symmetry_group_IT_number 2
_symmetry_cell_setting 'triclinic'
loop_
_space_group_symop_operation_xyz
x,y,z
-x,-y,-z
loop_
_atom_site_type_symbol
_atom_site_label
_atom_site_fract_x
_atom_site_fract_y
_atom_site_fract_z
Si Si1 0.365836 0.864861 0.615772
Si Si2 0.689482 0.127789 0.745290
Si Si3 0.805436 0.459309 0.379700
Si Si4 0.462509 0.260791 0.931173
Si Si5 0.047934 0.000203 0.658071
Si Si6 0.988613 0.305540 0.827501
O O1 0.306392 0.705517 0.636738
O O2 0.169772 0.714602 0.361916
O O3 0.569606 0.964840 0.724548
O O4 0.410055 0.103427 0.748719
O O5 0.858102 0.155055 0.804687
O O6 0.500000 0.000000 0.500000
O O7 0.815478 0.411739 0.934309
O O8 0.000000 0.500000 0.500000
O O9 0.883897 0.725728 0.516471
O O10 0.655755 0.335855 0.142247
O O11 0.268917 0.091965 0.831412
O O12 0.500000 0.500000 0.000000
O O13 0.000000 0.000000 0.500000
O O14 0.049708 0.182154 0.772945
#
# Coordination Sequence:
#
# PCOD9109423 Si02
#       6
#     2   2   2   2   2   2
#     4  11  22  36  61  92 126 162 212 258 310 369
#     4   9  21  38  65  91 119 166 218 257 306 369
#     4  12  25  39  58  95 135 170 205 256 324 374
#     4  12  23  37  62  92 127 169 209 256 310 378
#     4  12  22  39  61  93 128 164 208 256 318 379
#     4  10  20  41  65  91 124 166 213 256 307 382
#
# _framework density 19.459797999999999
#
# number of rings (size 3 to 8) (size 9 to 14) (size 15 to 20)
#    0.000    1.000    5.000    1.500    2.333    1.333 
#    0.000    0.833    0.000   10.000    0.000    0.000 
#    0.000    0.000    0.000    0.000    0.000    0.000 
#
# Total GULP energy -67002.549423 kJ/mol
# GULP energy per Si atom -5583.545785 kJ/mol
# Density = 1.941551 g / cm^3
# Si number density = 19.459798 Si / 1000 Ang^3
#
#
#
# Elastic Constant Matrix: (Units=GPa)
#
#
# Indices 1 2 3 4 5 6 
#
# 1 119.8653 22.6124 35.9585 1.8591 -2.3369 15.8062
# 2 22.6124 79.6482 27.1441 7.3288 -2.6075 19.4904
# 3 35.9585 27.1441 133.4432 8.5529 1.9195 -4.5001
# 4 1.8591 7.3288 8.5529 25.4885 -6.6067 6.7768
# 5 -2.3369 -2.6075 1.9195 -6.6067 36.0575 6.5463
# 6 15.8062 19.4904 -4.5001 6.7768 6.5463 33.8604
#
#
#
# Elastic Compliance Matrix: (Units=1/GPa)
#
#
# Indices 1 2 3 4 5 6 
#
# 1 0.010114 -0.000614 -0.002989 0.002551 0.002275 -0.005715
# 2 -0.000614 0.016605 -0.003616 0.000094 0.003259 -0.010401
# 3 -0.002989 -0.003616 0.009563 -0.004339 -0.002880 0.006173
# 4 0.002551 0.000094 -0.004339 0.047023 0.011460 -0.013448
# 5 0.002275 0.003259 -0.002880 0.011460 0.032531 -0.011904
# 6 -0.005715 -0.010401 0.006173 -0.013448 -0.011904 0.044001
#
#
# Mechanical properties :
#
#
# Convention : Reuss Voigt Hill
#
# Bulk Modulus (GPa) = 45.78217 56.04297 50.91257
# Shear Modulus (GPa) = 27.53979 35.56405 31.55192
#
# Velocity S-wave (km/s) = 3.76602 4.27964 4.03102
# Velocity P-wave (km/s) = 6.51829 7.29947 6.91991
#
# Compressibility (1/GPa) = 0.02184256
#
# Stress axis : x y z
#
# Youngs Moduli (GPa) = 98.87445 60.22272 104.57461
#
# Poissons Ratio (x) = 0.03699 0.31262
# Poissons Ratio (y) = 0.06073 0.37812
# Poissons Ratio (z) = 0.29558 0.21775
#
# Static dielectric constant tensor:
#      x y z
#    x 1.706190 0.025580 0.010200 
#    y 0.025580 1.675740 0.014810 
#    z 0.010200 0.014810 1.720350 
# 
# From -- ./inp_files/19109.got.cif
#   From: 2010.05.17/outbox.cif.g08.bks.cpg/sg2_10_cif.got.tgz:19109.got - 2010.06.03 11:33:40.
