data_PCOD9109603
_publ_section_title
;
Structure prediction by ZEFSAII (Michael W. Deem and Ramdas Pophale) SiO2 
 PCOD9109603
Probable space group: P -1
;
_chemical_formula_sum "Si O2"
_cell_formula_units_Z 14
_cell_length_a 23.927326
_cell_length_b 7.554992
_cell_length_c 14.287968
_cell_angle_alpha 128.359506
_cell_angle_beta 160.565931
_cell_angle_gamma 42.800705
_cell_volume 554.077192
_symmetry_space_group_name_H-M "P -1"
_symmetry_group_IT_number 2
_symmetry_cell_setting 'triclinic'
loop_
_space_group_symop_operation_xyz
x,y,z
-x,-y,-z
loop_
_atom_site_type_symbol
_atom_site_label
_atom_site_fract_x
_atom_site_fract_y
_atom_site_fract_z
Si Si1 0.651901 0.178956 0.045507
Si Si2 0.170876 0.187298 0.303519
Si Si3 0.200477 0.391652 0.842710
Si Si4 0.140849 0.894385 0.321224
Si Si5 0.181333 0.675479 0.499730
Si Si6 0.451507 0.273418 0.364274
Si Si7 0.563930 0.334622 0.757733
O O1 0.814806 0.237786 0.360456
O O2 0.689079 0.937476 0.092525
O O3 0.422678 0.446126 0.786517
O O4 0.668724 0.133214 0.945467
O O5 0.085924 0.504967 0.271792
O O6 0.181806 0.094699 0.397420
O O7 0.386985 0.994998 0.529044
O O8 0.035397 0.110013 0.009504
O O9 0.000000 0.500000 0.500000
O O10 0.229837 0.411510 0.009436
O O11 0.312653 0.528740 0.025046
O O12 0.100923 0.916341 0.375863
O O13 0.342382 0.594023 0.522526
O O14 0.500000 0.500000 0.500000
O O15 0.514775 0.212469 0.552181
#
# Coordination Sequence:
#
# PCOD9109603 Si02
#       7
#     2   2   2   2   2   2   2
#     4  10  22  41  64  91 129 174 214 261 324 383
#     4  11  20  39  64  97 128 165 216 267 321 386
#     4  11  23  42  64  92 133 173 213 262 322 385
#     4  10  21  37  65  95 127 165 217 264 322 380
#     4  10  21  39  61  93 132 166 210 268 323 381
#     4  10  20  41  66  91 131 167 209 267 319 378
#     4  10  22  44  65  95 131 167 216 267 322 386
#
# _framework density 25.267236
#
# number of rings (size 3 to 8) (size 9 to 14) (size 15 to 20)
#    0.000    1.714    4.286    0.429    0.000    4.571 
#    2.571    4.286    0.000    0.000    0.000    0.000 
#    0.000    0.000    0.000    0.000    0.000    0.000 
#
# Total GULP energy -78113.279122 kJ/mol
# GULP energy per Si atom -5579.519937 kJ/mol
# Density = 2.520973 g / cm^3
# Si number density = 25.267236 Si / 1000 Ang^3
#
#
#
# Elastic Constant Matrix: (Units=GPa)
#
#
# Indices 1 2 3 4 5 6 
#
# 1 121.7731 41.0610 51.0193 -1.9785 -47.2630 19.4058
# 2 41.0610 44.5561 17.1052 2.8727 -11.4481 4.7640
# 3 51.0193 17.1052 150.3085 7.8273 -38.1337 -10.7550
# 4 -1.9785 2.8727 7.8273 41.3768 -8.2121 -8.7921
# 5 -47.2630 -11.4481 -38.1337 -8.2121 43.7925 -2.1027
# 6 19.4058 4.7640 -10.7550 -8.7921 -2.1027 36.0477
#
#
#
# Elastic Compliance Matrix: (Units=1/GPa)
#
#
# Indices 1 2 3 4 5 6 
#
# 1 0.023343 -0.014948 -0.002040 0.004604 0.019945 -0.008913
# 2 -0.014948 0.034384 -0.000620 -0.004272 -0.008399 0.001786
# 3 -0.002040 -0.000620 0.009215 0.000303 0.005926 0.004349
# 4 0.004604 -0.004272 0.000303 0.027694 0.009573 0.005489
# 5 0.019945 -0.008399 0.005926 0.009573 0.048992 -0.002666
# 6 -0.008913 0.001786 0.004349 0.005489 -0.002666 0.034784
#
#
# Mechanical properties :
#
#
# Convention : Reuss Voigt Hill
#
# Bulk Modulus (GPa) = 31.51990 59.44543 45.48266
# Shear Modulus (GPa) = 22.30126 38.07355 30.18741
#
# Velocity S-wave (km/s) = 2.97411 3.88601 3.46023
# Velocity P-wave (km/s) = 4.92904 6.61154 5.83129
#
# Compressibility (1/GPa) = 0.03172599
#
# Stress axis : x y z
#
# Youngs Moduli (GPa) = 42.83877 29.08363 108.52166
#
# Poissons Ratio (x) = 0.43476 0.22136
# Poissons Ratio (y) = 0.64037 0.06724
# Poissons Ratio (z) = 0.08738 0.01802
#
# Static dielectric constant tensor:
#      x y z
#    x 2.081730 -0.022770 -0.025480 
#    y -0.022770 1.990610 0.042600 
#    z -0.025480 0.042600 2.057080 
# 
# From -- ./inp_files/543866.got.cif
#   From: 2010.05.17/outbox.cif.g08.bks.cpg/sg2_272_cif.got.tgz:543866.got - 2010.06.03 11:33:40.
