data_PCOD9109306
_publ_section_title
;
Structure prediction by ZEFSAII (Michael W. Deem and Ramdas Pophale) SiO2 
 PCOD9109306
Probable space group: P -1
;
_chemical_formula_sum "Si O2"
_cell_formula_units_Z 16
_cell_length_a 17.503326
_cell_length_b 11.065802
_cell_length_c 9.538428
_cell_angle_alpha 54.324156
_cell_angle_beta 26.498019
_cell_angle_gamma 51.441083
_cell_volume 642.859492
_symmetry_space_group_name_H-M "P -1"
_symmetry_group_IT_number 2
_symmetry_cell_setting 'triclinic'
loop_
_space_group_symop_operation_xyz
x,y,z
-x,-y,-z
loop_
_atom_site_type_symbol
_atom_site_label
_atom_site_fract_x
_atom_site_fract_y
_atom_site_fract_z
Si Si1 0.918869 0.378487 0.911884
Si Si2 0.584343 0.626510 0.341703
Si Si3 0.752328 0.858742 0.816905
Si Si4 0.308835 0.682270 0.250244
Si Si5 0.287531 0.069806 0.838085
Si Si6 0.119058 0.596416 0.360521
Si Si7 0.071330 0.901457 0.719249
Si Si8 0.409942 0.327925 0.396797
O O1 0.834614 0.400670 0.879299
O O2 0.098679 0.430194 0.556852
O O3 0.783083 0.515932 0.128442
O O4 0.932443 0.212345 0.067871
O O5 0.500000 0.500000 0.500000
O O6 0.503885 0.703988 0.567383
O O7 0.598825 0.768672 0.121457
O O8 0.926561 0.716956 0.607960
O O9 0.798846 0.986790 0.553843
O O10 0.740900 0.922281 0.952920
O O11 0.235334 0.655602 0.238053
O O12 0.165094 0.791788 0.510596
O O13 0.366921 0.511660 0.333258
O O14 0.478680 0.735505 0.884462
O O15 0.251558 0.247450 0.722738
O O16 0.500000 0.000000 0.500000
O O17 0.131599 0.013038 0.056548
#
# Coordination Sequence:
#
# PCOD9109306 Si02
#       8
#     2   2   2   2   2   2   2   2
#     4  10  22  39  64  93 128 172 225 266 322 385
#     4  10  20  41  64  93 132 175 219 264 325 392
#     4  10  23  39  65  94 125 172 218 263 330 395
#     4  11  21  37  66  97 131 165 218 276 327 380
#     4  11  23  39  63  96 134 171 215 266 338 392
#     4  10  21  39  64  91 125 176 223 260 318 397
#     4  12  23  40  67  98 133 168 217 281 324 387
#     4  10  22  36  61  99 130 166 221 270 321 391
#
# _framework density 24.888798000000001
#
# number of rings (size 3 to 8) (size 9 to 14) (size 15 to 20)
#    0.000    1.500    2.500    2.625    1.750    1.500 
#    0.000    0.625    0.000    0.000    0.000    0.000 
#    0.000    0.000    0.000    0.000    0.000    0.000 
#
# Total GULP energy -89227.694705 kJ/mol
# GULP energy per Si atom -5576.730919 kJ/mol
# Density = 2.483215 g / cm^3
# Si number density = 24.888798 Si / 1000 Ang^3
#
#
#
# Elastic Constant Matrix: (Units=GPa)
#
#
# Indices 1 2 3 4 5 6 
#
# 1 35.4539 16.3945 28.2737 -14.8378 9.1242 4.8303
# 2 16.3945 99.1775 60.9833 -30.7894 3.3495 -1.7792
# 3 28.2737 60.9833 149.9610 -30.4259 23.2335 -9.2097
# 4 -14.8378 -30.7894 -30.4259 73.9034 3.6610 1.1554
# 5 9.1242 3.3495 23.2335 3.6610 35.7661 -4.0965
# 6 4.8303 -1.7792 -9.2097 1.1554 -4.0965 17.7486
#
#
#
# Elastic Compliance Matrix: (Units=1/GPa)
#
#
# Indices 1 2 3 4 5 6 
#
# 1 0.040249 -0.001490 -0.005365 0.005960 -0.009129 -0.016382
# 2 -0.001490 0.014595 -0.005294 0.003512 0.002019 -0.000641
# 3 -0.005365 -0.005294 0.011247 0.001507 -0.004963 0.005522
# 4 0.005960 0.003512 0.001507 0.017096 -0.004891 -0.002730
# 5 -0.009129 0.002019 -0.004963 -0.004891 0.034793 0.008460
# 6 -0.016382 -0.000641 0.005522 -0.002730 0.008460 0.065732
#
#
# Mechanical properties :
#
#
# Convention : Reuss Voigt Hill
#
# Bulk Modulus (GPa) = 23.92776 55.09951 39.51363
# Shear Modulus (GPa) = 22.52857 37.41302 29.97079
#
# Velocity S-wave (km/s) = 3.01187 3.88133 3.47391
# Velocity P-wave (km/s) = 4.66153 6.50174 5.65696
#
# Compressibility (1/GPa) = 0.04179247
#
# Stress axis : x y z
#
# Youngs Moduli (GPa) = 24.84551 68.51662 88.91543
#
# Poissons Ratio (x) = 0.10207 0.47705
# Poissons Ratio (y) = 0.03701 0.47072
# Poissons Ratio (z) = 0.13330 0.36273
#
# Static dielectric constant tensor:
#      x y z
#    x 2.231190 0.013630 -0.098010 
#    y 0.013630 2.038150 -0.043650 
#    z -0.098010 -0.043650 2.109340 
# 
# From -- ./inp_files/332809.got.cif
#   From: 2010.05.17/outbox.cif.g08.bks.cpg/sg2_167_cif.got.tgz:332809.got - 2010.06.03 11:33:40.
