data_PCOD9109616
_publ_section_title
;
Structure prediction by ZEFSAII (Michael W. Deem and Ramdas Pophale) SiO2 
 PCOD9109616
Probable space group: P -1
;
_chemical_formula_sum "Si O2"
_cell_formula_units_Z 14
_cell_length_a 11.265758
_cell_length_b 11.080405
_cell_length_c 5.323627
_cell_angle_alpha 100.666471
_cell_angle_beta 120.512763
_cell_angle_gamma 76.843555
_cell_volume 555.570059
_symmetry_space_group_name_H-M "P -1"
_symmetry_group_IT_number 2
_symmetry_cell_setting 'triclinic'
loop_
_space_group_symop_operation_xyz
x,y,z
-x,-y,-z
loop_
_atom_site_type_symbol
_atom_site_label
_atom_site_fract_x
_atom_site_fract_y
_atom_site_fract_z
Si Si1 0.158336 0.033297 0.980326
Si Si2 0.867155 0.125013 0.607341
Si Si3 0.091871 0.410800 0.259212
Si Si4 0.557599 0.890762 0.831795
Si Si5 0.653484 0.634232 0.786371
Si Si6 0.810666 0.404182 0.174675
Si Si7 0.374799 0.733013 0.323839
O O1 0.027979 0.141052 0.818250
O O2 0.150374 0.935077 0.705100
O O3 0.306259 0.073836 0.130269
O O4 0.145422 0.973740 0.218058
O O5 0.752011 0.242772 0.599994
O O6 0.223805 0.329447 0.243510
O O7 0.163486 0.507603 0.537158
O O8 0.971614 0.351111 0.250882
O O9 0.000000 0.500000 0.000000
O O10 0.604761 0.754037 0.959856
O O11 0.447617 0.855599 0.493301
O O12 0.500000 0.000000 0.000000
O O13 0.510593 0.631056 0.481562
O O14 0.724743 0.506572 0.934372
O O15 0.708659 0.301504 0.022248
#
# Coordination Sequence:
#
# PCOD9109616 Si02
#       7
#     2   2   2   2   2   2   2
#     4  10  21  44  66  91 141 178 242 284 341 411
#     4  10  22  42  67  99 128 189 232 293 340 402
#     4   9  20  41  63  90 122 168 222 282 335 402
#     4  10  21  42  62  99 138 180 221 284 341 417
#     4   9  21  40  61  96 129 176 217 278 344 405
#     4  10  20  41  66  92 131 167 230 275 343 410
#     4  10  22  38  63 100 132 177 222 279 346 411
#
# _framework density 25.199341
#
# number of rings (size 3 to 8) (size 9 to 14) (size 15 to 20)
#    0.857    1.429    1.429    0.429    2.000    1.143 
#   12.857    4.286    0.000    0.000    0.000    0.000 
#    0.000    0.000    0.000    0.000    0.000    0.000 
#
# Total GULP energy -78025.899167 kJ/mol
# GULP energy per Si atom -5573.278512 kJ/mol
# Density = 2.514199 g / cm^3
# Si number density = 25.199341 Si / 1000 Ang^3
#
#
#
# Elastic Constant Matrix: (Units=GPa)
#
#
# Indices 1 2 3 4 5 6 
#
# 1 124.4152 51.8437 59.5517 3.3185 48.3083 -24.6822
# 2 51.8437 82.8876 39.7131 3.4831 18.0447 -25.7879
# 3 59.5517 39.7131 143.5917 20.0834 41.8852 7.3541
# 4 3.3185 3.4831 20.0834 40.8697 6.0161 8.0341
# 5 48.3083 18.0447 41.8852 6.0161 49.3593 0.3153
# 6 -24.6822 -25.7879 7.3541 8.0341 0.3153 43.1338
#
#
#
# Elastic Compliance Matrix: (Units=1/GPa)
#
#
# Indices 1 2 3 4 5 6 
#
# 1 0.018328 -0.004558 -0.002756 0.000713 -0.014073 0.008203
# 2 -0.004558 0.020040 -0.004225 -0.001418 0.000827 0.010351
# 3 -0.002756 -0.004225 0.011488 -0.003249 -0.005077 -0.005419
# 4 0.000713 -0.001418 -0.003249 0.027204 -0.000707 -0.004948
# 5 -0.014073 0.000827 -0.005077 -0.000707 0.038168 -0.006840
# 6 0.008203 0.010351 -0.005419 -0.004948 -0.006840 0.035962
#
#
# Mechanical properties :
#
#
# Convention : Reuss Voigt Hill
#
# Bulk Modulus (GPa) = 37.34217 72.56792 54.95505
# Shear Modulus (GPa) = 27.29348 39.99163 33.64255
#
# Velocity S-wave (km/s) = 3.29462 3.98805 3.65781
# Velocity P-wave (km/s) = 5.41513 7.07574 6.30039
#
# Compressibility (1/GPa) = 0.02677937
#
# Stress axis : x y z
#
# Youngs Moduli (GPa) = 54.56024 49.90088 87.04470
#
# Poissons Ratio (x) = 0.22744 0.23987
# Poissons Ratio (y) = 0.24868 0.36777
# Poissons Ratio (z) = 0.15035 0.21083
#
# Static dielectric constant tensor:
#      x y z
#    x 2.034630 0.046400 -0.018450 
#    y 0.046400 2.230400 -0.003690 
#    z -0.018450 -0.003690 2.011450 
# 
# From -- ./inp_files/65051.got.cif
#   From: 2010.05.17/outbox.cif.g08.bks.cpg/sg2_33_cif.got.tgz:65051.got - 2010.06.03 11:33:40.
