data_PCOD9109517
_publ_section_title
;
Structure prediction by ZEFSAII (Michael W. Deem and Ramdas Pophale) SiO2 
 PCOD9109517
Probable space group: P -1
;
_chemical_formula_sum "Si O2"
_cell_formula_units_Z 16
_cell_length_a 13.156319
_cell_length_b 11.055579
_cell_length_c 13.032935
_cell_angle_alpha 68.699406
_cell_angle_beta 136.369036
_cell_angle_gamma 144.977376
_cell_volume 611.781673
_symmetry_space_group_name_H-M "P -1"
_symmetry_group_IT_number 2
_symmetry_cell_setting 'triclinic'
loop_
_space_group_symop_operation_xyz
x,y,z
-x,-y,-z
loop_
_atom_site_type_symbol
_atom_site_label
_atom_site_fract_x
_atom_site_fract_y
_atom_site_fract_z
Si Si1 0.228207 0.676576 0.979726
Si Si2 0.117879 0.280743 0.586242
Si Si3 0.866653 0.903962 0.663300
Si Si4 0.587460 0.172675 0.156250
Si Si5 0.826504 0.147310 0.809619
Si Si6 0.160329 0.738124 0.446035
Si Si7 0.287532 0.180201 0.057449
Si Si8 0.792617 0.569845 0.627685
O O1 0.059943 0.414815 0.960028
O O2 0.972215 0.582449 0.791130
O O3 0.420599 0.803163 0.978885
O O4 0.433589 0.914768 0.132909
O O5 0.458025 0.544160 0.788113
O O6 0.115260 0.320094 0.454024
O O7 0.950827 0.247996 0.553972
O O8 0.967882 0.032302 0.586856
O O9 0.843001 0.730530 0.689399
O O10 0.553638 0.720040 0.527035
O O11 0.102831 0.114173 0.858132
O O12 0.434497 0.175067 0.099924
O O13 0.925158 0.442978 0.352722
O O14 0.861870 0.209124 0.697018
O O15 0.485001 0.929777 0.643303
O O16 0.873079 0.033485 0.909959
#
# Coordination Sequence:
#
# PCOD9109517 Si02
#       8
#     2   2   2   2   2   2   2   2
#     4  10  20  41  65  98 134 176 217 276 341 405
#     4  11  25  42  73  97 127 185 227 278 340 391
#     4  11  25  50  63  97 139 175 230 287 320 402
#     4   9  20  38  62  96 137 170 211 276 335 408
#     4  10  22  38  67 103 140 175 219 277 345 408
#     4   9  21  41  64 101 139 170 223 284 333 407
#     4  11  24  42  67 101 135 175 222 275 344 400
#     4  11  25  45  73  96 133 181 229 276 336 403
#
# _framework density 26.153119
#
# number of rings (size 3 to 8) (size 9 to 14) (size 15 to 20)
#    0.000    1.750    1.250    1.500    8.750    2.000 
#    6.750    3.750    0.000    0.000    0.000    0.000 
#    0.000    0.000    0.000    0.000    0.000    0.000 
#
# Total GULP energy -89676.881582 kJ/mol
# GULP energy per Si atom -5604.805099 kJ/mol
# Density = 2.609359 g / cm^3
# Si number density = 26.153119 Si / 1000 Ang^3
#
#
#
# Elastic Constant Matrix: (Units=GPa)
#
#
# Indices 1 2 3 4 5 6 
#
# 1 74.1124 5.4238 14.4975 0.2946 -9.7458 13.3384
# 2 5.4238 124.5174 27.1017 5.4775 12.8119 6.3263
# 3 14.4975 27.1017 98.2903 4.4351 -0.0834 6.7292
# 4 0.2946 5.4775 4.4351 42.7401 -1.4547 -9.3121
# 5 -9.7458 12.8119 -0.0834 -1.4547 26.1029 -0.9921
# 6 13.3384 6.3263 6.7292 -9.3121 -0.9921 45.2233
#
#
#
# Elastic Compliance Matrix: (Units=1/GPa)
#
#
# Indices 1 2 3 4 5 6 
#
# 1 0.015416 -0.000653 -0.001778 -0.000547 0.005881 -0.004174
# 2 -0.000653 0.009178 -0.002300 -0.001346 -0.004874 -0.001133
# 3 -0.001778 -0.002300 0.011189 -0.001065 0.000402 -0.001029
# 4 -0.000547 -0.001346 -0.001065 0.024996 0.002063 0.005700
# 5 0.005881 -0.004874 0.000402 0.002063 0.043024 0.000256
# 6 -0.004174 -0.001133 -0.001029 0.005700 0.000256 0.024835
#
#
# Mechanical properties :
#
#
# Convention : Reuss Voigt Hill
#
# Bulk Modulus (GPa) = 37.99432 43.44064 40.71748
# Shear Modulus (GPa) = 34.04252 39.47308 36.75780
#
# Velocity S-wave (km/s) = 3.61177 3.88919 3.75305
# Velocity P-wave (km/s) = 5.65264 6.06745 5.86371
#
# Compressibility (1/GPa) = 0.02631972
#
# Stress axis : x y z
#
# Youngs Moduli (GPa) = 64.86958 108.95105 89.37119
#
# Poissons Ratio (x) = 0.07119 0.15891
# Poissons Ratio (y) = 0.04239 0.20557
# Poissons Ratio (z) = 0.11534 0.25061
#
# Static dielectric constant tensor:
#      x y z
#    x 2.101510 0.042220 0.006730 
#    y 0.042220 2.111600 0.007960 
#    z 0.006730 0.007960 2.026150 
# 
# From -- ./inp_files/532535.got.cif
#   From: 2010.05.17/outbox.cif.g08.bks.cpg/sg2_267_cif.got.tgz:532535.got - 2010.06.03 11:33:40.
