data_PCOD9109549
_publ_section_title
;
Structure prediction by ZEFSAII (Michael W. Deem and Ramdas Pophale) SiO2 
 PCOD9109549
Probable space group: P -1
;
_chemical_formula_sum "Si O2"
_cell_formula_units_Z 13
_cell_length_a 8.085199
_cell_length_b 14.299656
_cell_length_c 5.704498
_cell_angle_alpha 95.191466
_cell_angle_beta 81.568930
_cell_angle_gamma 132.307430
_cell_volume 482.448919
_symmetry_space_group_name_H-M "P -1"
_symmetry_group_IT_number 2
_symmetry_cell_setting 'triclinic'
loop_
_space_group_symop_operation_xyz
x,y,z
-x,-y,-z
loop_
_atom_site_type_symbol
_atom_site_label
_atom_site_fract_x
_atom_site_fract_y
_atom_site_fract_z
Si Si1 0.000000 0.500000 0.500000
Si Si2 0.181714 0.869523 0.664102
Si Si3 0.675776 0.268150 0.163221
Si Si4 0.649740 0.661055 0.220844
Si Si5 0.053155 0.696182 0.276424
Si Si6 0.868278 0.948609 0.263893
Si Si7 0.638845 0.695352 0.742723
O O1 0.821751 0.394459 0.316357
O O2 0.945615 0.590578 0.471820
O O3 0.287373 0.825983 0.787603
O O4 0.191906 0.833151 0.391513
O O5 0.908707 0.781557 0.729257
O O6 0.275944 0.009253 0.701199
O O7 0.430855 0.221028 0.222633
O O8 0.779520 0.310863 0.891974
O O9 0.858802 0.668896 0.160222
O O10 0.737822 0.801753 0.249029
O O11 0.565565 0.621609 0.496471
O O12 0.525780 0.612376 0.985285
O O13 0.000000 0.000000 0.500000
O O14 0.000000 0.000000 0.000000
#
# Coordination Sequence:
#
# PCOD9109549 Si02
#       7
#     1   2   2   2   2   2   2
#     4  10  24  40  64  96 120 164 216 264 324 390
#     4  10  22  40  64  94 127 173 212 257 314 376
#     4  11  23  43  66  91 126 170 206 272 319 384
#     4  11  22  42  65  95 131 172 211 262 313 377
#     4  10  20  41  66  86 128 163 214 257 326 373
#     4  12  19  36  66  95 127 174 215 255 308 374
#     4  11  23  40  67  93 130 168 214 259 319 374
#
# _framework density 26.945855999999999
#
# number of rings (size 3 to 8) (size 9 to 14) (size 15 to 20)
#    0.000    1.231    6.154    0.462    4.308    0.000 
#    0.000    9.231    0.000    0.000    0.000    0.000 
#    0.000    0.000    0.000    0.000    0.000    0.000 
#
# Total GULP energy -72406.461141 kJ/mol
# GULP energy per Si atom -5569.727780 kJ/mol
# Density = 2.688453 g / cm^3
# Si number density = 26.945856 Si / 1000 Ang^3
#
#
#
# Elastic Constant Matrix: (Units=GPa)
#
#
# Indices 1 2 3 4 5 6 
#
# 1 130.8672 33.4148 85.4969 -56.3381 -59.9026 -13.4428
# 2 33.4148 114.8936 4.8284 23.7362 -7.3120 -30.6691
# 3 85.4969 4.8284 133.2299 54.3226 45.4730 0.4026
# 4 -56.3381 23.7362 54.3226 -49.0655 -50.3696 18.8636
# 5 -59.9026 -7.3120 45.4730 -50.3696 2.3824 13.7825
# 6 -13.4428 -30.6691 0.4026 18.8636 13.7825 42.0013
#
#
#
# Elastic Compliance Matrix: (Units=1/GPa)
#
#
# Indices 1 2 3 4 5 6 
#
# 1 0.006347 0.001458 -0.001579 -0.007476 0.001415 0.006004
# 2 0.001458 0.011656 -0.002552 -0.003182 0.007228 0.008059
# 3 -0.001579 -0.002552 0.006280 0.006493 -0.000881 -0.005056
# 4 -0.007476 -0.003182 0.006493 0.013153 -0.020308 -0.004022
# 5 0.001415 0.007228 -0.000881 -0.020308 0.023350 0.007198
# 6 0.006004 0.008059 -0.005056 -0.004022 0.007198 0.031108
#
#
# Mechanical properties :
#
#
# Convention : Reuss Voigt Hill
#
# Bulk Modulus (GPa) = 52.80763 69.60785 61.20774
# Shear Modulus (GPa) = 48.28455 16.08037 32.18246
#
# Velocity S-wave (km/s) = 4.23769 2.44553 3.45967
# Velocity P-wave (km/s) = 6.60184 5.81917 6.22282
#
# Compressibility (1/GPa) = 0.01893666
#
# Stress axis : x y z
#
# Youngs Moduli (GPa) = 157.55273 85.79500 159.22790
#
# Poissons Ratio (x) = -0.12505 0.25142
# Poissons Ratio (y) = -0.22964 0.40631
# Poissons Ratio (z) = 0.24878 0.21893
#
# Static dielectric constant tensor:
#      x y z
#    x 2.094440 0.051180 0.003520 
#    y 0.051180 2.117250 -0.102040 
#    z 0.003520 -0.102040 2.232790 
# 
# From -- ./inp_files/32885.got.cif
#   From: 2010.05.17/outbox.cif.g08.bks.cpg/sg2_17_cif.got.tgz:32885.got - 2010.06.03 11:33:40.
