data_PCOD9109476
_publ_section_title
;
Structure prediction by ZEFSAII (Michael W. Deem and Ramdas Pophale) SiO2 
 PCOD9109476
Probable space group: P -1
;
_chemical_formula_sum "Si O2"
_cell_formula_units_Z 14
_cell_length_a 9.964432
_cell_length_b 13.469187
_cell_length_c 10.195791
_cell_angle_alpha 65.671232
_cell_angle_beta 41.651962
_cell_angle_gamma 96.500827
_cell_volume 595.622014
_symmetry_space_group_name_H-M "P -1"
_symmetry_group_IT_number 2
_symmetry_cell_setting 'triclinic'
loop_
_space_group_symop_operation_xyz
x,y,z
-x,-y,-z
loop_
_atom_site_type_symbol
_atom_site_label
_atom_site_fract_x
_atom_site_fract_y
_atom_site_fract_z
Si Si1 0.824962 0.741097 0.595275
Si Si2 0.650359 0.391328 0.532368
Si Si3 0.202245 0.503668 0.170133
Si Si4 0.690588 0.006420 0.752791
Si Si5 0.178997 0.061116 0.075198
Si Si6 0.205208 0.408209 0.928865
Si Si7 0.278343 0.932763 0.586386
O O1 0.818582 0.608564 0.656308
O O2 0.511351 0.669413 0.877911
O O3 0.006031 0.823015 0.551051
O O4 0.014180 0.883588 0.278333
O O5 0.435461 0.398102 0.748816
O O6 0.746025 0.483711 0.277981
O O7 0.914586 0.463599 0.394322
O O8 0.474046 0.214823 0.722041
O O9 0.230372 0.470381 0.018658
O O10 0.747389 0.914711 0.835050
O O11 0.590405 0.975560 0.696108
O O12 0.500000 0.000000 0.000000
O O13 0.947844 0.062113 0.208432
O O14 0.901860 0.242202 0.214227
O O15 0.500000 0.000000 0.500000
#
# Coordination Sequence:
#
# PCOD9109476 Si02
#       7
#     2   2   2   2   2   2   2
#     4   9  22  37  64  94 123 161 224 267 322 394
#     4  10  22  39  65  91 129 175 214 265 334 389
#     4  11  20  41  65  90 127 171 214 273 327 385
#     4  10  20  41  65  94 131 164 215 271 323 385
#     4   9  21  41  63  94 130 169 218 273 325 387
#     4  10  22  41  63  90 135 171 216 265 332 402
#     4  11  23  41  69  95 130 176 217 273 332 390
#
# _framework density 23.504839
#
# number of rings (size 3 to 8) (size 9 to 14) (size 15 to 20)
#    0.857    1.143    1.429    1.714    2.000    0.000 
#    7.714    4.286    0.000    0.000    0.000    0.000 
#    0.000    0.000    0.000    0.000    0.000    0.000 
#
# Total GULP energy -78069.522702 kJ/mol
# GULP energy per Si atom -5576.394479 kJ/mol
# Density = 2.345134 g / cm^3
# Si number density = 23.504839 Si / 1000 Ang^3
#
#
#
# Elastic Constant Matrix: (Units=GPa)
#
#
# Indices 1 2 3 4 5 6 
#
# 1 155.4812 18.8766 68.1438 -10.9787 -35.5689 -5.2630
# 2 18.8766 37.7531 39.7230 -4.5553 -11.3191 -1.3637
# 3 68.1438 39.7230 123.9593 -19.3653 -23.0042 -19.3386
# 4 -10.9787 -4.5553 -19.3653 33.3114 -16.3138 4.4853
# 5 -35.5689 -11.3191 -23.0042 -16.3138 44.3956 -1.5833
# 6 -5.2630 -1.3637 -19.3386 4.4853 -1.5833 32.1757
#
#
#
# Elastic Compliance Matrix: (Units=1/GPa)
#
#
# Indices 1 2 3 4 5 6 
#
# 1 0.010334 0.002440 -0.004039 0.005909 0.008944 -0.001017
# 2 0.002440 0.042281 -0.014622 0.001683 0.005543 -0.006559
# 3 -0.004039 -0.014622 0.019319 0.010129 0.007099 0.009268
# 4 0.005909 0.001683 0.010129 0.052480 0.029742 0.001274
# 5 0.008944 0.005543 0.007099 0.029742 0.045857 0.004075
# 6 -0.001017 -0.006559 0.009268 0.001274 0.004075 0.036228
#
#
# Mechanical properties :
#
#
# Convention : Reuss Voigt Hill
#
# Bulk Modulus (GPa) = 25.32104 63.40893 44.36498
# Shear Modulus (GPa) = 19.83302 34.67323 27.25312
#
# Velocity S-wave (km/s) = 2.90795 3.84494 3.40879
# Velocity P-wave (km/s) = 4.69797 6.83717 5.86591
#
# Compressibility (1/GPa) = 0.03949286
#
# Stress axis : x y z
#
# Youngs Moduli (GPa) = 96.76374 23.65130 51.76318
#
# Poissons Ratio (x) = -0.05771 0.20906
# Poissons Ratio (y) = -0.23612 0.75688
# Poissons Ratio (z) = 0.39081 0.34583
#
# Static dielectric constant tensor:
#      x y z
#    x 1.885560 -0.043280 -0.007320 
#    y -0.043280 1.985760 0.007720 
#    z -0.007320 0.007720 1.961200 
# 
# From -- ./inp_files/400421.got.cif
#   From: 2010.05.17/outbox.cif.g08.bks.cpg/sg2_201_cif.got.tgz:400421.got - 2010.06.03 11:33:40.
