data_PCOD9109238
_publ_section_title
;
Structure prediction by ZEFSAII (Michael W. Deem and Ramdas Pophale) SiO2 
 PCOD9109238
Probable space group: P -1
;
_chemical_formula_sum "Si O2"
_cell_formula_units_Z 16
_cell_length_a 9.947264
_cell_length_b 15.733809
_cell_length_c 8.424112
_cell_angle_alpha 129.688742
_cell_angle_beta 96.676050
_cell_angle_gamma 48.876359
_cell_volume 650.941872
_symmetry_space_group_name_H-M "P -1"
_symmetry_group_IT_number 2
_symmetry_cell_setting 'triclinic'
loop_
_space_group_symop_operation_xyz
x,y,z
-x,-y,-z
loop_
_atom_site_type_symbol
_atom_site_label
_atom_site_fract_x
_atom_site_fract_y
_atom_site_fract_z
Si Si1 0.620868 0.609897 0.674398
Si Si2 0.640712 0.234344 0.615223
Si Si3 0.173723 0.957852 0.878767
Si Si4 0.072902 0.638460 0.863294
Si Si5 0.408678 0.601098 0.895231
Si Si6 0.329791 0.208417 0.901362
Si Si7 0.268667 0.313400 0.661356
Si Si8 0.310108 0.090139 0.200525
O O1 0.410760 0.778811 0.754479
O O2 0.805120 0.476318 0.414687
O O3 0.534708 0.563612 0.714534
O O4 0.699707 0.655579 0.856705
O O5 0.836487 0.080497 0.349477
O O6 0.542810 0.411641 0.749137
O O7 0.503367 0.210020 0.542947
O O8 0.626056 0.272234 0.844085
O O9 0.163830 0.090617 0.097732
O O10 0.000000 0.000000 0.000000
O O11 0.177756 0.692182 0.960797
O O12 0.147243 0.504289 0.849540
O O13 0.826427 0.780217 0.021382
O O14 0.272612 0.258171 0.769504
O O15 0.568326 0.030095 0.768370
O O16 0.204205 0.267373 0.461653
O O17 0.500000 0.000000 0.000000
#
# Coordination Sequence:
#
# PCOD9109238 Si02
#       8
#     2   2   2   2   2   2   2   2
#     4  11  21  41  62  90 127 164 203 259 320 368
#     4  10  20  41  64  88 126 163 204 259 312 370
#     4  11  24  42  63  91 122 164 214 258 308 380
#     4  11  23  40  63  99 131 159 214 267 308 379
#     4  10  21  38  66  89 122 167 199 254 327 365
#     4  11  24  39  65  95 125 167 215 259 315 379
#     4  11  20  43  65  90 129 170 208 261 315 378
#     4  11  23  43  66  87 126 172 207 259 324 367
#
# _framework density 24.579764999999998
#
# number of rings (size 3 to 8) (size 9 to 14) (size 15 to 20)
#    0.000    1.250    5.000    2.250    0.000    2.000 
#    2.250    0.625    0.000    0.000    0.000    0.000 
#    0.000    0.000    0.000    0.000    0.000    0.000 
#
# Total GULP energy -89357.760147 kJ/mol
# GULP energy per Si atom -5584.860009 kJ/mol
# Density = 2.452382 g / cm^3
# Si number density = 24.579765 Si / 1000 Ang^3
#
#
#
# Elastic Constant Matrix: (Units=GPa)
#
#
# Indices 1 2 3 4 5 6 
#
# 1 121.8709 14.0833 30.3403 -15.1932 -5.5891 20.0977
# 2 14.0833 68.6060 24.8187 -6.2604 -9.7615 10.9365
# 3 30.3403 24.8187 118.9143 -19.6973 4.6568 6.6234
# 4 -15.1932 -6.2604 -19.6973 33.9832 4.1170 -5.9205
# 5 -5.5891 -9.7615 4.6568 4.1170 49.5364 -8.3819
# 6 20.0977 10.9365 6.6234 -5.9205 -8.3819 27.6451
#
#
#
# Elastic Compliance Matrix: (Units=1/GPa)
#
#
# Indices 1 2 3 4 5 6 
#
# 1 0.009992 -0.000199 -0.001777 0.002309 0.000003 -0.006264
# 2 -0.000199 0.017009 -0.003351 -0.000101 0.002815 -0.004950
# 3 -0.001777 -0.003351 0.010445 0.004997 -0.002169 0.000527
# 4 0.002309 -0.000101 0.004997 0.034289 -0.002441 0.003767
# 5 0.000003 0.002815 -0.002169 -0.002441 0.022093 0.005579
# 6 -0.006264 -0.004950 0.000527 0.003767 0.005579 0.045057
#
#
# Mechanical properties :
#
#
# Convention : Reuss Voigt Hill
#
# Bulk Modulus (GPa) = 37.32090 49.76398 43.54244
# Shear Modulus (GPa) = 31.55206 38.24286 34.89746
#
# Velocity S-wave (km/s) = 3.58671 3.94873 3.77206
# Velocity P-wave (km/s) = 5.68939 6.40935 6.06007
#
# Compressibility (1/GPa) = 0.02679464
#
# Stress axis : x y z
#
# Youngs Moduli (GPa) = 100.08327 58.79151 95.73628
#
# Poissons Ratio (x) = 0.01168 0.17009
# Poissons Ratio (y) = 0.01988 0.32077
# Poissons Ratio (z) = 0.17781 0.19699
#
# Static dielectric constant tensor:
#      x y z
#    x 1.932810 -0.020020 0.015040 
#    y -0.020020 2.127160 -0.009640 
#    z 0.015040 -0.009640 1.984430 
# 
# From -- ./inp_files/218623.got.cif
#   From: 2010.05.17/outbox.cif.g08.bks.cpg/sg2_110_cif.got.tgz:218623.got - 2010.06.03 11:33:40.
