data_PCOD9109361
_publ_section_title
;
Structure prediction by ZEFSAII (Michael W. Deem and Ramdas Pophale) SiO2 
 PCOD9109361
Probable space group: P -1
;
_chemical_formula_sum "Si O2"
_cell_formula_units_Z 16
_cell_length_a 8.289261
_cell_length_b 8.632029
_cell_length_c 14.952975
_cell_angle_alpha 69.946482
_cell_angle_beta 126.770926
_cell_angle_gamma 81.003292
_cell_volume 706.015120
_symmetry_space_group_name_H-M "P -1"
_symmetry_group_IT_number 2
_symmetry_cell_setting 'triclinic'
loop_
_space_group_symop_operation_xyz
x,y,z
-x,-y,-z
loop_
_atom_site_type_symbol
_atom_site_label
_atom_site_fract_x
_atom_site_fract_y
_atom_site_fract_z
Si Si1 0.864128 0.836857 0.576869
Si Si2 0.327836 0.764153 0.654577
Si Si3 0.934551 0.948261 0.766472
Si Si4 0.546574 0.341121 0.764034
Si Si5 0.449688 0.825755 0.015405
Si Si6 0.670108 0.616364 0.954490
Si Si7 0.481505 0.313393 0.550345
Si Si8 0.031124 0.730498 0.999442
O O1 0.718467 0.725512 0.547043
O O2 0.086219 0.772576 0.599381
O O3 0.709722 0.055122 0.450624
O O4 0.952477 0.827407 0.709196
O O5 0.473803 0.562409 0.696001
O O6 0.464518 0.752423 0.793493
O O7 0.731566 0.151439 0.636797
O O8 0.179027 0.925061 0.881062
O O9 0.858433 0.884566 0.843905
O O10 0.457472 0.301406 0.651597
O O11 0.474843 0.275894 0.843279
O O12 0.823694 0.227105 0.888538
O O13 0.575294 0.665909 0.012996
O O14 0.500000 0.000000 0.000000
O O15 0.889116 0.648930 0.017943
O O16 0.777832 0.415885 0.978883
O O17 0.500000 0.500000 0.500000
#
# Coordination Sequence:
#
# PCOD9109361 Si02
#       8
#     2   2   2   2   2   2   2   2
#     4  11  24  42  71  96 128 184 233 287 328 402
#     4  10  22  42  70  96 133 175 232 283 332 408
#     4  11  24  44  66  98 132 178 232 276 338 406
#     4  10  25  44  64 101 137 177 222 282 347 407
#     4  11  26  39  71 103 143 177 218 286 351 415
#     4  10  20  41  65 104 130 171 224 273 343 401
#     4  12  28  45  68  97 141 184 229 286 340 406
#     4   9  22  38  72  96 131 172 217 283 336 408
#
# _framework density 22.662406000000001
#
# number of rings (size 3 to 8) (size 9 to 14) (size 15 to 20)
#    0.000    1.500    1.250    1.875    7.000    7.000 
#    0.000    0.000    0.000    0.000    0.000    0.000 
#    0.000    0.000    0.000    0.000    0.000    0.000 
#
# Total GULP energy -89307.451266 kJ/mol
# GULP energy per Si atom -5581.715704 kJ/mol
# Density = 2.261083 g / cm^3
# Si number density = 22.662406 Si / 1000 Ang^3
#
#
#
# Elastic Constant Matrix: (Units=GPa)
#
#
# Indices 1 2 3 4 5 6 
#
# 1 82.0967 29.3702 16.9654 8.9029 6.6764 8.1223
# 2 29.3702 68.5108 28.4799 11.5311 3.1438 7.4732
# 3 16.9654 28.4799 88.4276 16.8455 -1.5766 5.8676
# 4 8.9029 11.5311 16.8455 41.8994 -6.1218 -3.0997
# 5 6.6764 3.1438 -1.5766 -6.1218 24.9243 2.9696
# 6 8.1223 7.4732 5.8676 -3.0997 2.9696 38.5197
#
#
#
# Elastic Compliance Matrix: (Units=1/GPa)
#
#
# Indices 1 2 3 4 5 6 
#
# 1 0.014967 -0.005411 -0.000669 -0.002096 -0.003659 -0.001891
# 2 -0.005411 0.019621 -0.004645 -0.002791 -0.001761 -0.002047
# 3 -0.000669 -0.004645 0.013831 -0.004131 0.000799 -0.001459
# 4 -0.002096 -0.002791 -0.004131 0.028030 0.007142 0.003318
# 5 -0.003659 -0.001761 0.000799 0.007142 0.043340 -0.001775
# 6 -0.001891 -0.002047 -0.001459 0.003318 -0.001775 0.027383
#
#
# Mechanical properties :
#
#
# Convention : Reuss Voigt Hill
#
# Bulk Modulus (GPa) = 37.08038 43.18512 40.13275
# Shear Modulus (GPa) = 28.15143 32.01666 30.08405
#
# Velocity S-wave (km/s) = 3.52832 3.76275 3.64742
# Velocity P-wave (km/s) = 5.74424 6.16238 5.95698
#
# Compressibility (1/GPa) = 0.02696844
#
# Stress axis : x y z
#
# Youngs Moduli (GPa) = 66.81465 50.96659 72.30062
#
# Poissons Ratio (x) = 0.27578 0.04838
# Poissons Ratio (y) = 0.36154 0.33583
# Poissons Ratio (z) = 0.04471 0.23674
#
# Static dielectric constant tensor:
#      x y z
#    x 1.860080 -0.015370 -0.023530 
#    y -0.015370 1.875110 -0.040700 
#    z -0.023530 -0.040700 1.855130 
# 
# From -- ./inp_files/272701.got.cif
#   From: 2010.05.17/outbox.cif.g08.bks.cpg/sg2_137_cif.got.tgz:272701.got - 2010.06.03 11:33:40.
