data_PCOD9109054
_publ_section_title
;
Structure prediction by ZEFSAII (Michael W. Deem and Ramdas Pophale) SiO2 
 PCOD9109054
Probable space group: P -1
;
_chemical_formula_sum "Si O2"
_cell_formula_units_Z 16
_cell_length_a 10.916079
_cell_length_b 8.123825
_cell_length_c 11.457082
_cell_angle_alpha 72.849309
_cell_angle_beta 138.657751
_cell_angle_gamma 106.851828
_cell_volume 637.504051
_symmetry_space_group_name_H-M "P -1"
_symmetry_group_IT_number 2
_symmetry_cell_setting 'triclinic'
loop_
_space_group_symop_operation_xyz
x,y,z
-x,-y,-z
loop_
_atom_site_type_symbol
_atom_site_label
_atom_site_fract_x
_atom_site_fract_y
_atom_site_fract_z
Si Si1 0.648120 0.453125 0.212763
Si Si2 0.437008 0.204669 0.302686
Si Si3 0.629002 0.036472 0.906021
Si Si4 0.918046 0.631688 0.000429
Si Si5 0.180138 0.793131 0.339586
Si Si6 0.687248 0.831573 0.214579
Si Si7 0.973669 0.429970 0.298651
Si Si8 0.004853 0.917658 0.713165
O O1 0.537705 0.343405 0.255405
O O2 0.738617 0.639317 0.284755
O O3 0.818487 0.366802 0.295108
O O4 0.500000 0.500000 0.000000
O O5 0.597573 0.186522 0.514593
O O6 0.386581 0.041388 0.216462
O O7 0.247925 0.275803 0.193158
O O8 0.600541 0.880786 0.015833
O O9 0.836017 0.119248 0.069773
O O10 0.465095 0.149481 0.799539
O O11 0.854453 0.508614 0.091524
O O12 0.067508 0.771597 0.141980
O O13 0.000000 0.500000 0.000000
O O14 0.108216 0.605148 0.385175
O O15 0.121540 0.950532 0.343439
O O16 0.867161 0.971378 0.314523
O O17 0.071807 0.267729 0.354611
#
# Coordination Sequence:
#
# PCOD9109054 Si02
#       8
#     2   2   2   2   2   2   2   2
#     4  12  16  32  57  88 126 159 200 239 295 362
#     4  12  22  36  64  89 123 165 195 251 310 356
#     4   9  16  30  51  82 110 160 204 232 292 343
#     4  10  22  45  66  87 118 156 204 255 309 360
#     4  10  23  41  58  93 123 157 205 251 299 362
#     4   9  16  27  53  81 119 167 200 237 279 355
#     4  10  20  38  62  89 122 166 198 247 297 360
#     4  10  16  37  58  79 129 157 200 248 291 352
#
# _framework density 25.097878999999999
#
# number of rings (size 3 to 8) (size 9 to 14) (size 15 to 20)
#    1.500    0.250    5.000    1.500    0.000    1.000 
#    2.250    1.875    0.000    0.750    0.000    0.000 
#    0.000    0.000    0.000    0.000    0.000    0.000 
#
# Total GULP energy -89415.623422 kJ/mol
# GULP energy per Si atom -5588.476464 kJ/mol
# Density = 2.504075 g / cm^3
# Si number density = 25.097879 Si / 1000 Ang^3
#
#
#
# Elastic Constant Matrix: (Units=GPa)
#
#
# Indices 1 2 3 4 5 6 
#
# 1 71.9389 43.2527 41.0858 -5.1779 6.8825 -11.5244
# 2 43.2527 165.3719 47.4998 2.7976 12.5263 -22.6786
# 3 41.0858 47.4998 129.2700 0.0302 30.6351 -23.0324
# 4 -5.1779 2.7976 0.0302 26.1856 -1.7500 6.6024
# 5 6.8825 12.5263 30.6351 -1.7500 27.8522 -13.5628
# 6 -11.5244 -22.6786 -23.0324 6.6024 -13.5628 55.3601
#
#
#
# Elastic Compliance Matrix: (Units=1/GPa)
#
#
# Indices 1 2 3 4 5 6 
#
# 1 0.019365 -0.003745 -0.005512 0.004332 0.003499 0.000544
# 2 -0.003745 0.007713 -0.001191 -0.002103 -0.000369 0.002045
# 3 -0.005512 -0.001191 0.012949 -0.002045 -0.011954 0.001067
# 4 0.004332 -0.002103 -0.002045 0.040712 0.002185 -0.005131
# 5 0.003499 -0.000369 -0.011954 0.002185 0.052484 0.008202
# 6 0.000544 0.002045 0.001067 -0.005131 0.008202 0.022080
#
#
# Mechanical properties :
#
#
# Convention : Reuss Voigt Hill
#
# Bulk Modulus (GPa) = 52.27540 70.02861 61.15200
# Shear Modulus (GPa) = 27.38588 37.52906 32.45747
#
# Velocity S-wave (km/s) = 3.30686 3.87112 3.60006
# Velocity P-wave (km/s) = 5.95435 6.92412 6.45747
#
# Compressibility (1/GPa) = 0.01912946
#
# Stress axis : x y z
#
# Youngs Moduli (GPa) = 51.64051 129.65636 77.22770
#
# Poissons Ratio (x) = 0.48561 0.42565
# Poissons Ratio (y) = 0.19341 0.09200
# Poissons Ratio (z) = 0.28463 0.15446
#
# Static dielectric constant tensor:
#      x y z
#    x 1.969350 0.044490 -0.054100 
#    y 0.044490 1.961710 -0.005680 
#    z -0.054100 -0.005680 2.059520 
# 
# From -- ./inp_files/528765.got.cif
#   From: 2010.05.17/outbox.cif.g08.bks.cpg/sg2_265_cif.got.tgz:528765.got - 2010.06.03 11:33:40.
