data_PCOD9109036
_publ_section_title
;
Structure prediction by ZEFSAII (Michael W. Deem and Ramdas Pophale) SiO2 
 PCOD9109036
Probable space group: P -1
;
_chemical_formula_sum "Si O2"
_cell_formula_units_Z 16
_cell_length_a 11.269238
_cell_length_b 23.201386
_cell_length_c 5.251301
_cell_angle_alpha 111.398292
_cell_angle_beta 118.742656
_cell_angle_gamma 31.002563
_cell_volume 616.656742
_symmetry_space_group_name_H-M "P -1"
_symmetry_group_IT_number 2
_symmetry_cell_setting 'triclinic'
loop_
_space_group_symop_operation_xyz
x,y,z
-x,-y,-z
loop_
_atom_site_type_symbol
_atom_site_label
_atom_site_fract_x
_atom_site_fract_y
_atom_site_fract_z
Si Si1 0.564869 0.330646 0.547787
Si Si2 0.889849 0.741317 0.799894
Si Si3 0.616880 0.003525 0.325321
Si Si4 0.624235 0.718694 0.998206
Si Si5 0.969910 0.241618 0.507451
Si Si6 0.050394 0.549768 0.524669
Si Si7 0.256118 0.939693 0.797247
Si Si8 0.795870 0.148271 0.806487
O O1 0.722701 0.300630 0.438183
O O2 0.749385 0.235080 0.800524
O O3 0.337910 0.454008 0.631244
O O4 0.426220 0.321445 0.292751
O O5 0.614832 0.865817 0.624668
O O6 0.928882 0.652826 0.718758
O O7 0.053070 0.706831 0.680663
O O8 0.959264 0.747121 0.146121
O O9 0.776154 0.990226 0.305230
O O10 0.802364 0.894080 0.516831
O O11 0.500000 0.000000 0.000000
O O12 0.899467 0.611193 0.205504
O O13 0.423804 0.784540 0.124696
O O14 0.535160 0.819662 0.971700
O O15 0.000000 0.500000 0.500000
O O16 0.212842 0.893912 0.516091
O O17 0.074008 0.026215 0.980942
#
# Coordination Sequence:
#
# PCOD9109036 Si02
#       8
#     2   2   2   2   2   2   2   2
#     4  11  25  44  71 103 142 192 247 294 367 429
#     4  11  28  48  76 106 148 197 245 301 369 434
#     4  10  22  42  70 106 145 186 237 300 373 441
#     4  11  24  40  70 102 144 189 242 306 367 437
#     4  11  26  50  75 109 148 193 245 303 364 450
#     4  12  27  48  73 104 145 194 249 308 360 431
#     4  10  21  38  65 101 144 183 235 302 370 440
#     4  10  20  41  62 103 141 184 234 298 370 431
#
# _framework density 25.946365
#
# number of rings (size 3 to 8) (size 9 to 14) (size 15 to 20)
#    0.000    1.250    2.500    1.875    7.000    2.000 
#    6.750    0.000    0.000    0.000    0.000    0.000 
#    0.000    0.000    0.000    0.000    0.000    0.000 
#
# Total GULP energy -89492.550413 kJ/mol
# GULP energy per Si atom -5593.284401 kJ/mol
# Density = 2.588731 g / cm^3
# Si number density = 25.946365 Si / 1000 Ang^3
#
#
#
# Elastic Constant Matrix: (Units=GPa)
#
#
# Indices 1 2 3 4 5 6 
#
# 1 106.3462 33.3787 11.0289 7.3287 -8.3120 5.3229
# 2 33.3787 174.3685 14.8047 13.6171 -2.4063 -1.3972
# 3 11.0289 14.8047 86.2060 17.3707 10.2233 12.2271
# 4 7.3287 13.6171 17.3707 31.7325 1.9010 -4.1204
# 5 -8.3120 -2.4063 10.2233 1.9010 40.4793 4.9865
# 6 5.3229 -1.3972 12.2271 -4.1204 4.9865 50.1035
#
#
#
# Elastic Compliance Matrix: (Units=1/GPa)
#
#
# Indices 1 2 3 4 5 6 
#
# 1 0.010412 -0.001782 -0.000828 -0.001507 0.002475 -0.001324
# 2 -0.001782 0.006279 -0.000521 -0.001969 0.000193 0.000310
# 3 -0.000828 -0.000521 0.014225 -0.007679 -0.002973 -0.003734
# 4 -0.001507 -0.001969 -0.007679 0.037634 -0.000891 0.005163
# 5 0.002475 0.000193 -0.002973 -0.000891 0.026290 -0.002222
# 6 -0.001324 0.000310 -0.003734 0.005163 -0.002222 0.021665
#
#
# Mechanical properties :
#
#
# Convention : Reuss Voigt Hill
#
# Bulk Modulus (GPa) = 40.55894 53.92727 47.24311
# Shear Modulus (GPa) = 38.17270 44.97694 41.57482
#
# Velocity S-wave (km/s) = 3.83980 4.16800 4.00726
# Velocity P-wave (km/s) = 5.94345 6.63266 6.29749
#
# Compressibility (1/GPa) = 0.02465547
#
# Stress axis : x y z
#
# Youngs Moduli (GPa) = 96.04401 159.25695 70.29922
#
# Poissons Ratio (x) = 0.28373 0.05822
# Poissons Ratio (y) = 0.17111 0.03659
# Poissons Ratio (z) = 0.07954 0.08289
#
# Static dielectric constant tensor:
#      x y z
#    x 1.977010 0.177510 0.050880 
#    y 0.177510 1.599530 -0.195980 
#    z 0.050880 -0.195980 2.087650 
# 
# From -- ./inp_files/84551.got.cif
#   From: 2010.05.17/outbox.cif.g08.bks.cpg/sg2_43_cif.got.tgz:84551.got - 2010.06.03 11:33:40.
