data_PCOD9109484
_publ_section_title
;
Structure prediction by ZEFSAII (Michael W. Deem and Ramdas Pophale) SiO2 
 PCOD9109484
Probable space group: P -1
;
_chemical_formula_sum "Si O2"
_cell_formula_units_Z 16
_cell_length_a 15.233581
_cell_length_b 8.560796
_cell_length_c 14.785309
_cell_angle_alpha 87.259603
_cell_angle_beta 141.801246
_cell_angle_gamma 120.894101
_cell_volume 759.299776
_symmetry_space_group_name_H-M "P -1"
_symmetry_group_IT_number 2
_symmetry_cell_setting 'triclinic'
loop_
_space_group_symop_operation_xyz
x,y,z
-x,-y,-z
loop_
_atom_site_type_symbol
_atom_site_label
_atom_site_fract_x
_atom_site_fract_y
_atom_site_fract_z
Si Si1 0.885519 0.016928 0.477852
Si Si2 0.376220 0.488583 0.322406
Si Si3 0.081503 0.748739 0.062176
Si Si4 0.658792 0.035879 0.559875
Si Si5 0.321334 0.422937 0.928545
Si Si6 0.511716 0.459462 0.251836
Si Si7 0.530590 0.127570 0.296905
Si Si8 0.465611 0.063372 0.876972
O O1 0.694074 0.749668 0.376045
O O2 0.779573 0.073981 0.338376
O O3 0.000000 0.000000 0.500000
O O4 0.076615 0.222583 0.696292
O O5 0.500000 0.500000 0.500000
O O6 0.518436 0.768468 0.420254
O O7 0.390881 0.396320 0.248212
O O8 0.121471 0.319661 0.136398
O O9 0.141326 0.837332 0.213471
O O10 0.299112 0.947101 0.170177
O O11 0.000000 0.500000 0.000000
O O12 0.500000 0.000000 0.500000
O O13 0.694267 0.171633 0.495936
O O14 0.500000 0.500000 0.000000
O O15 0.342427 0.331173 0.035293
O O16 0.390785 0.656713 0.005705
O O17 0.613439 0.373016 0.338425
O O18 0.486060 0.999175 0.170932
O O19 0.500000 0.000000 0.000000
#
# Coordination Sequence:
#
# PCOD9109484 Si02
#       8
#     2   2   2   2   2   2   2   2
#     4  11  24  46  74  97 135 188 224 280 356 404
#     4  12  25  44  67 104 138 182 235 283 338 409
#     4  11  24  43  73  95 140 186 226 280 351 399
#     4  10  20  41  65  94 137 175 224 285 332 402
#     4  11  22  46  71  99 139 179 226 285 340 415
#     4  11  26  43  69 101 144 177 235 283 341 410
#     4  11  24  46  67 107 142 180 232 288 342 408
#     4  11  25  45  71 105 141 176 230 289 340 414
#
# _framework density 21.072044000000002
#
# number of rings (size 3 to 8) (size 9 to 14) (size 15 to 20)
#    0.000    1.000    5.000    3.750    0.000    5.500 
#    0.000    0.000    0.000    0.000    0.000    0.000 
#    0.000    0.000    0.000    0.000    0.000    0.000 
#
# Total GULP energy -89410.714131 kJ/mol
# GULP energy per Si atom -5588.169633 kJ/mol
# Density = 2.102408 g / cm^3
# Si number density = 21.072044 Si / 1000 Ang^3
#
#
#
# Elastic Constant Matrix: (Units=GPa)
#
#
# Indices 1 2 3 4 5 6 
#
# 1 120.2215 32.1609 35.9316 -20.9559 -20.3198 -3.4336
# 2 32.1609 96.8960 38.6223 -33.9855 -9.5210 -7.1603
# 3 35.9316 38.6223 160.2314 -35.7780 -10.1591 5.9427
# 4 -20.9559 -33.9855 -35.7780 43.8206 0.0248 -11.2738
# 5 -20.3198 -9.5210 -10.1591 0.0248 39.1196 -1.8992
# 6 -3.4336 -7.1603 5.9427 -11.2738 -1.8992 33.4557
#
#
#
# Elastic Compliance Matrix: (Units=1/GPa)
#
#
# Indices 1 2 3 4 5 6 
#
# 1 0.010541 -0.000908 -0.000972 0.004257 0.005134 0.002786
# 2 -0.000908 0.016993 -0.000762 0.014369 0.003882 0.008742
# 3 -0.000972 -0.000762 0.007949 0.005499 0.001383 0.000257
# 4 0.004257 0.014369 0.005499 0.045171 0.007992 0.018211
# 5 0.005134 0.003882 0.001383 0.007992 0.029795 0.005497
# 6 0.002786 0.008742 0.000257 0.018211 0.005497 0.038450
#
#
# Mechanical properties :
#
#
# Convention : Reuss Voigt Hill
#
# Bulk Modulus (GPa) = 33.11400 65.64206 49.37803
# Shear Modulus (GPa) = 30.44171 41.32146 35.88159
#
# Velocity S-wave (km/s) = 3.80498 4.43308 4.13098
# Velocity P-wave (km/s) = 5.92052 7.57772 6.79979
#
# Compressibility (1/GPa) = 0.03019871
#
# Stress axis : x y z
#
# Youngs Moduli (GPa) = 94.86964 58.84895 125.80620
#
# Poissons Ratio (x) = 0.05341 0.12231
# Poissons Ratio (y) = 0.08610 0.09586
# Poissons Ratio (z) = 0.09224 0.04484
#
# Static dielectric constant tensor:
#      x y z
#    x 1.760770 0.010240 0.010980 
#    y 0.010240 1.634940 -0.090240 
#    z 0.010980 -0.090240 1.747010 
# 
# From -- ./inp_files/528655.got.cif
#   From: 2010.05.17/outbox.cif.g08.bks.cpg/sg2_265_cif.got.tgz:528655.got - 2010.06.03 11:33:40.
