data_PCOD9109972
_publ_section_title
;
Structure prediction by ZEFSAII (Michael W. Deem and Ramdas Pophale) SiO2 
 PCOD9109972
Probable space group: P -1
;
_chemical_formula_sum "Si O2"
_cell_formula_units_Z 16
_cell_length_a 9.379876
_cell_length_b 11.934337
_cell_length_c 22.092045
_cell_angle_alpha 150.097280
_cell_angle_beta 128.647155
_cell_angle_gamma 35.983546
_cell_volume 698.947718
_symmetry_space_group_name_H-M "P -1"
_symmetry_group_IT_number 2
_symmetry_cell_setting 'triclinic'
loop_
_space_group_symop_operation_xyz
x,y,z
-x,-y,-z
loop_
_atom_site_type_symbol
_atom_site_label
_atom_site_fract_x
_atom_site_fract_y
_atom_site_fract_z
Si Si1 0.750910 0.689717 0.337036
Si Si2 0.134789 0.904121 0.140016
Si Si3 0.616720 0.305409 0.131914
Si Si4 0.378502 0.858615 0.708212
Si Si5 0.950560 0.531702 0.572459
Si Si6 0.567526 0.237351 0.458455
Si Si7 0.888476 0.364830 0.882693
Si Si8 0.733320 0.974444 0.882736
O O1 0.586334 0.601073 0.253462
O O2 0.820762 0.700135 0.429222
O O3 0.008918 0.380629 0.229407
O O4 0.645407 0.987742 0.411358
O O5 0.228512 0.656933 0.099623
O O6 0.152304 0.137417 0.281205
O O7 0.260055 0.828889 0.072629
O O8 0.839001 0.097622 0.142457
O O9 0.344162 0.428258 0.128555
O O10 0.725806 0.086525 0.999404
O O11 0.577110 0.488055 0.598419
O O12 0.307920 0.913898 0.644199
O O13 0.511618 0.982594 0.816638
O O14 0.126692 0.038133 0.764270
O O15 0.728696 0.546411 0.532259
O O16 0.000000 0.500000 0.500000
O O17 0.000000 0.500000 0.000000
#
# Coordination Sequence:
#
# PCOD9109972 Si02
#       8
#     2   2   2   2   2   2   2   2
#     4  10  22  40  70 102 123 180 228 268 338 400
#     4  10  22  41  66  96 128 171 221 276 329 394
#     4  10  22  42  68  98 135 166 221 283 327 399
#     4  11  24  44  63  97 138 183 216 279 335 387
#     4  10  20  41  68  96 132 169 221 282 327 388
#     4  11  23  43  66  92 141 175 225 275 327 405
#     4  12  25  42  65  97 136 175 220 267 346 399
#     4  10  20  44  67  97 133 170 226 276 331 393
#
# _framework density 22.891553999999999
#
# number of rings (size 3 to 8) (size 9 to 14) (size 15 to 20)
#    0.000    1.750    3.750    3.000    0.000    4.000 
#    2.250    2.500    0.000    0.000    0.000    0.000 
#    0.000    0.000    0.000    0.000    0.000    0.000 
#
# Total GULP energy -89403.562397 kJ/mol
# GULP energy per Si atom -5587.722650 kJ/mol
# Density = 2.283945 g / cm^3
# Si number density = 22.891554 Si / 1000 Ang^3
#
#
#
# Elastic Constant Matrix: (Units=GPa)
#
#
# Indices 1 2 3 4 5 6 
#
# 1 62.9442 17.9560 25.3456 -15.7161 -2.2451 -11.4665
# 2 17.9560 85.1822 26.5226 -7.1429 13.2963 4.8290
# 3 25.3456 26.5226 79.5609 -8.4953 -0.0246 17.8827
# 4 -15.7161 -7.1429 -8.4953 21.8159 -0.3059 -1.9889
# 5 -2.2451 13.2963 -0.0246 -0.3059 35.6711 -5.0318
# 6 -11.4665 4.8290 17.8827 -1.9889 -5.0318 34.0693
#
#
#
# Elastic Compliance Matrix: (Units=1/GPa)
#
#
# Indices 1 2 3 4 5 6 
#
# 1 0.028439 -0.003289 -0.009972 0.017164 0.005568 0.017096
# 2 -0.003289 0.014561 -0.003194 0.000859 -0.005957 -0.002324
# 3 -0.009972 -0.003194 0.019655 -0.001828 -0.001347 -0.013526
# 4 0.017164 0.000859 -0.001828 0.058764 0.002737 0.010449
# 5 0.005568 -0.005957 -0.001347 0.002737 0.031796 0.008281
# 6 0.017096 -0.002324 -0.013526 0.010449 0.008281 0.044368
#
#
# Mechanical properties :
#
#
# Convention : Reuss Voigt Hill
#
# Bulk Modulus (GPa) = 33.61812 40.81504 37.21658
# Shear Modulus (GPa) = 20.79804 28.83546 24.81675
#
# Velocity S-wave (km/s) = 3.01748 3.55301 3.29614
# Velocity P-wave (km/s) = 5.18247 5.89070 5.54789
#
# Compressibility (1/GPa) = 0.02974587
#
# Stress axis : x y z
#
# Youngs Moduli (GPa) = 35.16275 68.67645 50.87764
#
# Poissons Ratio (x) = 0.22588 0.50733
# Poissons Ratio (y) = 0.11565 0.16251
# Poissons Ratio (z) = 0.35063 0.21936
#
# Static dielectric constant tensor:
#      x y z
#    x 1.878810 -0.018490 -0.017600 
#    y -0.018490 1.902260 0.054880 
#    z -0.017600 0.054880 1.862980 
# 
# From -- ./inp_files/589733.got.cif
#   From: 2010.05.17/outbox.cif.g08.bks.cpg/sg2_295_cif.got.tgz:589733.got - 2010.06.03 11:33:40.
