data_PCOD9109667
_publ_section_title
;
Structure prediction by ZEFSAII (Michael W. Deem and Ramdas Pophale) SiO2 
 PCOD9109667
Probable space group: P -1
;
_chemical_formula_sum "Si O2"
_cell_formula_units_Z 16
_cell_length_a 20.847345
_cell_length_b 7.980595
_cell_length_c 12.467870
_cell_angle_alpha 68.718066
_cell_angle_beta 146.055935
_cell_angle_gamma 135.767560
_cell_volume 649.863954
_symmetry_space_group_name_H-M "P -1"
_symmetry_group_IT_number 2
_symmetry_cell_setting 'triclinic'
loop_
_space_group_symop_operation_xyz
x,y,z
-x,-y,-z
loop_
_atom_site_type_symbol
_atom_site_label
_atom_site_fract_x
_atom_site_fract_y
_atom_site_fract_z
Si Si1 0.916187 0.154675 0.596173
Si Si2 0.736025 0.286436 0.370880
Si Si3 0.627059 0.686428 0.739981
Si Si4 0.172634 0.368886 0.080222
Si Si5 0.835979 0.709821 0.265291
Si Si6 0.717118 0.605984 0.546309
Si Si7 0.544652 0.015303 0.766781
Si Si8 0.838961 0.106018 0.098882
O O1 0.790267 0.174509 0.406505
O O2 0.075192 0.322570 0.687815
O O3 0.808289 0.829089 0.524044
O O4 0.002171 0.264867 0.811792
O O5 0.699700 0.417693 0.217497
O O6 0.556846 0.028855 0.259900
O O7 0.937025 0.584998 0.642995
O O8 0.500000 0.500000 0.500000
O O9 0.787577 0.741095 0.922611
O O10 0.448398 0.469673 0.623173
O O11 0.754018 0.016405 0.880584
O O12 0.157443 0.287618 0.200115
O O13 0.363073 0.725932 0.245281
O O14 0.773843 0.818248 0.098959
O O15 0.000000 0.000000 0.500000
O O16 0.621020 0.305355 0.443317
O O17 0.717023 0.088462 0.008262
#
# Coordination Sequence:
#
# PCOD9109667 Si02
#       8
#     2   2   2   2   2   2   2   2
#     4  12  22  42  67  93 134 170 219 273 324 392
#     4  11  24  42  66  98 131 176 221 269 330 382
#     4   9  19  36  63  88 128 171 215 263 327 377
#     4  11  21  39  64  94 134 170 218 267 327 386
#     4  10  22  41  70  94 129 172 220 276 326 382
#     4  10  22  38  64  95 128 177 215 261 328 394
#     4  11  23  41  66  95 139 171 215 272 322 390
#     4  10  20  41  66  95 133 173 216 275 326 381
#
# _framework density 24.620539000000001
#
# number of rings (size 3 to 8) (size 9 to 14) (size 15 to 20)
#    0.000    1.500    2.500    3.375    0.000    0.500 
#    0.000    2.500    0.000    0.000    0.000    0.000 
#    0.000    0.000    0.000    0.000    0.000    0.000 
#
# Total GULP energy -89192.227555 kJ/mol
# GULP energy per Si atom -5574.514222 kJ/mol
# Density = 2.456450 g / cm^3
# Si number density = 24.620539 Si / 1000 Ang^3
#
#
#
# Elastic Constant Matrix: (Units=GPa)
#
#
# Indices 1 2 3 4 5 6 
#
# 1 84.7966 20.2959 20.0211 -10.1217 20.3792 -11.7868
# 2 20.2959 89.3222 -2.9788 -0.9014 5.9228 -5.2628
# 3 20.0211 -2.9788 68.3564 3.9191 4.9033 0.2506
# 4 -10.1217 -0.9014 3.9191 28.9940 -8.7119 3.4656
# 5 20.3792 5.9228 4.9033 -8.7119 36.5187 0.0483
# 6 -11.7868 -5.2628 0.2506 3.4656 0.0483 30.3227
#
#
#
# Elastic Compliance Matrix: (Units=1/GPa)
#
#
# Indices 1 2 3 4 5 6 
#
# 1 0.016578 -0.003076 -0.004685 0.003465 -0.007304 0.005564
# 2 -0.003076 0.012043 0.001547 -0.001255 -0.000745 0.001026
# 3 -0.004685 0.001547 0.016350 -0.003875 -0.000755 -0.001243
# 4 0.003465 -0.001255 -0.003875 0.039014 0.008102 -0.003311
# 5 -0.007304 -0.000745 -0.000755 0.008102 0.033619 -0.003942
# 6 0.005564 0.001026 -0.001243 -0.003311 -0.003942 0.035715
#
#
# Mechanical properties :
#
#
# Convention : Reuss Voigt Hill
#
# Bulk Modulus (GPa) = 30.72750 35.23906 32.98328
# Shear Modulus (GPa) = 28.31362 32.84289 30.57826
#
# Velocity S-wave (km/s) = 3.39484 3.65631 3.52800
# Velocity P-wave (km/s) = 5.27960 5.67175 5.47918
#
# Compressibility (1/GPa) = 0.03254414
#
# Stress axis : x y z
#
# Youngs Moduli (GPa) = 60.32210 83.03470 61.16337
#
# Poissons Ratio (x) = 0.25541 0.28653
# Poissons Ratio (y) = 0.18554 -0.09464
# Poissons Ratio (z) = 0.28259 -0.12849
#
# Static dielectric constant tensor:
#      x y z
#    x 1.972530 0.002840 -0.046950 
#    y 0.002840 2.024680 -0.059750 
#    z -0.046950 -0.059750 2.196120 
# 
# From -- ./inp_files/469952.got.cif
#   From: 2010.05.17/outbox.cif.g08.bks.cpg/sg2_235_cif.got.tgz:469952.got - 2010.06.03 11:33:40.
