data_PCOD9109015
_publ_section_title
;
Structure prediction by ZEFSAII (Michael W. Deem and Ramdas Pophale) SiO2 
 PCOD9109015
Probable space group: P -1
;
_chemical_formula_sum "Si O2"
_cell_formula_units_Z 16
_cell_length_a 7.389414
_cell_length_b 21.507448
_cell_length_c 5.404907
_cell_angle_alpha 69.457425
_cell_angle_beta 118.571813
_cell_angle_gamma 120.592630
_cell_volume 642.775882
_symmetry_space_group_name_H-M "P -1"
_symmetry_group_IT_number 2
_symmetry_cell_setting 'triclinic'
loop_
_space_group_symop_operation_xyz
x,y,z
-x,-y,-z
loop_
_atom_site_type_symbol
_atom_site_label
_atom_site_fract_x
_atom_site_fract_y
_atom_site_fract_z
Si Si1 0.591475 0.907268 0.625408
Si Si2 0.875494 0.684398 0.953441
Si Si3 0.386933 0.317418 0.713321
Si Si4 0.204783 0.827552 0.188567
Si Si5 0.817503 0.838451 0.238628
Si Si6 0.810051 0.530092 0.283225
Si Si7 0.266569 0.526807 0.188508
Si Si8 0.217070 0.936373 0.665824
O O1 0.440687 0.838934 0.450349
O O2 0.399634 0.921729 0.634877
O O3 0.729970 0.979923 0.458764
O O4 0.747310 0.887978 0.942125
O O5 0.707184 0.685433 0.063910
O O6 0.914190 0.612969 0.144129
O O7 0.095176 0.761049 0.019579
O O8 0.769450 0.676107 0.623042
O O9 0.392110 0.239660 0.764040
O O10 0.615526 0.390273 0.759384
O O11 0.007852 0.816192 0.271473
O O12 0.252010 0.906592 0.992748
O O13 0.957328 0.885530 0.494201
O O14 0.710062 0.523188 0.504166
O O15 0.000000 0.500000 0.500000
O O16 0.656711 0.481745 0.026658
O O17 0.000000 0.500000 0.000000
#
# Coordination Sequence:
#
# PCOD9109015 Si02
#       8
#     2   2   2   2   2   2   2   2
#     4  10  22  37  64  95 126 171 217 273 324 391
#     4  11  23  41  66  90 129 170 207 270 330 382
#     4  11  23  41  65  92 127 168 213 264 330 391
#     4  10  22  40  61  91 131 169 218 268 329 393
#     4  10  22  40  61  93 129 170 221 266 329 393
#     4  10  22  40  60  90 121 160 207 256 316 382
#     4  10  22  40  60  89 124 159 205 265 309 382
#     4  10  20  41  61  92 132 165 216 274 328 389
#
# _framework density 24.892033999999999
#
# number of rings (size 3 to 8) (size 9 to 14) (size 15 to 20)
#    0.000    1.750    1.250    2.250    0.000    6.500 
#    4.500    0.000    0.000    0.000    0.000    0.000 
#    0.000    0.000    0.000    0.000    0.000    0.000 
#
# Total GULP energy -89438.572952 kJ/mol
# GULP energy per Si atom -5589.910809 kJ/mol
# Density = 2.483538 g / cm^3
# Si number density = 24.892034 Si / 1000 Ang^3
#
#
#
# Elastic Constant Matrix: (Units=GPa)
#
#
# Indices 1 2 3 4 5 6 
#
# 1 67.7629 14.0530 10.4913 9.7329 -6.9996 -2.1472
# 2 14.0530 115.7697 19.6547 -3.8247 9.0724 0.0639
# 3 10.4913 19.6547 145.2649 6.1111 -12.3897 5.4540
# 4 9.7329 -3.8247 6.1111 51.2967 5.4936 -5.3782
# 5 -6.9996 9.0724 -12.3897 5.4936 32.3340 4.3525
# 6 -2.1472 0.0639 5.4540 -5.3782 4.3525 21.0072
#
#
#
# Elastic Compliance Matrix: (Units=1/GPa)
#
#
# Indices 1 2 3 4 5 6 
#
# 1 0.016336 -0.002436 -0.000275 -0.003783 0.004786 -0.000212
# 2 -0.002436 0.009625 -0.001647 0.002014 -0.004414 0.001579
# 3 -0.000275 -0.001647 0.007675 -0.001771 0.004091 -0.003316
# 4 -0.003783 0.002014 -0.001771 0.022044 -0.006765 0.007112
# 5 0.004786 -0.004414 0.004091 -0.006765 0.037266 -0.010013
# 6 -0.000212 0.001579 -0.003316 0.007112 -0.010013 0.052333
#
#
# Mechanical properties :
#
#
# Convention : Reuss Voigt Hill
#
# Bulk Modulus (GPa) = 40.12916 46.35504 43.24210
# Shear Modulus (GPa) = 30.80703 39.90080 35.35392
#
# Velocity S-wave (km/s) = 3.52181 4.00804 3.77276
# Velocity P-wave (km/s) = 5.71785 6.33103 6.03224
#
# Compressibility (1/GPa) = 0.02491953
#
# Stress axis : x y z
#
# Youngs Moduli (GPa) = 61.21381 103.89904 130.30095
#
# Poissons Ratio (x) = 0.25313 0.03582
# Poissons Ratio (y) = 0.14913 0.21458
# Poissons Ratio (z) = 0.01683 0.17110
#
# Static dielectric constant tensor:
#      x y z
#    x 12.120500 0.380940 -0.468540 
#    y 0.380940 1.997940 -0.002630 
#    z -0.468540 -0.002630 1.934200 
# 
# From -- ./inp_files/55394.got.cif
#   From: 2010.05.17/outbox.cif.g08.bks.cpg/sg2_28_cif.got.tgz:55394.got - 2010.06.03 11:33:40.
