data_PCOD9109400
_publ_section_title
;
Structure prediction by ZEFSAII (Michael W. Deem and Ramdas Pophale) SiO2 
 PCOD9109400
Probable space group: P -1
;
_chemical_formula_sum "Si O2"
_cell_formula_units_Z 16
_cell_length_a 14.254109
_cell_length_b 8.984053
_cell_length_c 7.202213
_cell_angle_alpha 86.030949
_cell_angle_beta 115.982769
_cell_angle_gamma 62.137374
_cell_volume 688.043802
_symmetry_space_group_name_H-M "P -1"
_symmetry_group_IT_number 2
_symmetry_cell_setting 'triclinic'
loop_
_space_group_symop_operation_xyz
x,y,z
-x,-y,-z
loop_
_atom_site_type_symbol
_atom_site_label
_atom_site_fract_x
_atom_site_fract_y
_atom_site_fract_z
Si Si1 0.135809 0.968374 0.600850
Si Si2 0.484044 0.895497 0.328764
Si Si3 0.654184 0.367140 0.961870
Si Si4 0.199658 0.159266 0.923300
Si Si5 0.325242 0.488156 0.382916
Si Si6 0.895966 0.487143 0.019170
Si Si7 0.594313 0.628353 0.172951
Si Si8 0.066641 0.086555 0.146716
O O1 0.231359 0.793771 0.816602
O O2 0.158672 0.965587 0.401681
O O3 0.000000 0.000000 0.500000
O O4 0.153840 0.115172 0.701068
O O5 0.538540 0.701111 0.490031
O O6 0.572534 0.810234 0.225300
O O7 0.500000 0.000000 0.500000
O O8 0.345826 0.022402 0.113764
O O9 0.631577 0.552800 0.006148
O O10 0.676818 0.368646 0.763944
O O11 0.536249 0.356900 0.908251
O O12 0.131726 0.126863 0.036467
O O13 0.156982 0.365169 0.878168
O O14 0.308995 0.523764 0.584910
O O15 0.219150 0.460824 0.220494
O O16 0.963727 0.277164 0.137596
O O17 0.000000 0.500000 0.000000
O O18 0.000000 0.000000 0.000000
#
# Coordination Sequence:
#
# PCOD9109400 Si02
#       8
#     2   2   2   2   2   2   2   2
#     4  12  24  39  64  93 129 166 208 268 314 372
#     4  10  20  41  65  89 121 174 205 252 319 369
#     4  11  22  38  60  99 125 162 211 258 322 371
#     4  11  22  44  65  92 133 162 214 266 310 389
#     4  10  21  38  66  88 127 166 206 254 322 374
#     4  10  23  42  65  91 127 168 214 258 318 380
#     4   9  22  37  62  89 131 158 202 264 308 374
#     4  11  25  41  65  96 124 171 214 260 321 376
#
# _framework density 23.254334
#
# number of rings (size 3 to 8) (size 9 to 14) (size 15 to 20)
#    0.750    0.750    3.750    1.125    1.750    2.500 
#    0.000    4.375    0.000    0.000    0.000    0.000 
#    0.000    0.000    0.000    0.000    0.000    0.000 
#
# Total GULP energy -89222.193419 kJ/mol
# GULP energy per Si atom -5576.387089 kJ/mol
# Density = 2.320141 g / cm^3
# Si number density = 23.254334 Si / 1000 Ang^3
#
#
#
# Elastic Constant Matrix: (Units=GPa)
#
#
# Indices 1 2 3 4 5 6 
#
# 1 34.6178 4.1399 15.4532 9.2070 7.3162 11.7327
# 2 4.1399 119.5474 30.9858 4.0456 15.0907 -8.0081
# 3 15.4532 30.9858 123.3295 11.7583 13.1415 3.5722
# 4 9.2070 4.0456 11.7583 38.6366 5.8225 -0.5672
# 5 7.3162 15.0907 13.1415 5.8225 38.8146 4.7245
# 6 11.7327 -8.0081 3.5722 -0.5672 4.7245 23.1084
#
#
#
# Elastic Compliance Matrix: (Units=1/GPa)
#
#
# Indices 1 2 3 4 5 6 
#
# 1 0.039895 -0.001364 -0.003035 -0.008392 -0.002268 -0.020002
# 2 -0.001364 0.009725 -0.002098 0.000551 -0.003519 0.005120
# 3 -0.003035 -0.002098 0.009345 -0.001684 -0.001478 -0.000370
# 4 -0.008392 0.000551 -0.001684 0.028898 -0.003135 0.006062
# 5 -0.002268 -0.003519 -0.001478 -0.003135 0.029248 -0.005896
# 6 -0.020002 0.005120 -0.000370 0.006062 -0.005896 0.056616
#
#
# Mechanical properties :
#
#
# Convention : Reuss Voigt Hill
#
# Bulk Modulus (GPa) = 21.75363 42.07250 31.91307
# Shear Modulus (GPa) = 24.74710 35.23962 29.99336
#
# Velocity S-wave (km/s) = 3.26574 3.89704 3.59527
# Velocity P-wave (km/s) = 4.85747 6.19522 5.56668
#
# Compressibility (1/GPa) = 0.04596933
#
# Stress axis : x y z
#
# Youngs Moduli (GPa) = 25.06565 102.83298 107.01447
#
# Poissons Ratio (x) = 0.14031 0.32478
# Poissons Ratio (y) = 0.03420 0.22453
# Poissons Ratio (z) = 0.07607 0.21575
#
# Static dielectric constant tensor:
#      x y z
#    x 1.909430 -0.007580 -0.012770 
#    y -0.007580 1.996870 -0.015120 
#    z -0.012770 -0.015120 1.853370 
# 
# From -- ./inp_files/328936.got.cif
#   From: 2010.05.17/outbox.cif.g08.bks.cpg/sg2_165_cif.got.tgz:328936.got - 2010.06.03 11:33:40.
