data_PCOD9109528
_publ_section_title
;
Structure prediction by ZEFSAII (Michael W. Deem and Ramdas Pophale) SiO2 
 PCOD9109528
Probable space group: P -1
;
_chemical_formula_sum "Si O2"
_cell_formula_units_Z 16
_cell_length_a 8.836287
_cell_length_b 16.634161
_cell_length_c 10.132866
_cell_angle_alpha 114.334281
_cell_angle_beta 81.988461
_cell_angle_gamma 48.616083
_cell_volume 812.756776
_symmetry_space_group_name_H-M "P -1"
_symmetry_group_IT_number 2
_symmetry_cell_setting 'triclinic'
loop_
_space_group_symop_operation_xyz
x,y,z
-x,-y,-z
loop_
_atom_site_type_symbol
_atom_site_label
_atom_site_fract_x
_atom_site_fract_y
_atom_site_fract_z
Si Si1 0.443636 0.604964 0.975220
Si Si2 0.379675 0.943162 0.700715
Si Si3 0.338102 0.364562 0.490471
Si Si4 0.002765 0.098742 0.618200
Si Si5 0.799023 0.884333 0.910609
Si Si6 0.890720 0.820476 0.577072
Si Si7 0.171438 0.506417 0.327745
Si Si8 0.318451 0.561047 0.689243
O O1 0.680353 0.555794 0.869124
O O2 0.365941 0.596934 0.838312
O O3 0.500000 0.500000 0.000000
O O4 0.236628 0.763092 0.171842
O O5 0.473607 0.801985 0.625442
O O6 0.616114 0.902318 0.640708
O O7 0.239917 0.005970 0.622027
O O8 0.204584 0.053482 0.918596
O O9 0.330278 0.400836 0.363768
O O10 0.382358 0.429616 0.617923
O O11 0.065268 0.449872 0.615950
O O12 0.021391 0.158323 0.535978
O O13 0.000000 0.000000 0.500000
O O14 0.883859 0.878957 0.753249
O O15 0.017036 0.710501 0.794394
O O16 0.500000 0.000000 0.000000
O O17 0.067547 0.653533 0.460417
O O18 0.500000 0.500000 0.500000
#
# Coordination Sequence:
#
# PCOD9109528 Si02
#       8
#     2   2   2   2   2   2   2   2
#     4  12  25  44  68  94 137 179 224 274 342 410
#     4  10  23  42  66  97 129 174 225 280 335 401
#     4  10  22  39  71  97 132 164 227 276 330 400
#     4  12  27  44  61  94 138 175 223 274 338 403
#     4  10  21  40  67 100 131 172 225 279 340 401
#     4  10  20  43  68  90 131 179 215 273 343 399
#     4  10  20  41  66 100 127 172 214 275 334 394
#     4  12  23  43  71 102 133 178 230 276 340 406
#
# _framework density 19.686086
#
# number of rings (size 3 to 8) (size 9 to 14) (size 15 to 20)
#    0.000    1.250    5.000    0.375    3.500    1.000 
#    2.250    2.500    0.000    0.000    0.000    0.000 
#    0.000    0.000    0.000    0.000    0.000    0.000 
#
# Total GULP energy -89229.378243 kJ/mol
# GULP energy per Si atom -5576.836140 kJ/mol
# Density = 1.964128 g / cm^3
# Si number density = 19.686086 Si / 1000 Ang^3
#
#
#
# Elastic Constant Matrix: (Units=GPa)
#
#
# Indices 1 2 3 4 5 6 
#
# 1 47.9455 18.8585 37.0163 -2.6816 4.4700 20.5507
# 2 18.8585 50.8592 23.9107 -10.9437 -13.6990 10.1868
# 3 37.0163 23.9107 137.0213 -6.3137 -3.5353 15.6657
# 4 -2.6816 -10.9437 -6.3137 38.6502 2.4839 0.1004
# 5 4.4700 -13.6990 -3.5353 2.4839 34.8920 -1.0537
# 6 20.5507 10.1868 15.6657 0.1004 -1.0537 31.5403
#
#
#
# Elastic Compliance Matrix: (Units=1/GPa)
#
#
# Indices 1 2 3 4 5 6 
#
# 1 0.039539 -0.010479 -0.006948 -0.000639 -0.010420 -0.019274
# 2 -0.010479 0.029222 -0.001484 0.006527 0.012155 -0.001488
# 3 -0.006948 -0.001484 0.009452 0.000561 0.001236 0.000351
# 4 -0.000639 0.006527 0.000561 0.027731 0.000666 -0.002037
# 5 -0.010420 0.012155 0.001236 0.000666 0.034948 0.003415
# 6 -0.019274 -0.001488 0.000351 -0.002037 0.003415 0.044690
#
#
# Mechanical properties :
#
#
# Convention : Reuss Voigt Hill
#
# Bulk Modulus (GPa) = 24.75715 43.93299 34.34507
# Shear Modulus (GPa) = 21.10888 31.41921 26.26404
#
# Velocity S-wave (km/s) = 3.27811 3.99934 3.65655
# Velocity P-wave (km/s) = 5.18954 6.60996 5.94234
#
# Compressibility (1/GPa) = 0.04039237
#
# Stress axis : x y z
#
# Youngs Moduli (GPa) = 25.29119 34.22093 105.80183
#
# Poissons Ratio (x) = 0.35858 0.73508
# Poissons Ratio (y) = 0.26501 0.15701
# Poissons Ratio (z) = 0.17572 0.05078
#
# Static dielectric constant tensor:
#      x y z
#    x 1.731090 -0.044390 -0.010070 
#    y -0.044390 1.686450 0.019950 
#    z -0.010070 0.019950 1.694240 
# 
# From -- ./inp_files/208291.got.cif
#   From: 2010.05.17/outbox.cif.g08.bks.cpg/sg2_105_cif.got.tgz:208291.got - 2010.06.03 11:33:40.
