data_PCOD9109939
_publ_section_title
;
Structure prediction by ZEFSAII (Michael W. Deem and Ramdas Pophale) SiO2 
 PCOD9109939
Probable space group: P -1
;
_chemical_formula_sum "Si O2"
_cell_formula_units_Z 16
_cell_length_a 8.172913
_cell_length_b 5.047192
_cell_length_c 18.673322
_cell_angle_alpha 96.738105
_cell_angle_beta 124.801858
_cell_angle_gamma 91.533389
_cell_volume 623.968641
_symmetry_space_group_name_H-M "P -1"
_symmetry_group_IT_number 2
_symmetry_cell_setting 'triclinic'
loop_
_space_group_symop_operation_xyz
x,y,z
-x,-y,-z
loop_
_atom_site_type_symbol
_atom_site_label
_atom_site_fract_x
_atom_site_fract_y
_atom_site_fract_z
Si Si1 0.463881 0.112600 0.871797
Si Si2 0.349543 0.698998 0.500701
Si Si3 0.837756 0.582566 0.126265
Si Si4 0.502297 0.297082 0.730349
Si Si5 0.059615 0.710730 0.725659
Si Si6 0.727643 0.091625 0.655222
Si Si7 0.748124 0.260459 0.367589
Si Si8 0.138672 0.973961 0.965565
O O1 0.383502 0.345107 0.906411
O O2 0.548569 0.244773 0.822907
O O3 0.265449 0.904803 0.801489
O O4 0.632293 0.967520 0.948427
O O5 0.500000 0.500000 0.500000
O O6 0.217193 0.765927 0.402318
O O7 0.232037 0.630419 0.543135
O O8 0.506129 0.946913 0.574452
O O9 0.930711 0.539547 0.226727
O O10 0.866291 0.318562 0.080227
O O11 0.918821 0.827435 0.103783
O O12 0.678932 0.258027 0.718080
O O13 0.429313 0.584586 0.706031
O O14 0.320204 0.059739 0.661345
O O15 0.074846 0.676533 0.643093
O O16 0.870358 0.865966 0.699620
O O17 0.000000 0.000000 0.000000
#
# Coordination Sequence:
#
# PCOD9109939 Si02
#       8
#     2   2   2   2   2   2   2   2
#     4  11  25  45  74  95 142 184 224 285 350 401
#     4  10  20  41  68  93 137 188 223 284 340 404
#     4  12  25  48  71 101 141 182 226 285 345 409
#     4  10  21  40  64  96 130 176 224 278 330 401
#     4  11  25  44  68 107 137 181 229 288 343 408
#     4  10  23  41  67 100 136 178 236 280 340 406
#     4  10  21  41  64  97 135 172 227 272 338 399
#     4  12  29  48  71 105 137 181 235 281 338 413
#
# _framework density 25.642313000000001
#
# number of rings (size 3 to 8) (size 9 to 14) (size 15 to 20)
#    0.000    1.250    3.750    1.125    3.500    1.500 
#    4.500    0.625    0.000    0.000    0.000    0.000 
#    0.000    0.000    0.000    0.000    0.000    0.000 
#
# Total GULP energy -89593.466667 kJ/mol
# GULP energy per Si atom -5599.591667 kJ/mol
# Density = 2.558395 g / cm^3
# Si number density = 25.642313 Si / 1000 Ang^3
#
#
#
# Elastic Constant Matrix: (Units=GPa)
#
#
# Indices 1 2 3 4 5 6 
#
# 1 132.3810 42.4598 47.4405 2.5828 -40.9222 -8.6779
# 2 42.4598 104.2138 33.0248 -13.4432 -17.3986 -11.3807
# 3 47.4405 33.0248 146.1229 -7.6626 -22.2884 1.1631
# 4 2.5828 -13.4432 -7.6626 44.5184 -5.7374 -7.4235
# 5 -40.9222 -17.3986 -22.2884 -5.7374 61.2953 3.6472
# 6 -8.6779 -11.3807 1.1631 -7.4235 3.6472 36.0235
#
#
#
# Elastic Compliance Matrix: (Units=1/GPa)
#
#
# Indices 1 2 3 4 5 6 
#
# 1 0.011087 -0.002910 -0.002141 -0.000989 0.005642 0.001045
# 2 -0.002910 0.012491 -0.001484 0.004529 0.001243 0.004101
# 3 -0.002141 -0.001484 0.008132 0.001047 0.001273 -0.001160
# 4 -0.000989 0.004529 0.001047 0.025476 0.003027 0.006102
# 5 0.005642 0.001243 0.001273 0.003027 0.021169 0.000191
# 6 0.001045 0.004101 -0.001160 0.006102 0.000191 0.030583
#
#
# Mechanical properties :
#
#
# Convention : Reuss Voigt Hill
#
# Bulk Modulus (GPa) = 53.64750 69.84089 61.74420
# Shear Modulus (GPa) = 38.99513 45.68696 42.34104
#
# Velocity S-wave (km/s) = 3.90389 4.22560 4.06793
# Velocity P-wave (km/s) = 6.42552 7.14866 6.79671
#
# Compressibility (1/GPa) = 0.01864020
#
# Stress axis : x y z
#
# Youngs Moduli (GPa) = 90.19872 80.05698 122.96395
#
# Poissons Ratio (x) = 0.23295 0.26330
# Poissons Ratio (y) = 0.26247 0.18246
# Poissons Ratio (z) = 0.19314 0.11879
#
# Static dielectric constant tensor:
#      x y z
#    x 2.037000 0.087850 -0.006430 
#    y 0.087850 2.045490 0.066770 
#    z -0.006430 0.066770 2.034020 
# 
# From -- ./inp_files/552720.got.cif
#   From: 2010.05.17/outbox.cif.g08.bks.cpg/sg2_277_cif.got.tgz:552720.got - 2010.06.03 11:33:40.
