data_PCOD9109744
_publ_section_title
;
Structure prediction by ZEFSAII (Michael W. Deem and Ramdas Pophale) SiO2 
 PCOD9109744
Probable space group: P -1
;
_chemical_formula_sum "Si O2"
_cell_formula_units_Z 16
_cell_length_a 13.187185
_cell_length_b 15.346063
_cell_length_c 8.415704
_cell_angle_alpha 92.953713
_cell_angle_beta 95.244378
_cell_angle_gamma 152.418806
_cell_volume 752.095305
_symmetry_space_group_name_H-M "P -1"
_symmetry_group_IT_number 2
_symmetry_cell_setting 'triclinic'
loop_
_space_group_symop_operation_xyz
x,y,z
-x,-y,-z
loop_
_atom_site_type_symbol
_atom_site_label
_atom_site_fract_x
_atom_site_fract_y
_atom_site_fract_z
Si Si1 0.008775 0.149923 0.724647
Si Si2 0.674111 0.966852 0.020303
Si Si3 0.837715 0.633798 0.914054
Si Si4 0.706276 0.072758 0.685074
Si Si5 0.524897 0.532478 0.319542
Si Si6 0.793223 0.323845 0.574614
Si Si7 0.211523 0.602644 0.095133
Si Si8 0.242885 0.154997 0.121709
O O1 0.208536 0.261946 0.663345
O O2 0.873344 0.128883 0.636943
O O3 0.118071 0.269380 0.918532
O O4 0.821464 0.934928 0.725634
O O5 0.454113 0.821468 0.079188
O O6 0.661060 0.853708 0.963720
O O7 0.931291 0.179095 0.142259
O O8 0.683653 0.030387 0.864257
O O9 0.616878 0.494806 0.772150
O O10 0.820419 0.522664 0.965080
O O11 0.806480 0.243399 0.667927
O O12 0.448839 0.866995 0.565931
O O13 0.500000 0.500000 0.500000
O O14 0.415607 0.366149 0.193229
O O15 0.784794 0.391062 0.713561
O O16 0.000000 0.500000 0.500000
O O17 0.000000 0.500000 0.000000
O O18 0.000000 0.000000 0.000000
#
# Coordination Sequence:
#
# PCOD9109744 Si02
#       8
#     2   2   2   2   2   2   2   2
#     4  10  22  40  67  87 127 166 213 256 317 387
#     4  10  22  41  68  90 123 161 217 263 309 384
#     4  10  23  40  62  92 122 167 213 257 321 378
#     4   9  22  43  62  92 119 169 212 256 322 384
#     4  12  25  38  61  97 131 165 212 269 314 377
#     4  11  24  41  65  87 129 170 210 258 325 386
#     4  12  25  39  64  96 123 161 213 272 316 372
#     4  10  20  41  67  88 119 173 206 250 320 379
#
# _framework density 21.273900000000001
#
# number of rings (size 3 to 8) (size 9 to 14) (size 15 to 20)
#    0.000    1.750    2.500    3.375    1.750   10.500 
#    0.000    0.000    0.000    0.000    0.000    0.000 
#    0.000    0.000    0.000    0.000    0.000    0.000 
#
# Total GULP energy -89352.493131 kJ/mol
# GULP energy per Si atom -5584.530821 kJ/mol
# Density = 2.122548 g / cm^3
# Si number density = 21.273900 Si / 1000 Ang^3
#
#
#
# Elastic Constant Matrix: (Units=GPa)
#
#
# Indices 1 2 3 4 5 6 
#
# 1 89.6924 43.2510 19.4166 -6.8528 29.6274 14.0646
# 2 43.2510 112.4896 12.0398 -8.8062 -4.3007 34.1817
# 3 19.4166 12.0398 45.9657 -10.4579 8.7304 10.9587
# 4 -6.8528 -8.8062 -10.4579 21.2359 5.5567 -7.3206
# 5 29.6274 -4.3007 8.7304 5.5567 25.3717 -0.5475
# 6 14.0646 34.1817 10.9587 -7.3206 -0.5475 49.7440
#
#
#
# Elastic Compliance Matrix: (Units=1/GPa)
#
#
# Indices 1 2 3 4 5 6 
#
# 1 0.034644 -0.014471 0.002209 0.019489 -0.047893 0.002003
# 2 -0.014471 0.017483 -0.002327 -0.007171 0.022055 -0.008222
# 3 0.002209 -0.002327 0.029411 0.017617 -0.017020 -0.003100
# 4 0.019489 -0.007171 0.017617 0.073092 -0.045919 0.005787
# 5 -0.047893 0.022055 -0.017020 -0.045919 0.114920 -0.003357
# 6 0.002003 -0.008222 -0.003100 0.005787 -0.003357 0.026684
#
#
# Mechanical properties :
#
#
# Convention : Reuss Voigt Hill
#
# Bulk Modulus (GPa) = 19.09796 44.17363 31.63579
# Shear Modulus (GPa) = 14.58301 30.83300 22.70800
#
# Velocity S-wave (km/s) = 2.62102 3.81114 3.27067
# Velocity P-wave (km/s) = 4.26103 6.33843 5.40056
#
# Compressibility (1/GPa) = 0.05236162
#
# Stress axis : x y z
#
# Youngs Moduli (GPa) = 28.86487 57.19933 34.00039
#
# Poissons Ratio (x) = 0.82771 -0.07512
# Poissons Ratio (y) = 0.41769 0.07912
# Poissons Ratio (z) = -0.06377 0.13310
#
# Static dielectric constant tensor:
#      x y z
#    x 1.824130 -0.021450 -0.008840 
#    y -0.021450 1.799610 0.025040 
#    z -0.008840 0.025040 1.785940 
# 
# From -- ./inp_files/273215.got.cif
#   From: 2010.05.17/outbox.cif.g08.bks.cpg/sg2_137_cif.got.tgz:273215.got - 2010.06.03 11:33:40.
