data_PCOD9109193
_publ_section_title
;
Structure prediction by ZEFSAII (Michael W. Deem and Ramdas Pophale) SiO2 
 PCOD9109193
Probable space group: P -1
;
_chemical_formula_sum "Si O2"
_cell_formula_units_Z 14
_cell_length_a 16.028430
_cell_length_b 18.220256
_cell_length_c 6.266045
_cell_angle_alpha 120.875021
_cell_angle_beta 136.960756
_cell_angle_gamma 30.790141
_cell_volume 603.888697
_symmetry_space_group_name_H-M "P -1"
_symmetry_group_IT_number 2
_symmetry_cell_setting 'triclinic'
loop_
_space_group_symop_operation_xyz
x,y,z
-x,-y,-z
loop_
_atom_site_type_symbol
_atom_site_label
_atom_site_fract_x
_atom_site_fract_y
_atom_site_fract_z
Si Si1 0.996456 0.207675 0.116512
Si Si2 0.661403 0.334175 0.966596
Si Si3 0.905303 0.040232 0.138009
Si Si4 0.673174 0.521270 0.784830
Si Si5 0.738632 0.655965 0.288756
Si Si6 0.697885 0.835343 0.218039
Si Si7 0.936194 0.626770 0.973405
O O1 0.171960 0.181890 0.397092
O O2 0.889303 0.247499 0.204993
O O3 0.786217 0.368590 0.843408
O O4 0.107344 0.055545 0.025467
O O5 0.547681 0.364646 0.584013
O O6 0.500000 0.500000 0.000000
O O7 0.712890 0.221491 0.037086
O O8 0.000000 0.000000 0.500000
O O9 0.000000 0.000000 0.000000
O O10 0.655514 0.607350 0.056044
O O11 0.853527 0.456658 0.868925
O O12 0.638961 0.774979 0.100648
O O13 0.733928 0.716726 0.580591
O O14 0.000000 0.500000 0.500000
O O15 0.865529 0.727331 0.179793
O O16 0.500000 0.000000 0.000000
O O17 0.000000 0.500000 0.000000
#
# Coordination Sequence:
#
# PCOD9109193 Si02
#       7
#     2   2   2   2   2   2   2
#     4  11  23  45  67 100 144 181 225 298 350 420
#     4  11  24  42  73 105 132 183 235 285 351 425
#     4  10  24  46  69  98 143 185 230 287 354 414
#     4  11  21  40  71 100 136 173 238 285 343 419
#     4  10  20  41  63  96 131 174 223 278 340 398
#     4  12  25  41  65  98 137 176 230 281 343 411
#     4  11  20  40  69  93 134 181 223 283 341 400
#
# _framework density 23.183078999999999
#
# number of rings (size 3 to 8) (size 9 to 14) (size 15 to 20)
#    0.000    1.143    5.714    2.143    2.000    2.857 
#    0.000    2.857    0.000    0.000    0.000    0.000 
#    0.000    0.000    0.000    0.000    0.000    0.000 
#
# Total GULP energy -77955.110535 kJ/mol
# GULP energy per Si atom -5568.222181 kJ/mol
# Density = 2.313031 g / cm^3
# Si number density = 23.183079 Si / 1000 Ang^3
#
#
#
# Elastic Constant Matrix: (Units=GPa)
#
#
# Indices 1 2 3 4 5 6 
#
# 1 91.0256 43.9346 16.2010 3.0341 0.0674 20.7172
# 2 43.9346 126.5214 22.9741 1.2441 6.2269 54.1563
# 3 16.2010 22.9741 96.5707 3.4594 0.5552 24.1345
# 4 3.0341 1.2441 3.4594 42.8929 12.7685 -8.4751
# 5 0.0674 6.2269 0.5552 12.7685 27.4029 -2.1282
# 6 20.7172 54.1563 24.1345 -8.4751 -2.1282 41.6233
#
#
#
# Elastic Compliance Matrix: (Units=1/GPa)
#
#
# Indices 1 2 3 4 5 6 
#
# 1 0.013418 -0.004155 -0.000998 -0.001372 0.001501 -0.000897
# 2 -0.004155 0.021379 0.002983 -0.004776 -0.004912 -0.028702
# 3 -0.000998 0.002983 0.012798 -0.003219 -0.000326 -0.011478
# 4 -0.001372 -0.004776 -0.003219 0.030141 -0.011780 0.014298
# 5 0.001501 -0.004912 -0.000326 -0.011780 0.043540 0.005661
# 6 -0.000897 -0.028702 -0.011478 0.014298 0.005661 0.071671
#
#
# Mechanical properties :
#
#
# Convention : Reuss Voigt Hill
#
# Bulk Modulus (GPa) = 23.11788 53.37082 38.24435
# Shear Modulus (GPa) = 23.61781 37.78437 30.70109
#
# Velocity S-wave (km/s) = 3.19525 4.04149 3.64303
# Velocity P-wave (km/s) = 4.85864 6.69699 5.85047
#
# Compressibility (1/GPa) = 0.04325655
#
# Stress axis : x y z
#
# Youngs Moduli (GPa) = 74.52948 46.77486 78.13423
#
# Poissons Ratio (x) = 0.19433 0.07797
# Poissons Ratio (y) = 0.30964 -0.23309
# Poissons Ratio (z) = 0.07438 -0.13954
#
# Static dielectric constant tensor:
#      x y z
#    x 1.811850 -0.006360 -0.238090 
#    y -0.006360 1.855350 0.011120 
#    z -0.238090 0.011120 1.783470 
# 
# From -- ./inp_files/99955.got.cif
#   From: 2010.05.17/outbox.cif.g08.bks.cpg/sg2_50_cif.got.tgz:99955.got - 2010.06.03 11:33:40.
