data_PCOD9109721
_publ_section_title
;
Structure prediction by ZEFSAII (Michael W. Deem and Ramdas Pophale) SiO2 
 PCOD9109721
Probable space group: P -1
;
_chemical_formula_sum "Si O2"
_cell_formula_units_Z 16
_cell_length_a 10.573400
_cell_length_b 11.125278
_cell_length_c 10.160349
_cell_angle_alpha 107.642022
_cell_angle_beta 114.307571
_cell_angle_gamma 40.150368
_cell_volume 702.193652
_symmetry_space_group_name_H-M "P -1"
_symmetry_group_IT_number 2
_symmetry_cell_setting 'triclinic'
loop_
_space_group_symop_operation_xyz
x,y,z
-x,-y,-z
loop_
_atom_site_type_symbol
_atom_site_label
_atom_site_fract_x
_atom_site_fract_y
_atom_site_fract_z
Si Si1 0.106483 0.374765 0.678529
Si Si2 0.637367 0.005060 0.477464
Si Si3 0.531948 0.577574 0.849261
Si Si4 0.264804 0.201541 0.969957
Si Si5 0.826303 0.005396 0.073595
Si Si6 0.688235 0.642208 0.723181
Si Si7 0.745136 0.453141 0.184402
Si Si8 0.858402 0.993367 0.792856
O O1 0.864493 0.524852 0.649797
O O2 0.207146 0.298521 0.840170
O O3 0.188847 0.456641 0.696728
O O4 0.812947 0.797935 0.425071
O O5 0.509959 0.160039 0.360966
O O6 0.500000 0.000000 0.500000
O O7 0.723497 0.049648 0.630137
O O8 0.640609 0.544536 0.748719
O O9 0.427769 0.509547 0.796674
O O10 0.343942 0.804193 0.855745
O O11 0.665678 0.508793 0.016719
O O12 0.139067 0.158168 0.919434
O O13 0.234692 0.315727 0.114839
O O14 0.500000 0.000000 0.000000
O O15 0.746606 0.054348 0.904920
O O16 0.037809 0.939707 0.144532
O O17 0.950970 0.231282 0.196839
#
# Coordination Sequence:
#
# PCOD9109721 Si02
#       8
#     2   2   2   2   2   2   2   2
#     4  12  25  42  69 102 136 183 226 285 340 398
#     4  12  27  46  68  99 140 187 230 274 343 416
#     4  10  21  39  67 105 133 169 224 287 341 397
#     4  12  20  38  71 102 135 169 227 282 338 393
#     4  10  20  41  67 101 127 171 222 287 343 388
#     4  12  25  43  70 107 138 178 230 283 340 406
#     4  10  21  40  65  99 138 170 222 281 339 400
#     4  10  24  41  67  97 132 176 226 276 339 411
#
# _framework density 22.785737999999998
#
# number of rings (size 3 to 8) (size 9 to 14) (size 15 to 20)
#    0.000    1.000    3.750    2.625    3.500    2.000 
#    0.000    5.625    0.000    4.500    0.000    0.000 
#    0.000    0.000    0.000    0.000    0.000    0.000 
#
# Total GULP energy -89597.140982 kJ/mol
# GULP energy per Si atom -5599.821311 kJ/mol
# Density = 2.273388 g / cm^3
# Si number density = 22.785738 Si / 1000 Ang^3
#
#
#
# Elastic Constant Matrix: (Units=GPa)
#
#
# Indices 1 2 3 4 5 6 
#
# 1 129.0951 40.5172 30.2743 1.5433 -11.9501 23.9834
# 2 40.5172 62.0841 10.6525 13.4296 -3.9898 -4.1589
# 3 30.2743 10.6525 83.7558 7.3519 -6.8812 11.1084
# 4 1.5433 13.4296 7.3519 32.0247 4.5340 -4.0793
# 5 -11.9501 -3.9898 -6.8812 4.5340 17.8138 -3.6267
# 6 23.9834 -4.1589 11.1084 -4.0793 -3.6267 36.3450
#
#
#
# Elastic Compliance Matrix: (Units=1/GPa)
#
#
# Indices 1 2 3 4 5 6 
#
# 1 0.012874 -0.008761 -0.002336 0.002038 0.003584 -0.008197
# 2 -0.008761 0.024611 0.000126 -0.009448 0.003690 0.007867
# 3 -0.002336 0.000126 0.013836 -0.004068 0.004291 -0.002701
# 4 0.002038 -0.009448 -0.004068 0.037907 -0.011578 0.001917
# 5 0.003584 0.003690 0.004291 -0.011578 0.064351 0.001868
# 6 -0.008197 0.007867 -0.002701 0.001917 0.001868 0.035051
#
#
# Mechanical properties :
#
#
# Convention : Reuss Voigt Hill
#
# Bulk Modulus (GPa) = 34.03953 48.64698 41.34325
# Shear Modulus (GPa) = 22.68967 30.13611 26.41289
#
# Velocity S-wave (km/s) = 3.15903 3.64068 3.40837
# Velocity P-wave (km/s) = 5.31764 6.25051 5.80285
#
# Compressibility (1/GPa) = 0.02937761
#
# Stress axis : x y z
#
# Youngs Moduli (GPa) = 77.67575 40.63271 72.27598
#
# Poissons Ratio (x) = 0.35597 0.16887
# Poissons Ratio (y) = 0.68049 -0.00908
# Poissons Ratio (z) = 0.18149 -0.00510
#
# Static dielectric constant tensor:
#      x y z
#    x 1.913000 -0.002970 0.000250 
#    y -0.002970 1.857680 -0.032780 
#    z 0.000250 -0.032780 1.773980 
# 
# From -- ./inp_files/330739.got.cif
#   From: 2010.05.17/outbox.cif.g08.bks.cpg/sg2_166_cif.got.tgz:330739.got - 2010.06.03 11:33:40.
