data_PCOD9109816
_publ_section_title
;
Structure prediction by ZEFSAII (Michael W. Deem and Ramdas Pophale) SiO2 
 PCOD9109816
Probable space group: P -1
;
_chemical_formula_sum "Si O2"
_cell_formula_units_Z 16
_cell_length_a 13.429717
_cell_length_b 7.502738
_cell_length_c 16.366867
_cell_angle_alpha 114.236016
_cell_angle_beta 25.998699
_cell_angle_gamma 102.973358
_cell_volume 614.625031
_symmetry_space_group_name_H-M "P -1"
_symmetry_group_IT_number 2
_symmetry_cell_setting 'triclinic'
loop_
_space_group_symop_operation_xyz
x,y,z
-x,-y,-z
loop_
_atom_site_type_symbol
_atom_site_label
_atom_site_fract_x
_atom_site_fract_y
_atom_site_fract_z
Si Si1 0.785348 0.453695 0.197550
Si Si2 0.871774 0.805238 0.981235
Si Si3 0.408233 0.735856 0.289086
Si Si4 0.514459 0.338321 0.031781
Si Si5 0.879293 0.865423 0.689770
Si Si6 0.280455 0.128058 0.358499
Si Si7 0.874921 0.656421 0.313542
Si Si8 0.739645 0.211302 0.046814
O O1 0.634402 0.400584 0.226970
O O2 0.000000 0.500000 0.000000
O O3 0.933572 0.242971 0.098908
O O4 0.693455 0.625890 0.370360
O O5 0.606889 0.802586 0.204396
O O6 0.974031 0.582962 0.816822
O O7 0.852302 0.998721 0.976536
O O8 0.497110 0.496508 0.150748
O O9 0.134040 0.798888 0.536279
O O10 0.365373 0.882753 0.268153
O O11 0.291846 0.253053 0.173327
O O12 0.745828 0.117898 0.827521
O O13 0.500000 0.500000 0.000000
O O14 0.915495 0.795776 0.554023
O O15 0.219571 0.224065 0.511328
O O16 0.517082 0.168800 0.161124
O O17 0.051634 0.748199 0.151301
#
# Coordination Sequence:
#
# PCOD9109816 Si02
#       8
#     2   2   2   2   2   2   2   2
#     4   8  17  37  70  95 126 180 219 271 350 399
#     4   9  21  39  66  96 129 176 220 274 338 402
#     4  11  24  44  66  98 134 179 232 276 336 410
#     4  11  25  46  70  95 132 182 233 282 343 401
#     4  11  26  45  69  97 137 184 224 290 337 397
#     4  11  24  42  64  99 137 173 228 283 331 406
#     4   9  22  40  63  96 137 173 222 280 339 400
#     4  10  20  41  67  94 134 178 222 280 343 400
#
# _framework density 26.032129000000001
#
# number of rings (size 3 to 8) (size 9 to 14) (size 15 to 20)
#    0.750    1.250    1.250    1.125    3.500    1.500 
#    2.250    0.000    0.000    6.750    0.000    0.000 
#    0.000    0.000    0.000    0.000    0.000    0.000 
#
# Total GULP energy -89342.659519 kJ/mol
# GULP energy per Si atom -5583.916220 kJ/mol
# Density = 2.597288 g / cm^3
# Si number density = 26.032129 Si / 1000 Ang^3
#
#
#
# Elastic Constant Matrix: (Units=GPa)
#
#
# Indices 1 2 3 4 5 6 
#
# 1 72.1874 9.7571 26.1545 -1.6063 10.5818 24.6573
# 2 9.7571 167.0286 37.3044 -11.9390 20.8842 0.1016
# 3 26.1545 37.3044 72.9727 -8.0176 4.4003 13.0236
# 4 -1.6063 -11.9390 -8.0176 45.5246 6.7139 6.9505
# 5 10.5818 20.8842 4.4003 6.7139 46.9658 -3.4056
# 6 24.6573 0.1016 13.0236 6.9505 -3.4056 45.0498
#
#
#
# Elastic Compliance Matrix: (Units=1/GPa)
#
#
# Indices 1 2 3 4 5 6 
#
# 1 0.019954 0.000850 -0.005173 0.002381 -0.005470 -0.010209
# 2 0.000850 0.007298 -0.003645 0.001789 -0.003348 0.000043
# 3 -0.005173 -0.003645 0.018138 0.002393 0.000547 -0.002732
# 4 0.002381 0.001789 0.002393 0.024709 -0.005540 -0.006230
# 5 -0.005470 -0.003348 0.000547 -0.005540 0.025160 0.005600
# 6 -0.010209 0.000043 -0.002732 -0.006230 0.005600 0.029960
#
#
# Mechanical properties :
#
#
# Convention : Reuss Voigt Hill
#
# Bulk Modulus (GPa) = 33.94959 50.95786 42.45372
# Shear Modulus (GPa) = 33.11865 43.43953 38.27909
#
# Velocity S-wave (km/s) = 3.57069 4.08939 3.83881
# Velocity P-wave (km/s) = 5.48357 6.47418 5.99935
#
# Compressibility (1/GPa) = 0.02945544
#
# Stress axis : x y z
#
# Youngs Moduli (GPa) = 50.11515 137.02797 55.13155
#
# Poissons Ratio (x) = -0.11648 0.28519
# Poissons Ratio (y) = -0.04260 0.20093
# Poissons Ratio (z) = 0.25924 0.49940
#
# Static dielectric constant tensor:
#      x y z
#    x 2.134030 0.046690 0.023550 
#    y 0.046690 2.034700 0.039150 
#    z 0.023550 0.039150 2.131450 
# 
# From -- ./inp_files/599121.got.cif
#   From: 2010.05.17/outbox.cif.g08.bks.cpg/sg2_300_cif.got.tgz:599121.got - 2010.06.03 11:33:40.
