data_PCOD9109010
_publ_section_title
;
Structure prediction by ZEFSAII (Michael W. Deem and Ramdas Pophale) SiO2 
 PCOD9109010
Probable space group: P -1
;
_chemical_formula_sum "Si O2"
_cell_formula_units_Z 16
_cell_length_a 17.958680
_cell_length_b 8.271960
_cell_length_c 8.856625
_cell_angle_alpha 51.208493
_cell_angle_beta 52.364701
_cell_angle_gamma 83.510496
_cell_volume 730.576250
_symmetry_space_group_name_H-M "P -1"
_symmetry_group_IT_number 2
_symmetry_cell_setting 'triclinic'
loop_
_space_group_symop_operation_xyz
x,y,z
-x,-y,-z
loop_
_atom_site_type_symbol
_atom_site_label
_atom_site_fract_x
_atom_site_fract_y
_atom_site_fract_z
Si Si1 0.359001 0.447489 0.366477
Si Si2 0.259320 0.577146 0.988564
Si Si3 0.203914 0.974113 0.306359
Si Si4 0.497611 0.767513 0.562895
Si Si5 0.802538 0.868246 0.481117
Si Si6 0.991157 0.245796 0.143549
Si Si7 0.663293 0.149730 0.987166
Si Si8 0.220086 0.392745 0.845745
O O1 0.449717 0.370660 0.331944
O O2 0.266329 0.236161 0.517953
O O3 0.383522 0.669660 0.100822
O O4 0.312482 0.493077 0.552894
O O5 0.375998 0.606419 0.787460
O O6 0.195481 0.348847 0.301651
O O7 0.281181 0.785341 0.955054
O O8 0.211698 0.557187 0.893339
O O9 0.080342 0.876166 0.549733
O O10 0.246701 0.814718 0.264448
O O11 0.251140 0.038119 0.378998
O O12 0.234148 0.193242 0.035811
O O13 0.500000 0.000000 0.500000
O O14 0.572718 0.889589 0.255818
O O15 0.916932 0.079343 0.201994
O O16 0.107648 0.275374 0.974695
O O17 0.000000 0.500000 0.000000
#
# Coordination Sequence:
#
# PCOD9109010 Si02
#       8
#     2   2   2   2   2   2   2   2
#     4  11  22  40  66  88 121 165 197 247 307 350
#     4   9  21  39  63  84 122 159 202 248 302 349
#     4   9  19  40  60  87 124 155 198 251 292 360
#     4  10  22  40  63  89 122 156 207 249 298 357
#     4   8  21  38  62  86 121 160 196 246 304 352
#     4  10  21  37  61  90 123 154 202 250 297 357
#     4  10  20  41  61  92 123 157 202 251 293 362
#     4  11  21  39  63  87 119 165 202 242 305 357
#
# _framework density 21.900521000000001
#
# number of rings (size 3 to 8) (size 9 to 14) (size 15 to 20)
#    0.750    1.500    1.250    1.125    0.000    7.500 
#    0.000    1.250    0.000    0.000    0.000    0.000 
#    0.000    0.000    0.000    0.000    0.000    0.000 
#
# Total GULP energy -89070.334418 kJ/mol
# GULP energy per Si atom -5566.895901 kJ/mol
# Density = 2.185067 g / cm^3
# Si number density = 21.900521 Si / 1000 Ang^3
#
#
#
# Elastic Constant Matrix: (Units=GPa)
#
#
# Indices 1 2 3 4 5 6 
#
# 1 50.8385 8.7057 -1.3790 -14.9183 -0.9545 -4.6985
# 2 8.7057 51.0908 1.1421 4.3852 5.3017 -5.2656
# 3 -1.3790 1.1421 51.0307 -13.2355 3.3352 -2.5585
# 4 -14.9183 4.3852 -13.2355 42.1770 1.2507 -0.7667
# 5 -0.9545 5.3017 3.3352 1.2507 28.5472 1.3343
# 6 -4.6985 -5.2656 -2.5585 -0.7667 1.3343 32.1852
#
#
#
# Elastic Compliance Matrix: (Units=1/GPa)
#
#
# Indices 1 2 3 4 5 6 
#
# 1 0.023834 -0.004744 0.003472 0.010051 0.000683 0.003190
# 2 -0.004744 0.021462 -0.001287 -0.004145 -0.003942 0.002781
# 3 0.003472 -0.001287 0.022209 0.008455 -0.002721 0.002376
# 4 0.010051 -0.004145 0.008455 0.030429 -0.001320 0.002241
# 5 0.000683 -0.003942 -0.002721 -0.001320 0.036268 -0.002297
# 6 0.003190 0.002781 0.002376 0.002241 -0.002297 0.032328
#
#
# Mechanical properties :
#
#
# Convention : Reuss Voigt Hill
#
# Bulk Modulus (GPa) = 16.02863 18.87751 17.45307
# Shear Modulus (GPa) = 25.98207 30.21463 28.09835
#
# Velocity S-wave (km/s) = 3.44811 3.71837 3.58578
# Velocity P-wave (km/s) = 4.81532 5.20321 5.01302
#
# Compressibility (1/GPa) = 0.06238838
#
# Stress axis : x y z
#
# Youngs Moduli (GPa) = 41.95755 46.59485 45.02753
#
# Poissons Ratio (x) = 0.22102 -0.15635
# Poissons Ratio (y) = 0.19903 0.05793
# Poissons Ratio (z) = -0.14569 0.05995
#
# Static dielectric constant tensor:
#      x y z
#    x 1.807830 0.017150 -0.019190 
#    y 0.017150 1.891280 0.016060 
#    z -0.019190 0.016060 1.870020 
# 
# From -- ./inp_files/327077.got.cif
#   From: 2010.05.17/outbox.cif.g08.bks.cpg/sg2_164_cif.got.tgz:327077.got - 2010.06.03 11:33:40.
