data_PCOD9109894
_publ_section_title
;
Structure prediction by ZEFSAII (Michael W. Deem and Ramdas Pophale) SiO2 
 PCOD9109894
Probable space group: P -1
;
_chemical_formula_sum "Si O2"
_cell_formula_units_Z 15
_cell_length_a 7.900097
_cell_length_b 18.943654
_cell_length_c 11.877295
_cell_angle_alpha 147.120804
_cell_angle_beta 136.259571
_cell_angle_gamma 43.281765
_cell_volume 631.400832
_symmetry_space_group_name_H-M "P -1"
_symmetry_group_IT_number 2
_symmetry_cell_setting 'triclinic'
loop_
_space_group_symop_operation_xyz
x,y,z
-x,-y,-z
loop_
_atom_site_type_symbol
_atom_site_label
_atom_site_fract_x
_atom_site_fract_y
_atom_site_fract_z
Si Si1 0.500000 0.500000 0.000000
Si Si2 0.800328 0.460470 0.772372
Si Si3 0.124066 0.794445 0.225847
Si Si4 0.979547 0.552578 0.391418
Si Si5 0.273755 0.937120 0.284749
Si Si6 0.769107 0.163750 0.419326
Si Si7 0.324223 0.715061 0.828721
Si Si8 0.660552 0.747045 0.823554
O O1 0.244355 0.630740 0.076834
O O2 0.680494 0.568502 0.258099
O O3 0.908433 0.450504 0.685337
O O4 0.779290 0.316170 0.605571
O O5 0.531800 0.584202 0.813114
O O6 0.000000 0.500000 0.000000
O O7 0.278296 0.834477 0.252301
O O8 0.162559 0.863574 0.453039
O O9 0.834534 0.818994 0.073684
O O10 0.061428 0.676949 0.649610
O O11 0.150440 0.404209 0.324897
O O12 0.500000 0.000000 0.500000
O O13 0.304174 0.850093 0.069736
O O14 0.999500 0.055742 0.317715
O O15 0.493866 0.169008 0.243744
O O16 0.448950 0.725614 0.781144
#
# Coordination Sequence:
#
# PCOD9109894 Si02
#       8
#     1   2   2   2   2   2   2   2
#     4  10  24  40  74 106 146 180 226 310 368 414
#     4  11  20  37  74 102 135 186 241 288 358 425
#     4  11  27  46  70 106 144 184 243 301 360 436
#     4  10  20  41  68 112 145 179 238 305 358 423
#     4  12  29  47  69 104 149 193 240 295 359 433
#     4  12  24  45  74  98 139 200 229 291 367 430
#     4  11  22  43  72 106 145 182 241 313 334 428
#     4  10  21  45  72 107 139 181 243 295 363 424
#
# _framework density 23.756699999999999
#
# number of rings (size 3 to 8) (size 9 to 14) (size 15 to 20)
#    0.000    1.067    2.667    5.200    5.600    2.133 
#    0.000    4.000    0.000    0.000    0.000    0.000 
#    0.000    0.000    0.000    0.000    0.000    0.000 
#
# Total GULP energy -83767.226807 kJ/mol
# GULP energy per Si atom -5584.481787 kJ/mol
# Density = 2.370263 g / cm^3
# Si number density = 23.756700 Si / 1000 Ang^3
#
#
#
# Elastic Constant Matrix: (Units=GPa)
#
#
# Indices 1 2 3 4 5 6 
#
# 1 64.5738 6.5053 25.5397 -10.3368 12.3574 3.3647
# 2 6.5053 65.0984 41.5940 -27.4884 -6.6905 -15.0468
# 3 25.5397 41.5940 158.3857 -27.1037 14.2723 -10.3063
# 4 -10.3368 -27.4884 -27.1037 50.4640 -13.6066 3.7312
# 5 12.3574 -6.6905 14.2723 -13.6066 26.6172 -0.6711
# 6 3.3647 -15.0468 -10.3063 3.7312 -0.6711 25.7181
#
#
#
# Elastic Compliance Matrix: (Units=1/GPa)
#
#
# Indices 1 2 3 4 5 6 
#
# 1 0.018351 -0.003204 -0.001811 -0.001009 -0.008998 -0.005089
# 2 -0.003204 0.034105 -0.006173 0.019904 0.023940 0.015636
# 3 -0.001811 -0.006173 0.008632 -0.000625 -0.005658 0.000027
# 4 -0.001009 0.019904 -0.000625 0.036208 0.024490 0.006913
# 5 -0.008998 0.023940 -0.005658 0.024490 0.063596 0.011022
# 6 -0.005089 0.015636 0.000027 0.006913 0.011022 0.047993
#
#
# Mechanical properties :
#
#
# Convention : Reuss Voigt Hill
#
# Bulk Modulus (GPa) = 25.83212 48.37064 37.10138
# Shear Modulus (GPa) = 20.47800 34.85447 27.66623
#
# Velocity S-wave (km/s) = 2.93915 3.83449 3.41628
# Velocity P-wave (km/s) = 4.73449 6.32530 5.58680
#
# Compressibility (1/GPa) = 0.03871149
#
# Stress axis : x y z
#
# Youngs Moduli (GPa) = 54.49379 29.32083 115.85448
#
# Poissons Ratio (x) = 0.09394 0.20977
# Poissons Ratio (y) = 0.17460 0.71523
# Poissons Ratio (z) = 0.09867 0.18101
#
# Static dielectric constant tensor:
#      x y z
#    x 1.893350 0.042000 -0.013180 
#    y 0.042000 1.916300 -0.030520 
#    z -0.013180 -0.030520 1.946920 
# 
# From -- ./inp_files/405185.got.cif
#   From: 2010.05.17/outbox.cif.g08.bks.cpg/sg2_203_cif.got.tgz:405185.got - 2010.06.03 11:33:40.
