data_PCOD9109481
_publ_section_title
;
Structure prediction by ZEFSAII (Michael W. Deem and Ramdas Pophale) SiO2 
 PCOD9109481
Probable space group: P -1
;
_chemical_formula_sum "Si O2"
_cell_formula_units_Z 13
_cell_length_a 15.927642
_cell_length_b 9.482287
_cell_length_c 9.283103
_cell_angle_alpha 91.941166
_cell_angle_beta 106.642132
_cell_angle_gamma 148.724128
_cell_volume 577.690405
_symmetry_space_group_name_H-M "P -1"
_symmetry_group_IT_number 2
_symmetry_cell_setting 'triclinic'
loop_
_space_group_symop_operation_xyz
x,y,z
-x,-y,-z
loop_
_atom_site_type_symbol
_atom_site_label
_atom_site_fract_x
_atom_site_fract_y
_atom_site_fract_z
Si Si1 0.000790 0.980044 0.326033
Si Si2 0.996283 0.274721 0.217498
Si Si3 0.195064 0.972817 0.330276
Si Si4 0.000000 0.500000 0.000000
Si Si5 0.572661 0.700006 0.827268
Si Si6 0.733596 0.990831 0.319219
Si Si7 0.536456 0.218260 0.025291
O O1 0.772714 0.606024 0.151550
O O2 0.140057 0.051305 0.352305
O O3 0.068800 0.224106 0.290910
O O4 0.000000 0.000000 0.500000
O O5 0.104606 0.535916 0.168066
O O6 0.939480 0.268449 0.339962
O O7 0.776274 0.942759 0.016024
O O8 0.012765 0.638003 0.138077
O O9 0.377678 0.233797 0.313663
O O10 0.237963 0.952235 0.496419
O O11 0.387501 0.333828 0.767841
O O12 0.548194 0.823328 0.875649
O O13 0.592276 0.900749 0.171957
O O14 0.500000 0.000000 0.000000
#
# Coordination Sequence:
#
# PCOD9109481 Si02
#       7
#     2   2   2   1   2   2   2
#     4  12  23  42  69 107 131 175 232 285 328 401
#     4  10  20  41  65  94 133 174 223 268 337 400
#     4  11  25  39  68  98 137 171 221 282 342 397
#     4  10  26  40  58 100 136 176 210 286 338 392
#     4  10  20  42  65  95 129 176 219 269 341 409
#     4  11  20  43  68  92 125 186 224 265 338 421
#     4  11  24  41  68  97 134 176 231 278 334 403
#
# _framework density 22.503401
#
# number of rings (size 3 to 8) (size 9 to 14) (size 15 to 20)
#    0.000    1.231    4.615    1.385    6.462    4.308 
#    0.000    0.769    0.000    0.000    0.000    0.000 
#    0.000    0.000    0.000    0.000    0.000    0.000 
#
# Total GULP energy -72396.488583 kJ/mol
# GULP energy per Si atom -5568.960660 kJ/mol
# Density = 2.245218 g / cm^3
# Si number density = 22.503401 Si / 1000 Ang^3
#
#
#
# Elastic Constant Matrix: (Units=GPa)
#
#
# Indices 1 2 3 4 5 6 
#
# 1 162.3740 53.9886 79.0117 -29.3508 -1.1831 -32.8067
# 2 53.9886 75.3745 18.2540 -24.4791 3.1982 -19.2091
# 3 79.0117 18.2540 111.6833 -42.2111 -15.7149 4.4970
# 4 -29.3508 -24.4791 -42.2111 38.6342 4.9488 0.7776
# 5 -1.1831 3.1982 -15.7149 4.9488 35.6899 -5.6648
# 6 -32.8067 -19.2091 4.4970 0.7776 -5.6648 37.6465
#
#
#
# Elastic Compliance Matrix: (Units=1/GPa)
#
#
# Indices 1 2 3 4 5 6 
#
# 1 0.016794 -0.007952 -0.014364 -0.007959 -0.002023 0.012153
# 2 -0.007952 0.023837 0.008374 0.018217 -0.000642 0.003760
# 3 -0.014364 0.008374 0.028493 0.024973 0.006071 -0.011250
# 4 -0.007959 0.018217 0.024973 0.058610 0.000698 -0.001729
# 5 -0.002023 -0.000642 0.006071 0.000698 0.030874 0.001816
# 6 0.012153 0.003760 -0.011250 -0.001729 0.001816 0.040725
#
#
# Mechanical properties :
#
#
# Convention : Reuss Voigt Hill
#
# Bulk Modulus (GPa) = 24.24874 72.43782 48.34328
# Shear Modulus (GPa) = 20.74990 35.60594 28.17792
#
# Velocity S-wave (km/s) = 3.03987 3.98206 3.54243
# Velocity P-wave (km/s) = 4.80833 7.30767 6.18555
#
# Compressibility (1/GPa) = 0.04123926
#
# Stress axis : x y z
#
# Youngs Moduli (GPa) = 59.54424 41.95158 35.09649
#
# Poissons Ratio (x) = 0.33362 0.50411
# Poissons Ratio (y) = 0.47352 -0.29388
# Poissons Ratio (z) = 0.85527 -0.35128
#
# Static dielectric constant tensor:
#      x y z
#    x 1.837990 0.042600 -0.010240 
#    y 0.042600 2.020950 0.033380 
#    z -0.010240 0.033380 1.827880 
# 
# From -- ./inp_files/146577.got.cif
#   From: 2010.05.17/outbox.cif.g08.bks.cpg/sg2_74_cif.got.tgz:146577.got - 2010.06.03 11:33:40.
