data_PCOD9109466
_publ_section_title
;
Structure prediction by ZEFSAII (Michael W. Deem and Ramdas Pophale) SiO2 
 PCOD9109466
Probable space group: P -1
;
_chemical_formula_sum "Si O2"
_cell_formula_units_Z 14
_cell_length_a 15.078130
_cell_length_b 6.699419
_cell_length_c 5.186199
_cell_angle_alpha 103.004509
_cell_angle_beta 98.439484
_cell_angle_gamma 84.115347
_cell_volume 503.604171
_symmetry_space_group_name_H-M "P -1"
_symmetry_group_IT_number 2
_symmetry_cell_setting 'triclinic'
loop_
_space_group_symop_operation_xyz
x,y,z
-x,-y,-z
loop_
_atom_site_type_symbol
_atom_site_label
_atom_site_fract_x
_atom_site_fract_y
_atom_site_fract_z
Si Si1 0.072836 0.286115 0.265893
Si Si2 0.506047 0.249855 0.390417
Si Si3 0.015890 0.769710 0.284913
Si Si4 0.564072 0.684859 0.118626
Si Si5 0.295108 0.844563 0.757729
Si Si6 0.208483 0.690783 0.178423
Si Si7 0.235404 0.307728 0.726381
O O1 0.032308 0.520663 0.272761
O O2 0.014023 0.169002 0.419545
O O3 0.167737 0.301883 0.455517
O O4 0.060899 0.191410 0.951314
O O5 0.500000 0.500000 0.500000
O O6 0.600885 0.179720 0.284791
O O7 0.513081 0.821994 0.350939
O O8 0.430690 0.218045 0.133815
O O9 0.111089 0.807694 0.206406
O O10 0.662560 0.627545 0.253725
O O11 0.500000 0.500000 0.000000
O O12 0.271689 0.793746 0.027209
O O13 0.249185 0.701667 0.484553
O O14 0.253872 0.073894 0.754931
O O15 0.198915 0.469784 0.976235
#
# Coordination Sequence:
#
# PCOD9109466 Si02
#       7
#     2   2   2   2   2   2   2
#     4  10  21  40  69 107 140 186 245 289 357 431
#     4  10  20  41  65  93 136 179 227 290 344 417
#     4  10  21  41  72 103 141 193 239 289 357 429
#     4  10  22  40  67  98 132 181 232 283 357 421
#     4  12  28  45  71 111 144 188 250 291 361 438
#     4  12  25  47  72 103 147 192 239 301 358 424
#     4  12  27  46  75 106 147 191 236 308 364 421
#
# _framework density 27.799612
#
# number of rings (size 3 to 8) (size 9 to 14) (size 15 to 20)
#    0.000    1.143    0.000    8.571    0.000    8.000 
#    0.000    4.286    0.000    0.000    0.000    0.000 
#    0.000    0.000    0.000    0.000    0.000    0.000 
#
# Total GULP energy -78423.920608 kJ/mol
# GULP energy per Si atom -5601.708615 kJ/mol
# Density = 2.773634 g / cm^3
# Si number density = 27.799612 Si / 1000 Ang^3
#
#
#
# Elastic Constant Matrix: (Units=GPa)
#
#
# Indices 1 2 3 4 5 6 
#
# 1 166.9787 16.9833 63.9200 -3.5614 -1.6432 0.3968
# 2 16.9833 64.0182 16.4449 -11.8484 -4.1779 -6.1341
# 3 63.9200 16.4449 186.4728 -7.1311 -7.2864 -15.4718
# 4 -3.5614 -11.8484 -7.1311 60.1805 -3.1157 -5.6199
# 5 -1.6432 -4.1779 -7.2864 -3.1157 65.8625 -4.1448
# 6 0.3968 -6.1341 -15.4718 -5.6199 -4.1448 53.5709
#
#
#
# Elastic Compliance Matrix: (Units=1/GPa)
#
#
# Indices 1 2 3 4 5 6 
#
# 1 0.007040 -0.001407 -0.002387 -0.000245 -0.000249 -0.000948
# 2 -0.001407 0.017106 -0.000657 0.003483 0.001283 0.002244
# 3 -0.002387 -0.000657 0.006457 0.000716 0.000769 0.001942
# 4 -0.000245 0.003483 0.000716 0.017679 0.001292 0.002562
# 5 -0.000249 0.001283 0.000769 0.001292 0.015512 0.001707
# 6 -0.000948 0.002244 0.001942 0.002562 0.001707 0.019892
#
#
# Mechanical properties :
#
#
# Convention : Reuss Voigt Hill
#
# Bulk Modulus (GPa) = 46.07786 68.01846 57.04816
# Shear Modulus (GPa) = 50.08926 57.26421 53.67673
#
# Velocity S-wave (km/s) = 4.24936 4.54353 4.39890
# Velocity P-wave (km/s) = 6.37864 7.21425 6.80928
#
# Compressibility (1/GPa) = 0.02170240
#
# Stress axis : x y z
#
# Youngs Moduli (GPa) = 142.04200 58.45953 154.86141
#
# Poissons Ratio (x) = 0.08224 0.36964
# Poissons Ratio (y) = 0.19983 0.10171
# Poissons Ratio (z) = 0.33904 0.03840
#
# Static dielectric constant tensor:
#      x y z
#    x 2.154090 0.132500 0.013410 
#    y 0.132500 2.571170 0.116190 
#    z 0.013410 0.116190 2.152230 
# 
# From -- ./inp_files/126196.got.cif
#   From: 2010.05.17/outbox.cif.g08.bks.cpg/sg2_64_cif.got.tgz:126196.got - 2010.06.03 11:33:40.
