data_PCOD9109905
_publ_section_title
;
Structure prediction by ZEFSAII (Michael W. Deem and Ramdas Pophale) SiO2 
 PCOD9109905
Probable space group: P -1
;
_chemical_formula_sum "Si O2"
_cell_formula_units_Z 16
_cell_length_a 12.707242
_cell_length_b 19.202729
_cell_length_c 9.891075
_cell_angle_alpha 92.226542
_cell_angle_beta 127.707482
_cell_angle_gamma 42.642657
_cell_volume 829.999655
_symmetry_space_group_name_H-M "P -1"
_symmetry_group_IT_number 2
_symmetry_cell_setting 'triclinic'
loop_
_space_group_symop_operation_xyz
x,y,z
-x,-y,-z
loop_
_atom_site_type_symbol
_atom_site_label
_atom_site_fract_x
_atom_site_fract_y
_atom_site_fract_z
Si Si1 0.157614 0.719484 0.104942
Si Si2 0.872547 0.622399 0.244056
Si Si3 0.838803 0.024482 0.273401
Si Si4 0.863402 0.373091 0.691795
Si Si5 0.116884 0.358202 0.435006
Si Si6 0.839499 0.344312 0.190824
Si Si7 0.853992 0.007009 0.973910
Si Si8 0.164411 0.136986 0.691733
O O1 0.508325 0.561011 0.418284
O O2 0.043168 0.707183 0.101043
O O3 0.149484 0.706720 0.939310
O O4 0.977485 0.874228 0.011515
O O5 0.975779 0.596408 0.474468
O O6 0.950615 0.646342 0.203373
O O7 0.018518 0.479778 0.311701
O O8 0.512154 0.786672 0.987133
O O9 0.861638 0.933612 0.330404
O O10 0.000000 0.000000 0.500000
O O11 0.949186 0.974646 0.201864
O O12 0.930012 0.283813 0.622455
O O13 0.936602 0.377657 0.235044
O O14 0.483035 0.179421 0.693711
O O15 0.081371 0.204685 0.483722
O O16 0.500000 0.500000 0.000000
O O17 0.000000 0.000000 0.000000
O O18 0.500000 0.000000 0.000000
#
# Coordination Sequence:
#
# PCOD9109905 Si02
#       8
#     2   2   2   2   2   2   2   2
#     4  11  25  40  67  96 134 172 220 272 331 402
#     4  10  20  41  68  89 128 170 216 267 334 390
#     4  11  25  40  66  98 127 171 224 272 316 397
#     4  11  21  43  66  94 128 182 215 265 341 396
#     4  10  22  40  65  97 127 168 219 271 327 400
#     4  12  25  42  69 102 128 169 229 282 324 394
#     4  11  24  44  64  91 137 175 209 267 344 393
#     4  12  22  44  72  94 131 177 226 273 332 397
#
# _framework density 19.277115999999999
#
# number of rings (size 3 to 8) (size 9 to 14) (size 15 to 20)
#    0.000    1.000    5.000    1.500    3.500    1.500 
#    2.250    0.625    0.000    0.000    0.000    0.000 
#    0.000    0.000    0.000    0.000    0.000    0.000 
#
# Total GULP energy -89405.357929 kJ/mol
# GULP energy per Si atom -5587.834871 kJ/mol
# Density = 1.923324 g / cm^3
# Si number density = 19.277116 Si / 1000 Ang^3
#
#
#
# Elastic Constant Matrix: (Units=GPa)
#
#
# Indices 1 2 3 4 5 6 
#
# 1 120.7073 70.2936 45.8353 11.8614 -3.6834 4.2357
# 2 70.2936 159.0710 54.0865 -3.7147 -6.0988 17.0440
# 3 45.8353 54.0865 63.5152 8.7160 -4.6658 10.9057
# 4 11.8614 -3.7147 8.7160 34.2422 1.1552 -4.3146
# 5 -3.6834 -6.0988 -4.6658 1.1552 32.4741 3.6725
# 6 4.2357 17.0440 10.9057 -4.3146 3.6725 32.2032
#
#
#
# Elastic Compliance Matrix: (Units=1/GPa)
#
#
# Indices 1 2 3 4 5 6 
#
# 1 0.013165 -0.004105 -0.005931 -0.003230 -0.000246 0.002045
# 2 -0.004105 0.010546 -0.006028 0.003747 0.000809 -0.002591
# 3 -0.005931 -0.006028 0.027399 -0.006502 0.003102 -0.006533
# 4 -0.003230 0.003747 -0.006502 0.033139 -0.002381 0.005355
# 5 -0.000246 0.000809 0.003102 -0.002381 0.032061 -0.005421
# 6 0.002045 -0.002591 -0.006533 0.005355 -0.005421 0.035703
#
#
# Mechanical properties :
#
#
# Convention : Reuss Voigt Hill
#
# Bulk Modulus (GPa) = 52.67996 75.96938 64.32467
# Shear Modulus (GPa) = 26.25074 31.32243 28.78659
#
# Velocity S-wave (km/s) = 3.69420 4.03532 3.86852
# Velocity P-wave (km/s) = 6.75153 7.82345 7.30717
#
# Compressibility (1/GPa) = 0.01898255
#
# Stress axis : x y z
#
# Youngs Moduli (GPa) = 75.95678 94.81946 36.49712
#
# Poissons Ratio (x) = 0.38925 0.21646
# Poissons Ratio (y) = 0.31182 0.22001
# Poissons Ratio (z) = 0.45049 0.57160
#
# Static dielectric constant tensor:
#      x y z
#    x 1.693300 -0.016700 -0.013280 
#    y -0.016700 1.659250 -0.002580 
#    z -0.013280 -0.002580 1.684050 
# 
# From -- ./inp_files/279558.got.cif
#   From: 2010.05.17/outbox.cif.g08.bks.cpg/sg2_140_cif.got.tgz:279558.got - 2010.06.03 11:33:40.
