data_PCOD9109161
_publ_section_title
;
Structure prediction by ZEFSAII (Michael W. Deem and Ramdas Pophale) SiO2 
 PCOD9109161
Probable space group: P -1
;
_chemical_formula_sum "Si O2"
_cell_formula_units_Z 16
_cell_length_a 11.604658
_cell_length_b 9.391463
_cell_length_c 11.837619
_cell_angle_alpha 130.956079
_cell_angle_beta 113.996576
_cell_angle_gamma 38.965946
_cell_volume 598.131910
_symmetry_space_group_name_H-M "P -1"
_symmetry_group_IT_number 2
_symmetry_cell_setting 'triclinic'
loop_
_space_group_symop_operation_xyz
x,y,z
-x,-y,-z
loop_
_atom_site_type_symbol
_atom_site_label
_atom_site_fract_x
_atom_site_fract_y
_atom_site_fract_z
Si Si1 0.229633 0.468367 0.286811
Si Si2 0.152447 0.889757 0.843459
Si Si3 0.337285 0.752736 0.407085
Si Si4 0.505142 0.806510 0.323698
Si Si5 0.958358 0.338717 0.449125
Si Si6 0.248654 0.063564 0.144093
Si Si7 0.844261 0.477437 0.116588
Si Si8 0.192051 0.088312 0.745302
O O1 0.335878 0.533318 0.318152
O O2 0.323340 0.158881 0.150266
O O3 0.190057 0.513216 0.429511
O O4 0.023359 0.712067 0.275077
O O5 0.217358 0.942132 0.791168
O O6 0.123320 0.708159 0.703024
O O7 0.265073 0.846292 0.973775
O O8 0.937107 0.198120 0.946382
O O9 0.493422 0.652457 0.330641
O O10 0.144610 0.037147 0.418827
O O11 0.327487 0.870841 0.584986
O O12 0.672242 0.634964 0.211332
O O13 0.500000 0.000000 0.500000
O O14 0.332498 0.971203 0.253265
O O15 0.024198 0.349279 0.194502
O O16 0.000000 0.500000 0.500000
O O17 0.795722 0.700512 0.128508
#
# Coordination Sequence:
#
# PCOD9109161 Si02
#       8
#     2   2   2   2   2   2   2   2
#     4  10  19  39  68 111 142 188 265 308 372 454
#     4  10  20  41  73 109 151 194 255 311 390 459
#     4  11  21  37  72 108 146 198 259 313 371 455
#     4  12  24  46  72 111 159 203 256 315 374 452
#     4  11  21  37  71 114 149 192 256 323 373 455
#     4   9  24  43  77 114 143 201 260 313 381 453
#     4   9  22  40  74 109 153 204 252 309 389 449
#     4  10  16  37  71 107 139 199 247 313 381 440
#
# _framework density 26.749953000000001
#
# number of rings (size 3 to 8) (size 9 to 14) (size 15 to 20)
#    0.750    1.000    3.750    1.875    0.000    0.500 
#    0.000    4.375    2.750    4.500    6.500    0.000 
#    0.000    0.000    0.000    0.000    0.000    0.000 
#
# Total GULP energy -89614.719076 kJ/mol
# GULP energy per Si atom -5600.919942 kJ/mol
# Density = 2.668907 g / cm^3
# Si number density = 26.749953 Si / 1000 Ang^3
#
#
#
# Elastic Constant Matrix: (Units=GPa)
#
#
# Indices 1 2 3 4 5 6 
#
# 1 185.5037 70.0946 69.0236 3.5561 -0.8367 47.6313
# 2 70.0946 115.5316 41.3485 -24.2537 9.7163 25.9956
# 3 69.0236 41.3485 119.9424 -8.3483 21.8594 21.6316
# 4 3.5561 -24.2537 -8.3483 38.2518 5.2843 -2.1040
# 5 -0.8367 9.7163 21.8594 5.2843 47.8990 6.6417
# 6 47.6313 25.9956 21.6316 -2.1040 6.6417 62.4318
#
#
#
# Elastic Compliance Matrix: (Units=1/GPa)
#
#
# Indices 1 2 3 4 5 6 
#
# 1 0.010554 -0.005360 -0.004647 -0.006324 0.004774 -0.004931
# 2 -0.005360 0.014790 -0.000378 0.010266 -0.003890 -0.001178
# 3 -0.004647 -0.000378 0.012497 0.003777 -0.006146 0.000154
# 4 -0.006324 0.010266 0.003777 0.035237 -0.007981 0.001278
# 5 0.004774 -0.003890 -0.006146 -0.007981 0.025838 -0.002910
# 6 -0.004931 -0.001178 0.000154 0.001278 -0.002910 0.020570
#
#
# Mechanical properties :
#
#
# Convention : Reuss Voigt Hill
#
# Bulk Modulus (GPa) = 58.57564 86.87900 72.72732
# Shear Modulus (GPa) = 34.25919 45.75059 40.00489
#
# Velocity S-wave (km/s) = 3.58260 4.14007 3.87138
# Velocity P-wave (km/s) = 6.24967 7.44327 6.87243
#
# Compressibility (1/GPa) = 0.01707194
#
# Stress axis : x y z
#
# Youngs Moduli (GPa) = 94.75252 67.61145 80.01969
#
# Poissons Ratio (x) = 0.36238 0.37182
# Poissons Ratio (y) = 0.50785 0.03027
# Poissons Ratio (z) = 0.44027 0.02558
#
# Static dielectric constant tensor:
#      x y z
#    x 2.085950 -0.063200 0.001690 
#    y -0.063200 2.181180 0.091310 
#    z 0.001690 0.091310 2.129910 
# 
# From -- ./inp_files/419768.got.cif
#   From: 2010.05.17/outbox.cif.g08.bks.cpg/sg2_210_cif.got.tgz:419768.got - 2010.06.03 11:33:40.
