data_PCOD9109149
_publ_section_title
;
Structure prediction by ZEFSAII (Michael W. Deem and Ramdas Pophale) SiO2 
 PCOD9109149
Probable space group: P -1
;
_chemical_formula_sum "Si O2"
_cell_formula_units_Z 14
_cell_length_a 7.606674
_cell_length_b 21.881750
_cell_length_c 8.591189
_cell_angle_alpha 148.945952
_cell_angle_beta 53.622173
_cell_angle_gamma 121.898280
_cell_volume 593.189065
_symmetry_space_group_name_H-M "P -1"
_symmetry_group_IT_number 2
_symmetry_cell_setting 'triclinic'
loop_
_space_group_symop_operation_xyz
x,y,z
-x,-y,-z
loop_
_atom_site_type_symbol
_atom_site_label
_atom_site_fract_x
_atom_site_fract_y
_atom_site_fract_z
Si Si1 0.269359 0.296084 0.202325
Si Si2 0.335285 0.011732 0.964714
Si Si3 0.019440 0.925208 0.172020
Si Si4 0.708289 0.217113 0.733120
Si Si5 0.122636 0.557908 0.417141
Si Si6 0.630226 0.214201 0.133111
Si Si7 0.891254 0.609115 0.206473
O O1 0.075670 0.369316 0.393211
O O2 0.274951 0.338016 0.468856
O O3 0.503653 0.303627 0.014049
O O4 0.191971 0.157744 0.932744
O O5 0.339548 0.900352 0.601988
O O6 0.099305 0.002875 0.152449
O O7 0.500000 0.000000 0.000000
O O8 0.411091 0.133977 0.109205
O O9 0.206471 0.838507 0.937922
O O10 0.000000 0.000000 0.500000
O O11 0.924454 0.289732 0.717526
O O12 0.706768 0.191502 0.864626
O O13 0.319779 0.647619 0.558024
O O14 0.000000 0.500000 0.500000
O O15 0.197987 0.454190 0.039527
O O16 0.000000 0.500000 0.000000
#
# Coordination Sequence:
#
# PCOD9109149 Si02
#       7
#     2   2   2   2   2   2   2
#     4  10  22  39  65  91 118 167 209 243 317 370
#     4  10  21  38  64  90 125 162 197 259 311 362
#     4  10  20  41  63  91 124 163 204 250 315 375
#     4  12  22  42  65  94 127 159 207 260 307 370
#     4  10  20  41  64  86 125 163 203 260 303 355
#     4  10  22  39  63  91 126 160 204 259 310 357
#     4  10  22  40  64  87 127 166 207 253 304 361
#
# _framework density 23.601243
#
# number of rings (size 3 to 8) (size 9 to 14) (size 15 to 20)
#    0.000    1.714    2.857    2.143    2.000    2.286 
#    2.571    5.000    0.000    0.000    0.000    0.000 
#    0.000    0.000    0.000    0.000    0.000    0.000 
#
# Total GULP energy -78195.063291 kJ/mol
# GULP energy per Si atom -5585.361664 kJ/mol
# Density = 2.354753 g / cm^3
# Si number density = 23.601243 Si / 1000 Ang^3
#
#
#
# Elastic Constant Matrix: (Units=GPa)
#
#
# Indices 1 2 3 4 5 6 
#
# 1 85.6554 30.3954 31.7464 7.4585 18.3074 2.5292
# 2 30.3954 139.0831 62.2769 10.5991 22.6003 2.4349
# 3 31.7464 62.2769 180.4888 -3.8176 50.8483 19.5201
# 4 7.4585 10.5991 -3.8176 39.5676 4.2460 2.0876
# 5 18.3074 22.6003 50.8483 4.2460 42.8913 -3.0182
# 6 2.5292 2.4349 19.5201 2.0876 -3.0182 33.7719
#
#
#
# Elastic Compliance Matrix: (Units=1/GPa)
#
#
# Indices 1 2 3 4 5 6 
#
# 1 0.013589 -0.001939 -0.000520 -0.001612 -0.004061 -0.000841
# 2 -0.001939 0.009124 -0.002967 -0.002422 -0.000128 0.001341
# 3 -0.000520 -0.002967 0.010919 0.003626 -0.012036 -0.007358
# 4 -0.001612 -0.002422 0.003626 0.027356 -0.005322 -0.003967
# 5 -0.004061 -0.000128 -0.012036 -0.005322 0.040703 0.011237
# 6 -0.000841 0.001341 -0.007358 -0.003967 0.011237 0.035079
#
#
# Mechanical properties :
#
#
# Convention : Reuss Voigt Hill
#
# Bulk Modulus (GPa) = 43.89989 72.67384 58.28687
# Shear Modulus (GPa) = 32.21303 41.96674 37.08988
#
# Velocity S-wave (km/s) = 3.69845 4.22140 3.96854
# Velocity P-wave (km/s) = 6.07281 7.39050 6.76382
#
# Compressibility (1/GPa) = 0.02277910
#
# Stress axis : x y z
#
# Youngs Moduli (GPa) = 73.58978 109.59662 91.58134
#
# Poissons Ratio (x) = 0.21255 0.04762
# Poissons Ratio (y) = 0.14272 0.27175
# Poissons Ratio (z) = 0.03826 0.32521
#
# Static dielectric constant tensor:
#      x y z
#    x 2.140190 -0.050860 -0.062380 
#    y -0.050860 1.835070 -0.002130 
#    z -0.062380 -0.002130 1.887980 
# 
# From -- ./inp_files/186334.got.cif
#   From: 2010.05.17/outbox.cif.g08.bks.cpg/sg2_94_cif.got.tgz:186334.got - 2010.06.03 11:33:40.
