data_PCOD9109333
_publ_section_title
;
Structure prediction by ZEFSAII (Michael W. Deem and Ramdas Pophale) SiO2 
 PCOD9109333
Probable space group: P -1
;
_chemical_formula_sum "Si O2"
_cell_formula_units_Z 16
_cell_length_a 7.905334
_cell_length_b 14.922694
_cell_length_c 12.283417
_cell_angle_alpha 151.915483
_cell_angle_beta 102.873824
_cell_angle_gamma 70.405713
_cell_volume 633.893783
_symmetry_space_group_name_H-M "P -1"
_symmetry_group_IT_number 2
_symmetry_cell_setting 'triclinic'
loop_
_space_group_symop_operation_xyz
x,y,z
-x,-y,-z
loop_
_atom_site_type_symbol
_atom_site_label
_atom_site_fract_x
_atom_site_fract_y
_atom_site_fract_z
Si Si1 0.456630 0.647764 0.996016
Si Si2 0.914586 0.044149 0.757240
Si Si3 0.199902 0.350680 0.367094
Si Si4 0.979138 0.618150 0.236248
Si Si5 0.722328 0.015357 0.145108
Si Si6 0.690147 0.481417 0.654266
Si Si7 0.430827 0.267928 0.678211
Si Si8 0.358263 0.086237 0.275975
O O1 0.535371 0.762871 0.222857
O O2 0.242222 0.761252 0.092882
O O3 0.525970 0.619459 0.851825
O O4 0.529482 0.421238 0.810067
O O5 0.955691 0.856018 0.479487
O O6 0.816404 0.979014 0.780535
O O7 0.108505 0.069854 0.840180
O O8 0.296213 0.428569 0.365913
O O9 0.289154 0.310853 0.455577
O O10 0.000000 0.500000 0.500000
O O11 0.206633 0.121868 0.096719
O O12 0.781515 0.623217 0.252569
O O13 0.134503 0.535518 0.260753
O O14 0.000000 0.500000 0.000000
O O15 0.691157 0.252401 0.389796
O O16 0.530702 0.983301 0.114381
O O17 0.463458 0.087477 0.406691
#
# Coordination Sequence:
#
# PCOD9109333 Si02
#       8
#     2   2   2   2   2   2   2   2
#     4  11  22  42  68 104 135 181 231 282 354 423
#     4  10  25  41  69 104 134 183 240 279 356 418
#     4  12  27  45  74 107 137 187 243 289 355 419
#     4  10  20  41  64  96 139 181 226 288 341 414
#     4  11  25  47  70 100 148 181 231 302 343 416
#     4  11  24  45  71 106 137 187 237 281 362 421
#     4  10  22  41  69  94 146 177 222 288 352 411
#     4  11  24  48  68 100 143 184 235 288 350 416
#
# _framework density 25.240822999999999
#
# number of rings (size 3 to 8) (size 9 to 14) (size 15 to 20)
#    0.000    1.250    2.500    3.375    3.500    4.500 
#    2.250    1.250    0.000    0.000    0.000    0.000 
#    0.000    0.000    0.000    0.000    0.000    0.000 
#
# Total GULP energy -89307.408805 kJ/mol
# GULP energy per Si atom -5581.713050 kJ/mol
# Density = 2.518337 g / cm^3
# Si number density = 25.240823 Si / 1000 Ang^3
#
#
#
# Elastic Constant Matrix: (Units=GPa)
#
#
# Indices 1 2 3 4 5 6 
#
# 1 63.1560 22.0793 18.9725 3.1641 -12.1314 -25.9842
# 2 22.0793 118.0026 44.2244 5.4218 4.5550 4.2703
# 3 18.9725 44.2244 108.0421 -6.9072 -21.9988 0.2781
# 4 3.1641 5.4218 -6.9072 35.7518 2.7968 -11.6128
# 5 -12.1314 4.5550 -21.9988 2.7968 34.6315 2.5341
# 6 -25.9842 4.2703 0.2781 -11.6128 2.5341 41.0044
#
#
#
# Elastic Compliance Matrix: (Units=1/GPa)
#
#
# Indices 1 2 3 4 5 6 
#
# 1 0.027022 -0.006083 -0.000352 0.003751 0.008400 0.018303
# 2 -0.006083 0.012319 -0.005531 -0.003758 -0.006540 -0.005760
# 3 -0.000352 -0.005531 0.013595 0.002974 0.008959 0.000549
# 4 0.003751 -0.003758 0.002974 0.032663 0.000182 0.011987
# 5 0.008400 -0.006540 0.008959 0.000182 0.038088 0.003641
# 6 0.018303 -0.005760 0.000549 0.011987 0.003641 0.039752
#
#
# Mechanical properties :
#
#
# Convention : Reuss Voigt Hill
#
# Bulk Modulus (GPa) = 34.47948 51.08369 42.78158
# Shear Modulus (GPa) = 25.37559 35.87249 30.62404
#
# Velocity S-wave (km/s) = 3.17415 3.77398 3.48699
# Velocity P-wave (km/s) = 5.20802 6.26682 5.76179
#
# Compressibility (1/GPa) = 0.02900276
#
# Stress axis : x y z
#
# Youngs Moduli (GPa) = 37.00663 81.17425 73.55852
#
# Poissons Ratio (x) = 0.49379 0.02591
# Poissons Ratio (y) = 0.22511 0.40688
# Poissons Ratio (z) = 0.01303 0.44901
#
# Static dielectric constant tensor:
#      x y z
#    x 2.017010 -0.002470 0.044200 
#    y -0.002470 2.175210 -0.144930 
#    z 0.044200 -0.144930 2.204960 
# 
# From -- ./inp_files/400074.got.cif
#   From: 2010.05.17/outbox.cif.g08.bks.cpg/sg2_201_cif.got.tgz:400074.got - 2010.06.03 11:33:40.
