data_PCOD9109759
_publ_section_title
;
Structure prediction by ZEFSAII (Michael W. Deem and Ramdas Pophale) SiO2 
 PCOD9109759
Probable space group: P -1
;
_chemical_formula_sum "Si O2"
_cell_formula_units_Z 16
_cell_length_a 13.646058
_cell_length_b 15.808011
_cell_length_c 9.235634
_cell_angle_alpha 135.123538
_cell_angle_beta 92.115874
_cell_angle_gamma 50.897628
_cell_volume 722.983985
_symmetry_space_group_name_H-M "P -1"
_symmetry_group_IT_number 2
_symmetry_cell_setting 'triclinic'
loop_
_space_group_symop_operation_xyz
x,y,z
-x,-y,-z
loop_
_atom_site_type_symbol
_atom_site_label
_atom_site_fract_x
_atom_site_fract_y
_atom_site_fract_z
Si Si1 0.913215 0.560019 0.720453
Si Si2 0.878147 0.260367 0.584442
Si Si3 0.049123 0.074710 0.901130
Si Si4 0.702407 0.539669 0.637100
Si Si5 0.552680 0.334854 0.405043
Si Si6 0.406315 0.486890 0.894310
Si Si7 0.740129 0.972919 0.359565
Si Si8 0.906586 0.714215 0.335499
O O1 0.759253 0.615284 0.767434
O O2 0.090761 0.336573 0.562533
O O3 0.000000 0.500000 0.500000
O O4 0.805668 0.786838 0.053406
O O5 0.987793 0.026684 0.255740
O O6 0.719846 0.447160 0.676031
O O7 0.977196 0.283948 0.635212
O O8 0.794618 0.317568 0.805564
O O9 0.232691 0.891533 0.797021
O O10 0.118958 0.072219 0.756633
O O11 0.871863 0.317037 0.269248
O O12 0.509030 0.715932 0.753970
O O13 0.500000 0.500000 0.500000
O O14 0.422503 0.484725 0.722536
O O15 0.531697 0.238581 0.634898
O O16 0.500000 0.500000 0.000000
O O17 0.748660 0.927541 0.474031
O O18 0.000000 0.500000 0.000000
#
# Coordination Sequence:
#
# PCOD9109759 Si02
#       8
#     2   2   2   2   2   2   2   2
#     4  10  20  41  67  90 126 167 218 269 309 383
#     4  11  22  40  61  94 129 162 213 257 320 385
#     4  11  22  40  64  96 129 167 213 266 324 382
#     4  11  23  42  66  92 131 171 211 271 321 377
#     4  11  23  40  63  92 133 168 212 263 322 379
#     4  11  22  41  60  91 133 163 204 266 318 383
#     4  10  21  41  63  90 128 165 208 266 320 371
#     4   9  22  40  62  91 121 164 217 254 311 382
#
# _framework density 22.130503000000001
#
# number of rings (size 3 to 8) (size 9 to 14) (size 15 to 20)
#    0.000    1.500    5.000    0.375    1.750    1.500 
#    6.750    8.125    2.750    0.000    0.000    0.000 
#    0.000    0.000    0.000    0.000    0.000    0.000 
#
# Total GULP energy -89293.628906 kJ/mol
# GULP energy per Si atom -5580.851807 kJ/mol
# Density = 2.208013 g / cm^3
# Si number density = 22.130503 Si / 1000 Ang^3
#
#
#
# Elastic Constant Matrix: (Units=GPa)
#
#
# Indices 1 2 3 4 5 6 
#
# 1 75.9214 26.1334 19.0268 6.5719 37.7492 -1.1906
# 2 26.1334 156.7795 24.2213 -8.6115 6.6625 8.0571
# 3 19.0268 24.2213 61.0768 4.8202 16.4386 -2.4061
# 4 6.5719 -8.6115 4.8202 29.1159 1.7337 0.1086
# 5 37.7492 6.6625 16.4386 1.7337 31.6923 -0.7395
# 6 -1.1906 8.0571 -2.4061 0.1086 -0.7395 36.0742
#
#
#
# Elastic Compliance Matrix: (Units=1/GPa)
#
#
# Indices 1 2 3 4 5 6 
#
# 1 0.036576 -0.005234 0.003096 -0.007726 -0.043610 0.001712
# 2 -0.005234 0.007841 -0.003510 0.003723 0.006156 -0.002043
# 3 0.003096 -0.003510 0.020854 -0.004394 -0.013480 0.002014
# 4 -0.007726 0.003723 -0.004394 0.037410 0.008622 -0.001315
# 5 -0.043610 0.006156 -0.013480 0.008622 0.088679 -0.001921
# 6 0.001712 -0.002043 0.002014 -0.001315 -0.001921 0.028332
#
#
# Mechanical properties :
#
#
# Convention : Reuss Voigt Hill
#
# Bulk Modulus (GPa) = 18.52701 48.06008 33.29354
# Shear Modulus (GPa) = 20.08186 34.33621 27.20904
#
# Velocity S-wave (km/s) = 3.01562 3.94322 3.51020
# Velocity P-wave (km/s) = 4.52937 6.51888 5.61298
#
# Compressibility (1/GPa) = 0.05397526
#
# Stress axis : x y z
#
# Youngs Moduli (GPa) = 27.34009 127.53398 47.95137
#
# Poissons Ratio (x) = 0.66755 -0.14846
# Poissons Ratio (y) = 0.14311 0.16831
# Poissons Ratio (z) = -0.08465 0.44764
#
# Static dielectric constant tensor:
#      x y z
#    x 1.867190 -0.020310 0.021730 
#    y -0.020310 1.854530 -0.008680 
#    z 0.021730 -0.008680 1.895560 
# 
# From -- ./inp_files/169612.got.cif
#   From: 2010.05.17/outbox.cif.g08.bks.cpg/sg2_85_cif.got.tgz:169612.got - 2010.06.03 11:33:40.
