data_PCOD9109855
_publ_section_title
;
Structure prediction by ZEFSAII (Michael W. Deem and Ramdas Pophale) SiO2 
 PCOD9109855
Probable space group: P -1
;
_chemical_formula_sum "Si O2"
_cell_formula_units_Z 14
_cell_length_a 17.046944
_cell_length_b 12.295302
_cell_length_c 9.272454
_cell_angle_alpha 51.405535
_cell_angle_beta 149.865656
_cell_angle_gamma 139.986798
_cell_volume 622.832760
_symmetry_space_group_name_H-M "P -1"
_symmetry_group_IT_number 2
_symmetry_cell_setting 'triclinic'
loop_
_space_group_symop_operation_xyz
x,y,z
-x,-y,-z
loop_
_atom_site_type_symbol
_atom_site_label
_atom_site_fract_x
_atom_site_fract_y
_atom_site_fract_z
Si Si1 0.536293 0.622540 0.588575
Si Si2 0.504742 0.079195 0.789276
Si Si3 0.069651 0.130272 0.873401
Si Si4 0.100911 0.827640 0.682404
Si Si5 0.767701 0.005149 0.974364
Si Si6 0.666293 0.203498 0.496523
Si Si7 0.682785 0.514128 0.349244
O O1 0.500000 0.500000 0.500000
O O2 0.558663 0.793532 0.427244
O O3 0.381417 0.538635 0.541952
O O4 0.742342 0.690722 0.928274
O O5 0.386786 0.917209 0.627129
O O6 0.731750 0.199598 0.010141
O O7 0.500000 0.000000 0.000000
O O8 0.917353 0.147086 0.536189
O O9 0.129290 0.053819 0.907309
O O10 0.000000 0.000000 0.000000
O O11 0.887424 0.694093 0.512005
O O12 0.189533 0.991153 0.792821
O O13 0.808405 0.181933 0.835154
O O14 0.541326 0.879875 0.689945
O O15 0.726426 0.393912 0.429054
O O16 0.500000 0.500000 0.000000
#
# Coordination Sequence:
#
# PCOD9109855 Si02
#       7
#     2   2   2   2   2   2   2
#     4  12  27  47  70 102 146 188 225 290 366 409
#     4  11  25  47  73 104 141 186 240 291 346 420
#     4  12  24  44  65  99 139 180 232 285 346 417
#     4  11  25  41  71 106 132 182 239 286 352 414
#     4  10  20  41  67  98 128 176 238 283 330 412
#     4  10  20  41  73  92 134 184 233 281 341 410
#     4  12  24  45  69 100 146 183 230 292 352 420
#
# _framework density 22.477944999999998
#
# number of rings (size 3 to 8) (size 9 to 14) (size 15 to 20)
#    0.000    0.857    4.286    3.000    4.000    3.429 
#    0.000    1.429    0.000    0.000    0.000    0.000 
#    0.000    0.000    0.000    0.000    0.000    0.000 
#
# Total GULP energy -78119.465002 kJ/mol
# GULP energy per Si atom -5579.961786 kJ/mol
# Density = 2.242678 g / cm^3
# Si number density = 22.477945 Si / 1000 Ang^3
#
#
#
# Elastic Constant Matrix: (Units=GPa)
#
#
# Indices 1 2 3 4 5 6 
#
# 1 87.5838 38.2777 29.6130 2.3322 -24.7774 -8.5912
# 2 38.2777 75.6960 29.3757 -6.0200 -7.7473 -13.5794
# 3 29.6130 29.3757 116.1308 9.1863 -14.0241 -15.8312
# 4 2.3322 -6.0200 9.1863 29.3035 4.4474 7.7057
# 5 -24.7774 -7.7473 -14.0241 4.4474 44.0096 -1.6972
# 6 -8.5912 -13.5794 -15.8312 7.7057 -1.6972 46.3164
#
#
#
# Elastic Compliance Matrix: (Units=1/GPa)
#
#
# Indices 1 2 3 4 5 6 
#
# 1 0.018014 -0.007879 -0.000900 -0.004616 0.009005 0.001822
# 2 -0.007879 0.018984 -0.003265 0.005423 -0.002606 0.001991
# 3 -0.000900 -0.003265 0.010972 -0.005470 0.003109 0.003650
# 4 -0.004616 0.005423 -0.005470 0.040660 -0.007812 -0.008187
# 5 0.009005 -0.002606 0.003109 -0.007812 0.029281 0.004342
# 6 0.001822 0.001991 0.003650 -0.008187 0.004342 0.025281
#
#
# Mechanical properties :
#
#
# Convention : Reuss Voigt Hill
#
# Bulk Modulus (GPa) = 41.87114 52.66038 47.26576
# Shear Modulus (GPa) = 28.53210 36.06886 32.30048
#
# Velocity S-wave (km/s) = 3.56664 4.01013 3.79487
# Velocity P-wave (km/s) = 5.96903 6.70224 6.34623
#
# Compressibility (1/GPa) = 0.02388280
#
# Stress axis : x y z
#
# Youngs Moduli (GPa) = 55.51096 52.67659 91.14087
#
# Poissons Ratio (x) = 0.41504 0.08199
# Poissons Ratio (y) = 0.43737 0.29759
# Poissons Ratio (z) = 0.04994 0.17200
#
# Static dielectric constant tensor:
#      x y z
#    x 1.883430 0.050740 -0.016760 
#    y 0.050740 1.914940 -0.064630 
#    z -0.016760 -0.064630 1.870240 
# 
# From -- ./inp_files/190044.got.cif
#   From: 2010.05.17/outbox.cif.g08.bks.cpg/sg2_96_cif.got.tgz:190044.got - 2010.06.03 11:33:40.
