data_PCOD9109645
_publ_section_title
;
Structure prediction by ZEFSAII (Michael W. Deem and Ramdas Pophale) SiO2 
 PCOD9109645
Probable space group: P -1
;
_chemical_formula_sum "Si O2"
_cell_formula_units_Z 16
_cell_length_a 15.619426
_cell_length_b 14.851139
_cell_length_c 4.982104
_cell_angle_alpha 108.010307
_cell_angle_beta 90.724502
_cell_angle_gamma 139.492011
_cell_volume 653.974357
_symmetry_space_group_name_H-M "P -1"
_symmetry_group_IT_number 2
_symmetry_cell_setting 'triclinic'
loop_
_space_group_symop_operation_xyz
x,y,z
-x,-y,-z
loop_
_atom_site_type_symbol
_atom_site_label
_atom_site_fract_x
_atom_site_fract_y
_atom_site_fract_z
Si Si1 0.219780 0.841484 0.472733
Si Si2 0.083065 0.485108 0.850904
Si Si3 0.732252 0.326773 0.500324
Si Si4 0.748097 0.750299 0.207172
Si Si5 0.474553 0.699653 0.420846
Si Si6 0.763063 0.028146 0.924862
Si Si7 0.461933 0.570179 0.791466
Si Si8 0.021071 0.933124 0.148957
O O1 0.280007 0.791150 0.497758
O O2 0.224397 0.872944 0.190966
O O3 0.051452 0.695057 0.415905
O O4 0.288380 0.980243 0.796917
O O5 0.185341 0.601051 0.713175
O O6 0.174309 0.530848 0.147260
O O7 0.000000 0.500000 0.000000
O O8 0.585307 0.253039 0.437796
O O9 0.629757 0.689610 0.945260
O O10 0.862204 0.926608 0.497581
O O11 0.644317 0.607722 0.286629
O O12 0.862153 0.776582 0.116558
O O13 0.441815 0.638534 0.063552
O O14 0.643014 0.855898 0.628144
O O15 0.422340 0.571266 0.499104
O O16 0.908117 0.096301 0.004054
O O17 0.000000 0.000000 0.000000
#
# Coordination Sequence:
#
# PCOD9109645 Si02
#       8
#     2   2   2   2   2   2   2   2
#     4  11  24  42  67  97 132 177 223 269 335 405
#     4  10  20  41  66  94 129 172 219 278 334 387
#     4  11  23  42  68  97 135 178 220 276 333 394
#     4  10  25  44  72 100 132 181 222 281 340 413
#     4  12  26  44  67  98 138 176 225 281 328 396
#     4  12  26  43  67  96 136 177 222 278 337 397
#     4  11  25  46  71 100 136 179 230 272 342 401
#     4  11  25  45  70 100 140 174 221 283 346 398
#
# _framework density 24.465790999999999
#
# number of rings (size 3 to 8) (size 9 to 14) (size 15 to 20)
#    0.000    1.000    1.250    6.000    5.250    5.000 
#    0.000    0.000    0.000    0.000    0.000    0.000 
#    0.000    0.000    0.000    0.000    0.000    0.000 
#
# Total GULP energy -89496.126746 kJ/mol
# GULP energy per Si atom -5593.507922 kJ/mol
# Density = 2.441011 g / cm^3
# Si number density = 24.465791 Si / 1000 Ang^3
#
#
#
# Elastic Constant Matrix: (Units=GPa)
#
#
# Indices 1 2 3 4 5 6 
#
# 1 127.5881 36.5591 26.8072 -11.4190 -1.9555 25.5997
# 2 36.5591 72.3940 21.0263 -7.2940 8.0274 4.4711
# 3 26.8072 21.0263 78.4284 -5.6426 -6.5720 8.3788
# 4 -11.4190 -7.2940 -5.6426 35.6552 -2.0048 7.2341
# 5 -1.9555 8.0274 -6.5720 -2.0048 28.2175 8.1732
# 6 25.5997 4.4711 8.3788 7.2341 8.1732 27.8564
#
#
#
# Elastic Compliance Matrix: (Units=1/GPa)
#
#
# Indices 1 2 3 4 5 6 
#
# 1 0.013277 -0.005856 -0.000287 0.006465 0.007324 -0.015003
# 2 -0.005856 0.018557 -0.004419 -0.000562 -0.008609 0.006404
# 3 -0.000287 -0.004419 0.015553 0.003195 0.006995 -0.006588
# 4 0.006465 -0.000562 0.003195 0.034787 0.009195 -0.018543
# 5 0.007324 -0.008609 0.006995 0.009195 0.047571 -0.023798
# 6 -0.015003 0.006404 -0.006588 -0.018543 -0.023798 0.062438
#
#
# Mechanical properties :
#
#
# Convention : Reuss Voigt Hill
#
# Bulk Modulus (GPa) = 38.07639 49.68842 43.88241
# Shear Modulus (GPa) = 22.51640 31.28033 26.89836
#
# Velocity S-wave (km/s) = 3.03697 3.57954 3.31936
# Velocity P-wave (km/s) = 5.28152 6.11862 5.71542
#
# Compressibility (1/GPa) = 0.02626299
#
# Stress axis : x y z
#
# Youngs Moduli (GPa) = 75.31846 53.88938 64.29605
#
# Poissons Ratio (x) = 0.31557 0.01842
# Poissons Ratio (y) = 0.44105 0.28415
# Poissons Ratio (z) = 0.02158 0.23816
#
# Static dielectric constant tensor:
#      x y z
#    x 1.983040 0.000080 0.016060 
#    y 0.000080 1.970480 0.039760 
#    z 0.016060 0.039760 2.005460 
# 
# From -- ./inp_files/98457.got.cif
#   From: 2010.05.17/outbox.cif.g08.bks.cpg/sg2_50_cif.got.tgz:98457.got - 2010.06.03 11:33:40.
