data_PCOD9109659
_publ_section_title
;
Structure prediction by ZEFSAII (Michael W. Deem and Ramdas Pophale) SiO2 
 PCOD9109659
Probable space group: P -1
;
_chemical_formula_sum "Si O2"
_cell_formula_units_Z 14
_cell_length_a 11.547062
_cell_length_b 4.947782
_cell_length_c 10.959696
_cell_angle_alpha 76.953196
_cell_angle_beta 124.902032
_cell_angle_gamma 111.847441
_cell_volume 476.577771
_symmetry_space_group_name_H-M "P -1"
_symmetry_group_IT_number 2
_symmetry_cell_setting 'triclinic'
loop_
_space_group_symop_operation_xyz
x,y,z
-x,-y,-z
loop_
_atom_site_type_symbol
_atom_site_label
_atom_site_fract_x
_atom_site_fract_y
_atom_site_fract_z
Si Si1 0.654486 0.346875 0.178012
Si Si2 0.467605 0.336098 0.370441
Si Si3 0.629230 0.205526 0.898121
Si Si4 0.947168 0.187087 0.066701
Si Si5 0.184366 0.962750 0.328285
Si Si6 0.972191 0.336928 0.346574
Si Si7 0.746533 0.696258 0.404043
O O1 0.806940 0.270376 0.304164
O O2 0.676555 0.656796 0.227628
O O3 0.511951 0.082893 0.155810
O O4 0.653497 0.356090 0.030687
O O5 0.500000 0.500000 0.500000
O O6 0.398803 0.549039 0.229849
O O7 0.630480 0.382909 0.407839
O O8 0.344727 0.028896 0.351014
O O9 0.770252 0.105072 0.957209
O O10 0.956476 0.181171 0.222562
O O11 0.084328 0.052807 0.150216
O O12 0.000000 0.500000 0.000000
O O13 0.071824 0.655896 0.329926
O O14 0.233208 0.132283 0.471132
O O15 0.082983 0.275943 0.518268
#
# Coordination Sequence:
#
# PCOD9109659 Si02
#       7
#     2   2   2   2   2   2   2
#     4  10  23  44  63  92 129 175 213 257 318 376
#     4  10  22  41  64  98 126 164 212 263 324 374
#     4  10  22  44  67  89 137 165 208 273 308 383
#     4  10  20  41  66  95 128 169 211 259 327 376
#     4  10  22  42  66  97 128 164 212 272 318 372
#     4  10  23  42  64  96 130 165 215 264 313 379
#     4  10  23  41  65  95 124 172 213 256 323 375
#
# _framework density 29.376106
#
# number of rings (size 3 to 8) (size 9 to 14) (size 15 to 20)
#    0.000    2.000    1.429    0.429    4.000    3.429 
#   15.429    0.000    0.000    0.000    0.000    0.000 
#    0.000    0.000    0.000    0.000    0.000    0.000 
#
# Total GULP energy -78148.186705 kJ/mol
# GULP energy per Si atom -5582.013336 kJ/mol
# Density = 2.930924 g / cm^3
# Si number density = 29.376106 Si / 1000 Ang^3
#
#
#
# Elastic Constant Matrix: (Units=GPa)
#
#
# Indices 1 2 3 4 5 6 
#
# 1 173.6603 44.6726 25.2067 21.2663 58.7910 47.2771
# 2 44.6726 100.8666 17.0647 4.5081 17.4362 24.1165
# 3 25.2067 17.0647 162.6655 4.6468 5.6702 -1.3258
# 4 21.2663 4.5081 4.6468 34.7549 15.0015 1.1847
# 5 58.7910 17.4362 5.6702 15.0015 51.5291 8.9703
# 6 47.2771 24.1165 -1.3258 1.1847 8.9703 52.6195
#
#
#
# Elastic Compliance Matrix: (Units=1/GPa)
#
#
# Indices 1 2 3 4 5 6 
#
# 1 0.013209 -0.001170 -0.001511 -0.002110 -0.012288 -0.009228
# 2 -0.001170 0.011916 -0.001043 0.000292 -0.001952 -0.004110
# 3 -0.001511 -0.001043 0.006476 -0.000367 0.001156 0.001810
# 4 -0.002110 0.000292 -0.000367 0.033347 -0.007764 0.002326
# 5 -0.012288 -0.001952 0.001156 -0.007764 0.035149 0.006147
# 6 -0.009228 -0.004110 0.001810 0.002326 0.006147 0.028124
#
#
# Mechanical properties :
#
#
# Convention : Reuss Voigt Hill
#
# Bulk Modulus (GPa) = 41.40038 67.89783 54.64910
# Shear Modulus (GPa) = 34.79000 51.13060 42.96030
#
# Velocity S-wave (km/s) = 3.44509 4.17652 3.82831
# Velocity P-wave (km/s) = 5.47254 6.81331 6.17940
#
# Compressibility (1/GPa) = 0.02415437
#
# Stress axis : x y z
#
# Youngs Moduli (GPa) = 75.70606 83.92306 154.41625
#
# Poissons Ratio (x) = 0.09818 0.23328
# Poissons Ratio (y) = 0.08856 0.16099
# Poissons Ratio (z) = 0.11437 0.08749
#
# Static dielectric constant tensor:
#      x y z
#    x 2.439980 -0.224910 -0.010290 
#    y -0.224910 2.456880 -0.069880 
#    z -0.010290 -0.069880 2.329720 
# 
# From -- ./inp_files/441122.got.cif
#   From: 2010.05.17/outbox.cif.g08.bks.cpg/sg2_221_cif.got.tgz:441122.got - 2010.06.03 11:33:40.
