data_PCOD9109052
_publ_section_title
;
Structure prediction by ZEFSAII (Michael W. Deem and Ramdas Pophale) SiO2 
 PCOD9109052
Probable space group: P -1
;
_chemical_formula_sum "Si O2"
_cell_formula_units_Z 16
_cell_length_a 18.324464
_cell_length_b 13.671988
_cell_length_c 9.555271
_cell_angle_alpha 56.057502
_cell_angle_beta 123.472460
_cell_angle_gamma 159.598875
_cell_volume 688.993016
_symmetry_space_group_name_H-M "P -1"
_symmetry_group_IT_number 2
_symmetry_cell_setting 'triclinic'
loop_
_space_group_symop_operation_xyz
x,y,z
-x,-y,-z
loop_
_atom_site_type_symbol
_atom_site_label
_atom_site_fract_x
_atom_site_fract_y
_atom_site_fract_z
Si Si1 0.991440 0.369551 0.177469
Si Si2 0.665753 0.034488 0.625114
Si Si3 0.212820 0.569580 0.495220
Si Si4 0.704694 0.902945 0.028502
Si Si5 0.905592 0.005271 0.961126
Si Si6 0.689868 0.509051 0.866493
Si Si7 0.616159 0.896599 0.362539
Si Si8 0.191130 0.086946 0.367097
O O1 0.202921 0.588417 0.303801
O O2 0.825895 0.191559 0.268615
O O3 0.000000 0.500000 0.000000
O O4 0.884356 0.144350 0.141556
O O5 0.428617 0.784340 0.611382
O O6 0.730179 0.024286 0.826453
O O7 0.634505 0.954320 0.496523
O O8 0.808558 0.327427 0.540628
O O9 0.033875 0.250990 0.575240
O O10 0.487606 0.665665 0.069511
O O11 0.746059 0.825180 0.065553
O O12 0.123265 0.330810 0.985144
O O13 0.783484 0.902537 0.780044
O O14 0.000000 0.000000 0.000000
O O15 0.575108 0.304443 0.780507
O O16 0.795857 0.758406 0.717318
O O17 0.636912 0.778991 0.477870
#
# Coordination Sequence:
#
# PCOD9109052 Si02
#       8
#     2   2   2   2   2   2   2   2
#     4  10  21  40  63  92 128 166 217 263 323 387
#     4  11  22  41  64  96 128 167 218 263 327 382
#     4  10  23  39  65  92 132 166 216 268 318 390
#     4  11  22  41  67  94 131 176 207 273 326 376
#     4  10  22  39  63  94 128 166 221 262 316 380
#     4  10  23  41  64  95 131 164 220 261 322 383
#     4  10  22  39  63  91 127 166 209 265 320 385
#     4  10  20  41  62  88 125 168 208 263 312 381
#
# _framework density 23.222296
#
# number of rings (size 3 to 8) (size 9 to 14) (size 15 to 20)
#    0.000    1.750    2.500    1.125    1.750    5.000 
#    4.500    1.250    0.000    0.000    0.000    0.000 
#    0.000    0.000    0.000    0.000    0.000    0.000 
#
# Total GULP energy -89126.710429 kJ/mol
# GULP energy per Si atom -5570.419402 kJ/mol
# Density = 2.316944 g / cm^3
# Si number density = 23.222296 Si / 1000 Ang^3
#
#
#
# Elastic Constant Matrix: (Units=GPa)
#
#
# Indices 1 2 3 4 5 6 
#
# 1 72.9731 16.8288 14.5533 -8.8201 -19.9640 -4.8409
# 2 16.8288 71.8472 11.4804 21.5202 -6.2957 -8.0026
# 3 14.5533 11.4804 75.3280 13.7245 -13.5414 -10.0972
# 4 -8.8201 21.5202 13.7245 47.7913 -0.6681 5.4779
# 5 -19.9640 -6.2957 -13.5414 -0.6681 24.9293 3.5219
# 6 -4.8409 -8.0026 -10.0972 5.4779 3.5219 19.0746
#
#
#
# Elastic Compliance Matrix: (Units=1/GPa)
#
#
# Indices 1 2 3 4 5 6 
#
# 1 0.019985 -0.005692 -0.002276 0.007473 0.013991 -0.003250
# 2 -0.005692 0.019670 0.001607 -0.011652 -0.000601 0.011116
# 3 -0.002276 0.001607 0.017276 -0.007178 0.006344 0.010132
# 4 0.007473 -0.011652 -0.007178 0.031507 0.002285 -0.016262
# 5 0.013991 -0.000601 0.006344 0.002285 0.055267 -0.004204
# 6 -0.003250 0.011116 0.010132 -0.016262 -0.004204 0.067074
#
#
# Mechanical properties :
#
#
# Convention : Reuss Voigt Hill
#
# Bulk Modulus (GPa) = 22.61934 33.98591 28.30262
# Shear Modulus (GPa) = 20.98729 30.17810 25.58270
#
# Velocity S-wave (km/s) = 3.00952 3.60881 3.32270
# Velocity P-wave (km/s) = 4.67309 5.65964 5.18986
#
# Compressibility (1/GPa) = 0.04420995
#
# Stress axis : x y z
#
# Youngs Moduli (GPa) = 50.03649 50.83755 57.88276
#
# Poissons Ratio (x) = 0.28937 0.13173
# Poissons Ratio (y) = 0.28481 -0.09300
# Poissons Ratio (z) = 0.11388 -0.08168
#
# Static dielectric constant tensor:
#      x y z
#    x 1.970740 -0.015830 0.045360 
#    y -0.015830 1.913110 0.005600 
#    z 0.045360 0.005600 1.926230 
# 
# From -- ./inp_files/274103.got.cif
#   From: 2010.05.17/outbox.cif.g08.bks.cpg/sg2_138_cif.got.tgz:274103.got - 2010.06.03 11:33:40.
