data_PCOD9109467
_publ_section_title
;
Structure prediction by ZEFSAII (Michael W. Deem and Ramdas Pophale) SiO2 
 PCOD9109467
Probable space group: P -1
;
_chemical_formula_sum "Si O2"
_cell_formula_units_Z 12
_cell_length_a 5.509111
_cell_length_b 13.508144
_cell_length_c 14.290123
_cell_angle_alpha 145.435962
_cell_angle_beta 85.009937
_cell_angle_gamma 76.097090
_cell_volume 501.216323
_symmetry_space_group_name_H-M "P -1"
_symmetry_group_IT_number 2
_symmetry_cell_setting 'triclinic'
loop_
_space_group_symop_operation_xyz
x,y,z
-x,-y,-z
loop_
_atom_site_type_symbol
_atom_site_label
_atom_site_fract_x
_atom_site_fract_y
_atom_site_fract_z
Si Si1 0.792566 0.676253 0.783034
Si Si2 0.835565 0.375247 0.917964
Si Si3 0.250865 0.519724 0.796373
Si Si4 0.893129 0.238358 0.465627
Si Si5 0.798165 0.859095 0.437919
Si Si6 0.850868 0.977432 0.895632
O O1 0.898169 0.436437 0.582549
O O2 0.782402 0.802612 0.791085
O O3 0.033536 0.660632 0.831963
O O4 0.467792 0.809961 0.942335
O O5 0.973146 0.196233 0.695472
O O6 0.500000 0.500000 0.000000
O O7 0.823451 0.337967 0.999051
O O8 0.000000 0.500000 0.000000
O O9 0.580988 0.362855 0.626370
O O10 0.167556 0.357545 0.704743
O O11 0.132671 0.093023 0.424046
O O12 0.945678 0.105543 0.267249
O O13 0.500000 0.000000 0.500000
O O14 0.000000 0.000000 0.000000
#
# Coordination Sequence:
#
# PCOD9109467 Si02
#       6
#     2   2   2   2   2   2
#     4  10  24  44  67  95 134 175 224 280 354 414
#     4  10  20  41  65  93 137 179 227 280 347 416
#     4  10  22  41  64  96 129 180 223 279 347 414
#     4  11  23  44  68  96 135 178 227 280 350 413
#     4  10  23  41  61  99 134 178 226 282 345 415
#     4  11  25  44  67 101 131 173 228 287 348 420
#
# _framework density 23.941759000000001
#
# number of rings (size 3 to 8) (size 9 to 14) (size 15 to 20)
#    0.000    1.667    1.667    1.500    2.333    8.667 
#    3.000    0.000    0.000    0.000    0.000    0.000 
#    0.000    0.000    0.000    0.000    0.000    0.000 
#
# Total GULP energy -66934.683450 kJ/mol
# GULP energy per Si atom -5577.890288 kJ/mol
# Density = 2.388727 g / cm^3
# Si number density = 23.941759 Si / 1000 Ang^3
#
#
#
# Elastic Constant Matrix: (Units=GPa)
#
#
# Indices 1 2 3 4 5 6 
#
# 1 69.8399 16.7823 30.3787 -6.9605 -12.4362 -16.3035
# 2 16.7823 106.0421 60.0645 6.1995 2.2666 -11.4905
# 3 30.3787 60.0645 144.6311 -46.1657 -8.0857 -16.5216
# 4 -6.9605 6.1995 -46.1657 51.2060 1.2604 1.2074
# 5 -12.4362 2.2666 -8.0857 1.2604 44.1293 10.3711
# 6 -16.3035 -11.4905 -16.5216 1.2074 10.3711 52.9654
#
#
#
# Elastic Compliance Matrix: (Units=1/GPa)
#
#
# Indices 1 2 3 4 5 6 
#
# 1 0.017143 -0.000877 -0.002680 -0.000151 0.003553 0.003558
# 2 -0.000877 0.016108 -0.010120 -0.011145 -0.002816 0.000873
# 3 -0.002680 -0.010120 0.017158 0.016243 0.002079 0.001554
# 4 -0.000151 -0.011145 0.016243 0.035416 0.002173 0.001370
# 5 0.003553 -0.002816 0.002079 0.002173 0.025023 -0.003818
# 6 0.003558 0.000873 0.001554 0.001370 -0.003818 0.021366
#
#
# Mechanical properties :
#
#
# Convention : Reuss Voigt Hill
#
# Bulk Modulus (GPa) = 43.37358 59.44044 51.40701
# Shear Modulus (GPa) = 29.89491 43.87932 36.88711
#
# Velocity S-wave (km/s) = 3.53746 4.28571 3.92944
# Velocity P-wave (km/s) = 5.90258 7.02643 6.48888
#
# Compressibility (1/GPa) = 0.02305551
#
# Stress axis : x y z
#
# Youngs Moduli (GPa) = 58.33245 62.08214 58.28096
#
# Poissons Ratio (x) = 0.05443 0.15617
# Poissons Ratio (y) = 0.05115 0.58982
# Poissons Ratio (z) = 0.15631 0.62829
#
# Static dielectric constant tensor:
#      x y z
#    x 2.013250 0.024790 0.050100 
#    y 0.024790 1.938640 -0.000470 
#    z 0.050100 -0.000470 1.911270 
# 
# From -- ./inp_files/30682.got.cif
#   From: 2010.05.17/outbox.cif.g08.bks.cpg/sg2_16_cif.got.tgz:30682.got - 2010.06.03 11:33:40.
