data_PCOD9109503
_publ_section_title
;
Structure prediction by ZEFSAII (Michael W. Deem and Ramdas Pophale) SiO2 
 PCOD9109503
Probable space group: P -1
;
_chemical_formula_sum "Si O2"
_cell_formula_units_Z 16
_cell_length_a 11.435744
_cell_length_b 25.567445
_cell_length_c 5.476288
_cell_angle_alpha 119.693076
_cell_angle_beta 53.222328
_cell_angle_gamma 148.468723
_cell_volume 670.264138
_symmetry_space_group_name_H-M "P -1"
_symmetry_group_IT_number 2
_symmetry_cell_setting 'triclinic'
loop_
_space_group_symop_operation_xyz
x,y,z
-x,-y,-z
loop_
_atom_site_type_symbol
_atom_site_label
_atom_site_fract_x
_atom_site_fract_y
_atom_site_fract_z
Si Si1 0.318086 0.541183 0.677712
Si Si2 0.000784 0.910177 0.943773
Si Si3 0.795506 0.739453 0.511066
Si Si4 0.225406 0.920840 0.076402
Si Si5 0.099033 0.346232 0.556486
Si Si6 0.193845 0.728966 0.749248
Si Si7 0.723685 0.936263 0.449147
Si Si8 0.160512 0.587107 0.308549
O O1 0.543889 0.637975 0.454845
O O2 0.301121 0.465454 0.581284
O O3 0.043543 0.459715 0.738347
O O4 0.338697 0.596770 0.996656
O O5 0.834866 0.906750 0.270441
O O6 0.150928 0.901916 0.844571
O O7 0.815849 0.812929 0.770357
O O8 0.207411 0.018875 0.805094
O O9 0.032006 0.816534 0.219037
O O10 0.810100 0.690422 0.576500
O O11 0.167482 0.972242 0.324543
O O12 0.500000 0.000000 0.000000
O O13 0.978713 0.309770 0.353326
O O14 0.921034 0.301776 0.908938
O O15 0.444153 0.845264 0.659401
O O16 0.260225 0.680499 0.515298
O O17 0.000000 0.500000 0.500000
#
# Coordination Sequence:
#
# PCOD9109503 Si02
#       8
#     2   2   2   2   2   2   2   2
#     4  10  22  42  64  95 137 177 225 285 338 414
#     4  10  24  45  63  99 133 174 235 291 348 414
#     4  11  25  41  66  96 132 181 226 279 353 408
#     4  11  25  43  68  98 134 177 231 292 352 416
#     4  11  25  44  65 102 140 180 234 276 344 414
#     4  11  24  42  70 101 134 187 227 283 344 412
#     4  10  23  42  69  96 134 178 231 285 351 409
#     4  10  20  41  65  96 133 175 227 280 343 404
#
# _framework density 23.871185000000001
#
# number of rings (size 3 to 8) (size 9 to 14) (size 15 to 20)
#    0.000    1.500    1.250    2.250    7.000    3.000 
#    0.000    1.875    0.000    0.000    0.000    0.000 
#    0.000    0.000    0.000    0.000    0.000    0.000 
#
# Total GULP energy -89128.719442 kJ/mol
# GULP energy per Si atom -5570.544965 kJ/mol
# Density = 2.381685 g / cm^3
# Si number density = 23.871185 Si / 1000 Ang^3
#
#
#
# Elastic Constant Matrix: (Units=GPa)
#
#
# Indices 1 2 3 4 5 6 
#
# 1 89.4857 21.5853 13.5272 -0.2832 -11.6023 -11.0516
# 2 21.5853 156.5805 28.1769 -17.6611 -17.4318 -22.9082
# 3 13.5272 28.1769 55.1806 0.3932 -11.0683 4.9122
# 4 -0.2832 -17.6611 0.3932 39.3482 -9.6227 -14.3866
# 5 -11.6023 -17.4318 -11.0683 -9.6227 26.1388 2.5336
# 6 -11.0516 -22.9082 4.9122 -14.3866 2.5336 27.1264
#
#
#
# Elastic Compliance Matrix: (Units=1/GPa)
#
#
# Indices 1 2 3 4 5 6 
#
# 1 0.013563 0.001948 -0.003904 0.006675 0.007081 0.010757
# 2 0.001948 0.013725 -0.007318 0.016846 0.011025 0.021614
# 3 -0.003904 -0.007318 0.024868 -0.009427 0.002140 -0.017474
# 4 0.006675 0.016846 -0.009427 0.056468 0.026523 0.046124
# 5 0.007081 0.011025 0.002140 0.026523 0.057435 0.020510
# 6 0.010757 0.021614 -0.017474 0.046124 0.020510 0.085211
#
#
# Mechanical properties :
#
#
# Convention : Reuss Voigt Hill
#
# Bulk Modulus (GPa) = 29.75642 47.53616 38.64629
# Shear Modulus (GPa) = 17.79222 34.38650 26.08936
#
# Velocity S-wave (km/s) = 2.73306 3.79951 3.30952
# Velocity P-wave (km/s) = 4.73835 6.26141 5.55235
#
# Compressibility (1/GPa) = 0.03360619
#
# Stress axis : x y z
#
# Youngs Moduli (GPa) = 73.73003 72.86164 40.21164
#
# Poissons Ratio (x) = -0.14192 0.15700
# Poissons Ratio (y) = -0.14362 0.29428
# Poissons Ratio (z) = 0.28787 0.53323
#
# Static dielectric constant tensor:
#      x y z
#    x 2.412570 0.227140 -0.137960 
#    y 0.227140 2.000910 -0.096660 
#    z -0.137960 -0.096660 2.253090 
# 
# From -- ./inp_files/56308.got.cif
#   From: 2010.05.17/outbox.cif.g08.bks.cpg/sg2_29_cif.got.tgz:56308.got - 2010.06.03 11:33:40.
