data_PCOD9109771
_publ_section_title
;
Structure prediction by ZEFSAII (Michael W. Deem and Ramdas Pophale) SiO2 
 PCOD9109771
Probable space group: P -1
;
_chemical_formula_sum "Si O2"
_cell_formula_units_Z 16
_cell_length_a 12.003166
_cell_length_b 24.577020
_cell_length_c 17.755054
_cell_angle_alpha 160.742185
_cell_angle_beta 154.901445
_cell_angle_gamma 30.115021
_cell_volume 730.856814
_symmetry_space_group_name_H-M "P -1"
_symmetry_group_IT_number 2
_symmetry_cell_setting 'triclinic'
loop_
_space_group_symop_operation_xyz
x,y,z
-x,-y,-z
loop_
_atom_site_type_symbol
_atom_site_label
_atom_site_fract_x
_atom_site_fract_y
_atom_site_fract_z
Si Si1 0.911730 0.915835 0.107184
Si Si2 0.198385 0.285003 0.837976
Si Si3 0.284807 0.155973 0.573259
Si Si4 0.576095 0.058480 0.857425
Si Si5 0.617013 0.384544 0.576432
Si Si6 0.422431 0.099228 0.985513
Si Si7 0.957133 0.559767 0.636368
Si Si8 0.111193 0.246480 0.418070
O O1 0.855059 0.911639 0.156172
O O2 0.056710 0.742217 0.945907
O O3 0.614147 0.944572 0.930307
O O4 0.042053 0.062904 0.337588
O O5 0.303317 0.299593 0.834906
O O6 0.352762 0.115433 0.735611
O O7 0.882316 0.298103 0.662896
O O8 0.292511 0.430418 0.138877
O O9 0.224444 0.227924 0.547782
O O10 0.500000 0.000000 0.500000
O O11 0.703195 0.875270 0.679936
O O12 0.442226 0.086693 0.892720
O O13 0.822684 0.172974 0.148046
O O14 0.533385 0.271275 0.307851
O O15 0.353723 0.413797 0.502079
O O16 0.000000 0.500000 0.500000
O O17 0.079230 0.426653 0.596944
#
# Coordination Sequence:
#
# PCOD9109771 Si02
#       8
#     2   2   2   2   2   2   2   2
#     4  10  22  41  66  92 127 181 213 265 333 395
#     4  11  22  40  64  99 136 165 221 274 341 373
#     4  12  24  44  72  93 134 178 224 276 329 400
#     4  11  21  38  70 100 128 170 228 278 317 404
#     4  10  22  41  61  98 128 177 209 273 330 391
#     4  10  20  41  67  91 130 170 228 262 329 393
#     4  11  24  41  68  99 137 171 226 274 332 392
#     4  11  23  41  66 104 129 175 231 267 327 399
#
# _framework density 21.892112999999998
#
# number of rings (size 3 to 8) (size 9 to 14) (size 15 to 20)
#    0.000    1.250    5.000    0.750    3.500    0.500 
#    9.000    2.500    0.000    0.000    0.000    0.000 
#    0.000    0.000    0.000    0.000    0.000    0.000 
#
# Total GULP energy -89271.437077 kJ/mol
# GULP energy per Si atom -5579.464817 kJ/mol
# Density = 2.184229 g / cm^3
# Si number density = 21.892113 Si / 1000 Ang^3
#
#
#
# Elastic Constant Matrix: (Units=GPa)
#
#
# Indices 1 2 3 4 5 6 
#
# 1 144.0160 36.3230 19.4224 5.8681 -32.7556 5.3775
# 2 36.3230 110.5485 10.1958 14.0917 -14.2551 -4.1800
# 3 19.4224 10.1958 72.7800 25.1381 -12.7812 10.2358
# 4 5.8681 14.0917 25.1381 36.1201 -3.6001 0.7798
# 5 -32.7556 -14.2551 -12.7812 -3.6001 25.7704 1.8556
# 6 5.3775 -4.1800 10.2358 0.7798 1.8556 35.8931
#
#
#
# Elastic Compliance Matrix: (Units=1/GPa)
#
#
# Indices 1 2 3 4 5 6 
#
# 1 0.010291 -0.001947 -0.000169 0.000468 0.012155 -0.002359
# 2 -0.001947 0.010582 0.000835 -0.004107 0.003131 0.001213
# 3 -0.000169 0.000835 0.020874 -0.013789 0.009106 -0.006001
# 4 0.000468 -0.004107 -0.013789 0.038416 -0.003346 0.002722
# 5 0.012155 0.003131 0.009106 -0.003346 0.060547 -0.007111
# 6 -0.002359 0.001213 -0.006001 0.002722 -0.007111 0.030375
#
#
# Mechanical properties :
#
#
# Convention : Reuss Voigt Hill
#
# Bulk Modulus (GPa) = 25.51981 51.02520 38.27250
# Shear Modulus (GPa) = 26.77979 36.98361 31.88170
#
# Velocity S-wave (km/s) = 3.50131 4.11464 3.82030
# Velocity P-wave (km/s) = 5.29414 6.77730 6.08111
#
# Compressibility (1/GPa) = 0.03918525
#
# Stress axis : x y z
#
# Youngs Moduli (GPa) = 97.17067 94.50175 47.90700
#
# Poissons Ratio (x) = 0.18402 0.00808
# Poissons Ratio (y) = 0.18922 -0.04001
# Poissons Ratio (z) = 0.01639 -0.07893
#
# Static dielectric constant tensor:
#      x y z
#    x 1.824970 -0.001130 0.014590 
#    y -0.001130 1.803990 -0.011320 
#    z 0.014590 -0.011320 1.928240 
# 
# From -- ./inp_files/447849.got.cif
#   From: 2010.05.17/outbox.cif.g08.bks.cpg/sg2_224_cif.got.tgz:447849.got - 2010.06.03 11:33:40.
