data_PCOD9109445
_publ_section_title
;
Structure prediction by ZEFSAII (Michael W. Deem and Ramdas Pophale) SiO2 
 PCOD9109445
Probable space group: P -1
;
_chemical_formula_sum "Si O2"
_cell_formula_units_Z 16
_cell_length_a 11.642250
_cell_length_b 14.975866
_cell_length_c 8.208795
_cell_angle_alpha 98.939689
_cell_angle_beta 91.371493
_cell_angle_gamma 30.024483
_cell_volume 689.503903
_symmetry_space_group_name_H-M "P -1"
_symmetry_group_IT_number 2
_symmetry_cell_setting 'triclinic'
loop_
_space_group_symop_operation_xyz
x,y,z
-x,-y,-z
loop_
_atom_site_type_symbol
_atom_site_label
_atom_site_fract_x
_atom_site_fract_y
_atom_site_fract_z
Si Si1 0.116012 0.517088 0.336099
Si Si2 0.791390 0.627493 0.159786
Si Si3 0.335689 0.435726 0.636561
Si Si4 0.117903 0.762669 0.688695
Si Si5 0.173426 0.914969 0.620799
Si Si6 0.930679 0.825899 0.346516
Si Si7 0.687777 0.961379 0.876793
Si Si8 0.476669 0.106983 0.252706
O O1 0.150157 0.530664 0.521491
O O2 0.331918 0.298005 0.263670
O O3 0.882359 0.620928 0.318047
O O4 0.086927 0.629441 0.260947
O O5 0.736018 0.564754 0.200782
O O6 0.552326 0.830383 0.138151
O O7 0.000000 0.500000 0.000000
O O8 0.327792 0.549372 0.676304
O O9 0.583629 0.236825 0.511260
O O10 0.190135 0.817629 0.712909
O O11 0.023010 0.800335 0.515558
O O12 0.902756 0.879631 0.827002
O O13 0.079209 0.074822 0.731745
O O14 0.000000 0.000000 0.500000
O O15 0.653914 0.987020 0.377819
O O16 0.697872 0.857900 0.756914
O O17 0.655325 0.967167 0.068505
#
# Coordination Sequence:
#
# PCOD9109445 Si02
#       8
#     2   2   2   2   2   2   2   2
#     4  11  22  39  60  96 125 165 209 256 316 374
#     4  12  23  38  59  94 133 168 204 255 312 383
#     4  11  23  39  65  94 126 163 212 261 314 372
#     4  10  23  40  65  96 123 167 215 259 313 368
#     4  10  20  41  65  92 124 163 211 266 310 364
#     4  10  21  39  64  91 122 164 207 265 308 368
#     4  11  24  39  62  91 130 172 206 252 321 375
#     4  11  22  40  62  88 133 166 205 257 314 378
#
# _framework density 23.205089999999998
#
# number of rings (size 3 to 8) (size 9 to 14) (size 15 to 20)
#    0.000    1.250    3.750    3.000    1.750    1.500 
#    0.000    0.625    0.000    0.750    0.000    0.000 
#    0.000    0.000    0.000    0.000    0.000    0.000 
#
# Total GULP energy -89292.594176 kJ/mol
# GULP energy per Si atom -5580.787136 kJ/mol
# Density = 2.315227 g / cm^3
# Si number density = 23.205090 Si / 1000 Ang^3
#
#
#
# Elastic Constant Matrix: (Units=GPa)
#
#
# Indices 1 2 3 4 5 6 
#
# 1 102.4239 34.9333 27.1034 -0.2057 -12.1235 46.5692
# 2 34.9333 116.7342 17.4813 6.3986 2.4080 34.9831
# 3 27.1034 17.4813 26.6538 2.3735 -17.2185 7.1307
# 4 -0.2057 6.3986 2.3735 23.4937 -1.3968 0.6357
# 5 -12.1235 2.4080 -17.2185 -1.3968 27.3219 -6.0411
# 6 46.5692 34.9831 7.1307 0.6357 -6.0411 61.8985
#
#
#
# Elastic Compliance Matrix: (Units=1/GPa)
#
#
# Indices 1 2 3 4 5 6 
#
# 1 0.021973 0.002254 -0.026646 0.002066 -0.010628 -0.015794
# 2 0.002254 0.013367 -0.016820 -0.002451 -0.012791 -0.008536
# 3 -0.026646 -0.016820 0.111823 -0.003706 0.065039 0.023057
# 4 0.002066 -0.002451 -0.003706 0.043687 0.001010 -0.000092
# 5 -0.010628 -0.012791 0.065039 0.001010 0.077430 0.015279
# 6 -0.015794 -0.008536 0.023057 -0.000092 0.015279 0.031698
#
#
# Mechanical properties :
#
#
# Convention : Reuss Voigt Hill
#
# Bulk Modulus (GPa) = 15.44682 44.98309 30.21495
# Shear Modulus (GPa) = 12.37681 33.62910 23.00295
#
# Velocity S-wave (km/s) = 2.31198 3.81098 3.15189
# Velocity P-wave (km/s) = 3.71458 6.22831 5.12786
#
# Compressibility (1/GPa) = 0.06473823
#
# Stress axis : x y z
#
# Youngs Moduli (GPa) = 45.51057 74.81090 8.94274
#
# Poissons Ratio (x) = -0.16862 0.23829
# Poissons Ratio (y) = -0.10258 0.15042
# Poissons Ratio (z) = 1.21268 1.25832
#
# Static dielectric constant tensor:
#      x y z
#    x 1.932520 0.062600 -0.002590 
#    y 0.062600 1.913520 -0.020080 
#    z -0.002590 -0.020080 1.914260 
# 
# From -- ./inp_files/273111.got.cif
#   From: 2010.05.17/outbox.cif.g08.bks.cpg/sg2_137_cif.got.tgz:273111.got - 2010.06.03 11:33:40.
