data_PCOD9109179
_publ_section_title
;
Structure prediction by ZEFSAII (Michael W. Deem and Ramdas Pophale) SiO2 
 PCOD9109179
Probable space group: P -1
;
_chemical_formula_sum "Si O2"
_cell_formula_units_Z 16
_cell_length_a 26.026823
_cell_length_b 6.372922
_cell_length_c 10.120293
_cell_angle_alpha 56.205209
_cell_angle_beta 28.732909
_cell_angle_gamma 51.472185
_cell_volume 631.064673
_symmetry_space_group_name_H-M "P -1"
_symmetry_group_IT_number 2
_symmetry_cell_setting 'triclinic'
loop_
_space_group_symop_operation_xyz
x,y,z
-x,-y,-z
loop_
_atom_site_type_symbol
_atom_site_label
_atom_site_fract_x
_atom_site_fract_y
_atom_site_fract_z
Si Si1 0.794660 0.057421 0.249254
Si Si2 0.245394 0.628500 0.362725
Si Si3 0.911945 0.497673 0.816513
Si Si4 0.369041 0.954395 0.600858
Si Si5 0.910578 0.558805 0.356385
Si Si6 0.746599 0.794905 0.889819
Si Si7 0.614833 0.501335 0.663591
Si Si8 0.597050 0.578576 0.147121
O O1 0.745861 0.001585 0.238643
O O2 0.682243 0.240838 0.518070
O O3 0.865793 0.807386 0.268606
O O4 0.874689 0.236812 0.985282
O O5 0.120335 0.670373 0.574402
O O6 0.285281 0.503617 0.456665
O O7 0.272063 0.901299 0.208210
O O8 0.328221 0.420334 0.148140
O O9 0.799554 0.733142 0.937726
O O10 0.000000 0.500000 0.500000
O O11 0.965522 0.512060 0.834046
O O12 0.471430 0.771572 0.339910
O O13 0.383571 0.732737 0.760159
O O14 0.403432 0.214749 0.465070
O O15 0.835631 0.631931 0.633502
O O16 0.642763 0.693278 0.131445
O O17 0.500000 0.500000 0.000000
#
# Coordination Sequence:
#
# PCOD9109179 Si02
#       8
#     2   2   2   2   2   2   2   2
#     4  12  23  44  68  96 136 171 218 272 323 388
#     4  11  22  39  65  94 131 171 215 270 321 388
#     4  10  23  43  70  95 126 176 221 273 331 378
#     4  11  24  41  64  97 131 173 220 263 325 392
#     4  10  22  41  65  93 128 174 218 271 324 381
#     4  10  20  41  63  94 132 164 217 270 325 385
#     4  12  26  41  66 101 135 176 213 262 327 394
#     4  10  23  40  64  93 131 174 215 267 322 388
#
# _framework density 25.353978999999999
#
# number of rings (size 3 to 8) (size 9 to 14) (size 15 to 20)
#    0.000    1.250    3.750    1.875    3.500    1.500 
#    0.000    6.250    0.000    0.000    0.000    0.000 
#    0.000    0.000    0.000    0.000    0.000    0.000 
#
# Total GULP energy -89384.871301 kJ/mol
# GULP energy per Si atom -5586.554456 kJ/mol
# Density = 2.529627 g / cm^3
# Si number density = 25.353979 Si / 1000 Ang^3
#
#
#
# Elastic Constant Matrix: (Units=GPa)
#
#
# Indices 1 2 3 4 5 6 
#
# 1 118.8183 8.0278 19.1889 12.1842 -24.6752 -6.3558
# 2 8.0278 74.1124 21.2499 -13.5272 -3.4252 -13.1755
# 3 19.1889 21.2499 110.6963 -9.1183 -13.6983 2.8282
# 4 12.1842 -13.5272 -9.1183 40.8706 -1.0376 1.4524
# 5 -24.6752 -3.4252 -13.6983 -1.0376 35.7412 3.5701
# 6 -6.3558 -13.1755 2.8282 1.4524 3.5701 32.9014
#
#
#
# Elastic Compliance Matrix: (Units=1/GPa)
#
#
# Indices 1 2 3 4 5 6 
#
# 1 0.010434 -0.000938 -0.001154 -0.003557 0.006448 0.001197
# 2 -0.000938 0.016414 -0.002840 0.004831 -0.000671 0.006496
# 3 -0.001154 -0.002840 0.010406 0.001904 0.003243 -0.002691
# 4 -0.003557 0.004831 0.001904 0.027543 -0.000455 -0.000083
# 5 0.006448 -0.000671 0.003243 -0.000455 0.033892 -0.002959
# 6 0.001197 0.006496 -0.002691 -0.000083 -0.002959 0.033782
#
#
# Mechanical properties :
#
#
# Convention : Reuss Voigt Hill
#
# Bulk Modulus (GPa) = 36.50854 44.50670 40.50762
# Shear Modulus (GPa) = 33.01103 38.91331 35.96217
#
# Velocity S-wave (km/s) = 3.61225 3.92190 3.77026
# Velocity P-wave (km/s) = 5.64168 6.17257 5.91309
#
# Compressibility (1/GPa) = 0.02739085
#
# Stress axis : x y z
#
# Youngs Moduli (GPa) = 95.84133 60.92263 96.10018
#
# Poissons Ratio (x) = 0.05713 0.11093
# Poissons Ratio (y) = 0.08988 0.27288
# Poissons Ratio (z) = 0.11063 0.17299
#
# Static dielectric constant tensor:
#      x y z
#    x 2.018770 0.017920 -0.047290 
#    y 0.017920 1.999630 0.027250 
#    z -0.047290 0.027250 2.091800 
# 
# From -- ./inp_files/55729.got.cif
#   From: 2010.05.17/outbox.cif.g08.bks.cpg/sg2_28_cif.got.tgz:55729.got - 2010.06.03 11:33:40.
