data_PCOD9109956
_publ_section_title
;
Structure prediction by ZEFSAII (Michael W. Deem and Ramdas Pophale) SiO2 
 PCOD9109956
Probable space group: P -1
;
_chemical_formula_sum "Si O2"
_cell_formula_units_Z 14
_cell_length_a 7.358781
_cell_length_b 12.528653
_cell_length_c 9.130363
_cell_angle_alpha 131.261409
_cell_angle_beta 96.663269
_cell_angle_gamma 100.147674
_cell_volume 591.403493
_symmetry_space_group_name_H-M "P -1"
_symmetry_group_IT_number 2
_symmetry_cell_setting 'triclinic'
loop_
_space_group_symop_operation_xyz
x,y,z
-x,-y,-z
loop_
_atom_site_type_symbol
_atom_site_label
_atom_site_fract_x
_atom_site_fract_y
_atom_site_fract_z
Si Si1 0.730977 0.802319 0.639620
Si Si2 0.163069 0.773927 0.127268
Si Si3 0.497758 0.017047 0.837146
Si Si4 0.777135 0.507051 0.031550
Si Si5 0.800656 0.839341 0.009249
Si Si6 0.988238 0.150081 0.562114
Si Si7 0.527942 0.512112 0.767297
O O1 0.818211 0.864768 0.861023
O O2 0.911828 0.837000 0.576433
O O3 0.611926 0.623453 0.464089
O O4 0.572168 0.884009 0.664455
O O5 0.343530 0.839015 0.093510
O O6 0.201584 0.839813 0.357225
O O7 0.103050 0.594224 0.984635
O O8 0.994779 0.824002 0.081323
O O9 0.290862 0.043122 0.816383
O O10 0.500000 0.000000 0.000000
O O11 0.864282 0.687786 0.215760
O O12 0.600883 0.461039 0.089115
O O13 0.687420 0.459530 0.820088
O O14 0.637865 0.672769 0.852979
O O15 0.000000 0.000000 0.500000
#
# Coordination Sequence:
#
# PCOD9109956 Si02
#       7
#     2   2   2   2   2   2   2
#     4  10  23  42  65  98 136 173 225 281 328 393
#     4  12  23  44  71  96 133 179 224 270 338 401
#     4  10  23  44  65  96 136 177 217 273 337 394
#     4  10  22  41  68  97 132 176 222 273 334 397
#     4  11  23  43  72  95 131 182 221 273 341 396
#     4  11  22  41  64  98 134 170 221 276 327 393
#     4  10  20  41  68  95 130 176 225 272 331 397
#
# _framework density 23.672499999999999
#
# number of rings (size 3 to 8) (size 9 to 14) (size 15 to 20)
#    0.000    1.429    4.286    0.857    0.000    2.286 
#    2.571    5.714    0.000    0.000    0.000    0.000 
#    0.000    0.000    0.000    0.000    0.000    0.000 
#
# Total GULP energy -77974.228721 kJ/mol
# GULP energy per Si atom -5569.587766 kJ/mol
# Density = 2.361862 g / cm^3
# Si number density = 23.672500 Si / 1000 Ang^3
#
#
#
# Elastic Constant Matrix: (Units=GPa)
#
#
# Indices 1 2 3 4 5 6 
#
# 1 130.5938 28.1665 33.0757 -9.5131 -21.2897 -6.2832
# 2 28.1665 86.2694 42.1430 4.9732 -17.7585 4.0911
# 3 33.0757 42.1430 69.6472 -7.3910 -18.1725 6.9613
# 4 -9.5131 4.9732 -7.3910 48.5334 8.5549 -3.5448
# 5 -21.2897 -17.7585 -18.1725 8.5549 15.4988 -1.0684
# 6 -6.2832 4.0911 6.9613 -3.5448 -1.0684 52.8828
#
#
#
# Elastic Compliance Matrix: (Units=1/GPa)
#
#
# Indices 1 2 3 4 5 6 
#
# 1 0.010153 0.000027 -0.001898 -0.000300 0.012033 0.001677
# 2 0.000027 0.019143 -0.008061 -0.006005 0.015800 -0.000500
# 3 -0.001898 -0.008061 0.024788 0.001156 0.016414 -0.002456
# 4 -0.000300 -0.006005 0.001156 0.024901 -0.019576 0.001550
# 5 0.012033 0.015800 0.016414 -0.019576 0.129160 -0.000656
# 6 0.001677 -0.000500 -0.002456 0.001550 -0.000656 0.019562
#
#
# Mechanical properties :
#
#
# Convention : Reuss Voigt Hill
#
# Bulk Modulus (GPa) = 29.22229 54.80900 42.01564
# Shear Modulus (GPa) = 19.30693 35.59134 27.44914
#
# Velocity S-wave (km/s) = 2.85894 3.88169 3.40889
# Velocity P-wave (km/s) = 4.82382 6.57977 5.76899
#
# Compressibility (1/GPa) = 0.03422046
#
# Stress axis : x y z
#
# Youngs Moduli (GPa) = 98.49681 52.23895 40.34272
#
# Poissons Ratio (x) = -0.00141 0.07655
# Poissons Ratio (y) = -0.00267 0.32519
# Poissons Ratio (z) = 0.18691 0.42109
#
# Static dielectric constant tensor:
#      x y z
#    x 2.038520 -0.005890 -0.008530 
#    y -0.005890 1.914040 -0.027200 
#    z -0.008530 -0.027200 1.974050 
# 
# From -- ./inp_files/183250.got.cif
#   From: 2010.05.17/outbox.cif.g08.bks.cpg/sg2_92_cif.got.tgz:183250.got - 2010.06.03 11:33:40.
