data_PCOD9109019
_publ_section_title
;
Structure prediction by ZEFSAII (Michael W. Deem and Ramdas Pophale) SiO2 
 PCOD9109019
Probable space group: P -1
;
_chemical_formula_sum "Si O2"
_cell_formula_units_Z 16
_cell_length_a 8.781780
_cell_length_b 13.726514
_cell_length_c 6.806296
_cell_angle_alpha 75.817358
_cell_angle_beta 118.516876
_cell_angle_gamma 99.497380
_cell_volume 697.827305
_symmetry_space_group_name_H-M "P -1"
_symmetry_group_IT_number 2
_symmetry_cell_setting 'triclinic'
loop_
_space_group_symop_operation_xyz
x,y,z
-x,-y,-z
loop_
_atom_site_type_symbol
_atom_site_label
_atom_site_fract_x
_atom_site_fract_y
_atom_site_fract_z
Si Si1 0.244617 0.628115 0.776528
Si Si2 0.678816 0.058062 0.045622
Si Si3 0.646547 0.388134 0.559606
Si Si4 0.853526 0.868878 0.354217
Si Si5 0.907149 0.105253 0.850728
Si Si6 0.965034 0.735409 0.824178
Si Si7 0.492873 0.750395 0.105774
Si Si8 0.285377 0.455336 0.153475
O O1 0.235262 0.645576 0.530003
O O2 0.099556 0.680324 0.792114
O O3 0.436691 0.669236 0.948212
O O4 0.239823 0.511877 0.897850
O O5 0.716355 0.073368 0.829064
O O6 0.812957 0.986487 0.263730
O O7 0.645497 0.165431 0.058690
O O8 0.500000 0.000000 0.000000
O O9 0.556450 0.302926 0.689508
O O10 0.487887 0.439747 0.327774
O O11 0.751277 0.466411 0.729342
O O12 0.877267 0.820759 0.601666
O O13 0.685726 0.803384 0.193031
O O14 0.027259 0.861722 0.337367
O O15 0.958092 0.199203 0.979116
O O16 0.000000 0.000000 0.000000
O O17 0.824843 0.648703 0.844416
#
# Coordination Sequence:
#
# PCOD9109019 Si02
#       8
#     2   2   2   2   2   2   2   2
#     4  11  24  38  67  94 129 169 216 261 320 378
#     4   9  19  40  63  88 125 163 203 264 314 366
#     4  10  22  41  65  92 129 170 215 262 315 382
#     4  10  23  38  66  90 129 170 211 259 320 379
#     4  10  23  42  64  95 128 168 209 266 318 373
#     4  12  24  41  64 100 128 168 214 265 316 386
#     4  10  20  41  61  93 128 165 213 265 312 377
#     4  10  23  42  62  93 134 164 214 270 312 377
#
# _framework density 22.928311000000001
#
# number of rings (size 3 to 8) (size 9 to 14) (size 15 to 20)
#    0.000    1.750    2.500    0.750    3.500    3.500 
#    0.000    0.000    0.000    6.750    0.000    0.000 
#    0.000    0.000    0.000    0.000    0.000    0.000 
#
# Total GULP energy -89243.748329 kJ/mol
# GULP energy per Si atom -5577.734271 kJ/mol
# Density = 2.287613 g / cm^3
# Si number density = 22.928311 Si / 1000 Ang^3
#
#
#
# Elastic Constant Matrix: (Units=GPa)
#
#
# Indices 1 2 3 4 5 6 
#
# 1 71.5475 24.8056 17.9131 3.8961 -18.3704 11.0888
# 2 24.8056 99.5898 27.3788 -18.2491 -17.0494 11.7674
# 3 17.9131 27.3788 70.4048 -12.2320 -15.9208 1.0001
# 4 3.8961 -18.2491 -12.2320 31.6393 -4.0195 -1.0771
# 5 -18.3704 -17.0494 -15.9208 -4.0195 30.5272 -7.0688
# 6 11.0888 11.7674 1.0001 -1.0771 -7.0688 37.4799
#
#
#
# Elastic Compliance Matrix: (Units=1/GPa)
#
#
# Indices 1 2 3 4 5 6 
#
# 1 0.018106 -0.003084 -0.002647 -0.004318 0.006479 -0.003220
# 2 -0.003084 0.014098 -0.001938 0.008401 0.005613 -0.002162
# 3 -0.002647 -0.001938 0.018944 0.007753 0.008870 0.002782
# 4 -0.004318 0.008401 0.007753 0.041577 0.012052 0.001901
# 5 0.006479 0.005613 0.008870 0.012052 0.047240 0.005340
# 6 -0.003220 -0.002162 0.002782 0.001901 0.005340 0.029300
#
#
# Mechanical properties :
#
#
# Convention : Reuss Voigt Hill
#
# Bulk Modulus (GPa) = 27.92488 42.41522 35.17005
# Shear Modulus (GPa) = 25.44001 31.35893 28.39947
#
# Velocity S-wave (km/s) = 3.33460 3.70225 3.52322
# Velocity P-wave (km/s) = 5.19920 6.06751 5.65006
#
# Compressibility (1/GPa) = 0.03581036
#
# Stress axis : x y z
#
# Youngs Moduli (GPa) = 55.22920 70.93218 52.78708
#
# Poissons Ratio (x) = 0.21874 0.13973
# Poissons Ratio (y) = 0.17032 0.10231
# Poissons Ratio (z) = 0.14619 0.13748
#
# Static dielectric constant tensor:
#      x y z
#    x 1.935010 -0.020890 0.048990 
#    y -0.020890 1.905140 0.017770 
#    z 0.048990 0.017770 1.947520 
# 
# From -- ./inp_files/38243.got.cif
#   From: 2010.05.17/outbox.cif.g08.bks.cpg/sg2_20_cif.got.tgz:38243.got - 2010.06.03 11:33:40.
