data_PCOD9109488
_publ_section_title
;
Structure prediction by ZEFSAII (Michael W. Deem and Ramdas Pophale) SiO2 
 PCOD9109488
Probable space group: P -1
;
_chemical_formula_sum "Si O2"
_cell_formula_units_Z 12
_cell_length_a 8.438905
_cell_length_b 8.885348
_cell_length_c 8.050287
_cell_angle_alpha 129.430303
_cell_angle_beta 85.750638
_cell_angle_gamma 84.267276
_cell_volume 456.422215
_symmetry_space_group_name_H-M "P -1"
_symmetry_group_IT_number 2
_symmetry_cell_setting 'triclinic'
loop_
_space_group_symop_operation_xyz
x,y,z
-x,-y,-z
loop_
_atom_site_type_symbol
_atom_site_label
_atom_site_fract_x
_atom_site_fract_y
_atom_site_fract_z
Si Si1 0.895032 0.881791 0.661487
Si Si2 0.176407 0.348981 0.072273
Si Si3 0.688401 0.961893 0.426129
Si Si4 0.355985 0.878791 0.934430
Si Si5 0.849663 0.310612 0.963419
Si Si6 0.752754 0.333322 0.516372
O O1 0.778401 0.843262 0.494218
O O2 0.054444 0.724362 0.565056
O O3 0.801021 0.947170 0.887115
O O4 0.940295 0.090932 0.745374
O O5 0.275107 0.437034 0.270896
O O6 0.984643 0.351778 0.114734
O O7 0.266594 0.155249 0.831837
O O8 0.169752 0.519590 0.050153
O O9 0.500000 0.000000 0.500000
O O10 0.722421 0.183282 0.558263
O O11 0.321105 0.731416 0.983300
O O12 0.340061 0.742189 0.682250
O O13 0.500000 0.000000 0.000000
#
# Coordination Sequence:
#
# PCOD9109488 Si02
#       6
#     2   2   2   2   2   2
#     4  10  20  41  65  95 127 172 227 253 317 386
#     4  11  22  40  69  98 130 166 224 275 315 390
#     4  12  24  41  66  97 135 172 213 273 334 385
#     4  10  22  41  66  97 137 177 213 264 333 392
#     4   9  20  40  66 100 127 172 223 260 324 380
#     4  12  22  40  70  97 130 175 221 270 320 386
#
# _framework density 26.291443999999998
#
# number of rings (size 3 to 8) (size 9 to 14) (size 15 to 20)
#    1.000    0.333    3.333    4.000    0.000    1.333 
#    0.000    1.667    0.000    7.000    0.000    0.000 
#    0.000    0.000    0.000    0.000    0.000    0.000 
#
# Total GULP energy -67017.710366 kJ/mol
# GULP energy per Si atom -5584.809197 kJ/mol
# Density = 2.623160 g / cm^3
# Si number density = 26.291444 Si / 1000 Ang^3
#
#
#
# Elastic Constant Matrix: (Units=GPa)
#
#
# Indices 1 2 3 4 5 6 
#
# 1 139.7925 11.1815 39.0492 -3.9728 17.5666 26.4050
# 2 11.1815 60.0121 5.4379 6.7903 6.7790 11.6868
# 3 39.0492 5.4379 157.3075 4.7543 37.8609 5.4613
# 4 -3.9728 6.7903 4.7543 48.8518 1.8949 5.6504
# 5 17.5666 6.7790 37.8609 1.8949 36.9774 -0.9799
# 6 26.4050 11.6868 5.4613 5.6504 -0.9799 29.4967
#
#
#
# Elastic Compliance Matrix: (Units=1/GPa)
#
#
# Indices 1 2 3 4 5 6 
#
# 1 0.009734 0.000259 -0.001279 0.002077 -0.003709 -0.009101
# 2 0.000259 0.018707 0.000644 -0.001595 -0.004331 -0.007601
# 3 -0.001279 0.000644 0.008734 -0.000613 -0.008445 -0.000890
# 4 0.002077 -0.001595 -0.000613 0.021583 -0.001313 -0.005292
# 5 -0.003709 -0.004331 -0.008445 -0.001313 0.038530 0.008132
# 6 -0.009101 -0.007601 -0.000890 -0.005292 0.008132 0.046509
#
#
# Mechanical properties :
#
#
# Convention : Reuss Voigt Hill
#
# Bulk Modulus (GPa) = 27.45674 52.04993 39.75333
# Shear Modulus (GPa) = 31.90973 43.16141 37.53557
#
# Velocity S-wave (km/s) = 3.48759 4.05613 3.78255
# Velocity P-wave (km/s) = 5.16562 6.46347 5.85064
#
# Compressibility (1/GPa) = 0.03642093
#
# Stress axis : x y z
#
# Youngs Moduli (GPa) = 102.72965 53.45693 114.48992
#
# Poissons Ratio (x) = -0.01382 0.14647
# Poissons Ratio (y) = -0.02656 -0.07369
# Poissons Ratio (z) = 0.13143 -0.03441
#
# Static dielectric constant tensor:
#      x y z
#    x 2.079970 -0.015130 0.024220 
#    y -0.015130 2.163730 -0.061540 
#    z 0.024220 -0.061540 2.159650 
# 
# From -- ./inp_files/166794.got.cif
#   From: 2010.05.17/outbox.cif.g08.bks.cpg/sg2_84_cif.got.tgz:166794.got - 2010.06.03 11:33:40.
