data_PCOD9109570
_publ_section_title
;
Structure prediction by ZEFSAII (Michael W. Deem and Ramdas Pophale) SiO2 
 PCOD9109570
Probable space group: P -1
;
_chemical_formula_sum "Si O2"
_cell_formula_units_Z 12
_cell_length_a 8.158528
_cell_length_b 8.201147
_cell_length_c 7.607234
_cell_angle_alpha 96.518780
_cell_angle_beta 66.862248
_cell_angle_gamma 100.247630
_cell_volume 460.050636
_symmetry_space_group_name_H-M "P -1"
_symmetry_group_IT_number 2
_symmetry_cell_setting 'triclinic'
loop_
_space_group_symop_operation_xyz
x,y,z
-x,-y,-z
loop_
_atom_site_type_symbol
_atom_site_label
_atom_site_fract_x
_atom_site_fract_y
_atom_site_fract_z
Si Si1 0.128401 0.336028 0.080289
Si Si2 0.665225 0.322564 0.916392
Si Si3 0.839212 0.872988 0.628122
Si Si4 0.960141 0.593046 0.347249
Si Si5 0.550631 0.153703 0.302386
Si Si6 0.378454 0.196132 0.729958
O O1 0.290315 0.478300 0.090969
O O2 0.117696 0.185249 0.202112
O O3 0.959494 0.438611 0.190409
O O4 0.196630 0.275549 0.857527
O O5 0.860150 0.282605 0.768307
O O6 0.505725 0.247284 0.849176
O O7 0.628657 0.267029 0.124007
O O8 0.645430 0.929528 0.698327
O O9 0.820853 0.707305 0.492445
O O10 0.000000 0.000000 0.500000
O O11 0.000000 0.500000 0.500000
O O12 0.506956 0.241381 0.512730
O O13 0.662314 0.004291 0.279839
#
# Coordination Sequence:
#
# PCOD9109570 Si02
#       6
#     2   2   2   2   2   2
#     4   9  21  36  63  91 119 158 200 250 298 361
#     4  10  20  41  66  89 117 165 197 253 304 350
#     4  11  21  39  62  91 121 164 202 244 306 364
#     4   8  19  36  60  89 119 155 202 236 299 363
#     4  11  25  37  65  94 118 160 208 248 301 359
#     4  11  22  40  59  96 124 151 208 254 296 354
#
# _framework density 26.084084000000001
#
# number of rings (size 3 to 8) (size 9 to 14) (size 15 to 20)
#    1.000    1.000    1.667    2.000    2.333    0.667 
#    0.000    1.667    7.333    0.000    0.000    0.000 
#    0.000    0.000    0.000    0.000    0.000    0.000 
#
# Total GULP energy -66999.781612 kJ/mol
# GULP energy per Si atom -5583.315134 kJ/mol
# Density = 2.602472 g / cm^3
# Si number density = 26.084084 Si / 1000 Ang^3
#
#
#
# Elastic Constant Matrix: (Units=GPa)
#
#
# Indices 1 2 3 4 5 6 
#
# 1 62.8532 13.3721 8.8583 13.4782 -14.4233 4.0610
# 2 13.3721 77.4048 45.1856 -1.5363 -16.1055 -9.7439
# 3 8.8583 45.1856 196.1642 -17.0469 1.7175 -0.6636
# 4 13.4782 -1.5363 -17.0469 63.5977 -10.0738 -21.2665
# 5 -14.4233 -16.1055 1.7175 -10.0738 39.3967 14.2839
# 6 4.0610 -9.7439 -0.6636 -21.2665 14.2839 26.7647
#
#
#
# Elastic Compliance Matrix: (Units=1/GPa)
#
#
# Indices 1 2 3 4 5 6 
#
# 1 0.022546 -0.003339 -0.001233 -0.009495 0.011088 -0.018129
# 2 -0.003339 0.017448 -0.003606 0.003185 0.004352 0.006977
# 3 -0.001233 -0.003606 0.006196 0.002121 -0.002370 0.001978
# 4 -0.009495 0.003185 0.002121 0.026379 -0.005062 0.026315
# 5 0.011088 0.004352 -0.002370 -0.005062 0.039114 -0.025053
# 6 -0.018129 0.006977 0.001978 0.026315 -0.025053 0.076982
#
#
# Mechanical properties :
#
#
# Convention : Reuss Voigt Hill
#
# Bulk Modulus (GPa) = 33.51782 52.36160 42.93971
# Shear Modulus (GPa) = 23.25955 43.88557 33.57256
#
# Velocity S-wave (km/s) = 2.98940 4.10624 3.59150
# Velocity P-wave (km/s) = 4.97927 6.52681 5.80484
#
# Compressibility (1/GPa) = 0.02983488
#
# Stress axis : x y z
#
# Youngs Moduli (GPa) = 44.35358 57.31283 161.39949
#
# Poissons Ratio (x) = 0.19137 0.19893
# Poissons Ratio (y) = 0.14810 0.58201
# Poissons Ratio (z) = 0.05467 0.20667
#
# Static dielectric constant tensor:
#      x y z
#    x 2.076560 -0.090130 0.009260 
#    y -0.090130 2.054550 0.045850 
#    z 0.009260 0.045850 2.099670 
# 
# From -- ./inp_files/235025.got.cif
#   From: 2010.05.17/outbox.cif.g08.bks.cpg/sg2_118_cif.got.tgz:235025.got - 2010.06.03 11:33:40.
