data_PCOD9109487
_publ_section_title
;
Structure prediction by ZEFSAII (Michael W. Deem and Ramdas Pophale) SiO2 
 PCOD9109487
Probable space group: P -1
;
_chemical_formula_sum "Si O2"
_cell_formula_units_Z 13
_cell_length_a 13.538483
_cell_length_b 7.901360
_cell_length_c 8.397597
_cell_angle_alpha 117.611002
_cell_angle_beta 132.388910
_cell_angle_gamma 55.269953
_cell_volume 540.594069
_symmetry_space_group_name_H-M "P -1"
_symmetry_group_IT_number 2
_symmetry_cell_setting 'triclinic'
loop_
_space_group_symop_operation_xyz
x,y,z
-x,-y,-z
loop_
_atom_site_type_symbol
_atom_site_label
_atom_site_fract_x
_atom_site_fract_y
_atom_site_fract_z
Si Si1 0.134193 0.146594 0.113846
Si Si2 0.581500 0.990770 0.831552
Si Si3 0.500000 0.500000 0.500000
Si Si4 0.417777 0.441212 0.744015
Si Si5 0.819950 0.223783 0.767177
Si Si6 0.330258 0.970094 0.704396
Si Si7 0.159374 0.393362 0.557005
O O1 0.144510 0.274542 0.332679
O O2 0.264349 0.131325 0.132808
O O3 0.161180 0.918788 0.115933
O O4 0.971126 0.245908 0.913599
O O5 0.487059 0.188280 0.708320
O O6 0.472013 0.874595 0.698009
O O7 0.615533 0.067814 0.073652
O O8 0.442808 0.509587 0.628430
O O9 0.672544 0.420932 0.714220
O O10 0.249918 0.524590 0.653710
O O11 0.500000 0.500000 0.000000
O O12 0.789599 0.100526 0.530242
O O13 0.263843 0.219093 0.715913
O O14 0.000000 0.500000 0.500000
#
# Coordination Sequence:
#
# PCOD9109487 Si02
#       7
#     2   2   1   2   2   2   2
#     4  10  22  41  66  92 129 171 214 270 327 390
#     4  10  20  41  65  95 125 172 221 265 329 396
#     4  12  24  40  66 102 132 168 230 270 326 400
#     4  11  25  41  67  98 136 179 217 280 332 394
#     4  10  22  39  62  95 126 172 208 271 322 390
#     4   9  21  39  67  92 128 172 215 268 328 401
#     4  10  24  43  63  95 134 173 218 278 338 391
#
# _framework density 24.047616999999999
#
# number of rings (size 3 to 8) (size 9 to 14) (size 15 to 20)
#    0.000    1.846    1.538    0.923    4.308    4.923 
#    0.000    1.538    0.000    0.000    0.000    0.000 
#    0.000    0.000    0.000    0.000    0.000    0.000 
#
# Total GULP energy -72530.563089 kJ/mol
# GULP energy per Si atom -5579.274084 kJ/mol
# Density = 2.399288 g / cm^3
# Si number density = 24.047617 Si / 1000 Ang^3
#
#
#
# Elastic Constant Matrix: (Units=GPa)
#
#
# Indices 1 2 3 4 5 6 
#
# 1 207.7393 45.9675 67.5115 -19.4661 20.9472 -29.0344
# 2 45.9675 50.1109 10.9941 -26.7402 10.4603 -8.0423
# 3 67.5115 10.9941 122.6206 -21.2076 21.7265 -4.0519
# 4 -19.4661 -26.7402 -21.2076 32.1165 -9.2697 7.3605
# 5 20.9472 10.4603 21.7265 -9.2697 52.8945 -12.7671
# 6 -29.0344 -8.0423 -4.0519 7.3605 -12.7671 44.5854
#
#
#
# Elastic Compliance Matrix: (Units=1/GPa)
#
#
# Indices 1 2 3 4 5 6 
#
# 1 0.008602 -0.010129 -0.005056 -0.007492 0.000493 0.004693
# 2 -0.010129 0.048791 0.008586 0.040277 -0.003212 -0.004584
# 3 -0.005056 0.008586 0.012835 0.012336 -0.003692 -0.003671
# 4 -0.007492 0.040277 0.012336 0.070197 0.000307 -0.007993
# 5 0.000493 -0.003212 -0.003692 0.000307 0.022302 0.005742
# 6 0.004693 -0.004584 -0.003671 -0.007993 0.005742 0.027288
#
#
# Mechanical properties :
#
#
# Convention : Reuss Voigt Hill
#
# Bulk Modulus (GPa) = 17.53441 69.93520 43.73481
# Shear Modulus (GPa) = 22.49971 42.98579 32.74275
#
# Velocity S-wave (km/s) = 3.06213 4.23250 3.69396
# Velocity P-wave (km/s) = 4.45079 7.28221 6.03490
#
# Compressibility (1/GPa) = 0.05703072
#
# Stress axis : x y z
#
# Youngs Moduli (GPa) = 116.24629 20.49546 77.90895
#
# Poissons Ratio (x) = 0.20760 0.39391
# Poissons Ratio (y) = 1.17748 -0.66893
# Poissons Ratio (z) = 0.58775 -0.17597
#
# Static dielectric constant tensor:
#      x y z
#    x 1.923150 0.193660 0.117590 
#    y 0.193660 3.131640 0.762650 
#    z 0.117590 0.762650 2.283200 
# 
# From -- ./inp_files/155877.got.cif
#   From: 2010.05.17/outbox.cif.g08.bks.cpg/sg2_78_cif.got.tgz:155877.got - 2010.06.03 11:33:40.
