data_PCOD9109515
_publ_section_title
;
Structure prediction by ZEFSAII (Michael W. Deem and Ramdas Pophale) SiO2 
 PCOD9109515
Probable space group: P -1
;
_chemical_formula_sum "Si O2"
_cell_formula_units_Z 16
_cell_length_a 14.972081
_cell_length_b 6.631899
_cell_length_c 7.331135
_cell_angle_alpha 118.839212
_cell_angle_beta 71.419450
_cell_angle_gamma 109.472058
_cell_volume 590.098655
_symmetry_space_group_name_H-M "P -1"
_symmetry_group_IT_number 2
_symmetry_cell_setting 'triclinic'
loop_
_space_group_symop_operation_xyz
x,y,z
-x,-y,-z
loop_
_atom_site_type_symbol
_atom_site_label
_atom_site_fract_x
_atom_site_fract_y
_atom_site_fract_z
Si Si1 0.747875 0.815965 0.554696
Si Si2 0.042961 0.233781 0.685869
Si Si3 0.820275 0.717262 0.811267
Si Si4 0.503774 0.096318 0.830098
Si Si5 0.368250 0.450275 0.960637
Si Si6 0.385660 0.636830 0.620672
Si Si7 0.776575 0.209599 0.417650
Si Si8 0.019266 0.723511 0.841904
O O1 0.840396 0.725807 0.372676
O O2 0.786994 0.893151 0.764767
O O3 0.650888 0.615215 0.564965
O O4 0.701583 0.236869 0.319692
O O5 0.012539 0.447285 0.694574
O O6 0.000000 0.000000 0.500000
O O7 0.001603 0.247574 0.919535
O O8 0.743754 0.665796 0.999951
O O9 0.804196 0.462228 0.610896
O O10 0.929692 0.787785 0.827128
O O11 0.599034 0.305613 0.838510
O O12 0.478535 0.850355 0.625600
O O13 0.425477 0.255284 0.906066
O O14 0.500000 0.000000 0.000000
O O15 0.389839 0.540919 0.780943
O O16 0.265893 0.986634 0.490589
O O17 0.874930 0.158664 0.247296
#
# Coordination Sequence:
#
# PCOD9109515 Si02
#       8
#     2   2   2   2   2   2   2   2
#     4  11  24  41  61  93 141 186 240 296 347 411
#     4  11  24  44  67  97 137 189 252 298 354 418
#     4  11  24  41  66 100 144 181 241 298 352 428
#     4   9  20  40  70  99 136 172 231 295 364 442
#     4  10  21  40  69 104 131 177 233 295 370 431
#     4  10  20  41  65  98 133 175 233 290 352 424
#     4  11  24  43  66  97 145 190 242 297 345 421
#     4  11  24  45  69  97 144 200 241 299 356 409
#
# _framework density 27.114108000000002
#
# number of rings (size 3 to 8) (size 9 to 14) (size 15 to 20)
#    0.000    1.500    2.500    2.625    3.500    2.500 
#    4.500    2.500    0.000   28.500    0.000    0.000 
#    0.000    0.000    0.000    0.000    0.000    0.000 
#
# Total GULP energy -89576.760792 kJ/mol
# GULP energy per Si atom -5598.547550 kJ/mol
# Density = 2.705240 g / cm^3
# Si number density = 27.114108 Si / 1000 Ang^3
#
#
#
# Elastic Constant Matrix: (Units=GPa)
#
#
# Indices 1 2 3 4 5 6 
#
# 1 151.4258 61.7746 26.3624 5.1171 2.8794 -18.8323
# 2 61.7746 201.0051 40.4263 7.3163 6.3923 -20.2576
# 3 26.3624 40.4263 73.5672 7.6728 -2.7264 -7.5546
# 4 5.1171 7.3163 7.6728 39.1153 -2.1489 3.8247
# 5 2.8794 6.3923 -2.7264 -2.1489 35.6163 2.8621
# 6 -18.8323 -20.2576 -7.5546 3.8247 2.8621 53.6422
#
#
#
# Elastic Compliance Matrix: (Units=1/GPa)
#
#
# Indices 1 2 3 4 5 6 
#
# 1 0.007915 -0.001883 -0.001565 -0.000598 -0.000612 0.001923
# 2 -0.001883 0.006293 -0.002616 -0.000634 -0.001333 0.001463
# 3 -0.001565 -0.002616 0.015987 -0.002432 0.001609 0.000802
# 4 -0.000598 -0.000634 -0.002432 0.026611 0.001805 -0.002786
# 5 -0.000612 -0.001333 0.001609 0.001805 0.028771 -0.002156
# 6 0.001923 0.001463 0.000802 -0.002786 -0.002156 0.020296
#
#
# Mechanical properties :
#
#
# Convention : Reuss Voigt Hill
#
# Bulk Modulus (GPa) = 55.34797 75.90273 65.62535
# Shear Modulus (GPa) = 40.31490 45.50374 42.90932
#
# Velocity S-wave (km/s) = 3.86017 4.10107 3.98244
# Velocity P-wave (km/s) = 6.35021 7.10490 6.73813
#
# Compressibility (1/GPa) = 0.01806751
#
# Stress axis : x y z
#
# Youngs Moduli (GPa) = 126.33581 158.91148 62.55093
#
# Poissons Ratio (x) = 0.29922 0.09787
# Poissons Ratio (y) = 0.23788 0.16365
# Poissons Ratio (z) = 0.19767 0.41576
#
# Static dielectric constant tensor:
#      x y z
#    x 2.107420 0.007290 0.038150 
#    y 0.007290 2.104050 0.030680 
#    z 0.038150 0.030680 2.185040 
# 
# From -- ./inp_files/458943.got.cif
#   From: 2010.05.17/outbox.cif.g08.bks.cpg/sg2_230_cif.got.tgz:458943.got - 2010.06.03 11:33:40.
