data_PCOD9109767
_publ_section_title
;
Structure prediction by ZEFSAII (Michael W. Deem and Ramdas Pophale) SiO2 
 PCOD9109767
Probable space group: P -1
;
_chemical_formula_sum "Si O2"
_cell_formula_units_Z 14
_cell_length_a 7.426173
_cell_length_b 13.185614
_cell_length_c 6.605996
_cell_angle_alpha 64.681772
_cell_angle_beta 98.366195
_cell_angle_gamma 116.036902
_cell_volume 524.665729
_symmetry_space_group_name_H-M "P -1"
_symmetry_group_IT_number 2
_symmetry_cell_setting 'triclinic'
loop_
_space_group_symop_operation_xyz
x,y,z
-x,-y,-z
loop_
_atom_site_type_symbol
_atom_site_label
_atom_site_fract_x
_atom_site_fract_y
_atom_site_fract_z
Si Si1 0.754901 0.388088 0.923264
Si Si2 0.123376 0.387091 0.745012
Si Si3 0.170311 0.330070 0.363742
Si Si4 0.437989 0.089190 0.543181
Si Si5 0.330024 0.232261 0.031978
Si Si6 0.621294 0.342053 0.407462
Si Si7 0.959495 0.089890 0.260186
O O1 0.808097 0.533296 0.800093
O O2 0.928227 0.363374 0.863828
O O3 0.534946 0.290661 0.890749
O O4 0.717937 0.362786 0.179378
O O5 0.093477 0.311309 0.598221
O O6 0.229752 0.531034 0.574145
O O7 0.283203 0.354715 0.928901
O O8 0.398336 0.339464 0.392680
O O9 0.023173 0.214986 0.300326
O O10 0.372133 0.163203 0.293755
O O11 0.602436 0.207238 0.579515
O O12 0.500000 0.000000 0.500000
O O13 0.271774 0.995752 0.746497
O O14 0.101860 0.130125 0.052617
O O15 0.000000 0.000000 0.500000
#
# Coordination Sequence:
#
# PCOD9109767 Si02
#       7
#     2   2   2   2   2   2   2
#     4  11  23  41  64  99 134 173 223 264 325 398
#     4  12  26  39  66 105 139 167 207 279 350 378
#     4  12  22  42  66  99 138 172 212 274 337 390
#     4  10  23  40  69  99 121 171 237 269 306 383
#     4  10  22  42  67  93 134 169 219 269 325 387
#     4  11  22  42  68  97 130 173 219 273 320 393
#     4  10  20  41  67  91 124 175 226 261 309 389
#
# _framework density 26.683658999999999
#
# number of rings (size 3 to 8) (size 9 to 14) (size 15 to 20)
#    0.000    1.143    5.714    2.571    6.000    0.000 
#    0.000    2.857    0.000    8.571    0.000    0.000 
#    0.000    0.000    0.000    0.000    0.000    0.000 
#
# Total GULP energy -78050.260330 kJ/mol
# GULP energy per Si atom -5575.018595 kJ/mol
# Density = 2.662293 g / cm^3
# Si number density = 26.683659 Si / 1000 Ang^3
#
#
#
# Elastic Constant Matrix: (Units=GPa)
#
#
# Indices 1 2 3 4 5 6 
#
# 1 148.3683 55.7491 64.7784 -12.6291 -47.8567 -24.0380
# 2 55.7491 154.3475 86.0357 -16.7922 -13.8430 -12.6022
# 3 64.7784 86.0357 116.8517 -38.6068 -30.1154 5.0654
# 4 -12.6291 -16.7922 -38.6068 48.2262 11.2647 -13.3094
# 5 -47.8567 -13.8430 -30.1154 11.2647 50.8283 0.1724
# 6 -24.0380 -12.6022 5.0654 -13.3094 0.1724 37.2216
#
#
#
# Elastic Compliance Matrix: (Units=1/GPa)
#
#
# Indices 1 2 3 4 5 6 
#
# 1 0.013929 -0.000377 -0.005516 -0.000619 0.009850 0.009352
# 2 -0.000377 0.012397 -0.010610 -0.002374 -0.002755 0.004561
# 3 -0.005516 -0.010610 0.024655 0.011964 0.003895 -0.006250
# 4 -0.000619 -0.002374 0.011964 0.031997 -0.001261 0.008615
# 5 0.009850 -0.002755 0.003895 -0.001261 0.030770 0.004305
# 6 0.009352 0.004561 -0.006250 0.008615 0.004305 0.038361
#
#
# Mechanical properties :
#
#
# Convention : Reuss Voigt Hill
#
# Bulk Modulus (GPa) = 55.63280 92.52153 74.07716
# Shear Modulus (GPa) = 26.16334 41.45551 33.80943
#
# Velocity S-wave (km/s) = 3.13469 3.94584 3.56342
# Velocity P-wave (km/s) = 5.83061 7.45039 6.68970
#
# Compressibility (1/GPa) = 0.01797501
#
# Stress axis : x y z
#
# Youngs Moduli (GPa) = 71.79092 80.66764 40.55926
#
# Poissons Ratio (x) = 0.03041 0.22371
# Poissons Ratio (y) = 0.02707 0.43035
# Poissons Ratio (z) = 0.39598 0.85591
#
# Static dielectric constant tensor:
#      x y z
#    x 2.303180 0.159270 0.065360 
#    y 0.159270 2.220160 0.092960 
#    z 0.065360 0.092960 2.216060 
# 
# From -- ./inp_files/176153.got.cif
#   From: 2010.05.17/outbox.cif.g08.bks.cpg/sg2_89_cif.got.tgz:176153.got - 2010.06.03 11:33:40.
