data_PCOD9109492
_publ_section_title
;
Structure prediction by ZEFSAII (Michael W. Deem and Ramdas Pophale) SiO2 
 PCOD9109492
Probable space group: P -1
;
_chemical_formula_sum "Si O2"
_cell_formula_units_Z 16
_cell_length_a 23.170434
_cell_length_b 11.851589
_cell_length_c 5.551977
_cell_angle_alpha 58.338288
_cell_angle_beta 116.709662
_cell_angle_gamma 149.314971
_cell_volume 662.227819
_symmetry_space_group_name_H-M "P -1"
_symmetry_group_IT_number 2
_symmetry_cell_setting 'triclinic'
loop_
_space_group_symop_operation_xyz
x,y,z
-x,-y,-z
loop_
_atom_site_type_symbol
_atom_site_label
_atom_site_fract_x
_atom_site_fract_y
_atom_site_fract_z
Si Si1 0.995840 0.871878 0.376575
Si Si2 0.624361 0.566098 0.784405
Si Si3 0.083284 0.515588 0.116287
Si Si4 0.806426 0.704994 0.428047
Si Si5 0.143414 0.988730 0.166599
Si Si6 0.437464 0.264372 0.367026
Si Si7 0.812814 0.238851 0.468877
Si Si8 0.436472 0.753323 0.637027
O O1 0.874279 0.735231 0.318183
O O2 0.100404 0.138839 0.361138
O O3 0.032831 0.871392 0.195260
O O4 0.987805 0.737044 0.700137
O O5 0.752755 0.811976 0.674612
O O6 0.538660 0.439005 0.550206
O O7 0.592555 0.629846 0.848315
O O8 0.611774 0.394969 0.044357
O O9 0.142823 0.622589 0.849590
O O10 0.163864 0.653011 0.350935
O O11 0.000000 0.500000 0.000000
O O12 0.679265 0.439243 0.524327
O O13 0.804646 0.849518 0.148208
O O14 0.129079 0.808028 0.335215
O O15 0.476055 0.214623 0.312977
O O16 0.319652 0.011409 0.533624
O O17 0.500000 0.000000 0.500000
#
# Coordination Sequence:
#
# PCOD9109492 Si02
#       8
#     2   2   2   2   2   2   2   2
#     4  11  23  39  69  88 140 173 235 279 345 411
#     4   9  21  41  66  97 128 175 238 282 348 414
#     4  12  25  44  67 104 140 179 222 287 349 413
#     4  10  24  42  60  98 125 189 231 281 338 421
#     4  10  20  41  65  95 130 182 224 288 339 417
#     4  10  22  42  67  96 133 179 231 288 344 413
#     4  11  26  41  71 104 140 178 228 286 354 409
#     4  11  24  41  67  95 139 177 228 290 353 413
#
# _framework density 24.160865999999999
#
# number of rings (size 3 to 8) (size 9 to 14) (size 15 to 20)
#    0.000    1.500    1.250    2.625    5.250    0.500 
#    4.500    0.000    0.000    0.000    0.000    0.000 
#    0.000    0.000    0.000    0.000    0.000    0.000 
#
# Total GULP energy -89320.087916 kJ/mol
# GULP energy per Si atom -5582.505495 kJ/mol
# Density = 2.410588 g / cm^3
# Si number density = 24.160866 Si / 1000 Ang^3
#
#
#
# Elastic Constant Matrix: (Units=GPa)
#
#
# Indices 1 2 3 4 5 6 
#
# 1 106.0243 28.7570 27.7223 -13.8936 -1.0919 5.8772
# 2 28.7570 127.9166 49.8703 -17.8027 2.3009 -4.7601
# 3 27.7223 49.8703 97.7009 -17.4296 3.8122 -15.6833
# 4 -13.8936 -17.8027 -17.4296 36.9477 -4.3822 7.4662
# 5 -1.0919 2.3009 3.8122 -4.3822 35.1676 -2.0403
# 6 5.8772 -4.7601 -15.6833 7.4662 -2.0403 38.3848
#
#
#
# Elastic Compliance Matrix: (Units=1/GPa)
#
#
# Indices 1 2 3 4 5 6 
#
# 1 0.011037 -0.001191 -0.002545 0.003179 0.000893 -0.003448
# 2 -0.001191 0.010175 -0.004557 0.002493 0.000050 -0.000900
# 3 -0.002545 -0.004557 0.014619 0.002594 -0.000737 0.005254
# 4 0.003179 0.002493 0.002594 0.032132 0.003357 -0.005189
# 5 0.000893 0.000050 -0.000737 0.003357 0.028985 0.000456
# 6 -0.003448 -0.000900 0.005254 -0.005189 0.000456 0.029648
#
#
# Mechanical properties :
#
#
# Convention : Reuss Voigt Hill
#
# Bulk Modulus (GPa) = 51.96581 60.48236 56.22409
# Shear Modulus (GPa) = 33.42316 37.11949 35.27133
#
# Velocity S-wave (km/s) = 3.72339 3.92388 3.82495
# Velocity P-wave (km/s) = 6.32770 6.75401 6.54433
#
# Compressibility (1/GPa) = 0.01924342
#
# Stress axis : x y z
#
# Youngs Moduli (GPa) = 90.60276 98.28398 68.40587
#
# Poissons Ratio (x) = 0.11706 0.17410
# Poissons Ratio (y) = 0.10791 0.31175
# Poissons Ratio (z) = 0.23060 0.44791
#
# Static dielectric constant tensor:
#      x y z
#    x 2.016270 -0.032020 -0.026200 
#    y -0.032020 1.987550 0.053520 
#    z -0.026200 0.053520 1.996140 
# 
# From -- ./inp_files/123597.got.cif
#   From: 2010.05.17/outbox.cif.g08.bks.cpg/sg2_62_cif.got.tgz:123597.got - 2010.06.03 11:33:40.
