data_PCOD9109822
_publ_section_title
;
Structure prediction by ZEFSAII (Michael W. Deem and Ramdas Pophale) SiO2 
 PCOD9109822
Probable space group: P -1
;
_chemical_formula_sum "Si O2"
_cell_formula_units_Z 16
_cell_length_a 9.546772
_cell_length_b 9.834684
_cell_length_c 13.630811
_cell_angle_alpha 46.220635
_cell_angle_beta 57.094416
_cell_angle_gamma 80.055768
_cell_volume 730.900282
_symmetry_space_group_name_H-M "P -1"
_symmetry_group_IT_number 2
_symmetry_cell_setting 'triclinic'
loop_
_space_group_symop_operation_xyz
x,y,z
-x,-y,-z
loop_
_atom_site_type_symbol
_atom_site_label
_atom_site_fract_x
_atom_site_fract_y
_atom_site_fract_z
Si Si1 0.957399 0.268696 0.605965
Si Si2 0.232044 0.936235 0.048380
Si Si3 0.676374 0.995226 0.232118
Si Si4 0.853660 0.295145 0.188698
Si Si5 0.517910 0.704896 0.603046
Si Si6 0.679216 0.958364 0.743079
Si Si7 0.501324 0.715605 0.101390
Si Si8 0.174405 0.062933 0.505663
O O1 0.938578 0.143084 0.777171
O O2 0.772658 0.153736 0.677032
O O3 0.000000 0.500000 0.500000
O O4 0.094398 0.220256 0.505034
O O5 0.327467 0.768523 0.111202
O O6 0.208970 0.981999 0.921655
O O7 0.377594 0.130331 0.942649
O O8 0.496904 0.023172 0.246294
O O9 0.776519 0.167915 0.183934
O O10 0.373397 0.129581 0.441951
O O11 0.689181 0.325761 0.294495
O O12 0.923663 0.153396 0.301984
O O13 0.000000 0.500000 0.000000
O O14 0.540206 0.500449 0.730946
O O15 0.608421 0.789923 0.422641
O O16 0.805475 0.942460 0.615126
O O17 0.620773 0.766502 0.932152
#
# Coordination Sequence:
#
# PCOD9109822 Si02
#       8
#     2   2   2   2   2   2   2   2
#     4  11  24  40  62  97 141 170 210 266 325 382
#     4   9  20  40  59  90 132 168 211 256 320 386
#     4  10  20  43  67  91 125 171 212 267 321 386
#     4  11  24  40  66  95 129 165 213 276 329 374
#     4  11  21  41  66  94 128 164 218 264 329 378
#     4  10  20  41  67  95 128 166 217 269 318 380
#     4   9  20  36  65  92 124 165 210 265 318 377
#     4  11  22  42  67  95 132 173 212 267 325 381
#
# _framework density 21.890810999999999
#
# number of rings (size 3 to 8) (size 9 to 14) (size 15 to 20)
#    0.000    1.750    2.500    2.625    3.500    2.000 
#    2.250    3.750    0.000    0.000    0.000    0.000 
#    0.000    0.000    0.000    0.000    0.000    0.000 
#
# Total GULP energy -89375.224622 kJ/mol
# GULP energy per Si atom -5585.951539 kJ/mol
# Density = 2.184099 g / cm^3
# Si number density = 21.890811 Si / 1000 Ang^3
#
#
#
# Elastic Constant Matrix: (Units=GPa)
#
#
# Indices 1 2 3 4 5 6 
#
# 1 65.0136 26.0982 48.3745 -1.0724 14.6225 13.6549
# 2 26.0982 97.7903 83.6027 15.0189 20.8550 8.0384
# 3 48.3745 83.6027 177.2538 -6.4585 25.7187 13.5123
# 4 -1.0724 15.0189 -6.4585 47.9102 0.4158 10.8601
# 5 14.6225 20.8550 25.7187 0.4158 43.3835 7.5329
# 6 13.6549 8.0384 13.5123 10.8601 7.5329 27.0917
#
#
#
# Elastic Compliance Matrix: (Units=1/GPa)
#
#
# Indices 1 2 3 4 5 6 
#
# 1 0.021384 -0.001258 -0.004119 0.002270 -0.002706 -0.008508
# 2 -0.001258 0.020400 -0.009228 -0.008499 -0.004497 0.003841
# 3 -0.004119 -0.009228 0.011604 0.005007 -0.000615 -0.002810
# 4 0.002270 -0.008499 0.005007 0.027103 0.002283 -0.012619
# 5 -0.002706 -0.004497 -0.000615 0.002283 0.027428 -0.005537
# 6 -0.008508 0.003841 -0.002810 -0.012619 -0.005537 0.048060
#
#
# Mechanical properties :
#
#
# Convention : Reuss Voigt Hill
#
# Bulk Modulus (GPa) = 41.36035 72.91204 57.13619
# Shear Modulus (GPa) = 25.87349 35.80925 30.84137
#
# Velocity S-wave (km/s) = 3.44166 4.04890 3.75757
# Velocity P-wave (km/s) = 5.89307 7.43220 6.70693
#
# Compressibility (1/GPa) = 0.02417774
#
# Stress axis : x y z
#
# Youngs Moduli (GPa) = 46.76411 49.02031 86.17654
#
# Poissons Ratio (x) = 0.06167 0.35493
# Poissons Ratio (y) = 0.05883 0.79526
# Poissons Ratio (z) = 0.19261 0.45237
#
# Static dielectric constant tensor:
#      x y z
#    x 1.883280 -0.077820 -0.042630 
#    y -0.077820 1.857440 0.058890 
#    z -0.042630 0.058890 1.827740 
# 
# From -- ./inp_files/515045.got.cif
#   From: 2010.05.17/outbox.cif.g08.bks.cpg/sg2_258_cif.got.tgz:515045.got - 2010.06.03 11:33:40.
