data_PCOD9109962
_publ_section_title
;
Structure prediction by ZEFSAII (Michael W. Deem and Ramdas Pophale) SiO2 
 PCOD9109962
Probable space group: P -1
;
_chemical_formula_sum "Si O2"
_cell_formula_units_Z 12
_cell_length_a 18.067812
_cell_length_b 14.658377
_cell_length_c 12.014327
_cell_angle_alpha 150.205758
_cell_angle_beta 150.382952
_cell_angle_gamma 21.572499
_cell_volume 546.453967
_symmetry_space_group_name_H-M "P -1"
_symmetry_group_IT_number 2
_symmetry_cell_setting 'triclinic'
loop_
_space_group_symop_operation_xyz
x,y,z
-x,-y,-z
loop_
_atom_site_type_symbol
_atom_site_label
_atom_site_fract_x
_atom_site_fract_y
_atom_site_fract_z
Si Si1 0.700660 0.303551 0.134886
Si Si2 0.731712 0.133183 0.410030
Si Si3 0.491026 0.036625 0.858528
Si Si4 0.662522 0.929963 0.732259
Si Si5 0.613730 0.523614 0.502833
Si Si6 0.017030 0.314104 0.582453
O O1 0.628563 0.438655 0.306337
O O2 0.897701 0.254543 0.298549
O O3 0.500000 0.500000 0.000000
O O4 0.758787 0.040253 0.940714
O O5 0.764377 0.272750 0.516407
O O6 0.617230 0.304585 0.555002
O O7 0.932140 0.832838 0.389364
O O8 0.566178 0.134224 0.139504
O O9 0.529683 0.068909 0.818639
O O10 0.630179 0.730259 0.739805
O O11 0.246158 0.189401 0.713389
O O12 0.848865 0.624750 0.683035
O O13 0.500000 0.000000 0.500000
#
# Coordination Sequence:
#
# PCOD9109962 Si02
#       6
#     2   2   2   2   2   2
#     4  12  24  46  67  96 136 177 228 281 330 394
#     4  10  23  42  68 103 139 173 225 273 333 406
#     4  11  23  46  69 100 141 174 220 283 327 405
#     4  12  25  47  69  95 138 179 229 283 327 398
#     4  10  20  41  68  95 140 171 215 281 328 384
#     4  11  25  42  70 103 129 181 228 264 351 393
#
# _framework density 21.959762000000001
#
# number of rings (size 3 to 8) (size 9 to 14) (size 15 to 20)
#    0.000    1.000    5.000    2.000    0.000    7.333 
#    3.000    4.167    0.000    0.000    0.000    0.000 
#    0.000    0.000    0.000    0.000    0.000    0.000 
#
# Total GULP energy -67017.988955 kJ/mol
# GULP energy per Si atom -5584.832413 kJ/mol
# Density = 2.190978 g / cm^3
# Si number density = 21.959762 Si / 1000 Ang^3
#
#
#
# Elastic Constant Matrix: (Units=GPa)
#
#
# Indices 1 2 3 4 5 6 
#
# 1 54.4186 40.5658 16.4276 -5.0382 7.9086 12.2139
# 2 40.5658 140.1777 46.8572 -5.0185 5.2455 16.2381
# 3 16.4276 46.8572 105.4327 -3.9745 17.3478 -5.3985
# 4 -5.0382 -5.0185 -3.9745 41.0597 5.0884 10.4686
# 5 7.9086 5.2455 17.3478 5.0884 44.0939 1.7612
# 6 12.2139 16.2381 -5.3985 10.4686 1.7612 31.1344
#
#
#
# Elastic Compliance Matrix: (Units=1/GPa)
#
#
# Indices 1 2 3 4 5 6 
#
# 1 0.026067 -0.005815 -0.001118 0.005115 -0.003779 -0.008893
# 2 -0.005815 0.010775 -0.004321 0.001162 0.001509 -0.004563
# 3 -0.001118 -0.004321 0.012562 -0.000228 -0.004409 0.005196
# 4 0.005115 0.001162 -0.000228 0.028650 -0.003790 -0.012071
# 5 -0.003779 0.001509 -0.004409 -0.003790 0.025358 -0.000229
# 6 -0.008893 -0.004563 0.005196 -0.012071 -0.000229 0.042960
#
#
# Mechanical properties :
#
#
# Convention : Reuss Voigt Hill
#
# Bulk Modulus (GPa) = 37.17967 56.41446 46.79706
# Shear Modulus (GPa) = 28.11437 36.33616 32.22526
#
# Velocity S-wave (km/s) = 3.58196 4.07218 3.83491
# Velocity P-wave (km/s) = 5.83737 6.91779 6.40042
#
# Compressibility (1/GPa) = 0.02689642
#
# Stress axis : x y z
#
# Youngs Moduli (GPa) = 38.36242 92.81042 79.60462
#
# Poissons Ratio (x) = 0.53971 0.08899
# Poissons Ratio (y) = 0.22308 0.34395
# Poissons Ratio (z) = 0.04289 0.40101
#
# Static dielectric constant tensor:
#      x y z
#    x 1.829390 -0.014820 0.006860 
#    y -0.014820 1.851830 0.026030 
#    z 0.006860 0.026030 1.803410 
# 
# From -- ./inp_files/299972.got.cif
#   From: 2010.05.17/outbox.cif.g08.bks.cpg/sg2_150_cif.got.tgz:299972.got - 2010.06.03 11:33:40.
