data_PCOD9109868
_publ_section_title
;
Structure prediction by ZEFSAII (Michael W. Deem and Ramdas Pophale) SiO2 
 PCOD9109868
Probable space group: P -1
;
_chemical_formula_sum "Si O2"
_cell_formula_units_Z 14
_cell_length_a 14.530676
_cell_length_b 11.168741
_cell_length_c 10.180056
_cell_angle_alpha 120.539618
_cell_angle_beta 47.428882
_cell_angle_gamma 145.335591
_cell_volume 687.395572
_symmetry_space_group_name_H-M "P -1"
_symmetry_group_IT_number 2
_symmetry_cell_setting 'triclinic'
loop_
_space_group_symop_operation_xyz
x,y,z
-x,-y,-z
loop_
_atom_site_type_symbol
_atom_site_label
_atom_site_fract_x
_atom_site_fract_y
_atom_site_fract_z
Si Si1 0.437182 0.097293 0.560343
Si Si2 0.066976 0.735890 0.165992
Si Si3 0.208881 0.122870 0.335185
Si Si4 0.490222 0.326194 0.384181
Si Si5 0.995641 0.340470 0.351877
Si Si6 0.825971 0.471505 0.995915
Si Si7 0.755171 0.549804 0.592712
O O1 0.510305 0.236532 0.434786
O O2 0.560185 0.298028 0.653727
O O3 0.500000 0.000000 0.500000
O O4 0.213272 0.888721 0.622241
O O5 0.982187 0.637513 0.049467
O O6 0.894018 0.613064 0.371864
O O7 0.190746 0.978767 0.176703
O O8 0.192466 0.710401 0.074880
O O9 0.291713 0.137174 0.398883
O O10 0.309066 0.346121 0.314470
O O11 0.000000 0.000000 0.500000
O O12 0.500000 0.500000 0.500000
O O13 0.647087 0.412351 0.176280
O O14 0.108421 0.345150 0.353771
O O15 0.000000 0.500000 0.500000
O O16 0.111186 0.443154 0.162811
#
# Coordination Sequence:
#
# PCOD9109868 Si02
#       7
#     2   2   2   2   2   2   2
#     4  12  23  41  73 103 139 187 232 291 355 413
#     4  10  20  41  67  99 140 177 236 290 345 413
#     4  10  21  40  69  98 135 185 230 289 348 416
#     4  12  24  45  73 104 137 182 241 291 348 423
#     4  12  25  44  67 102 147 184 228 292 362 418
#     4  11  24  42  69 105 137 180 239 291 343 426
#     4  11  21  45  71  99 140 190 235 282 356 426
#
# _framework density 20.366727999999998
#
# number of rings (size 3 to 8) (size 9 to 14) (size 15 to 20)
#    0.000    0.857    5.714    2.571    2.000    0.571 
#    2.571    3.571    0.000    0.000    0.000    0.000 
#    0.000    0.000    0.000    0.000    0.000    0.000 
#
# Total GULP energy -77950.767721 kJ/mol
# GULP energy per Si atom -5567.911980 kJ/mol
# Density = 2.032037 g / cm^3
# Si number density = 20.366728 Si / 1000 Ang^3
#
#
#
# Elastic Constant Matrix: (Units=GPa)
#
#
# Indices 1 2 3 4 5 6 
#
# 1 137.1904 42.1956 41.0751 5.2730 14.8989 5.1560
# 2 42.1956 125.2951 21.2428 11.5378 -16.8197 -10.3892
# 3 41.0751 21.2428 110.6747 0.7850 2.3671 -11.0418
# 4 5.2730 11.5378 0.7850 23.2882 -4.2928 -7.7913
# 5 14.8989 -16.8197 2.3671 -4.2928 31.8791 4.8833
# 6 5.1560 -10.3892 -11.0418 -7.7913 4.8833 47.8194
#
#
#
# Elastic Compliance Matrix: (Units=1/GPa)
#
#
# Indices 1 2 3 4 5 6 
#
# 1 0.010292 -0.003785 -0.003175 -0.002347 -0.006522 -0.002381
# 2 -0.003785 0.010645 -0.000622 -0.002649 0.006853 0.001446
# 3 -0.003175 -0.000622 0.010609 0.001671 0.000146 0.002914
# 4 -0.002347 -0.002649 0.001671 0.048110 0.004920 0.007400
# 5 -0.006522 0.006853 0.000146 0.004920 0.038828 -0.000937
# 6 -0.002381 0.001446 0.002914 0.007400 -0.000937 0.023457
#
#
# Mechanical properties :
#
#
# Convention : Reuss Voigt Hill
#
# Bulk Modulus (GPa) = 61.03954 64.68747 62.86351
# Shear Modulus (GPa) = 30.75706 38.50712 34.63209
#
# Velocity S-wave (km/s) = 3.89030 4.35292 4.12809
# Velocity P-wave (km/s) = 7.08622 7.55607 7.32491
#
# Compressibility (1/GPa) = 0.01638282
#
# Stress axis : x y z
#
# Youngs Moduli (GPa) = 97.16600 93.94134 94.26077
#
# Poissons Ratio (x) = 0.35553 0.29924
# Poissons Ratio (y) = 0.36773 0.05865
# Poissons Ratio (z) = 0.30846 0.05845
#
# Static dielectric constant tensor:
#      x y z
#    x 1.810150 -0.000310 -0.089650 
#    y -0.000310 1.814960 -0.012760 
#    z -0.089650 -0.012760 1.548320 
# 
# From -- ./inp_files/222733.got.cif
#   From: 2010.05.17/outbox.cif.g08.bks.cpg/sg2_112_cif.got.tgz:222733.got - 2010.06.03 11:33:40.
