data_PCOD9109177
_publ_section_title
;
Structure prediction by ZEFSAII (Michael W. Deem and Ramdas Pophale) SiO2 
 PCOD9109177
Probable space group: P -1
;
_chemical_formula_sum "Si O2"
_cell_formula_units_Z 14
_cell_length_a 8.566859
_cell_length_b 17.645527
_cell_length_c 9.690452
_cell_angle_alpha 52.225985
_cell_angle_beta 125.526414
_cell_angle_gamma 83.576116
_cell_volume 646.816689
_symmetry_space_group_name_H-M "P -1"
_symmetry_group_IT_number 2
_symmetry_cell_setting 'triclinic'
loop_
_space_group_symop_operation_xyz
x,y,z
-x,-y,-z
loop_
_atom_site_type_symbol
_atom_site_label
_atom_site_fract_x
_atom_site_fract_y
_atom_site_fract_z
Si Si1 0.735801 0.396722 0.852534
Si Si2 0.049211 0.888538 0.747449
Si Si3 0.516091 0.833594 0.185148
Si Si4 0.421427 0.114386 0.145379
Si Si5 0.113176 0.533701 0.907383
Si Si6 0.263867 0.971376 0.184604
Si Si7 0.727411 0.700311 0.905154
O O1 0.500000 0.500000 0.500000
O O2 0.806815 0.259617 0.072139
O O3 0.698722 0.463342 0.906880
O O4 0.006109 0.345347 0.975589
O O5 0.272225 0.842345 0.027853
O O6 0.000000 0.000000 0.500000
O O7 0.728662 0.978246 0.516969
O O8 0.418513 0.924503 0.168948
O O9 0.829978 0.684021 0.539078
O O10 0.529447 0.883015 0.992643
O O11 0.304756 0.250776 0.010065
O O12 0.222729 0.094546 0.078156
O O13 0.254059 0.418980 0.987784
O O14 0.000000 0.500000 0.000000
O O15 0.466485 0.839406 0.535803
O O16 0.000000 0.000000 0.000000
#
# Coordination Sequence:
#
# PCOD9109177 Si02
#       7
#     2   2   2   2   2   2   2
#     4  11  22  38  69  96 131 175 230 279 337 400
#     4  10  21  38  64  97 134 172 222 271 345 402
#     4  11  22  41  68  94 133 179 219 273 342 397
#     4  11  24  42  62  98 141 173 218 279 347 395
#     4  10  20  41  63  94 128 173 228 273 328 398
#     4  12  24  39  67  97 132 174 226 279 331 395
#     4  11  23  40  65  94 134 171 226 283 324 403
#
# _framework density 21.644462999999998
#
# number of rings (size 3 to 8) (size 9 to 14) (size 15 to 20)
#    0.000    1.143    4.286    3.429    2.000    1.714 
#    0.000    0.000    0.000    5.143    0.000    0.000 
#    0.000    0.000    0.000    0.000    0.000    0.000 
#
# Total GULP energy -78102.125776 kJ/mol
# GULP energy per Si atom -5578.723270 kJ/mol
# Density = 2.159520 g / cm^3
# Si number density = 21.644463 Si / 1000 Ang^3
#
#
#
# Elastic Constant Matrix: (Units=GPa)
#
#
# Indices 1 2 3 4 5 6 
#
# 1 49.8213 25.0078 21.4062 2.4342 -9.0611 9.0484
# 2 25.0078 185.9390 40.9625 -6.9779 -21.3582 19.0578
# 3 21.4062 40.9625 128.8092 10.1962 6.0676 15.6002
# 4 2.4342 -6.9779 10.1962 22.0045 -2.6672 4.1682
# 5 -9.0611 -21.3582 6.0676 -2.6672 25.3023 15.6545
# 6 9.0484 19.0578 15.6002 4.1682 15.6545 32.6428
#
#
#
# Elastic Compliance Matrix: (Units=1/GPa)
#
#
# Indices 1 2 3 4 5 6 
#
# 1 0.029887 0.003198 -0.005247 0.008078 0.029689 -0.022914
# 2 0.003198 0.010704 -0.003731 0.010999 0.023340 -0.017950
# 3 -0.005247 -0.003731 0.010350 -0.007791 -0.011567 0.005228
# 4 0.008078 0.010999 -0.007791 0.062748 0.040768 -0.032500
# 5 0.029689 0.023340 -0.011567 0.040768 0.128326 -0.083075
# 6 -0.022914 -0.017950 0.005228 -0.032500 -0.083075 0.088958
#
#
# Mechanical properties :
#
#
# Convention : Reuss Voigt Hill
#
# Bulk Modulus (GPa) = 25.39286 59.92472 42.65879
# Shear Modulus (GPa) = 14.05838 34.46944 24.26391
#
# Velocity S-wave (km/s) = 2.55132 3.99498 3.35180
# Velocity P-wave (km/s) = 4.52065 7.00185 5.89331
#
# Compressibility (1/GPa) = 0.03938114
#
# Stress axis : x y z
#
# Youngs Moduli (GPa) = 33.45917 93.42637 96.61474
#
# Poissons Ratio (x) = -0.29880 0.50691
# Poissons Ratio (y) = -0.10701 0.36052
# Poissons Ratio (z) = 0.17555 0.34862
#
# Static dielectric constant tensor:
#      x y z
#    x 1.781710 -0.009090 0.084200 
#    y -0.009090 1.861650 0.070060 
#    z 0.084200 0.070060 1.519340 
# 
# From -- ./inp_files/217156.got.cif
#   From: 2010.05.17/outbox.cif.g08.bks.cpg/sg2_109_cif.got.tgz:217156.got - 2010.06.03 11:33:40.
