data_PCOD9109383
_publ_section_title
;
Structure prediction by ZEFSAII (Michael W. Deem and Ramdas Pophale) SiO2 
 PCOD9109383
Probable space group: P -1
;
_chemical_formula_sum "Si O2"
_cell_formula_units_Z 16
_cell_length_a 8.464500
_cell_length_b 6.794722
_cell_length_c 23.297341
_cell_angle_alpha 132.327262
_cell_angle_beta 124.407248
_cell_angle_gamma 81.483234
_cell_volume 755.654428
_symmetry_space_group_name_H-M "P -1"
_symmetry_group_IT_number 2
_symmetry_cell_setting 'triclinic'
loop_
_space_group_symop_operation_xyz
x,y,z
-x,-y,-z
loop_
_atom_site_type_symbol
_atom_site_label
_atom_site_fract_x
_atom_site_fract_y
_atom_site_fract_z
Si Si1 0.806341 0.485033 0.751291
Si Si2 0.825224 0.101828 0.170793
Si Si3 0.307789 0.497466 0.030900
Si Si4 0.743881 0.975195 0.251366
Si Si5 0.836410 0.669163 0.318720
Si Si6 0.962052 0.673841 0.942784
Si Si7 0.359787 0.473549 0.633747
Si Si8 0.731726 0.018366 0.560694
O O1 0.846882 0.499974 0.829621
O O2 0.602631 0.543688 0.704273
O O3 0.782440 0.169672 0.662484
O O4 0.993551 0.728361 0.803375
O O5 0.724255 0.337004 0.209850
O O6 0.886538 0.048771 0.237916
O O7 0.693262 0.795549 0.055489
O O8 0.532003 0.729586 0.136909
O O9 0.179672 0.417751 0.048162
O O10 0.173796 0.625417 0.988590
O O11 0.821157 0.860504 0.300207
O O12 0.697287 0.249812 0.316540
O O13 0.741588 0.715640 0.367708
O O14 0.082662 0.750912 0.393190
O O15 0.000000 0.000000 0.000000
O O16 0.276654 0.289917 0.522821
O O17 0.500000 0.000000 0.500000
#
# Coordination Sequence:
#
# PCOD9109383 Si02
#       8
#     2   2   2   2   2   2   2   2
#     4  10  20  41  65  88 122 165 205 252 308 357
#     4  10  23  40  58  89 125 166 200 257 294 356
#     4  11  24  38  60  92 125 165 204 253 300 354
#     4  11  24  39  60  93 127 162 205 248 304 368
#     4  10  22  41  65  89 123 165 201 248 312 364
#     4  11  22  38  62  90 123 161 206 250 301 360
#     4  10  21  41  64  90 127 157 204 257 305 360
#     4   9  20  39  66  91 119 160 201 255 309 359
#
# _framework density 21.173698000000002
#
# number of rings (size 3 to 8) (size 9 to 14) (size 15 to 20)
#    0.000    1.750    1.250    2.250    5.250    2.000 
#    0.000    0.000    0.000   10.500    0.000    0.000 
#    0.000    0.000    0.000    0.000    0.000    0.000 
#
# Total GULP energy -89238.352932 kJ/mol
# GULP energy per Si atom -5577.397058 kJ/mol
# Density = 2.112551 g / cm^3
# Si number density = 21.173698 Si / 1000 Ang^3
#
#
#
# Elastic Constant Matrix: (Units=GPa)
#
#
# Indices 1 2 3 4 5 6 
#
# 1 40.6425 8.0290 26.5393 7.5244 -13.6162 -1.7630
# 2 8.0290 95.0857 43.9166 -3.8303 -12.9829 3.9063
# 3 26.5393 43.9166 159.6112 17.4460 -28.6650 -9.6205
# 4 7.5244 -3.8303 17.4460 20.5451 -0.2173 -5.6351
# 5 -13.6162 -12.9829 -28.6650 -0.2173 38.3660 0.3852
# 6 -1.7630 3.9063 -9.6205 -5.6351 0.3852 16.9679
#
#
#
# Elastic Compliance Matrix: (Units=1/GPa)
#
#
# Indices 1 2 3 4 5 6 
#
# 1 0.031043 -0.000621 -0.002401 -0.009744 0.008973 -0.001433
# 2 -0.000621 0.012944 -0.004011 0.005054 0.001228 -0.003668
# 3 -0.002401 -0.004011 0.009637 -0.006983 0.004914 0.003707
# 4 -0.009744 0.005054 -0.006983 0.063155 -0.006759 0.014992
# 5 0.008973 0.001228 0.004914 -0.006759 0.033294 0.000436
# 6 -0.001433 -0.003668 0.003707 0.014992 0.000436 0.066701
#
#
# Mechanical properties :
#
#
# Convention : Reuss Voigt Hill
#
# Bulk Modulus (GPa) = 25.27886 50.25658 37.76772
# Shear Modulus (GPa) = 20.48962 29.63277 25.06119
#
# Velocity S-wave (km/s) = 3.11415 3.74506 3.44408
# Velocity P-wave (km/s) = 4.98952 6.51825 5.80443
#
# Compressibility (1/GPa) = 0.03955875
#
# Stress axis : x y z
#
# Youngs Moduli (GPa) = 32.21334 77.25705 103.76258
#
# Poissons Ratio (x) = 0.04798 0.24910
# Poissons Ratio (y) = 0.02001 0.41620
# Poissons Ratio (z) = 0.07733 0.30988
#
# Static dielectric constant tensor:
#      x y z
#    x 1.775430 -0.006770 -0.005000 
#    y -0.006770 1.772370 0.018900 
#    z -0.005000 0.018900 1.790590 
# 
# From -- ./inp_files/106826.got.cif
#   From: 2010.05.17/outbox.cif.g08.bks.cpg/sg2_54_cif.got.tgz:106826.got - 2010.06.03 11:33:40.
