data_PCOD9109739
_publ_section_title
;
Structure prediction by ZEFSAII (Michael W. Deem and Ramdas Pophale) SiO2 
 PCOD9109739
Probable space group: P -1
;
_chemical_formula_sum "Si O2"
_cell_formula_units_Z 14
_cell_length_a 11.028399
_cell_length_b 17.564209
_cell_length_c 8.373307
_cell_angle_alpha 130.316278
_cell_angle_beta 137.078830
_cell_angle_gamma 27.866152
_cell_volume 516.268084
_symmetry_space_group_name_H-M "P -1"
_symmetry_group_IT_number 2
_symmetry_cell_setting 'triclinic'
loop_
_space_group_symop_operation_xyz
x,y,z
-x,-y,-z
loop_
_atom_site_type_symbol
_atom_site_label
_atom_site_fract_x
_atom_site_fract_y
_atom_site_fract_z
Si Si1 0.286414 0.361248 0.210232
Si Si2 0.095665 0.733402 0.088656
Si Si3 0.517883 0.103045 0.726812
Si Si4 0.856632 0.856719 0.380761
Si Si5 0.364254 0.549186 0.612746
Si Si6 0.932564 0.023981 0.227544
Si Si7 0.810162 0.681071 0.596526
O O1 0.276514 0.474272 0.434508
O O2 0.616599 0.202903 0.239352
O O3 0.270529 0.296959 0.262527
O O4 0.000000 0.500000 0.000000
O O5 0.401244 0.541169 0.148154
O O6 0.957024 0.790736 0.209185
O O7 0.088967 0.855192 0.218290
O O8 0.936958 0.738060 0.809459
O O9 0.362026 0.138974 0.791947
O O10 0.369254 0.235097 0.627971
O O11 0.500000 0.000000 0.500000
O O12 0.807947 0.031115 0.955240
O O13 0.087974 0.739746 0.588556
O O14 0.841507 0.984221 0.546747
O O15 0.500000 0.500000 0.500000
O O16 0.000000 0.500000 0.500000
#
# Coordination Sequence:
#
# PCOD9109739 Si02
#       7
#     2   2   2   2   2   2   2
#     4  12  24  44  80 108 139 194 253 308 365 430
#     4  11  24  45  73 112 140 184 258 307 363 432
#     4  12  28  49  67 108 158 196 242 296 375 455
#     4  11  25  46  79 104 147 194 247 314 366 432
#     4  10  20  41  67 108 138 169 242 307 353 426
#     4  12  25  47  79 106 147 195 250 312 369 433
#     4  12  27  46  71 104 149 195 242 297 375 446
#
# _framework density 27.117692000000002
#
# number of rings (size 3 to 8) (size 9 to 14) (size 15 to 20)
#    0.000    0.571    4.286    5.571    4.000    1.714 
#    2.571    1.429    0.000    0.000    0.000    0.000 
#    0.000    0.000    0.000    0.000    0.000    0.000 
#
# Total GULP energy -78021.359124 kJ/mol
# GULP energy per Si atom -5572.954223 kJ/mol
# Density = 2.705597 g / cm^3
# Si number density = 27.117692 Si / 1000 Ang^3
#
#
#
# Elastic Constant Matrix: (Units=GPa)
#
#
# Indices 1 2 3 4 5 6 
#
# 1 127.4508 31.2717 40.4802 -6.6312 17.3282 22.0547
# 2 31.2717 110.0361 11.9638 4.7920 -3.5551 28.8370
# 3 40.4802 11.9638 127.6151 -13.9377 -8.0665 19.4100
# 4 -6.6312 4.7920 -13.9377 49.5048 9.6755 -7.4996
# 5 17.3282 -3.5551 -8.0665 9.6755 36.9735 4.6246
# 6 22.0547 28.8370 19.4100 -7.4996 4.6246 46.0257
#
#
#
# Elastic Compliance Matrix: (Units=1/GPa)
#
#
# Indices 1 2 3 4 5 6 
#
# 1 0.010649 -0.002658 -0.003144 0.001845 -0.006267 -0.001182
# 2 -0.002658 0.012028 0.000783 -0.003304 0.004385 -0.007572
# 3 -0.003144 0.000783 0.009601 0.000971 0.003797 -0.003257
# 4 0.001845 -0.003304 0.000971 0.023369 -0.007757 0.005364
# 5 -0.006267 0.004385 0.003797 -0.007757 0.034017 -0.006027
# 6 -0.001182 -0.007572 -0.003257 0.005364 -0.006027 0.029890
#
#
# Mechanical properties :
#
#
# Convention : Reuss Voigt Hill
#
# Bulk Modulus (GPa) = 44.95989 59.17040 52.06514
# Shear Modulus (GPa) = 36.49496 45.25989 40.87742
#
# Velocity S-wave (km/s) = 3.67249 4.08979 3.88675
# Velocity P-wave (km/s) = 5.88205 6.64598 6.27565
#
# Compressibility (1/GPa) = 0.02224205
#
# Stress axis : x y z
#
# Youngs Moduli (GPa) = 93.90218 83.13985 104.15351
#
# Poissons Ratio (x) = 0.22097 0.32744
# Poissons Ratio (y) = 0.24958 -0.08160
# Poissons Ratio (z) = 0.29521 -0.06513
#
# Static dielectric constant tensor:
#      x y z
#    x 2.170200 0.157630 0.037140 
#    y 0.157630 2.213490 -0.159110 
#    z 0.037140 -0.159110 2.052190 
# 
# From -- ./inp_files/280005.got.cif
#   From: 2010.05.17/outbox.cif.g08.bks.cpg/sg2_141_cif.got.tgz:280005.got - 2010.06.03 11:33:40.
