data_PCOD9109359
_publ_section_title
;
Structure prediction by ZEFSAII (Michael W. Deem and Ramdas Pophale) SiO2 
 PCOD9109359
Probable space group: P -1
;
_chemical_formula_sum "Si O2"
_cell_formula_units_Z 14
_cell_length_a 11.537353
_cell_length_b 5.926643
_cell_length_c 17.799983
_cell_angle_alpha 90.213403
_cell_angle_beta 152.575210
_cell_angle_gamma 97.321252
_cell_volume 537.524927
_symmetry_space_group_name_H-M "P -1"
_symmetry_group_IT_number 2
_symmetry_cell_setting 'triclinic'
loop_
_space_group_symop_operation_xyz
x,y,z
-x,-y,-z
loop_
_atom_site_type_symbol
_atom_site_label
_atom_site_fract_x
_atom_site_fract_y
_atom_site_fract_z
Si Si1 0.177338 0.217175 0.760042
Si Si2 0.089561 0.282734 0.258105
Si Si3 0.141181 0.840450 0.628865
Si Si4 0.529582 0.348497 0.620392
Si Si5 0.054297 0.895275 0.109758
Si Si6 0.712903 0.356246 0.421849
Si Si7 0.692328 0.551719 0.010057
O O1 0.238541 0.258697 0.882722
O O2 0.886730 0.237589 0.574770
O O3 0.230894 0.986173 0.755657
O O4 0.381959 0.432360 0.833156
O O5 0.243227 0.235053 0.419713
O O6 0.278545 0.532163 0.336823
O O7 0.817556 0.344809 0.108930
O O8 0.077678 0.087949 0.188559
O O9 0.351918 0.793247 0.691994
O O10 0.918472 0.603401 0.517519
O O11 0.000000 0.000000 0.500000
O O12 0.672892 0.174343 0.739952
O O13 0.506630 0.559861 0.661192
O O14 0.833318 0.665325 0.014751
O O15 0.000000 0.000000 0.000000
#
# Coordination Sequence:
#
# PCOD9109359 Si02
#       7
#     2   2   2   2   2   2   2
#     4  10  21  41  68 102 137 181 225 281 344 406
#     4  10  22  45  68 100 132 178 236 289 337 404
#     4   9  21  39  60  98 142 174 222 273 347 410
#     4  10  22  42  74  97 131 178 233 291 338 407
#     4  11  26  47  67 103 138 182 233 285 353 410
#     4  10  20  41  65 103 136 174 228 284 338 416
#     4  10  23  42  70  99 139 182 230 282 339 418
#
# _framework density 26.045302
#
# number of rings (size 3 to 8) (size 9 to 14) (size 15 to 20)
#    0.000    2.000    1.429    0.429    2.000    5.714 
#   20.571    2.857    0.000    0.000    0.000    0.000 
#    0.000    0.000    0.000    0.000    0.000    0.000 
#
# Total GULP energy -78415.068352 kJ/mol
# GULP energy per Si atom -5601.076311 kJ/mol
# Density = 2.598602 g / cm^3
# Si number density = 26.045302 Si / 1000 Ang^3
#
#
#
# Elastic Constant Matrix: (Units=GPa)
#
#
# Indices 1 2 3 4 5 6 
#
# 1 128.8267 45.3045 47.7049 -7.9026 -9.0927 -7.2021
# 2 45.3045 108.6826 50.9995 -14.1953 -19.4621 -27.8789
# 3 47.7049 50.9995 117.2861 -39.8650 3.3265 -10.6484
# 4 -7.9026 -14.1953 -39.8650 46.2511 -1.0039 -4.3365
# 5 -9.0927 -19.4621 3.3265 -1.0039 31.5918 2.0714
# 6 -7.2021 -27.8789 -10.6484 -4.3365 2.0714 74.4704
#
#
#
# Elastic Compliance Matrix: (Units=1/GPa)
#
#
# Indices 1 2 3 4 5 6 
#
# 1 0.010044 -0.002547 -0.003941 -0.002495 0.001706 -0.000738
# 2 -0.002547 0.015752 -0.005583 0.000220 0.009264 0.004608
# 3 -0.003941 -0.005583 0.016934 0.012156 -0.006025 0.000826
# 4 -0.002495 0.000220 0.012156 0.032043 -0.001072 0.003475
# 5 0.001706 0.009264 -0.006025 -0.001072 0.038344 0.001643
# 6 -0.000738 0.004608 0.000826 0.003475 0.001643 0.015356
#
#
# Mechanical properties :
#
#
# Convention : Reuss Voigt Hill
#
# Bulk Modulus (GPa) = 53.79832 71.42369 62.61100
# Shear Modulus (GPa) = 31.48385 44.51509 37.99947
#
# Velocity S-wave (km/s) = 3.48057 4.13866 3.82380
# Velocity P-wave (km/s) = 6.07067 7.09369 6.60202
#
# Compressibility (1/GPa) = 0.01858794
#
# Stress axis : x y z
#
# Youngs Moduli (GPa) = 99.56663 63.48235 59.05195
#
# Poissons Ratio (x) = 0.16171 0.23271
# Poissons Ratio (y) = 0.25362 0.32969
# Poissons Ratio (z) = 0.39237 0.35442
#
# Static dielectric constant tensor:
#      x y z
#    x 2.063010 0.037590 0.021080 
#    y 0.037590 2.049110 0.006060 
#    z 0.021080 0.006060 2.055650 
# 
# From -- ./inp_files/564495.got.cif
#   From: 2010.05.17/outbox.cif.g08.bks.cpg/sg2_283_cif.got.tgz:564495.got - 2010.06.03 11:33:40.
