data_PCOD9109636
_publ_section_title
;
Structure prediction by ZEFSAII (Michael W. Deem and Ramdas Pophale) SiO2 
 PCOD9109636
Probable space group: P -1
;
_chemical_formula_sum "Si O2"
_cell_formula_units_Z 10
_cell_length_a 9.212558
_cell_length_b 5.466298
_cell_length_c 20.479692
_cell_angle_alpha 136.483749
_cell_angle_beta 145.549111
_cell_angle_gamma 45.206529
_cell_volume 386.395892
_symmetry_space_group_name_H-M "P -1"
_symmetry_group_IT_number 2
_symmetry_cell_setting 'triclinic'
loop_
_space_group_symop_operation_xyz
x,y,z
-x,-y,-z
loop_
_atom_site_type_symbol
_atom_site_label
_atom_site_fract_x
_atom_site_fract_y
_atom_site_fract_z
Si Si1 0.240962 0.195506 0.246519
Si Si2 0.290462 0.792499 0.732455
Si Si3 0.566469 0.175611 0.624553
Si Si4 0.666259 0.566316 0.197180
Si Si5 0.236907 0.871783 0.010811
O O1 0.257860 0.555090 0.282555
O O2 0.327371 0.134368 0.341423
O O3 0.457990 0.864450 0.225297
O O4 0.941416 0.150595 0.122056
O O5 0.324416 0.467996 0.629843
O O6 0.183357 0.723505 0.749807
O O7 0.586842 0.839530 0.870199
O O8 0.167040 0.179331 0.725386
O O9 0.500000 0.000000 0.500000
O O10 0.450854 0.512151 0.052017
O O11 0.000000 0.000000 0.000000
#
# Coordination Sequence:
#
# PCOD9109636 Si02
#       5
#     2   2   2   2   2
#     4   9  16  20  28  30  34  41  46  54  56  60
#     4   8  14  20  26  33  35  41  43  54  57  63
#     4  10  17  22  23  28  37  45  48  47  52  63
#     4   7  13  18  26  34  38  35  43  51  64  62
#     4   8  13  19  28  34  36  34  46  54  64  58
#
# _framework density 25.880191
#
# number of rings (size 3 to 8) (size 9 to 14) (size 15 to 20)
#    1.200    2.400    2.000    0.600    2.800    2.400 
#    0.000    0.000    0.000    0.000    0.000    0.000 
#    0.000    0.000    0.000    0.000    0.000    0.000 
#
# Total GULP energy -55745.424866 kJ/mol
# GULP energy per Si atom -5574.542487 kJ/mol
# Density = 2.582129 g / cm^3
# Si number density = 25.880191 Si / 1000 Ang^3
#
#
#
# Elastic Constant Matrix: (Units=GPa)
#
#
# Indices 1 2 3 4 5 6 
#
# 1 76.1290 35.0499 3.8677 -12.8613 -4.9227 23.5812
# 2 35.0499 150.9280 17.2736 -9.0949 -16.5764 42.7048
# 3 3.8677 17.2736 78.2441 -6.0550 -44.1653 9.1850
# 4 -12.8613 -9.0949 -6.0550 32.4764 14.1480 -12.0549
# 5 -4.9227 -16.5764 -44.1653 14.1480 46.2821 -15.1877
# 6 23.5812 42.7048 9.1850 -12.0549 -15.1877 60.5142
#
#
#
# Elastic Compliance Matrix: (Units=1/GPa)
#
#
# Indices 1 2 3 4 5 6 
#
# 1 0.016355 -0.002518 -0.001265 0.005474 -0.003411 -0.004170
# 2 -0.002518 0.008772 -0.000987 -0.000842 0.000516 -0.005097
# 3 -0.001265 -0.000987 0.029745 -0.007736 0.031238 0.002974
# 4 0.005474 -0.000842 -0.007736 0.040462 -0.018466 0.003061
# 5 -0.003411 0.000516 0.031238 -0.018466 0.059322 0.007433
# 6 -0.004170 -0.005097 0.002974 0.003061 0.007433 0.023771
#
#
# Mechanical properties :
#
#
# Convention : Reuss Voigt Hill
#
# Bulk Modulus (GPa) = 22.05978 46.40929 34.23454
# Shear Modulus (GPa) = 24.62104 44.46187 34.54146
#
# Velocity S-wave (km/s) = 3.08774 4.14936 3.65727
# Velocity P-wave (km/s) = 4.61026 6.39746 5.57593
#
# Compressibility (1/GPa) = 0.04533137
#
# Stress axis : x y z
#
# Youngs Moduli (GPa) = 61.14293 114.00299 33.61856
#
# Poissons Ratio (x) = 0.28710 0.04252
# Poissons Ratio (y) = 0.15398 0.03319
# Poissons Ratio (z) = 0.07733 0.11256
#
# Static dielectric constant tensor:
#      x y z
#    x 2.190420 -0.036890 -0.119280 
#    y -0.036890 2.079180 0.023860 
#    z -0.119280 0.023860 2.067660 
# 
# From -- ./inp_files/100688.got.cif
#   From: 2010.05.17/outbox.cif.g08.bks.cpg/sg2_51_cif.got.tgz:100688.got - 2010.06.03 11:33:40.
