data_PCOD9109410
_publ_section_title
;
Structure prediction by ZEFSAII (Michael W. Deem and Ramdas Pophale) SiO2 
 PCOD9109410
Probable space group: P -1
;
_chemical_formula_sum "Si O2"
_cell_formula_units_Z 14
_cell_length_a 7.240267
_cell_length_b 5.430550
_cell_length_c 19.123782
_cell_angle_alpha 82.901934
_cell_angle_beta 121.973290
_cell_angle_gamma 118.362544
_cell_volume 552.971697
_symmetry_space_group_name_H-M "P -1"
_symmetry_group_IT_number 2
_symmetry_cell_setting 'triclinic'
loop_
_space_group_symop_operation_xyz
x,y,z
-x,-y,-z
loop_
_atom_site_type_symbol
_atom_site_label
_atom_site_fract_x
_atom_site_fract_y
_atom_site_fract_z
Si Si1 0.820765 0.445781 0.542441
Si Si2 0.039677 0.853960 0.805896
Si Si3 0.073681 0.305994 0.715328
Si Si4 0.342619 0.159679 0.983743
Si Si5 0.320619 0.107199 0.548037
Si Si6 0.497051 0.194650 0.156827
Si Si7 0.644692 0.264579 0.735956
O O1 0.574272 0.286524 0.547254
O O2 0.841497 0.745851 0.514782
O O3 0.034446 0.437104 0.632628
O O4 0.765544 0.219609 0.477052
O O5 0.267016 0.797958 0.836284
O O6 0.779888 0.582747 0.780917
O O7 0.011939 0.982543 0.721732
O O8 0.128276 0.052203 0.885655
O O9 0.356399 0.489624 0.792672
O O10 0.862087 0.286952 0.727016
O O11 0.500000 0.500000 0.000000
O O12 0.292008 0.112817 0.058375
O O13 0.500000 0.000000 0.000000
O O14 0.405525 0.180628 0.642717
O O15 0.411827 0.964119 0.208135
#
# Coordination Sequence:
#
# PCOD9109410 Si02
#       7
#     2   2   2   2   2   2   2
#     4   9  19  33  59  84 117 163 204 246 306 361
#     4  10  22  39  64  88 123 162 204 254 305 371
#     4  10  21  38  63  88 120 162 207 254 303 369
#     4  10  20  41  65  90 124 164 205 248 310 370
#     4   9  19  35  55  87 120 159 201 254 301 362
#     4  10  22  41  62  89 124 163 201 255 311 365
#     4  10  23  38  61  92 123 159 208 255 306 365
#
# _framework density 25.317751000000001
#
# number of rings (size 3 to 8) (size 9 to 14) (size 15 to 20)
#    0.000    2.286    1.429    0.000   12.000    1.714 
#    0.000    2.143    0.000    0.000    0.000    0.000 
#    0.000    0.000    0.000    0.000    0.000    0.000 
#
# Total GULP energy -78206.751890 kJ/mol
# GULP energy per Si atom -5586.196564 kJ/mol
# Density = 2.526013 g / cm^3
# Si number density = 25.317751 Si / 1000 Ang^3
#
#
#
# Elastic Constant Matrix: (Units=GPa)
#
#
# Indices 1 2 3 4 5 6 
#
# 1 73.6423 -4.3691 10.7447 -2.2074 6.2755 6.5573
# 2 -4.3691 151.3653 57.9586 -8.5152 -2.0580 -1.5758
# 3 10.7447 57.9586 165.0402 -13.5302 4.9056 12.6873
# 4 -2.2074 -8.5152 -13.5302 43.6208 2.9429 -0.0778
# 5 6.2755 -2.0580 4.9056 2.9429 27.1302 -15.0955
# 6 6.5573 -1.5758 12.6873 -0.0778 -15.0955 23.8092
#
#
#
# Elastic Compliance Matrix: (Units=1/GPa)
#
#
# Indices 1 2 3 4 5 6 
#
# 1 0.015332 0.000255 0.000095 0.001470 -0.009377 -0.010197
# 2 0.000255 0.007966 -0.003234 0.000332 0.003566 0.004442
# 3 0.000095 -0.003234 0.008305 0.002415 -0.007143 -0.009187
# 4 0.001470 0.000332 0.002415 0.024248 -0.006592 -0.005770
# 5 -0.009377 0.003566 -0.007143 -0.006592 0.069496 0.050665
# 6 -0.010197 0.004442 -0.009187 -0.005770 0.050665 0.082102
#
#
# Mechanical properties :
#
#
# Convention : Reuss Voigt Hill
#
# Bulk Modulus (GPa) = 38.70741 57.63514 48.17127
# Shear Modulus (GPa) = 22.54002 40.62627 31.58315
#
# Velocity S-wave (km/s) = 2.98700 4.01016 3.53579
# Velocity P-wave (km/s) = 5.21709 6.65252 5.97805
#
# Compressibility (1/GPa) = 0.02583485
#
# Stress axis : x y z
#
# Youngs Moduli (GPa) = 65.22509 125.53798 120.40599
#
# Poissons Ratio (x) = -0.03201 -0.01149
# Poissons Ratio (y) = -0.01663 0.38942
# Poissons Ratio (z) = -0.00622 0.40602
#
# Static dielectric constant tensor:
#      x y z
#    x 2.079320 -0.027340 -0.013860 
#    y -0.027340 2.048630 0.036230 
#    z -0.013860 0.036230 2.035240 
# 
# From -- ./inp_files/56476.got.cif
#   From: 2010.05.17/outbox.cif.g08.bks.cpg/sg2_29_cif.got.tgz:56476.got - 2010.06.03 11:33:40.
