data_PCOD9109347
_publ_section_title
;
Structure prediction by ZEFSAII (Michael W. Deem and Ramdas Pophale) SiO2 
 PCOD9109347
Probable space group: P -1
;
_chemical_formula_sum "Si O2"
_cell_formula_units_Z 16
_cell_length_a 12.719022
_cell_length_b 13.564821
_cell_length_c 7.387895
_cell_angle_alpha 94.608446
_cell_angle_beta 110.942653
_cell_angle_gamma 140.888142
_cell_volume 596.737826
_symmetry_space_group_name_H-M "P -1"
_symmetry_group_IT_number 2
_symmetry_cell_setting 'triclinic'
loop_
_space_group_symop_operation_xyz
x,y,z
-x,-y,-z
loop_
_atom_site_type_symbol
_atom_site_label
_atom_site_fract_x
_atom_site_fract_y
_atom_site_fract_z
Si Si1 0.845278 0.614398 0.077676
Si Si2 0.211135 0.025197 0.480278
Si Si3 0.559295 0.390546 0.173688
Si Si4 0.705523 0.730426 0.691451
Si Si5 0.640367 0.301787 0.656250
Si Si6 0.450606 0.099917 0.137334
Si Si7 0.870377 0.336946 0.546299
Si Si8 0.997039 0.807005 0.690003
O O1 0.987492 0.647839 0.301139
O O2 0.627768 0.486666 0.035463
O O3 0.022625 0.835452 0.207375
O O4 0.769988 0.495299 0.840170
O O5 0.436436 0.128556 0.643339
O O6 0.287578 0.183426 0.452579
O O7 0.095285 0.938512 0.592925
O O8 0.348733 0.269347 0.141137
O O9 0.536881 0.257187 0.094834
O O10 0.777676 0.580360 0.458974
O O11 0.500000 0.500000 0.500000
O O12 0.920706 0.827800 0.794556
O O13 0.804304 0.111288 0.100657
O O14 0.488913 0.187044 0.364461
O O15 0.818119 0.356253 0.704436
O O16 0.622147 0.139935 0.274441
O O17 0.000000 0.500000 0.500000
#
# Coordination Sequence:
#
# PCOD9109347 Si02
#       8
#     2   2   2   2   2   2   2   2
#     4  11  22  42  70  96 144 183 224 289 336 401
#     4  11  23  42  66 108 134 175 232 286 342 409
#     4  10  20  41  64  99 129 183 222 274 343 404
#     4  10  21  44  72 103 138 177 232 281 350 418
#     4  10  23  41  66  95 142 180 228 277 344 403
#     4  10  21  41  65  98 134 176 233 271 343 400
#     4  10  21  41  69 100 133 185 236 271 343 414
#     4  10  23  40  71  96 141 174 224 296 340 399
#
# _framework density 26.812445
#
# number of rings (size 3 to 8) (size 9 to 14) (size 15 to 20)
#    0.750    1.000    2.500    1.500    0.000    2.000 
#    0.000    5.000    0.000    6.000    0.000    0.000 
#    0.000    0.000    0.000    0.000    0.000    0.000 
#
# Total GULP energy -89305.381558 kJ/mol
# GULP energy per Si atom -5581.586347 kJ/mol
# Density = 2.675142 g / cm^3
# Si number density = 26.812445 Si / 1000 Ang^3
#
#
#
# Elastic Constant Matrix: (Units=GPa)
#
#
# Indices 1 2 3 4 5 6 
#
# 1 121.8862 58.8264 22.1572 -15.7651 -2.6362 33.0164
# 2 58.8264 158.2443 47.5503 6.0634 -5.6577 22.8050
# 3 22.1572 47.5503 127.2733 4.0270 3.4412 15.4448
# 4 -15.7651 6.0634 4.0270 42.0271 3.0136 -4.7472
# 5 -2.6362 -5.6577 3.4412 3.0136 23.2864 -2.6343
# 6 33.0164 22.8050 15.4448 -4.7472 -2.6343 50.8947
#
#
#
# Elastic Compliance Matrix: (Units=1/GPa)
#
#
# Indices 1 2 3 4 5 6 
#
# 1 0.012240 -0.003890 -0.000099 0.004566 -0.000790 -0.005782
# 2 -0.003890 0.008821 -0.002497 -0.002751 0.002336 -0.000807
# 3 -0.000099 -0.002497 0.009093 -0.000596 -0.002081 -0.001740
# 4 0.004566 -0.002751 -0.000596 0.026286 -0.003383 0.000728
# 5 -0.000790 0.002336 -0.002081 -0.003383 0.044402 0.002080
# 6 -0.005782 -0.000807 -0.001740 0.000728 0.002080 0.024464
#
#
# Mechanical properties :
#
#
# Convention : Reuss Voigt Hill
#
# Bulk Modulus (GPa) = 58.19827 73.83017 66.01422
# Shear Modulus (GPa) = 34.72103 41.83297 38.27700
#
# Velocity S-wave (km/s) = 3.60246 3.95423 3.78244
# Velocity P-wave (km/s) = 6.24951 6.96014 6.61437
#
# Compressibility (1/GPa) = 0.01718264
#
# Stress axis : x y z
#
# Youngs Moduli (GPa) = 81.70259 113.36698 109.97104
#
# Poissons Ratio (x) = 0.44102 0.01087
# Poissons Ratio (y) = 0.31784 0.27454
# Poissons Ratio (z) = 0.00808 0.28302
#
# Static dielectric constant tensor:
#      x y z
#    x 2.187530 -0.038860 0.020160 
#    y -0.038860 2.243120 -0.056710 
#    z 0.020160 -0.056710 2.120470 
# 
# From -- ./inp_files/317804.got.cif
#   From: 2010.05.17/outbox.cif.g08.bks.cpg/sg2_159_cif.got.tgz:317804.got - 2010.06.03 11:33:40.
