data_PCOD9109643
_publ_section_title
;
Structure prediction by ZEFSAII (Michael W. Deem and Ramdas Pophale) SiO2 
 PCOD9109643
Probable space group: P -1
;
_chemical_formula_sum "Si O2"
_cell_formula_units_Z 16
_cell_length_a 6.304818
_cell_length_b 15.770332
_cell_length_c 8.526052
_cell_angle_alpha 100.331540
_cell_angle_beta 77.148902
_cell_angle_gamma 111.843914
_cell_volume 762.778556
_symmetry_space_group_name_H-M "P -1"
_symmetry_group_IT_number 2
_symmetry_cell_setting 'triclinic'
loop_
_space_group_symop_operation_xyz
x,y,z
-x,-y,-z
loop_
_atom_site_type_symbol
_atom_site_label
_atom_site_fract_x
_atom_site_fract_y
_atom_site_fract_z
Si Si1 0.017767 0.402428 0.413173
Si Si2 0.462043 0.144493 0.013105
Si Si3 0.496541 0.471188 0.171206
Si Si4 0.702391 0.966437 0.539067
Si Si5 0.198585 0.960185 0.117546
Si Si6 0.569585 0.313148 0.271785
Si Si7 0.254650 0.344926 0.615092
Si Si8 0.711507 0.821354 0.263107
O O1 0.241084 0.430124 0.273483
O O2 0.039080 0.351271 0.553800
O O3 0.000000 0.500000 0.500000
O O4 0.813474 0.334373 0.322487
O O5 0.462862 0.216004 0.171950
O O6 0.245922 0.048576 0.029429
O O7 0.678360 0.109801 0.984178
O O8 0.461219 0.190930 0.859068
O O9 0.601489 0.391566 0.160893
O O10 0.629622 0.558649 0.285392
O O11 0.500000 0.500000 0.000000
O O12 0.636530 0.865427 0.442833
O O13 0.500000 0.000000 0.500000
O O14 0.670829 0.989891 0.730048
O O15 0.000000 0.000000 0.500000
O O16 0.944125 0.898286 0.188172
O O17 0.414482 0.330052 0.443643
O O18 0.229367 0.266216 0.719524
#
# Coordination Sequence:
#
# PCOD9109643 Si02
#       8
#     2   2   2   2   2   2   2   2
#     4  11  21  45  68  91 132 180 221 266 344 417
#     4  11  23  41  64  92 132 173 224 277 348 408
#     4  11  23  41  66  98 132 165 215 284 338 401
#     4  10  20  41  66  94 128 179 230 283 345 410
#     4  10  23  42  62  94 131 177 221 282 346 406
#     4  11  23  42  66  95 129 176 219 273 338 416
#     4  11  23  41  66  96 130 171 223 278 340 406
#     4  11  23  41  66  96 134 169 230 285 339 417
#
# _framework density 20.975943999999998
#
# number of rings (size 3 to 8) (size 9 to 14) (size 15 to 20)
#    0.000    1.250    3.750    2.625    0.000    4.500 
#    6.750    0.000    0.000    0.000    0.000    0.000 
#    0.000    0.000    0.000    0.000    0.000    0.000 
#
# Total GULP energy -89092.979085 kJ/mol
# GULP energy per Si atom -5568.311193 kJ/mol
# Density = 2.092820 g / cm^3
# Si number density = 20.975944 Si / 1000 Ang^3
#
#
#
# Elastic Constant Matrix: (Units=GPa)
#
#
# Indices 1 2 3 4 5 6 
#
# 1 70.4505 35.1105 21.5440 -2.6692 23.5074 -11.2697
# 2 35.1105 105.3970 20.0242 -2.5685 15.6577 -29.2079
# 3 21.5440 20.0242 81.9661 -3.1378 12.8513 -13.8856
# 4 -2.6692 -2.5685 -3.1378 38.1351 -12.9468 6.3012
# 5 23.5074 15.6577 12.8513 -12.9468 27.6460 -5.2073
# 6 -11.2697 -29.2079 -13.8856 6.3012 -5.2073 25.0612
#
#
#
# Elastic Compliance Matrix: (Units=1/GPa)
#
#
# Indices 1 2 3 4 5 6 
#
# 1 0.023217 -0.004172 -0.002042 -0.005469 -0.018623 0.001952
# 2 -0.004172 0.016060 0.000609 -0.003423 -0.004201 0.017166
# 3 -0.002042 0.000609 0.014505 -0.001738 -0.004796 0.007268
# 4 -0.005469 -0.003423 -0.001738 0.034672 0.021435 -0.011675
# 5 -0.018623 -0.004201 -0.004796 0.021435 0.065189 -0.007772
# 6 0.001952 0.017166 0.007268 -0.011675 -0.007772 0.066135
#
#
# Mechanical properties :
#
#
# Convention : Reuss Voigt Hill
#
# Bulk Modulus (GPa) = 23.48985 45.68567 34.58776
# Shear Modulus (GPa) = 20.39331 30.24412 25.31872
#
# Velocity S-wave (km/s) = 3.12143 3.80129 3.47801
# Velocity P-wave (km/s) = 4.92076 6.41044 5.71435
#
# Compressibility (1/GPa) = 0.04257158
#
# Stress axis : x y z
#
# Youngs Moduli (GPa) = 43.07196 62.26716 68.94243
#
# Poissons Ratio (x) = 0.25977 0.14078
# Poissons Ratio (y) = 0.17969 -0.04197
# Poissons Ratio (z) = 0.08795 -0.03791
#
# Static dielectric constant tensor:
#      x y z
#    x 1.837990 -0.024530 0.010490 
#    y -0.024530 1.773500 -0.043730 
#    z 0.010490 -0.043730 1.742330 
# 
# From -- ./inp_files/99631.got.cif
#   From: 2010.05.17/outbox.cif.g08.bks.cpg/sg2_50_cif.got.tgz:99631.got - 2010.06.03 11:33:40.
