data_PCOD9109370
_publ_section_title
;
Structure prediction by ZEFSAII (Michael W. Deem and Ramdas Pophale) SiO2 
 PCOD9109370
Probable space group: P -1
;
_chemical_formula_sum "Si O2"
_cell_formula_units_Z 16
_cell_length_a 26.512423
_cell_length_b 9.864726
_cell_length_c 9.089296
_cell_angle_alpha 45.075232
_cell_angle_beta 43.907653
_cell_angle_gamma 28.127986
_cell_volume 758.764673
_symmetry_space_group_name_H-M "P -1"
_symmetry_group_IT_number 2
_symmetry_cell_setting 'triclinic'
loop_
_space_group_symop_operation_xyz
x,y,z
-x,-y,-z
loop_
_atom_site_type_symbol
_atom_site_label
_atom_site_fract_x
_atom_site_fract_y
_atom_site_fract_z
Si Si1 0.975214 0.252771 0.289136
Si Si2 0.592651 0.327280 0.612382
Si Si3 0.892275 0.966587 0.290878
Si Si4 0.794539 0.847794 0.374906
Si Si5 0.749038 0.059075 0.752550
Si Si6 0.872009 0.435574 0.037226
Si Si7 0.431886 0.331847 0.865330
Si Si8 0.231439 0.848378 0.046090
O O1 0.897332 0.509665 0.377319
O O2 0.916638 0.355980 0.173180
O O3 0.000000 0.000000 0.500000
O O4 0.097054 0.103019 0.128578
O O5 0.645353 0.283280 0.688938
O O6 0.490159 0.387070 0.793506
O O7 0.572364 0.552306 0.375222
O O8 0.691326 0.001588 0.577178
O O9 0.858089 0.920075 0.543734
O O10 0.840755 0.946803 0.281336
O O11 0.841322 0.280034 0.178573
O O12 0.022826 0.726740 0.165890
O O13 0.743937 0.004147 0.204022
O O14 0.734060 0.211583 0.812807
O O15 0.777693 0.782995 0.944957
O O16 0.306687 0.550467 0.024472
O O17 0.500000 0.000000 0.000000
#
# Coordination Sequence:
#
# PCOD9109370 Si02
#       8
#     2   2   2   2   2   2   2   2
#     4  12  24  37  62 100 134 174 220 259 319 393
#     4   9  23  42  67  97 117 168 219 262 325 387
#     4  10  22  38  56  90 130 179 216 251 308 384
#     4  10  20  41  65  85 136 170 212 264 314 386
#     4  11  22  39  63  94 133 160 213 270 328 377
#     4  11  22  38  60  91 136 178 214 258 317 385
#     4  10  23  46  69  89 122 166 221 273 317 383
#     4  11  22  40  65  91 127 174 212 266 325 374
#
# _framework density 21.086905999999999
#
# number of rings (size 3 to 8) (size 9 to 14) (size 15 to 20)
#    0.000    1.500    2.500    2.250    1.750    8.500 
#    0.000    0.625    0.000    0.000    0.000    0.000 
#    0.000    0.000    0.000    0.000    0.000    0.000 
#
# Total GULP energy -89255.302888 kJ/mol
# GULP energy per Si atom -5578.456431 kJ/mol
# Density = 2.103891 g / cm^3
# Si number density = 21.086906 Si / 1000 Ang^3
#
#
#
# Elastic Constant Matrix: (Units=GPa)
#
#
# Indices 1 2 3 4 5 6 
#
# 1 76.0621 18.2370 30.1907 -9.8341 18.2665 4.3440
# 2 18.2370 116.4648 19.7032 -18.8141 -2.8587 3.9425
# 3 30.1907 19.7032 64.1763 -14.1448 14.4352 9.7301
# 4 -9.8341 -18.8141 -14.1448 39.3025 -1.7531 -0.8913
# 5 18.2665 -2.8587 14.4352 -1.7531 34.0893 -0.4194
# 6 4.3440 3.9425 9.7301 -0.8913 -0.4194 24.7714
#
#
#
# Elastic Compliance Matrix: (Units=1/GPa)
#
#
# Indices 1 2 3 4 5 6 
#
# 1 0.017804 -0.001760 -0.005878 0.001164 -0.007146 -0.000612
# 2 -0.001760 0.009871 -0.001969 0.003693 0.002791 -0.000309
# 3 -0.005878 -0.001969 0.022708 0.005301 -0.006450 -0.007494
# 4 0.001164 0.003693 0.005301 0.029321 -0.001073 -0.001837
# 5 -0.007146 0.002791 -0.006450 -0.001073 0.036122 0.003916
# 6 -0.000612 -0.000309 -0.007494 -0.001837 0.003916 0.043469
#
#
# Mechanical properties :
#
#
# Convention : Reuss Voigt Hill
#
# Bulk Modulus (GPa) = 32.08585 43.66278 37.87432
# Shear Modulus (GPa) = 26.46906 32.20415 29.33660
#
# Velocity S-wave (km/s) = 3.54678 3.91219 3.73396
# Velocity P-wave (km/s) = 5.65879 6.41546 6.04896
#
# Compressibility (1/GPa) = 0.03116639
#
# Stress axis : x y z
#
# Youngs Moduli (GPa) = 56.16686 101.31031 44.03824
#
# Poissons Ratio (x) = 0.17831 0.25888
# Poissons Ratio (y) = 0.09886 0.08673
# Poissons Ratio (z) = 0.33018 0.19952
#
# Static dielectric constant tensor:
#      x y z
#    x 1.900880 -0.278320 -0.315480 
#    y -0.278320 2.425880 0.712160 
#    z -0.315480 0.712160 2.615300 
# 
# From -- ./inp_files/356353.got.cif
#   From: 2010.05.17/outbox.cif.g08.bks.cpg/sg2_179_cif.got.tgz:356353.got - 2010.06.03 11:33:40.
