data_PCOD9109946
_publ_section_title
;
Structure prediction by ZEFSAII (Michael W. Deem and Ramdas Pophale) SiO2 
 PCOD9109946
Probable space group: P -1
;
_chemical_formula_sum "Si O2"
_cell_formula_units_Z 14
_cell_length_a 9.889887
_cell_length_b 11.173903
_cell_length_c 9.746719
_cell_angle_alpha 140.968469
_cell_angle_beta 66.010295
_cell_angle_gamma 113.719194
_cell_volume 612.674826
_symmetry_space_group_name_H-M "P -1"
_symmetry_group_IT_number 2
_symmetry_cell_setting 'triclinic'
loop_
_space_group_symop_operation_xyz
x,y,z
-x,-y,-z
loop_
_atom_site_type_symbol
_atom_site_label
_atom_site_fract_x
_atom_site_fract_y
_atom_site_fract_z
Si Si1 0.860948 0.297103 0.306528
Si Si2 0.437403 0.278248 0.311529
Si Si3 0.416820 0.995936 0.844247
Si Si4 0.900913 0.726276 0.624328
Si Si5 0.708160 0.367586 0.728700
Si Si6 0.115478 0.933620 0.501917
Si Si7 0.635663 0.778998 0.208229
O O1 0.894308 0.497493 0.390545
O O2 0.783190 0.346660 0.529131
O O3 0.022894 0.245713 0.232929
O O4 0.740972 0.126607 0.146251
O O5 0.500000 0.500000 0.500000
O O6 0.266334 0.250185 0.314543
O O7 0.474308 0.163828 0.328901
O O8 0.497838 0.169107 0.060157
O O9 0.379310 0.085812 0.796819
O O10 0.007888 0.875062 0.622576
O O11 0.796944 0.254651 0.703488
O O12 0.300031 0.412853 0.034489
O O13 0.533595 0.274535 0.715428
O O14 0.247524 0.104960 0.633304
O O15 0.000000 0.000000 0.500000
#
# Coordination Sequence:
#
# PCOD9109946 Si02
#       7
#     2   2   2   2   2   2   2
#     4  10  20  41  68  94 128 168 220 264 324 384
#     4  11  24  41  61  97 134 165 212 278 324 377
#     4  11  23  40  65  97 125 170 227 254 328 397
#     4  10  21  41  63  94 129 172 204 273 328 371
#     4  10  23  43  67  97 130 169 223 275 310 386
#     4  11  25  44  66  98 132 171 216 268 332 387
#     4  11  23  43  69  95 123 182 222 261 326 389
#
# _framework density 22.850621
#
# number of rings (size 3 to 8) (size 9 to 14) (size 15 to 20)
#    0.000    1.429    4.286    1.286    2.000    1.143 
#   10.286    0.000    0.000    0.000    0.000    0.000 
#    0.000    0.000    0.000    0.000    0.000    0.000 
#
# Total GULP energy -78122.756398 kJ/mol
# GULP energy per Si atom -5580.196886 kJ/mol
# Density = 2.279861 g / cm^3
# Si number density = 22.850621 Si / 1000 Ang^3
#
#
#
# Elastic Constant Matrix: (Units=GPa)
#
#
# Indices 1 2 3 4 5 6 
#
# 1 183.8478 41.5991 53.0856 15.4129 -11.6120 -26.6692
# 2 41.5991 64.6401 30.7325 20.9087 1.7972 2.9028
# 3 53.0856 30.7325 103.9674 35.6949 -2.1277 -9.6812
# 4 15.4129 20.9087 35.6949 30.2712 -2.2222 -1.6796
# 5 -11.6120 1.7972 -2.1277 -2.2222 33.2022 8.8279
# 6 -26.6692 2.9028 -9.6812 -1.6796 8.8279 47.3000
#
#
#
# Elastic Compliance Matrix: (Units=1/GPa)
#
#
# Indices 1 2 3 4 5 6 
#
# 1 0.007925 -0.004903 -0.003533 0.003880 0.002060 0.003799
# 2 -0.004903 0.023475 -0.000038 -0.014112 -0.002819 -0.004188
# 3 -0.003533 -0.000038 0.018345 -0.019858 -0.001756 0.001388
# 4 0.003880 -0.014112 -0.019858 0.064615 0.005084 0.000335
# 5 0.002060 -0.002819 -0.001756 0.005084 0.032526 -0.004915
# 6 0.003799 -0.004188 0.001388 0.000335 -0.004915 0.024754
#
#
# Mechanical properties :
#
#
# Convention : Reuss Voigt Hill
#
# Bulk Modulus (GPa) = 30.49157 67.03220 48.76188
# Shear Modulus (GPa) = 25.06000 37.29056 31.17528
#
# Velocity S-wave (km/s) = 3.31522 4.04409 3.69766
# Velocity P-wave (km/s) = 5.29406 7.15576 6.29412
#
# Compressibility (1/GPa) = 0.03279595
#
# Stress axis : x y z
#
# Youngs Moduli (GPa) = 126.18454 42.59835 54.51087
#
# Poissons Ratio (x) = 0.20887 0.19260
# Poissons Ratio (y) = 0.61870 0.00208
# Poissons Ratio (z) = 0.44584 0.00162
#
# Static dielectric constant tensor:
#      x y z
#    x 1.912650 -0.008770 -0.059980 
#    y -0.008770 1.890910 -0.062370 
#    z -0.059980 -0.062370 2.012790 
# 
# From -- ./inp_files/424466.got.cif
#   From: 2010.05.17/outbox.cif.g08.bks.cpg/sg2_213_cif.got.tgz:424466.got - 2010.06.03 11:33:40.
