data_PCOD9109224
_publ_section_title
;
Structure prediction by ZEFSAII (Michael W. Deem and Ramdas Pophale) SiO2 
 PCOD9109224
Probable space group: P -1
;
_chemical_formula_sum "Si O2"
_cell_formula_units_Z 14
_cell_length_a 8.612058
_cell_length_b 8.807807
_cell_length_c 9.797939
_cell_angle_alpha 101.303806
_cell_angle_beta 58.087640
_cell_angle_gamma 92.550377
_cell_volume 617.076311
_symmetry_space_group_name_H-M "P -1"
_symmetry_group_IT_number 2
_symmetry_cell_setting 'triclinic'
loop_
_space_group_symop_operation_xyz
x,y,z
-x,-y,-z
loop_
_atom_site_type_symbol
_atom_site_label
_atom_site_fract_x
_atom_site_fract_y
_atom_site_fract_z
Si Si1 0.159328 0.537570 0.535767
Si Si2 0.256233 0.214758 0.562727
Si Si3 0.128593 0.604952 0.863939
Si Si4 0.461967 0.364460 0.712898
Si Si5 0.678733 0.926880 0.770939
Si Si6 0.513656 0.759892 0.034354
Si Si7 0.128129 0.825894 0.129821
O O1 0.258568 0.375775 0.509973
O O2 0.080450 0.612366 0.727495
O O3 0.321551 0.626279 0.407456
O O4 0.000000 0.500000 0.500000
O O5 0.400926 0.226063 0.619051
O O6 0.273401 0.091334 0.412204
O O7 0.059499 0.213393 0.723182
O O8 0.332322 0.516849 0.759210
O O9 0.124560 0.773755 0.965531
O O10 0.000000 0.500000 0.000000
O O11 0.416158 0.336689 0.887354
O O12 0.624636 0.771859 0.845267
O O13 0.830575 0.003309 0.807083
O O14 0.509568 0.058612 0.876007
O O15 0.305198 0.724869 0.090506
#
# Coordination Sequence:
#
# PCOD9109224 Si02
#       7
#     2   2   2   2   2   2   2
#     4  11  25  41  62  97 127 161 205 253 320 372
#     4  11  21  41  63  89 129 161 205 257 306 368
#     4  11  22  41  65  91 130 159 202 263 307 372
#     4  11  24  38  64  95 124 163 205 254 322 359
#     4   9  22  40  65  85 121 168 213 249 307 358
#     4   9  22  40  61  90 119 164 212 252 304 368
#     4  10  20  41  64  86 124 167 202 253 307 362
#
# _framework density 22.687631
#
# number of rings (size 3 to 8) (size 9 to 14) (size 15 to 20)
#    0.857    0.857    2.857    3.000    4.000    2.286 
#    0.000    0.714    0.000    0.000    0.000    0.000 
#    0.000    0.000    0.000    0.000    0.000    0.000 
#
# Total GULP energy -78051.566452 kJ/mol
# GULP energy per Si atom -5575.111889 kJ/mol
# Density = 2.263599 g / cm^3
# Si number density = 22.687631 Si / 1000 Ang^3
#
#
#
# Elastic Constant Matrix: (Units=GPa)
#
#
# Indices 1 2 3 4 5 6 
#
# 1 139.8187 28.8614 72.5572 -12.8121 27.8860 26.0217
# 2 28.8614 6.5666 17.0396 -11.2494 -19.6346 3.4750
# 3 72.5572 17.0396 166.3773 6.2911 26.2750 19.6164
# 4 -12.8121 -11.2494 6.2911 30.6577 4.2467 5.6148
# 5 27.8860 -19.6346 26.2750 4.2467 -0.3216 -10.8271
# 6 26.0217 3.4750 19.6164 5.6148 -10.8271 28.4661
#
#
#
# Elastic Compliance Matrix: (Units=1/GPa)
#
#
# Indices 1 2 3 4 5 6 
#
# 1 0.008508 0.009341 -0.005281 0.008182 0.005510 -0.004796
# 2 0.009341 0.046237 0.002003 0.034276 -0.046733 -0.040099
# 3 -0.005281 0.002003 0.007891 -0.003437 0.001815 0.000513
# 4 0.008182 0.034276 -0.003437 0.056522 -0.016613 -0.026763
# 5 0.005510 -0.046733 0.001815 -0.016613 0.004332 0.004341
# 6 -0.004796 -0.040099 0.000513 -0.026763 0.004341 0.050985
#
#
# Mechanical properties :
#
#
# Convention : Reuss Voigt Hill
#
# Bulk Modulus (GPa) = 13.37582 61.07543 37.22563
# Shear Modulus (GPa) = 26.69927 24.71407 25.70667
#
# Velocity S-wave (km/s) = 3.43420 3.30406 3.36976
# Velocity P-wave (km/s) = 4.65118 6.44472 5.61996
#
# Compressibility (1/GPa) = 0.07476177
#
# Stress axis : x y z
#
# Youngs Moduli (GPa) = 117.53758 21.62756 126.72581
#
# Poissons Ratio (x) = -0.20201 0.66924
# Poissons Ratio (y) = -1.09786 -0.25386
# Poissons Ratio (z) = 0.62072 -0.04333
#
# Static dielectric constant tensor:
#      x y z
#    x 1.905810 0.091780 0.024630 
#    y 0.091780 1.941030 0.029310 
#    z 0.024630 0.029310 1.886510 
# 
# From -- ./inp_files/164594.got.cif
#   From: 2010.05.17/outbox.cif.g08.bks.cpg/sg2_83_cif.got.tgz:164594.got - 2010.06.03 11:33:40.
