data_PCOD9109951
_publ_section_title
;
Structure prediction by ZEFSAII (Michael W. Deem and Ramdas Pophale) SiO2 
 PCOD9109951
Probable space group: P -1
;
_chemical_formula_sum "Si O2"
_cell_formula_units_Z 15
_cell_length_a 9.003019
_cell_length_b 12.726781
_cell_length_c 13.829363
_cell_angle_alpha 116.834340
_cell_angle_beta 108.261401
_cell_angle_gamma 127.722563
_cell_volume 614.923216
_symmetry_space_group_name_H-M "P -1"
_symmetry_group_IT_number 2
_symmetry_cell_setting 'triclinic'
loop_
_space_group_symop_operation_xyz
x,y,z
-x,-y,-z
loop_
_atom_site_type_symbol
_atom_site_label
_atom_site_fract_x
_atom_site_fract_y
_atom_site_fract_z
Si Si1 0.634356 0.771742 0.083056
Si Si2 0.873418 0.545967 0.465434
Si Si3 0.226036 0.057640 0.013885
Si Si4 0.500000 0.500000 0.500000
Si Si5 0.311665 0.312974 0.744829
Si Si6 0.232715 0.447784 0.239909
Si Si7 0.288245 0.945583 0.567259
Si Si8 0.918489 0.397113 0.767248
O O1 0.768879 0.819752 0.233018
O O2 0.868589 0.990725 0.139618
O O3 0.493651 0.555997 0.918366
O O4 0.309837 0.638459 0.973415
O O5 0.608912 0.346903 0.239359
O O6 0.680156 0.495764 0.484852
O O7 0.000000 0.500000 0.500000
O O8 0.184652 0.829460 0.602432
O O9 0.000000 0.000000 0.000000
O O10 0.120859 0.860886 0.950205
O O11 0.467231 0.537907 0.402283
O O12 0.585707 0.444561 0.781432
O O13 0.961468 0.115822 0.540334
O O14 0.157074 0.532858 0.274052
O O15 0.193871 0.781162 0.402051
O O16 0.680704 0.233634 0.745489
#
# Coordination Sequence:
#
# PCOD9109951 Si02
#       8
#     2   2   2   1   2   2   2   2
#     4  10  21  41  67  97 131 184 231 282 351 426
#     4  12  25  47  74 108 146 191 243 299 364 432
#     4  12  22  48  71 100 146 188 233 297 367 429
#     4  12  24  44  72 112 146 188 248 292 364 434
#     4  10  20  41  68  94 134 178 233 278 346 418
#     4  12  25  43  71 104 143 182 235 297 352 433
#     4  10  20  47  65  94 141 186 225 294 357 422
#     4  10  23  41  69  98 137 180 236 290 358 421
#
# _framework density 24.393287999999998
#
# number of rings (size 3 to 8) (size 9 to 14) (size 15 to 20)
#    0.000    1.067    6.667    0.800    0.000    3.733 
#    7.200    0.000    0.000    0.000    0.000    0.000 
#    0.000    0.000    0.000    0.000    0.000    0.000 
#
# Total GULP energy -83771.449323 kJ/mol
# GULP energy per Si atom -5584.763288 kJ/mol
# Density = 2.433777 g / cm^3
# Si number density = 24.393288 Si / 1000 Ang^3
#
#
#
# Elastic Constant Matrix: (Units=GPa)
#
#
# Indices 1 2 3 4 5 6 
#
# 1 141.3726 57.5721 32.4985 -11.5233 14.2172 -10.4598
# 2 57.5721 163.6898 16.3490 6.5189 13.6733 2.4242
# 3 32.4985 16.3490 34.7648 0.9014 -12.3189 -2.6461
# 4 -11.5233 6.5189 0.9014 35.9068 1.9603 9.6701
# 5 14.2172 13.6733 -12.3189 1.9603 37.1623 -7.0593
# 6 -10.4598 2.4242 -2.6461 9.6701 -7.0593 47.6363
#
#
#
# Elastic Compliance Matrix: (Units=1/GPa)
#
#
# Indices 1 2 3 4 5 6 
#
# 1 0.012600 -0.002517 -0.013888 0.005408 -0.008837 -0.000284
# 2 -0.002517 0.007513 -0.002155 -0.001676 -0.002637 -0.001105
# 3 -0.013888 -0.002155 0.052176 -0.008157 0.024838 0.005295
# 4 0.005408 -0.001676 -0.008157 0.032317 -0.007153 -0.006801
# 5 -0.008837 -0.002637 0.024838 -0.007153 0.041226 0.007135
# 6 -0.000284 -0.001105 0.005295 -0.006801 0.007135 0.023718
#
#
# Mechanical properties :
#
#
# Convention : Reuss Voigt Hill
#
# Bulk Modulus (GPa) = 28.43415 61.40737 44.92076
# Shear Modulus (GPa) = 22.89446 39.70160 31.29803
#
# Velocity S-wave (km/s) = 3.06691 4.03868 3.58587
# Velocity P-wave (km/s) = 4.92170 6.85394 5.96656
#
# Compressibility (1/GPa) = 0.03516898
#
# Stress axis : x y z
#
# Youngs Moduli (GPa) = 79.36757 133.09913 19.16576
#
# Poissons Ratio (x) = 0.33507 0.26617
# Poissons Ratio (y) = 0.19980 0.04131
# Poissons Ratio (z) = 1.10222 0.28685
#
# Static dielectric constant tensor:
#      x y z
#    x 1.874830 0.036200 -0.091680 
#    y 0.036200 2.019620 0.074040 
#    z -0.091680 0.074040 1.961380 
# 
# From -- ./inp_files/184155.got.cif
#   From: 2010.05.17/outbox.cif.g08.bks.cpg/sg2_93_cif.got.tgz:184155.got - 2010.06.03 11:33:40.
