data_PCOD9109541
_publ_section_title
;
Structure prediction by ZEFSAII (Michael W. Deem and Ramdas Pophale) SiO2 
 PCOD9109541
Probable space group: P -1
;
_chemical_formula_sum "Si O2"
_cell_formula_units_Z 14
_cell_length_a 17.069286
_cell_length_b 7.929618
_cell_length_c 12.848355
_cell_angle_alpha 113.969567
_cell_angle_beta 158.126107
_cell_angle_gamma 65.339615
_cell_volume 587.889125
_symmetry_space_group_name_H-M "P -1"
_symmetry_group_IT_number 2
_symmetry_cell_setting 'triclinic'
loop_
_space_group_symop_operation_xyz
x,y,z
-x,-y,-z
loop_
_atom_site_type_symbol
_atom_site_label
_atom_site_fract_x
_atom_site_fract_y
_atom_site_fract_z
Si Si1 0.808757 0.025532 0.192615
Si Si2 0.270900 0.111594 0.243900
Si Si3 0.942291 0.565738 0.825651
Si Si4 0.372399 0.717954 0.653237
Si Si5 0.430865 0.299968 0.890590
Si Si6 0.688923 0.653688 0.855431
Si Si7 0.060139 0.096353 0.327165
O O1 0.890038 0.126189 0.217654
O O2 0.604395 0.143823 0.016829
O O3 0.000000 0.000000 0.500000
O O4 0.773594 0.817535 0.066943
O O5 0.191317 0.234454 0.276203
O O6 0.306406 0.253483 0.228796
O O7 0.500000 0.000000 0.500000
O O8 0.087293 0.980541 0.962206
O O9 0.794720 0.423160 0.560170
O O10 0.000000 0.500000 0.000000
O O11 0.157012 0.537163 0.015576
O O12 0.472944 0.641571 0.647885
O O13 0.233746 0.916714 0.519128
O O14 0.542834 0.722277 0.957066
O O15 0.204727 0.263696 0.554525
O O16 0.500000 0.500000 0.000000
#
# Coordination Sequence:
#
# PCOD9109541 Si02
#       7
#     2   2   2   2   2   2   2
#     4  11  19  38  68  97 134 179 229 275 335 410
#     4  10  23  45  71 101 144 178 222 291 346 400
#     4  10  20  41  66 102 135 170 235 278 327 406
#     4  12  21  41  72 103 130 184 233 273 340 416
#     4  12  27  43  68 104 142 178 229 292 346 401
#     4  10  21  37  70 100 128 175 230 276 325 409
#     4  11  22  43  72  99 135 187 231 274 346 421
#
# _framework density 23.814014
#
# number of rings (size 3 to 8) (size 9 to 14) (size 15 to 20)
#    0.000    1.143    7.143    1.286    0.000    5.143 
#    0.000    5.000    0.000    0.000    0.000    0.000 
#    0.000    0.000    0.000    0.000    0.000    0.000 
#
# Total GULP energy -78211.953744 kJ/mol
# GULP energy per Si atom -5586.568125 kJ/mol
# Density = 2.375981 g / cm^3
# Si number density = 23.814014 Si / 1000 Ang^3
#
#
#
# Elastic Constant Matrix: (Units=GPa)
#
#
# Indices 1 2 3 4 5 6 
#
# 1 83.6102 30.9935 15.0938 -8.1988 27.2090 -21.7768
# 2 30.9935 109.8014 51.2492 3.6057 1.9190 -17.9341
# 3 15.0938 51.2492 110.8534 11.6004 6.9095 -1.6402
# 4 -8.1988 3.6057 11.6004 40.4778 -6.0521 9.7539
# 5 27.2090 1.9190 6.9095 -6.0521 34.4224 -1.3864
# 6 -21.7768 -17.9341 -1.6402 9.7539 -1.3864 31.4157
#
#
#
# Elastic Compliance Matrix: (Units=1/GPa)
#
#
# Indices 1 2 3 4 5 6 
#
# 1 0.022088 -0.003918 0.000123 -0.000768 -0.016894 0.012574
# 2 -0.003918 0.013804 -0.005874 -0.001103 0.003528 0.005356
# 3 0.000123 -0.005874 0.012171 -0.002912 -0.002800 -0.001851
# 4 -0.000768 -0.001103 -0.002912 0.028772 0.005910 -0.009987
# 5 -0.016894 0.003528 -0.002800 0.005910 0.043416 -0.009762
# 6 0.012574 0.005356 -0.001851 -0.009987 -0.009762 0.046178
#
#
# Mechanical properties :
#
#
# Convention : Reuss Voigt Hill
#
# Bulk Modulus (GPa) = 34.81091 55.43756 45.12423
# Shear Modulus (GPa) = 25.59623 35.05842 30.32733
#
# Velocity S-wave (km/s) = 3.28203 3.84106 3.57250
# Velocity P-wave (km/s) = 5.38627 6.55756 6.00056
#
# Compressibility (1/GPa) = 0.02872663
#
# Stress axis : x y z
#
# Youngs Moduli (GPa) = 45.27407 72.44217 82.15926
#
# Poissons Ratio (x) = 0.28384 -0.01014
# Poissons Ratio (y) = 0.17739 0.48257
# Poissons Ratio (z) = -0.00559 0.42550
#
# Static dielectric constant tensor:
#      x y z
#    x 1.994490 0.079890 -0.010740 
#    y 0.079890 1.984560 0.009510 
#    z -0.010740 0.009510 1.912250 
# 
# From -- ./inp_files/537529.got.cif
#   From: 2010.05.17/outbox.cif.g08.bks.cpg/sg2_269_cif.got.tgz:537529.got - 2010.06.03 11:33:40.
