data_PCOD9109964
_publ_section_title
;
Structure prediction by ZEFSAII (Michael W. Deem and Ramdas Pophale) SiO2 
 PCOD9109964
Probable space group: P -1
;
_chemical_formula_sum "Si O2"
_cell_formula_units_Z 16
_cell_length_a 11.983907
_cell_length_b 8.302839
_cell_length_c 7.087766
_cell_angle_alpha 96.943257
_cell_angle_beta 91.805425
_cell_angle_gamma 87.827904
_cell_volume 699.303233
_symmetry_space_group_name_H-M "P -1"
_symmetry_group_IT_number 2
_symmetry_cell_setting 'triclinic'
loop_
_space_group_symop_operation_xyz
x,y,z
-x,-y,-z
loop_
_atom_site_type_symbol
_atom_site_label
_atom_site_fract_x
_atom_site_fract_y
_atom_site_fract_z
Si Si1 0.784184 0.481196 0.183526
Si Si2 0.008270 0.332954 0.759398
Si Si3 0.544928 0.445062 0.699703
Si Si4 0.785669 0.511833 0.634922
Si Si5 0.238206 0.124872 0.138792
Si Si6 0.071738 0.119793 0.401951
Si Si7 0.585736 0.704688 0.032690
Si Si8 0.893861 0.155265 0.064097
O O1 0.768092 0.503659 0.408712
O O2 0.689727 0.590097 0.093776
O O3 0.796027 0.290902 0.111753
O O4 0.903057 0.547974 0.130535
O O5 0.902228 0.425595 0.677926
O O6 0.958733 0.205294 0.884492
O O7 0.079184 0.259195 0.577167
O O8 0.500000 0.500000 0.500000
O O9 0.678208 0.422001 0.695089
O O10 0.490602 0.294221 0.783469
O O11 0.523310 0.603236 0.854798
O O12 0.784863 0.689478 0.759487
O O13 0.357480 0.142867 0.044831
O O14 0.162873 0.019794 0.977861
O O15 0.190735 0.048246 0.321336
O O16 0.987662 0.168134 0.232994
O O17 0.000000 0.000000 0.500000
#
# Coordination Sequence:
#
# PCOD9109964 Si02
#       8
#     2   2   2   2   2   2   2   2
#     4  12  22  40  66  96 133 171 212 266 316 381
#     4  12  24  42  63  95 135 173 214 263 315 387
#     4  10  20  41  68  96 123 162 218 275 319 366
#     4  11  22  41  68  96 126 169 218 264 319 381
#     4  11  23  39  60  92 129 167 212 261 320 378
#     4  12  24  39  58  91 133 177 214 258 316 386
#     4  10  23  40  67  99 124 164 221 269 315 382
#     4  12  25  39  60  89 132 177 210 257 323 382
#
# _framework density 22.879916999999999
#
# number of rings (size 3 to 8) (size 9 to 14) (size 15 to 20)
#    0.000    0.750    5.000    4.125    1.750    0.000 
#    0.000    0.000    0.000   12.750    0.000    0.000 
#    0.000    0.000    0.000    0.000    0.000    0.000 
#
# Total GULP energy -89187.006090 kJ/mol
# GULP energy per Si atom -5574.187881 kJ/mol
# Density = 2.282784 g / cm^3
# Si number density = 22.879917 Si / 1000 Ang^3
#
#
#
# Elastic Constant Matrix: (Units=GPa)
#
#
# Indices 1 2 3 4 5 6 
#
# 1 76.8668 18.6156 8.7245 -4.7525 -17.5681 30.8534
# 2 18.6156 56.9629 21.1358 3.4476 -11.6488 30.8572
# 3 8.7245 21.1358 134.9339 -15.1989 -7.5975 16.7836
# 4 -4.7525 3.4476 -15.1989 32.6323 4.2316 -11.3331
# 5 -17.5681 -11.6488 -7.5975 4.2316 39.4067 -17.8154
# 6 30.8534 30.8572 16.7836 -11.3331 -17.8154 40.1421
#
#
#
# Elastic Compliance Matrix: (Units=1/GPa)
#
#
# Indices 1 2 3 4 5 6 
#
# 1 0.019730 0.004546 -0.000013 -0.004481 0.002018 -0.019023
# 2 0.004546 0.038410 -0.003790 -0.017892 -0.002407 -0.037554
# 3 -0.000013 -0.003790 0.008436 0.004576 0.000400 0.000866
# 4 -0.004481 -0.017892 0.004576 0.043644 0.001738 0.028377
# 5 0.002018 -0.002407 0.000400 0.001738 0.032197 0.014911
# 6 -0.019023 -0.037554 0.000866 0.028377 0.014911 0.082668
#
#
# Mechanical properties :
#
#
# Convention : Reuss Voigt Hill
#
# Bulk Modulus (GPa) = 14.69255 40.63504 27.66379
# Shear Modulus (GPa) = 20.30166 37.12206 28.71186
#
# Velocity S-wave (km/s) = 2.98201 4.03236 3.54629
# Velocity P-wave (km/s) = 4.27692 6.28320 5.37451
#
# Compressibility (1/GPa) = 0.06806171
#
# Stress axis : x y z
#
# Youngs Moduli (GPa) = 50.68467 26.03469 118.54147
#
# Poissons Ratio (x) = -0.11834 0.00150
# Poissons Ratio (y) = -0.23039 0.44928
# Poissons Ratio (z) = 0.00064 0.09867
#
# Static dielectric constant tensor:
#      x y z
#    x 1.928340 0.037950 -0.039030 
#    y 0.037950 2.064080 0.012940 
#    z -0.039030 0.012940 1.961230 
# 
# From -- ./inp_files/239765.got.cif
#   From: 2010.05.17/outbox.cif.g08.bks.cpg/sg2_120_cif.got.tgz:239765.got - 2010.06.03 11:33:40.
