data_PCOD9109848
_publ_section_title
;
Structure prediction by ZEFSAII (Michael W. Deem and Ramdas Pophale) SiO2 
 PCOD9109848
Probable space group: P -1
;
_chemical_formula_sum "Si O2"
_cell_formula_units_Z 15
_cell_length_a 6.152181
_cell_length_b 8.221696
_cell_length_c 19.187735
_cell_angle_alpha 121.756249
_cell_angle_beta 111.283307
_cell_angle_gamma 105.950533
_cell_volume 622.003140
_symmetry_space_group_name_H-M "P -1"
_symmetry_group_IT_number 2
_symmetry_cell_setting 'triclinic'
loop_
_space_group_symop_operation_xyz
x,y,z
-x,-y,-z
loop_
_atom_site_type_symbol
_atom_site_label
_atom_site_fract_x
_atom_site_fract_y
_atom_site_fract_z
Si Si1 0.500000 0.000000 0.000000
Si Si2 0.059795 0.698609 0.650749
Si Si3 0.304920 0.910494 0.232350
Si Si4 0.535051 0.078705 0.601037
Si Si5 0.261983 0.247193 0.951282
Si Si6 0.845640 0.607027 0.880852
Si Si7 0.071950 0.272069 0.509126
Si Si8 0.297310 0.449686 0.293040
O O1 0.636547 0.918720 0.058386
O O2 0.823594 0.227798 0.066633
O O3 0.995423 0.443621 0.571196
O O4 0.921697 0.727340 0.573164
O O5 0.919717 0.705738 0.706335
O O6 0.402993 0.895338 0.730484
O O7 0.362166 0.001337 0.340144
O O8 0.265456 0.660914 0.174892
O O9 0.027472 0.864767 0.152946
O O10 0.767168 0.359843 0.689468
O O11 0.500000 0.000000 0.500000
O O12 0.211672 0.987265 0.564819
O O13 0.500000 0.500000 0.000000
O O14 0.201603 0.295907 0.033214
O O15 0.688542 0.629839 0.800666
O O16 0.389230 0.392379 0.600751
#
# Coordination Sequence:
#
# PCOD9109848 Si02
#       8
#     1   2   2   2   2   2   2   2
#     4  12  28  50  78 108 144 188 254 312 376 438
#     4  10  22  40  64  98 141 183 240 297 358 447
#     4  10  24  46  71 104 145 196 240 300 377 439
#     4  10  20  41  67  97 143 187 238 295 358 437
#     4  12  27  51  79 106 150 192 248 314 373 449
#     4  11  27  47  71 109 146 188 247 305 377 443
#     4  10  21  39  62  95 140 184 237 298 357 432
#     4  11  23  39  68 100 136 189 238 297 368 435
#
# _framework density 24.115632999999999
#
# number of rings (size 3 to 8) (size 9 to 14) (size 15 to 20)
#    0.000    1.333    2.667    1.600    3.733    2.133 
#    0.000    0.000    0.000    0.000    0.000    0.000 
#    0.000    0.000    0.000    0.000    0.000    0.000 
#
# Total GULP energy -83536.133144 kJ/mol
# GULP energy per Si atom -5569.075543 kJ/mol
# Density = 2.406075 g / cm^3
# Si number density = 24.115633 Si / 1000 Ang^3
#
#
#
# Elastic Constant Matrix: (Units=GPa)
#
#
# Indices 1 2 3 4 5 6 
#
# 1 36.2700 47.0645 60.7180 -19.3186 12.2243 9.5424
# 2 47.0645 151.5163 78.1195 -14.6343 11.0556 35.6401
# 3 60.7180 78.1195 174.3295 -31.1384 36.2864 21.0324
# 4 -19.3186 -14.6343 -31.1384 53.7692 -6.1370 4.3549
# 5 12.2243 11.0556 36.2864 -6.1370 49.3159 0.9435
# 6 9.5424 35.6401 21.0324 4.3549 0.9435 29.8637
#
#
#
# Elastic Compliance Matrix: (Units=1/GPa)
#
#
# Indices 1 2 3 4 5 6 
#
# 1 0.097547 -0.017445 -0.023508 0.016256 -0.001023 0.003868
# 2 -0.017445 0.014264 0.000839 -0.000861 0.000630 -0.011934
# 3 -0.023508 0.000839 0.015232 0.000312 -0.005452 -0.004090
# 4 0.016256 -0.000861 0.000312 0.024940 -0.000810 -0.007998
# 5 -0.001023 0.000630 -0.005452 -0.000810 0.024247 0.002766
# 6 0.003868 -0.011934 -0.004090 -0.007998 0.002766 0.050452
#
#
# Mechanical properties :
#
#
# Convention : Reuss Voigt Hill
#
# Bulk Modulus (GPa) = 21.36067 81.54665 51.45366
# Shear Modulus (GPa) = 15.50307 38.33734 26.92020
#
# Velocity S-wave (km/s) = 2.53823 3.99147 3.34473
# Velocity P-wave (km/s) = 4.17935 7.42500 6.02485
#
# Compressibility (1/GPa) = 0.04681501
#
# Stress axis : x y z
#
# Youngs Moduli (GPa) = 10.25146 70.10462 65.65087
#
# Poissons Ratio (x) = 1.22299 1.54331
# Poissons Ratio (y) = 0.17884 -0.05507
# Poissons Ratio (z) = 0.24099 -0.05880
#
# Static dielectric constant tensor:
#      x y z
#    x 1.921550 -0.073540 -0.035760 
#    y -0.073540 1.988180 -0.002090 
#    z -0.035760 -0.002090 1.961880 
# 
# From -- ./inp_files/44138.got.cif
#   From: 2010.05.17/outbox.cif.g08.bks.cpg/sg2_23_cif.got.tgz:44138.got - 2010.06.03 11:33:40.
