data_PCOD9109070
_publ_section_title
;
Structure prediction by ZEFSAII (Michael W. Deem and Ramdas Pophale) SiO2 
 PCOD9109070
Probable space group: P -1
;
_chemical_formula_sum "Si O2"
_cell_formula_units_Z 14
_cell_length_a 15.008133
_cell_length_b 7.217771
_cell_length_c 9.116463
_cell_angle_alpha 48.836465
_cell_angle_beta 55.410032
_cell_angle_gamma 81.158091
_cell_volume 572.196864
_symmetry_space_group_name_H-M "P -1"
_symmetry_group_IT_number 2
_symmetry_cell_setting 'triclinic'
loop_
_space_group_symop_operation_xyz
x,y,z
-x,-y,-z
loop_
_atom_site_type_symbol
_atom_site_label
_atom_site_fract_x
_atom_site_fract_y
_atom_site_fract_z
Si Si1 0.436361 0.917131 0.754881
Si Si2 0.307554 0.313551 0.716566
Si Si3 0.184993 0.976244 0.244299
Si Si4 0.880388 0.781909 0.276451
Si Si5 0.821211 0.444973 0.780588
Si Si6 0.602458 0.068596 0.753985
Si Si7 0.986610 0.412756 0.226784
O O1 0.397660 0.159435 0.723239
O O2 0.538045 0.886829 0.774944
O O3 0.500000 0.000000 0.500000
O O4 0.315890 0.669304 0.998309
O O5 0.230757 0.186786 0.710377
O O6 0.359387 0.624835 0.485482
O O7 0.224413 0.244328 0.973880
O O8 0.159156 0.770158 0.237840
O O9 0.294031 0.984926 0.234961
O O10 0.080574 0.885971 0.503562
O O11 0.861027 0.706041 0.504548
O O12 0.893466 0.533707 0.311297
O O13 0.000000 0.000000 0.000000
O O14 0.899586 0.477074 0.834764
O O15 0.500000 0.000000 0.000000
O O16 0.000000 0.500000 0.000000
#
# Coordination Sequence:
#
# PCOD9109070 Si02
#       7
#     2   2   2   2   2   2   2
#     4  11  25  40  64  93 133 169 207 271 322 367
#     4  11  21  40  70  94 122 174 223 254 313 385
#     4  10  21  40  66  92 126 171 213 259 316 383
#     4  11  20  39  67  92 122 167 221 256 308 399
#     4  10  20  41  62  90 127 171 209 254 321 385
#     4  12  21  42  67  93 125 168 226 257 306 388
#     4  11  23  40  65  94 131 163 205 276 326 367
#
# _framework density 24.467103999999999
#
# number of rings (size 3 to 8) (size 9 to 14) (size 15 to 20)
#    0.000    1.143    5.714    4.714    2.000    0.000 
#    0.000    7.143    0.000    0.000    0.000    0.000 
#    0.000    0.000    0.000    0.000    0.000    0.000 
#
# Total GULP energy -78190.107258 kJ/mol
# GULP energy per Si atom -5585.007661 kJ/mol
# Density = 2.441142 g / cm^3
# Si number density = 24.467104 Si / 1000 Ang^3
#
#
#
# Elastic Constant Matrix: (Units=GPa)
#
#
# Indices 1 2 3 4 5 6 
#
# 1 204.2640 32.3946 74.6659 -1.1736 6.6058 45.9427
# 2 32.3946 36.6788 29.5882 15.2550 4.1903 9.4397
# 3 74.6659 29.5882 258.4660 1.2002 13.9849 32.1982
# 4 -1.1736 15.2550 1.2002 35.2665 13.1017 11.8499
# 5 6.6058 4.1903 13.9849 13.1017 42.8389 2.0737
# 6 45.9427 9.4397 32.1982 11.8499 2.0737 41.3389
#
#
#
# Elastic Compliance Matrix: (Units=1/GPa)
#
#
# Indices 1 2 3 4 5 6 
#
# 1 0.008501 -0.007770 -0.000284 0.007742 -0.002363 -0.009553
# 2 -0.007770 0.044748 -0.004072 -0.024160 0.005140 0.008257
# 3 -0.000284 -0.004072 0.004953 0.003543 -0.002088 -0.003522
# 4 0.007742 -0.024160 0.003543 0.051010 -0.014633 -0.019734
# 5 -0.002363 0.005140 -0.002088 -0.014633 0.028078 0.005865
# 6 -0.009553 0.008257 -0.003522 -0.019734 0.005865 0.041028
#
#
# Mechanical properties :
#
#
# Convention : Reuss Voigt Hill
#
# Bulk Modulus (GPa) = 29.45724 85.85624 57.65674
# Shear Modulus (GPa) = 23.37678 48.07289 35.72483
#
# Velocity S-wave (km/s) = 3.09437 4.43741 3.82529
# Velocity P-wave (km/s) = 4.98322 7.83714 6.56709
#
# Compressibility (1/GPa) = 0.03394751
#
# Stress axis : x y z
#
# Youngs Moduli (GPa) = 117.62728 22.34758 201.91322
#
# Poissons Ratio (x) = 0.17365 0.05743
# Poissons Ratio (y) = 0.91399 0.82227
# Poissons Ratio (z) = 0.03346 0.09101
#
# Static dielectric constant tensor:
#      x y z
#    x 2.050000 0.048710 0.114830 
#    y 0.048710 2.163680 -0.089400 
#    z 0.114830 -0.089400 2.111530 
# 
# From -- ./inp_files/188043.got.cif
#   From: 2010.05.17/outbox.cif.g08.bks.cpg/sg2_95_cif.got.tgz:188043.got - 2010.06.03 11:33:40.
