data_PCOD9109433
_publ_section_title
;
Structure prediction by ZEFSAII (Michael W. Deem and Ramdas Pophale) SiO2 
 PCOD9109433
Probable space group: P -1
;
_chemical_formula_sum "Si O2"
_cell_formula_units_Z 16
_cell_length_a 20.435191
_cell_length_b 17.126367
_cell_length_c 10.298651
_cell_angle_alpha 149.598443
_cell_angle_beta 39.797865
_cell_angle_gamma 157.409483
_cell_volume 693.359788
_symmetry_space_group_name_H-M "P -1"
_symmetry_group_IT_number 2
_symmetry_cell_setting 'triclinic'
loop_
_space_group_symop_operation_xyz
x,y,z
-x,-y,-z
loop_
_atom_site_type_symbol
_atom_site_label
_atom_site_fract_x
_atom_site_fract_y
_atom_site_fract_z
Si Si1 0.900569 0.816546 0.597469
Si Si2 0.405093 0.488382 0.234268
Si Si3 0.766556 0.192813 0.189115
Si Si4 0.168764 0.633286 0.229955
Si Si5 0.487064 0.842509 0.427520
Si Si6 0.471319 0.344086 0.132935
Si Si7 0.185383 0.647900 0.933436
Si Si8 0.793183 0.685083 0.279780
O O1 0.799038 0.782339 0.816529
O O2 0.849491 0.576726 0.349615
O O3 0.837757 0.783216 0.499854
O O4 0.101128 0.092131 0.670655
O O5 0.434580 0.692788 0.426420
O O6 0.500000 0.500000 0.000000
O O7 0.475136 0.515466 0.305079
O O8 0.639533 0.165810 0.407317
O O9 0.725873 0.169295 0.064262
O O10 0.972361 0.459880 0.284323
O O11 0.708917 0.953423 0.979322
O O12 0.310430 0.874072 0.456132
O O13 0.246889 0.750207 0.133033
O O14 0.161199 0.439859 0.984354
O O15 0.461097 0.690879 0.132942
O O16 0.595755 0.476280 0.253405
O O17 0.000000 0.500000 0.000000
#
# Coordination Sequence:
#
# PCOD9109433 Si02
#       8
#     2   2   2   2   2   2   2   2
#     4  10  20  41  65  91 132 168 209 272 328 382
#     4  10  23  43  62  90 132 172 213 264 318 389
#     4  11  21  39  65  92 126 168 209 266 321 371
#     4  10  22  39  64  97 128 167 212 267 322 386
#     4  11  23  43  62  91 133 166 219 266 314 386
#     4  11  24  41  61  94 128 167 221 263 314 392
#     4   9  20  37  64  96 124 160 219 261 321 392
#     4  10  22  39  65  96 129 167 214 270 330 378
#
# _framework density 23.076042000000001
#
# number of rings (size 3 to 8) (size 9 to 14) (size 15 to 20)
#    0.000    1.750    2.500    1.125    0.000    5.500 
#    4.500    1.250    0.000    0.000    0.000    0.000 
#    0.000    0.000    0.000    0.000    0.000    0.000 
#
# Total GULP energy -89249.759782 kJ/mol
# GULP energy per Si atom -5578.109986 kJ/mol
# Density = 2.302352 g / cm^3
# Si number density = 23.076042 Si / 1000 Ang^3
#
#
#
# Elastic Constant Matrix: (Units=GPa)
#
#
# Indices 1 2 3 4 5 6 
#
# 1 113.2400 22.2830 19.6274 8.5225 -20.7373 -10.7108
# 2 22.2830 119.0383 19.8360 -0.3820 1.7974 -4.5773
# 3 19.6274 19.8360 31.8767 0.4102 -5.1377 2.8845
# 4 8.5225 -0.3820 0.4102 25.5086 1.5792 -7.2384
# 5 -20.7373 1.7974 -5.1377 1.5792 32.3339 5.3714
# 6 -10.7108 -4.5773 2.8845 -7.2384 5.3714 39.9252
#
#
#
# Elastic Compliance Matrix: (Units=1/GPa)
#
#
# Indices 1 2 3 4 5 6 
#
# 1 0.011692 -0.001326 -0.005428 -0.003732 0.006591 0.001813
# 2 -0.001326 0.009738 -0.005856 0.001358 -0.002686 0.001791
# 3 -0.005428 -0.005856 0.039543 -0.000776 0.004109 -0.005678
# 4 -0.003732 0.001358 -0.000776 0.043074 -0.005996 0.007826
# 5 0.006591 -0.002686 0.004109 -0.005996 0.037065 -0.004910
# 6 0.001813 0.001791 -0.005678 0.007826 -0.004910 0.028228
#
#
# Mechanical properties :
#
#
# Convention : Reuss Voigt Hill
#
# Bulk Modulus (GPa) = 27.96905 43.07198 35.52051
# Shear Modulus (GPa) = 24.21563 33.04746 28.63154
#
# Velocity S-wave (km/s) = 3.24293 3.78843 3.52625
# Velocity P-wave (km/s) = 5.11555 6.15159 5.65734
#
# Compressibility (1/GPa) = 0.03575380
#
# Stress axis : x y z
#
# Youngs Moduli (GPa) = 85.52973 102.68528 25.28903
#
# Poissons Ratio (x) = 0.13616 0.13726
# Poissons Ratio (y) = 0.11341 0.14809
# Poissons Ratio (z) = 0.46423 0.60133
#
# Static dielectric constant tensor:
#      x y z
#    x 1.871340 -0.037090 0.022790 
#    y -0.037090 1.914020 -0.023910 
#    z 0.022790 -0.023910 1.786770 
# 
# From -- ./inp_files/472500.got.cif
#   From: 2010.05.17/outbox.cif.g08.bks.cpg/sg2_237_cif.got.tgz:472500.got - 2010.06.03 11:33:40.
