data_PCOD9109671
_publ_section_title
;
Structure prediction by ZEFSAII (Michael W. Deem and Ramdas Pophale) SiO2 
 PCOD9109671
Probable space group: P -1
;
_chemical_formula_sum "Si O2"
_cell_formula_units_Z 14
_cell_length_a 8.138473
_cell_length_b 7.048589
_cell_length_c 11.684635
_cell_angle_alpha 88.260044
_cell_angle_beta 53.238665
_cell_angle_gamma 93.504541
_cell_volume 534.104051
_symmetry_space_group_name_H-M "P -1"
_symmetry_group_IT_number 2
_symmetry_cell_setting 'triclinic'
loop_
_space_group_symop_operation_xyz
x,y,z
-x,-y,-z
loop_
_atom_site_type_symbol
_atom_site_label
_atom_site_fract_x
_atom_site_fract_y
_atom_site_fract_z
Si Si1 0.827091 0.761209 0.208327
Si Si2 0.947080 0.775326 0.626551
Si Si3 0.479394 0.473742 0.356500
Si Si4 0.981796 0.651956 0.375349
Si Si5 0.308063 0.454777 0.943259
Si Si6 0.553353 0.811595 0.915461
Si Si7 0.310151 0.891391 0.651284
O O1 0.612919 0.653683 0.351299
O O2 0.983686 0.742571 0.247475
O O3 0.854751 0.643962 0.081653
O O4 0.775315 0.976826 0.216113
O O5 0.922211 0.546819 0.663517
O O6 0.123439 0.853379 0.639990
O O7 0.724137 0.849221 0.742890
O O8 0.967330 0.209724 0.540194
O O9 0.253645 0.421153 0.492297
O O10 0.489291 0.545287 0.220784
O O11 0.616610 0.299102 0.321554
O O12 0.350157 0.674158 0.963146
O O13 0.327803 0.313756 0.041522
O O14 0.500000 0.000000 0.000000
O O15 0.500000 0.000000 0.500000
#
# Coordination Sequence:
#
# PCOD9109671 Si02
#       7
#     2   2   2   2   2   2   2
#     4  10  21  38  65  96 134 180 218 276 343 405
#     4  11  24  41  68 102 141 177 226 289 339 407
#     4  10  20  41  66  95 136 178 219 278 337 414
#     4  11  20  41  67 100 141 171 216 288 351 404
#     4   9  23  42  72  95 124 189 232 270 343 402
#     4  11  24  48  69  99 136 183 238 284 331 398
#     4  12  23  38  65 102 141 181 223 267 352 417
#
# _framework density 26.212121
#
# number of rings (size 3 to 8) (size 9 to 14) (size 15 to 20)
#    0.857    0.571    4.286    1.286    2.000    0.571 
#    5.143    3.571    0.000    0.000    0.000    0.000 
#    0.000    0.000    0.000    0.000    0.000    0.000 
#
# Total GULP energy -78132.628847 kJ/mol
# GULP energy per Si atom -5580.902061 kJ/mol
# Density = 2.615246 g / cm^3
# Si number density = 26.212121 Si / 1000 Ang^3
#
#
#
# Elastic Constant Matrix: (Units=GPa)
#
#
# Indices 1 2 3 4 5 6 
#
# 1 100.5942 42.0491 29.5479 18.2833 10.9763 21.1041
# 2 42.0491 153.2950 43.5353 40.7119 2.6300 24.5796
# 3 29.5479 43.5353 95.7808 21.8143 7.3755 -1.2784
# 4 18.2833 40.7119 21.8143 46.9621 -0.8430 7.1589
# 5 10.9763 2.6300 7.3755 -0.8430 43.4071 8.3101
# 6 21.1041 24.5796 -1.2784 7.1589 8.3101 29.1499
#
#
#
# Elastic Compliance Matrix: (Units=1/GPa)
#
#
# Indices 1 2 3 4 5 6 
#
# 1 0.013520 -0.000952 -0.003392 -0.001604 -0.001209 -0.008395
# 2 -0.000952 0.010450 -0.003286 -0.006041 0.001425 -0.007189
# 3 -0.003392 -0.003286 0.014119 -0.003590 -0.002856 0.007541
# 4 -0.001604 -0.006041 -0.003590 0.029123 0.002273 -0.001702
# 5 -0.001209 0.001425 -0.002856 0.002273 0.025364 -0.008241
# 6 -0.008395 -0.007189 0.007541 -0.001702 -0.008241 0.049544
#
#
# Mechanical properties :
#
#
# Convention : Reuss Voigt Hill
#
# Bulk Modulus (GPa) = 43.80391 64.43719 54.12055
# Shear Modulus (GPa) = 30.30487 39.53965 34.92226
#
# Velocity S-wave (km/s) = 3.40389 3.88809 3.65402
# Velocity P-wave (km/s) = 5.67417 6.69273 6.20439
#
# Compressibility (1/GPa) = 0.02282901
#
# Stress axis : x y z
#
# Youngs Moduli (GPa) = 73.96413 95.68924 70.82864
#
# Poissons Ratio (x) = 0.09114 0.24022
# Poissons Ratio (y) = 0.07044 0.23275
# Poissons Ratio (z) = 0.25085 0.31445
#
# Static dielectric constant tensor:
#      x y z
#    x 2.186140 0.052540 0.071700 
#    y 0.052540 2.095050 0.045280 
#    z 0.071700 0.045280 2.140740 
# 
# From -- ./inp_files/509739.got.cif
#   From: 2010.05.17/outbox.cif.g08.bks.cpg/sg2_255_cif.got.tgz:509739.got - 2010.06.03 11:33:40.
