data_PCOD9109394
_publ_section_title
;
Structure prediction by ZEFSAII (Michael W. Deem and Ramdas Pophale) SiO2 
 PCOD9109394
Probable space group: P -1
;
_chemical_formula_sum "Si O2"
_cell_formula_units_Z 16
_cell_length_a 10.797693
_cell_length_b 20.278764
_cell_length_c 19.341588
_cell_angle_alpha 159.538446
_cell_angle_beta 32.986046
_cell_angle_gamma 149.730949
_cell_volume 735.641052
_symmetry_space_group_name_H-M "P -1"
_symmetry_group_IT_number 2
_symmetry_cell_setting 'triclinic'
loop_
_space_group_symop_operation_xyz
x,y,z
-x,-y,-z
loop_
_atom_site_type_symbol
_atom_site_label
_atom_site_fract_x
_atom_site_fract_y
_atom_site_fract_z
Si Si1 0.112796 0.571970 0.890994
Si Si2 0.837315 0.810161 0.762108
Si Si3 0.495898 0.396856 0.160616
Si Si4 0.797794 0.747145 0.559850
Si Si5 0.545258 0.508646 0.103494
Si Si6 0.397809 0.077643 0.778180
Si Si7 0.497898 0.018514 0.102109
Si Si8 0.337696 0.067684 0.590644
O O1 0.232827 0.514526 0.845391
O O2 0.147404 0.435312 0.678595
O O3 0.829669 0.532965 0.995417
O O4 0.282163 0.811130 0.030110
O O5 0.695766 0.656618 0.739237
O O6 0.756184 0.716402 0.631430
O O7 0.131284 0.891880 0.713697
O O8 0.748756 0.001351 0.994498
O O9 0.473409 0.531772 0.239492
O O10 0.449874 0.181079 0.930782
O O11 0.580104 0.790247 0.665155
O O12 0.050585 0.956380 0.636925
O O13 0.543995 0.686274 0.229875
O O14 0.388292 0.268489 0.924314
O O15 0.615578 0.019872 0.590805
O O16 0.500000 0.000000 0.000000
O O17 0.500000 0.000000 0.500000
#
# Coordination Sequence:
#
# PCOD9109394 Si02
#       8
#     2   2   2   2   2   2   2   2
#     4  11  20  41  65  93 130 160 211 263 313 364
#     4  10  20  41  65  88 132 172 204 257 312 376
#     4   9  22  41  64  89 128 172 208 253 310 377
#     4  11  21  39  66  96 124 161 212 265 314 366
#     4  10  23  40  65  94 125 166 211 260 313 376
#     4  10  22  42  64  92 128 165 210 254 317 375
#     4   9  21  37  59  91 126 163 204 251 310 374
#     4  12  23  42  64  96 128 158 212 267 319 370
#
# _framework density 21.749738000000001
#
# number of rings (size 3 to 8) (size 9 to 14) (size 15 to 20)
#    0.750    1.000    3.750    0.750    0.000    5.000 
#    9.000    4.375    0.000    0.000    0.000    0.000 
#    0.000    0.000    0.000    0.000    0.000    0.000 
#
# Total GULP energy -89244.675749 kJ/mol
# GULP energy per Si atom -5577.792234 kJ/mol
# Density = 2.170023 g / cm^3
# Si number density = 21.749738 Si / 1000 Ang^3
#
#
#
# Elastic Constant Matrix: (Units=GPa)
#
#
# Indices 1 2 3 4 5 6 
#
# 1 47.2293 8.4610 7.4733 -8.1253 2.4608 -14.7484
# 2 8.4610 83.5929 14.9087 -10.7282 -5.5683 -20.0177
# 3 7.4733 14.9087 54.4163 4.1802 4.1120 -18.3093
# 4 -8.1253 -10.7282 4.1802 25.5866 -3.5821 0.8805
# 5 2.4608 -5.5683 4.1120 -3.5821 30.9282 -2.4999
# 6 -14.7484 -20.0177 -18.3093 0.8805 -2.4999 32.6289
#
#
#
# Elastic Compliance Matrix: (Units=1/GPa)
#
#
# Indices 1 2 3 4 5 6 
#
# 1 0.026312 0.001515 -0.000585 0.008700 0.000257 0.012280
# 2 0.001515 0.015741 -0.002398 0.007813 0.004676 0.009144
# 3 -0.000585 -0.002398 0.023671 -0.005913 -0.003291 0.011455
# 4 0.008700 0.007813 -0.005913 0.046950 0.007318 0.004701
# 5 0.000257 0.004676 -0.003291 0.007318 0.034731 0.003602
# 6 0.012280 0.009144 0.011455 0.004701 0.003602 0.048385
#
#
# Mechanical properties :
#
#
# Convention : Reuss Voigt Hill
#
# Bulk Modulus (GPa) = 15.92608 27.43607 21.68107
# Shear Modulus (GPa) = 22.76302 28.12179 25.44241
#
# Velocity S-wave (km/s) = 3.23861 3.59969 3.42391
# Velocity P-wave (km/s) = 4.61770 5.46981 5.06172
#
# Compressibility (1/GPa) = 0.06279009
#
# Stress axis : x y z
#
# Youngs Moduli (GPa) = 38.00498 63.52914 42.24540
#
# Poissons Ratio (x) = -0.09627 0.02471
# Poissons Ratio (y) = -0.05759 0.10129
# Poissons Ratio (z) = 0.02223 0.15232
#
# Static dielectric constant tensor:
#      x y z
#    x 1.787030 -0.025520 0.006150 
#    y -0.025520 1.811910 -0.017080 
#    z 0.006150 -0.017080 1.835020 
# 
# From -- ./inp_files/451626.got.cif
#   From: 2010.05.17/outbox.cif.g08.bks.cpg/sg2_226_cif.got.tgz:451626.got - 2010.06.03 11:33:40.
