data_PCOD9109944
_publ_section_title
;
Structure prediction by ZEFSAII (Michael W. Deem and Ramdas Pophale) SiO2 
 PCOD9109944
Probable space group: P -1
;
_chemical_formula_sum "Si O2"
_cell_formula_units_Z 16
_cell_length_a 7.775047
_cell_length_b 28.614407
_cell_length_c 12.035906
_cell_angle_alpha 29.206387
_cell_angle_beta 142.648374
_cell_angle_gamma 150.584600
_cell_volume 635.010173
_symmetry_space_group_name_H-M "P -1"
_symmetry_group_IT_number 2
_symmetry_cell_setting 'triclinic'
loop_
_space_group_symop_operation_xyz
x,y,z
-x,-y,-z
loop_
_atom_site_type_symbol
_atom_site_label
_atom_site_fract_x
_atom_site_fract_y
_atom_site_fract_z
Si Si1 0.070207 0.191861 0.324642
Si Si2 0.795666 0.623897 0.452776
Si Si3 0.604641 0.133986 0.028540
Si Si4 0.283538 0.629529 0.322159
Si Si5 0.706108 0.427427 0.094338
Si Si6 0.023096 0.658743 0.888938
Si Si7 0.789319 0.807939 0.928920
Si Si8 0.207023 0.017739 0.850868
O O1 0.313259 0.307956 0.125996
O O2 0.221757 0.118934 0.579754
O O3 0.079061 0.255164 0.310831
O O4 0.674805 0.111352 0.237153
O O5 0.500000 0.500000 0.500000
O O6 0.636606 0.640147 0.449029
O O7 0.121949 0.620836 0.643615
O O8 0.875677 0.723228 0.202483
O O9 0.649554 0.259198 0.804783
O O10 0.280660 0.050606 0.950504
O O11 0.914219 0.128267 0.144619
O O12 0.000000 0.500000 0.500000
O O13 0.146492 0.634326 0.119136
O O14 0.000000 0.500000 0.000000
O O15 0.719802 0.532392 0.943276
O O16 0.378080 0.729172 0.849913
O O17 0.853057 0.895460 0.879319
O O18 0.500000 0.000000 0.000000
#
# Coordination Sequence:
#
# PCOD9109944 Si02
#       8
#     2   2   2   2   2   2   2   2
#     4  11  25  42  63  98 131 169 220 272 327 386
#     4  11  21  39  64  90 128 165 209 269 323 382
#     4  10  22  41  64  94 132 167 221 270 319 386
#     4  10  21  33  64  92 123 173 210 261 332 378
#     4  12  24  38  62  96 131 171 214 266 331 395
#     4  10  23  40  60  94 135 167 210 277 325 386
#     4  10  20  41  68  94 125 174 222 261 330 389
#     4  10  23  42  69  94 125 176 222 266 329 390
#
# _framework density 25.196446000000002
#
# number of rings (size 3 to 8) (size 9 to 14) (size 15 to 20)
#    0.000    1.500    2.500    3.375    5.250    3.500 
#    0.000    6.875    0.000    0.000    0.000    0.000 
#    0.000    0.000    0.000    0.000    0.000    0.000 
#
# Total GULP energy -89354.943050 kJ/mol
# GULP energy per Si atom -5584.683941 kJ/mol
# Density = 2.513910 g / cm^3
# Si number density = 25.196446 Si / 1000 Ang^3
#
#
#
# Elastic Constant Matrix: (Units=GPa)
#
#
# Indices 1 2 3 4 5 6 
#
# 1 105.2686 -8.6330 0.0467 -1.3947 20.8447 -16.1220
# 2 -8.6330 125.4350 14.8744 -7.5772 18.5198 -29.4166
# 3 0.0467 14.8744 93.6773 -13.0494 26.7469 -15.2416
# 4 -1.3947 -7.5772 -13.0494 22.0848 -5.2125 9.9323
# 5 20.8447 18.5198 26.7469 -5.2125 32.2187 -8.7210
# 6 -16.1220 -29.4166 -15.2416 9.9323 -8.7210 29.6995
#
#
#
# Elastic Compliance Matrix: (Units=1/GPa)
#
#
# Indices 1 2 3 4 5 6 
#
# 1 0.014382 0.005113 0.004489 -0.003386 -0.013149 0.012447
# 2 0.005113 0.012704 0.002672 -0.002615 -0.009220 0.014898
# 3 0.004489 0.002672 0.016423 0.003802 -0.015367 0.007728
# 4 -0.003386 -0.002615 0.003802 0.056461 0.004227 -0.020118
# 5 -0.013149 -0.009220 -0.015367 0.004227 0.055799 -0.009184
# 6 0.012447 0.014898 0.007728 -0.020118 -0.009184 0.063180
#
#
# Mechanical properties :
#
#
# Convention : Reuss Voigt Hill
#
# Bulk Modulus (GPa) = 14.69347 37.43967 26.06657
# Shear Modulus (GPa) = 23.03226 38.00678 30.51952
#
# Velocity S-wave (km/s) = 3.02670 3.88805 3.48410
# Velocity P-wave (km/s) = 4.24956 5.92007 5.15296
#
# Compressibility (1/GPa) = 0.06805746
#
# Stress axis : x y z
#
# Youngs Moduli (GPa) = 69.53195 78.71339 60.89043
#
# Poissons Ratio (x) = -0.40248 -0.27331
# Poissons Ratio (y) = -0.35554 -0.16271
# Poissons Ratio (z) = -0.31210 -0.21034
#
# Static dielectric constant tensor:
#      x y z
#    x 2.235080 0.043350 -0.092560 
#    y 0.043350 2.084350 0.004120 
#    z -0.092560 0.004120 1.995180 
# 
# From -- ./inp_files/407328.got.cif
#   From: 2010.05.17/outbox.cif.g08.bks.cpg/sg2_204_cif.got.tgz:407328.got - 2010.06.03 11:33:40.
