data_PCOD9109065
_publ_section_title
;
Structure prediction by ZEFSAII (Michael W. Deem and Ramdas Pophale) SiO2 
 PCOD9109065
Probable space group: P -1
;
_chemical_formula_sum "Si O2"
_cell_formula_units_Z 10
_cell_length_a 11.322110
_cell_length_b 7.148769
_cell_length_c 10.027488
_cell_angle_alpha 68.389139
_cell_angle_beta 92.133312
_cell_angle_gamma 39.426825
_cell_volume 401.836935
_symmetry_space_group_name_H-M "P -1"
_symmetry_group_IT_number 2
_symmetry_cell_setting 'triclinic'
loop_
_space_group_symop_operation_xyz
x,y,z
-x,-y,-z
loop_
_atom_site_type_symbol
_atom_site_label
_atom_site_fract_x
_atom_site_fract_y
_atom_site_fract_z
Si Si1 0.811831 0.471297 0.226318
Si Si2 0.130394 0.318119 0.191147
Si Si3 0.454712 0.329929 0.072227
Si Si4 0.372699 0.495436 0.560091
Si Si5 0.709026 0.576781 0.681610
O O1 0.766334 0.351682 0.354883
O O2 0.047824 0.244174 0.289708
O O3 0.658233 0.884797 0.159731
O O4 0.737456 0.491460 0.074810
O O5 0.097989 0.561885 0.215797
O O6 0.392933 0.954539 0.271475
O O7 0.000000 0.500000 0.000000
O O8 0.385254 0.417241 0.201965
O O9 0.500000 0.500000 0.000000
O O10 0.500000 0.500000 0.500000
O O11 0.226111 0.626067 0.396900
O O12 0.500000 0.000000 0.500000
#
# Coordination Sequence:
#
# PCOD9109065 Si02
#       5
#     2   2   2   2   2
#     4  11  22  41  68  91 130 176 213 269 325 383
#     4  11  21  41  68  92 128 169 220 268 318 389
#     4  11  21  40  66  95 131 174 215 263 332 392
#     4  11  24  44  65  94 136 172 210 275 334 382
#     4  10  20  41  62  89 133 168 206 268 329 376
#
# _framework density 24.885719000000002
#
# number of rings (size 3 to 8) (size 9 to 14) (size 15 to 20)
#    0.000    1.200    6.000    2.400    0.000    1.600 
#    3.600    2.000    0.000    0.000    0.000    0.000 
#    0.000    0.000    0.000    0.000    0.000    0.000 
#
# Total GULP energy -55772.392665 kJ/mol
# GULP energy per Si atom -5577.239266 kJ/mol
# Density = 2.482908 g / cm^3
# Si number density = 24.885719 Si / 1000 Ang^3
#
#
#
# Elastic Constant Matrix: (Units=GPa)
#
#
# Indices 1 2 3 4 5 6 
#
# 1 167.2015 10.1218 61.0628 11.2206 -12.8266 -18.6059
# 2 10.1218 51.8838 19.2751 -2.7967 6.8572 -18.4551
# 3 61.0628 19.2751 163.0045 41.4744 0.7021 -10.3675
# 4 11.2206 -2.7967 41.4744 39.4132 -8.0999 -2.0988
# 5 -12.8266 6.8572 0.7021 -8.0999 64.5380 2.4734
# 6 -18.6059 -18.4551 -10.3675 -2.0988 2.4734 46.3101
#
#
#
# Elastic Compliance Matrix: (Units=1/GPa)
#
#
# Indices 1 2 3 4 5 6 
#
# 1 0.007358 0.000457 -0.003075 0.001623 0.001558 0.002440
# 2 0.000457 0.024626 -0.003961 0.005857 -0.002111 0.009489
# 3 -0.003075 -0.003961 0.010450 -0.010782 -0.001624 -0.000876
# 4 0.001623 0.005857 -0.010782 0.037699 0.004471 0.002042
# 5 0.001558 -0.002111 -0.001624 0.004471 0.016656 -0.001266
# 6 0.002440 0.009489 -0.000876 0.002042 -0.001266 0.026319
#
#
# Mechanical properties :
#
#
# Convention : Reuss Voigt Hill
#
# Bulk Modulus (GPa) = 34.15776 62.55657 48.35717
# Shear Modulus (GPa) = 34.24070 49.49428 41.86749
#
# Velocity S-wave (km/s) = 3.71336 4.46450 4.10614
# Velocity P-wave (km/s) = 5.66931 7.19499 6.47723
#
# Compressibility (1/GPa) = 0.02927592
#
# Stress axis : x y z
#
# Youngs Moduli (GPa) = 135.90161 40.60747 95.69664
#
# Poissons Ratio (x) = -0.01854 0.29427
# Poissons Ratio (y) = -0.06204 0.37901
# Poissons Ratio (z) = 0.41790 0.16083
#
# Static dielectric constant tensor:
#      x y z
#    x 2.053440 0.151400 -0.096450 
#    y 0.151400 2.934000 -0.041040 
#    z -0.096450 -0.041040 1.975090 
# 
# From -- ./inp_files/147545.got.cif
#   From: 2010.05.17/outbox.cif.g08.bks.cpg/sg2_74_cif.got.tgz:147545.got - 2010.06.03 11:33:40.
