data_PCOD9109024
_publ_section_title
;
Structure prediction by ZEFSAII (Michael W. Deem and Ramdas Pophale) SiO2 
 PCOD9109024
Probable space group: P -1
;
_chemical_formula_sum "Si O2"
_cell_formula_units_Z 15
_cell_length_a 9.384583
_cell_length_b 6.807276
_cell_length_c 20.744033
_cell_angle_alpha 81.220119
_cell_angle_beta 38.855725
_cell_angle_gamma 91.754557
_cell_volume 797.400243
_symmetry_space_group_name_H-M "P -1"
_symmetry_group_IT_number 2
_symmetry_cell_setting 'triclinic'
loop_
_space_group_symop_operation_xyz
x,y,z
-x,-y,-z
loop_
_atom_site_type_symbol
_atom_site_label
_atom_site_fract_x
_atom_site_fract_y
_atom_site_fract_z
Si Si1 0.713889 0.439003 0.668321
Si Si2 0.056965 0.151960 0.795148
Si Si3 0.108737 0.812779 0.490611
Si Si4 0.710334 0.419514 0.253702
Si Si5 0.568758 0.999879 0.401647
Si Si6 0.500000 0.000000 0.000000
Si Si7 0.124463 0.839576 0.897726
Si Si8 0.622629 0.860141 0.105955
O O1 0.825019 0.290913 0.592491
O O2 0.523350 0.513930 0.688018
O O3 0.578075 0.311105 0.781525
O O4 0.916181 0.638452 0.603682
O O5 0.115239 0.386705 0.785286
O O6 0.785111 0.068227 0.881053
O O7 0.224834 0.113633 0.680452
O O8 0.126824 0.023868 0.837080
O O9 0.341508 0.890070 0.446185
O O10 0.000000 0.000000 0.500000
O O11 0.652156 0.229586 0.332712
O O12 0.814419 0.339351 0.156724
O O13 0.500000 0.000000 0.500000
O O14 0.442311 0.081465 0.944697
O O15 0.308388 0.937091 0.883308
O O16 0.863699 0.783892 0.021190
#
# Coordination Sequence:
#
# PCOD9109024 Si02
#       8
#     2   2   2   2   2   1   2   2
#     4  11  22  38  66  94 122 162 220 262 305 369
#     4  10  21  44  63  89 126 165 213 257 309 383
#     4  11  23  41  63  95 128 160 214 271 305 366
#     4  11  20  40  68  90 119 169 213 262 306 372
#     4  11  24  41  61  93 131 169 205 257 328 377
#     4  10  24  42  64  90 134 166 192 266 328 368
#     4   9  20  38  66  91 120 160 213 261 308 367
#     4  10  20  41  61  94 127 160 209 261 315 378
#
# _framework density 18.811132000000001
#
# number of rings (size 3 to 8) (size 9 to 14) (size 15 to 20)
#    0.000    1.600    4.000    0.800    0.000    3.200 
#    0.000    6.000    0.000    0.000    0.000    0.000 
#    0.000    0.000    0.000    0.000    0.000    0.000 
#
# Total GULP energy -83524.921813 kJ/mol
# GULP energy per Si atom -5568.328121 kJ/mol
# Density = 1.876832 g / cm^3
# Si number density = 18.811132 Si / 1000 Ang^3
#
#
#
# Elastic Constant Matrix: (Units=GPa)
#
#
# Indices 1 2 3 4 5 6 
#
# 1 70.3502 36.7395 45.5155 -9.1180 -15.6543 -4.7196
# 2 36.7395 119.5237 68.5988 11.2547 -3.2973 5.4373
# 3 45.5155 68.5988 159.8844 -2.5844 -6.2873 12.5242
# 4 -9.1180 11.2547 -2.5844 26.4874 -2.0552 -2.9339
# 5 -15.6543 -3.2973 -6.2873 -2.0552 35.0241 -3.3889
# 6 -4.7196 5.4373 12.5242 -2.9339 -3.3889 10.3312
#
#
#
# Elastic Compliance Matrix: (Units=1/GPa)
#
#
# Indices 1 2 3 4 5 6 
#
# 1 0.033441 -0.009124 -0.007800 0.020584 0.017887 0.041248
# 2 -0.009124 0.014381 -0.002934 -0.011393 -0.005188 -0.013118
# 3 -0.007800 -0.002934 0.010893 -0.002554 -0.003615 -0.017136
# 4 0.020584 -0.011393 -0.002554 0.054876 0.014652 0.038887
# 5 0.017887 -0.005188 -0.003615 0.014652 0.039401 0.032370
# 6 0.041248 -0.013118 -0.017136 0.038887 0.032370 0.164976
#
#
# Mechanical properties :
#
#
# Convention : Reuss Voigt Hill
#
# Bulk Modulus (GPa) = 52.63227 72.38509 62.50868
# Shear Modulus (GPa) = 13.73565 27.62885 20.68225
#
# Velocity S-wave (km/s) = 2.70513 3.83659 3.31942
# Velocity P-wave (km/s) = 6.14793 7.62819 6.92771
#
# Compressibility (1/GPa) = 0.01899975
#
# Stress axis : x y z
#
# Youngs Moduli (GPa) = 29.90317 69.53582 91.80516
#
# Poissons Ratio (x) = 0.63441 0.71612
# Poissons Ratio (y) = 0.27282 0.26932
# Poissons Ratio (z) = 0.23326 0.20399
#
# Static dielectric constant tensor:
#      x y z
#    x 1.611880 0.010700 -0.002510 
#    y 0.010700 1.656420 0.000860 
#    z -0.002510 0.000860 1.674740 
# 
# From -- ./inp_files/46729.got.cif
#   From: 2010.05.17/outbox.cif.g08.bks.cpg/sg2_24_cif.got.tgz:46729.got - 2010.06.03 11:33:40.
