data_PCOD9109612
_publ_section_title
;
Structure prediction by ZEFSAII (Michael W. Deem and Ramdas Pophale) SiO2 
 PCOD9109612
Probable space group: P -1
;
_chemical_formula_sum "Si O2"
_cell_formula_units_Z 16
_cell_length_a 9.295166
_cell_length_b 8.836238
_cell_length_c 12.067294
_cell_angle_alpha 101.178624
_cell_angle_beta 127.488747
_cell_angle_gamma 61.869822
_cell_volume 687.383592
_symmetry_space_group_name_H-M "P -1"
_symmetry_group_IT_number 2
_symmetry_cell_setting 'triclinic'
loop_
_space_group_symop_operation_xyz
x,y,z
-x,-y,-z
loop_
_atom_site_type_symbol
_atom_site_label
_atom_site_fract_x
_atom_site_fract_y
_atom_site_fract_z
Si Si1 0.763789 0.137057 0.789433
Si Si2 0.163771 0.571349 0.099775
Si Si3 0.913140 0.030917 0.277450
Si Si4 0.707528 0.582699 0.385388
Si Si5 0.570228 0.389207 0.129005
Si Si6 0.151835 0.137133 0.579907
Si Si7 0.291576 0.485772 0.390044
Si Si8 0.432561 0.088344 0.358731
O O1 0.860674 0.238660 0.922254
O O2 0.531637 0.288038 0.682338
O O3 0.709603 0.983255 0.777983
O O4 0.909449 0.053980 0.741079
O O5 0.372331 0.435303 0.119448
O O6 0.183759 0.584050 0.243314
O O7 0.000000 0.500000 0.000000
O O8 0.710236 0.184385 0.152228
O O9 0.988402 0.118567 0.421608
O O10 0.880313 0.886049 0.309409
O O11 0.702161 0.466267 0.266506
O O12 0.807179 0.704621 0.416295
O O13 0.800062 0.473251 0.524239
O O14 0.500000 0.500000 0.000000
O O15 0.364258 0.968903 0.624663
O O16 0.500000 0.500000 0.500000
O O17 0.327015 0.291276 0.356516
O O18 0.500000 0.000000 0.500000
#
# Coordination Sequence:
#
# PCOD9109612 Si02
#       8
#     2   2   2   2   2   2   2   2
#     4  10  20  41  66  92 129 173 227 277 324 401
#     4  11  26  46  68  98 134 182 233 274 336 410
#     4  11  22  38  65  97 134 172 220 280 345 393
#     4  10  21  42  67  97 130 176 230 274 334 398
#     4  11  26  46  64  91 141 182 220 276 345 407
#     4  10  21  35  62 102 134 166 220 287 340 397
#     4  12  19  35  72 101 127 170 230 285 327 390
#     4  11  17  35  63  98 136 166 225 278 336 393
#
# _framework density 23.276669999999999
#
# number of rings (size 3 to 8) (size 9 to 14) (size 15 to 20)
#    0.000    1.250    6.250    0.750    0.000    5.500 
#    0.000    9.375    0.000    0.000    0.000    0.000 
#    0.000    0.000    0.000    0.000    0.000    0.000 
#
# Total GULP energy -89381.882837 kJ/mol
# GULP energy per Si atom -5586.367677 kJ/mol
# Density = 2.322369 g / cm^3
# Si number density = 23.276670 Si / 1000 Ang^3
#
#
#
# Elastic Constant Matrix: (Units=GPa)
#
#
# Indices 1 2 3 4 5 6 
#
# 1 111.6974 22.0481 30.4914 -8.9574 2.6426 0.7883
# 2 22.0481 99.7847 27.3125 -1.0530 7.9043 13.0603
# 3 30.4914 27.3125 86.5866 -3.7672 5.6215 6.5163
# 4 -8.9574 -1.0530 -3.7672 33.2427 13.8960 7.6909
# 5 2.6426 7.9043 5.6215 13.8960 35.1028 15.1036
# 6 0.7883 13.0603 6.5163 7.6909 15.1036 48.1374
#
#
#
# Elastic Compliance Matrix: (Units=1/GPa)
#
#
# Indices 1 2 3 4 5 6 
#
# 1 0.010307 -0.001390 -0.003025 0.002817 -0.001348 0.000591
# 2 -0.001390 0.011538 -0.002849 0.000773 -0.001294 -0.002440
# 3 -0.003025 -0.002849 0.013740 0.001496 -0.001588 -0.000778
# 4 0.002817 0.000773 0.001496 0.037616 -0.014721 -0.001850
# 5 -0.001348 -0.001294 -0.001588 -0.014721 0.038957 -0.009283
# 6 0.000591 -0.002440 -0.000778 -0.001850 -0.009283 0.024740
#
#
# Mechanical properties :
#
#
# Convention : Reuss Voigt Hill
#
# Bulk Modulus (GPa) = 47.49164 50.86365 49.17764
# Shear Modulus (GPa) = 31.55668 37.84435 34.70052
#
# Velocity S-wave (km/s) = 3.68601 4.03656 3.86526
# Velocity P-wave (km/s) = 6.20991 6.60487 6.41043
#
# Compressibility (1/GPa) = 0.02105634
#
# Stress axis : x y z
#
# Youngs Moduli (GPa) = 97.02478 86.66659 72.78065
#
# Poissons Ratio (x) = 0.12047 0.22019
# Poissons Ratio (y) = 0.13487 0.20734
# Poissons Ratio (z) = 0.29354 0.24690
#
# Static dielectric constant tensor:
#      x y z
#    x 1.895070 0.024710 -0.005490 
#    y 0.024710 1.952020 -0.048990 
#    z -0.005490 -0.048990 1.906770 
# 
# From -- ./inp_files/382745.got.cif
#   From: 2010.05.17/outbox.cif.g08.bks.cpg/sg2_192_cif.got.tgz:382745.got - 2010.06.03 11:33:40.
