data_PCOD9109677
_publ_section_title
;
Structure prediction by ZEFSAII (Michael W. Deem and Ramdas Pophale) SiO2 
 PCOD9109677
Probable space group: P -1
;
_chemical_formula_sum "Si O2"
_cell_formula_units_Z 12
_cell_length_a 16.764158
_cell_length_b 13.866626
_cell_length_c 7.977295
_cell_angle_alpha 134.317483
_cell_angle_beta 134.194596
_cell_angle_gamma 22.095658
_cell_volume 490.471758
_symmetry_space_group_name_H-M "P -1"
_symmetry_group_IT_number 2
_symmetry_cell_setting 'triclinic'
loop_
_space_group_symop_operation_xyz
x,y,z
-x,-y,-z
loop_
_atom_site_type_symbol
_atom_site_label
_atom_site_fract_x
_atom_site_fract_y
_atom_site_fract_z
Si Si1 0.258216 0.439826 0.642527
Si Si2 0.817575 0.557393 0.098931
Si Si3 0.232673 0.029865 0.181936
Si Si4 0.467336 0.385315 0.388862
Si Si5 0.150591 0.190720 0.643473
Si Si6 0.277853 0.682979 0.817931
O O1 0.220357 0.391143 0.693930
O O2 0.181619 0.677069 0.801714
O O3 0.110458 0.535204 0.390017
O O4 0.516668 0.189877 0.720839
O O5 0.757958 0.753139 0.149329
O O6 0.075743 0.271110 0.119448
O O7 0.685510 0.561044 0.865180
O O8 0.174160 0.120184 0.398228
O O9 0.172683 0.936126 0.939283
O O10 0.500000 0.500000 0.500000
O O11 0.348351 0.532438 0.570791
O O12 0.700888 0.069666 0.358808
O O13 0.500000 0.500000 0.000000
#
# Coordination Sequence:
#
# PCOD9109677 Si02
#       6
#     2   2   2   2   2   2
#     4  10  21  42  70  96 124 177 216 265 321 384
#     4  11  26  41  67 100 135 170 210 272 333 383
#     4  10  21  42  69  98 132 162 229 264 317 391
#     4  12  25  45  67  96 134 173 217 273 327 382
#     4  11  24  43  67  97 134 173 216 265 325 394
#     4  10  20  41  66  96 125 171 220 269 312 377
#
# _framework density 24.466239999999999
#
# number of rings (size 3 to 8) (size 9 to 14) (size 15 to 20)
#    0.000    1.333    3.333    4.500    2.333    4.667 
#    3.000    0.833    0.000    0.000    0.000    0.000 
#    0.000    0.000    0.000    0.000    0.000    0.000 
#
# Total GULP energy -66904.824221 kJ/mol
# GULP energy per Si atom -5575.402018 kJ/mol
# Density = 2.441055 g / cm^3
# Si number density = 24.466240 Si / 1000 Ang^3
#
#
#
# Elastic Constant Matrix: (Units=GPa)
#
#
# Indices 1 2 3 4 5 6 
#
# 1 110.5403 48.1100 33.8623 8.2529 47.1809 13.2497
# 2 48.1100 124.3568 41.5446 -23.2053 28.7103 16.7652
# 3 33.8623 41.5446 85.9502 -13.8575 31.5867 5.9496
# 4 8.2529 -23.2053 -13.8575 38.1729 -2.9778 9.4498
# 5 47.1809 28.7103 31.5867 -2.9778 50.8270 10.9183
# 6 13.2497 16.7652 5.9496 9.4498 10.9183 43.8759
#
#
#
# Elastic Compliance Matrix: (Units=1/GPa)
#
#
# Indices 1 2 3 4 5 6 
#
# 1 0.018239 -0.005486 -0.000943 -0.009296 -0.014279 0.002271
# 2 -0.005486 0.013409 -0.002716 0.009772 0.000947 -0.005439
# 3 -0.000943 -0.002716 0.016844 0.004024 -0.007849 0.000125
# 4 -0.009296 0.009772 0.004024 0.038775 0.005273 -0.011135
# 5 -0.014279 0.000947 -0.007849 0.005273 0.038823 -0.005782
# 6 0.002271 -0.005439 0.000125 -0.011135 -0.005782 0.028004
#
#
# Mechanical properties :
#
#
# Convention : Reuss Voigt Hill
#
# Bulk Modulus (GPa) = 33.10969 63.09789 48.10379
# Shear Modulus (GPa) = 27.40463 39.73051 33.56757
#
# Velocity S-wave (km/s) = 3.35042 4.03413 3.70806
# Velocity P-wave (km/s) = 5.34128 6.89526 6.16741
#
# Compressibility (1/GPa) = 0.03020264
#
# Stress axis : x y z
#
# Youngs Moduli (GPa) = 54.82768 74.57623 59.36949
#
# Poissons Ratio (x) = 0.40909 0.05598
# Poissons Ratio (y) = 0.30076 0.16125
# Poissons Ratio (z) = 0.05170 0.20256
#
# Static dielectric constant tensor:
#      x y z
#    x 2.026750 -0.029340 0.049950 
#    y -0.029340 1.974240 -0.057730 
#    z 0.049950 -0.057730 1.861400 
# 
# From -- ./inp_files/182940.got.cif
#   From: 2010.05.17/outbox.cif.g08.bks.cpg/sg2_92_cif.got.tgz:182940.got - 2010.06.03 11:33:40.
