data_PCOD9109542
_publ_section_title
;
Structure prediction by ZEFSAII (Michael W. Deem and Ramdas Pophale) SiO2 
 PCOD9109542
Probable space group: P -1
;
_chemical_formula_sum "Si O2"
_cell_formula_units_Z 14
_cell_length_a 9.381683
_cell_length_b 9.650813
_cell_length_c 11.795287
_cell_angle_alpha 135.191256
_cell_angle_beta 76.838856
_cell_angle_gamma 121.597085
_cell_volume 622.331798
_symmetry_space_group_name_H-M "P -1"
_symmetry_group_IT_number 2
_symmetry_cell_setting 'triclinic'
loop_
_space_group_symop_operation_xyz
x,y,z
-x,-y,-z
loop_
_atom_site_type_symbol
_atom_site_label
_atom_site_fract_x
_atom_site_fract_y
_atom_site_fract_z
Si Si1 0.382752 0.040028 0.130673
Si Si2 0.194815 0.561630 0.985063
Si Si3 0.539072 0.472162 0.647792
Si Si4 0.171602 0.536369 0.548632
Si Si5 0.838545 0.747845 0.406294
Si Si6 0.126676 0.859137 0.879898
Si Si7 0.226000 0.343712 0.078333
O O1 0.457552 0.311611 0.290485
O O2 0.500000 0.000000 0.000000
O O3 0.321654 0.840020 0.118398
O O4 0.207134 0.960482 0.046230
O O5 0.192513 0.435774 0.794738
O O6 0.246274 0.462228 0.023916
O O7 0.000000 0.500000 0.000000
O O8 0.677560 0.429557 0.539906
O O9 0.342386 0.264902 0.560789
O O10 0.606698 0.547601 0.808638
O O11 0.128667 0.334332 0.527536
O O12 0.230517 0.759937 0.744771
O O13 0.000000 0.500000 0.500000
O O14 0.000000 0.000000 0.500000
O O15 0.929111 0.664049 0.826623
O O16 0.151109 0.069858 0.922735
#
# Coordination Sequence:
#
# PCOD9109542 Si02
#       7
#     2   2   2   2   2   2   2
#     4  11  21  43  71 101 136 182 239 290 348 416
#     4  12  24  43  73 105 140 180 237 299 353 413
#     4  11  25  48  73 103 142 189 241 287 350 433
#     4  12  24  44  73 102 140 191 234 280 352 434
#     4  12  29  48  67 103 147 187 234 295 358 415
#     4  10  20  41  66 102 138 180 233 283 349 424
#     4  10  22  40  73 106 134 182 236 293 351 406
#
# _framework density 22.496039
#
# number of rings (size 3 to 8) (size 9 to 14) (size 15 to 20)
#    0.000    0.857    5.714    0.429    4.000    0.571 
#    0.000    2.143    0.000    0.000    0.000    0.000 
#    0.000    0.000    0.000    0.000    0.000    0.000 
#
# Total GULP energy -78276.191235 kJ/mol
# GULP energy per Si atom -5591.156517 kJ/mol
# Density = 2.244484 g / cm^3
# Si number density = 22.496039 Si / 1000 Ang^3
#
#
#
# Elastic Constant Matrix: (Units=GPa)
#
#
# Indices 1 2 3 4 5 6 
#
# 1 132.6817 56.5348 24.6764 -5.7435 11.7708 11.1357
# 2 56.5348 145.3349 15.3722 4.2435 16.0744 -4.1888
# 3 24.6764 15.3722 56.4712 -0.4024 1.6917 13.8898
# 4 -5.7435 4.2435 -0.4024 25.4741 1.9311 6.6089
# 5 11.7708 16.0744 1.6917 1.9311 49.3676 -10.2046
# 6 11.1357 -4.1888 13.8898 6.6089 -10.2046 43.5182
#
#
#
# Elastic Compliance Matrix: (Units=1/GPa)
#
#
# Indices 1 2 3 4 5 6 
#
# 1 0.010191 -0.003679 -0.002584 0.003842 -0.001951 -0.003178
# 2 -0.003679 0.008749 -0.001324 -0.002808 -0.001337 0.002319
# 3 -0.002584 -0.001324 0.020883 0.001781 -0.001115 -0.006663
# 4 0.003842 -0.002808 0.001781 0.043298 -0.003670 -0.009258
# 5 -0.001951 -0.001337 -0.001115 -0.003670 0.022704 0.006608
# 6 -0.003178 0.002319 -0.006663 -0.009258 0.006608 0.029098
#
#
# Mechanical properties :
#
#
# Convention : Reuss Voigt Hill
#
# Bulk Modulus (GPa) = 40.57201 58.62830 49.60015
# Shear Modulus (GPa) = 31.58299 39.53227 35.55763
#
# Velocity S-wave (km/s) = 3.75098 4.19656 3.98001
# Velocity P-wave (km/s) = 6.06911 7.04271 6.57396
#
# Compressibility (1/GPa) = 0.02464754
#
# Stress axis : x y z
#
# Youngs Moduli (GPa) = 98.12426 114.30483 47.88591
#
# Poissons Ratio (x) = 0.42053 0.12375
# Poissons Ratio (y) = 0.36100 0.06341
# Poissons Ratio (z) = 0.25358 0.15137
#
# Static dielectric constant tensor:
#      x y z
#    x 1.886020 0.007330 0.042480 
#    y 0.007330 1.813730 -0.000400 
#    z 0.042480 -0.000400 1.961820 
# 
# From -- ./inp_files/186194.got.cif
#   From: 2010.05.17/outbox.cif.g08.bks.cpg/sg2_94_cif.got.tgz:186194.got - 2010.06.03 11:33:40.
