data_PCOD9109556
_publ_section_title
;
Structure prediction by ZEFSAII (Michael W. Deem and Ramdas Pophale) SiO2 
 PCOD9109556
Probable space group: P -1
;
_chemical_formula_sum "Si O2"
_cell_formula_units_Z 16
_cell_length_a 10.598623
_cell_length_b 8.352299
_cell_length_c 18.321018
_cell_angle_alpha 92.876823
_cell_angle_beta 124.502549
_cell_angle_gamma 43.143181
_cell_volume 698.940803
_symmetry_space_group_name_H-M "P -1"
_symmetry_group_IT_number 2
_symmetry_cell_setting 'triclinic'
loop_
_space_group_symop_operation_xyz
x,y,z
-x,-y,-z
loop_
_atom_site_type_symbol
_atom_site_label
_atom_site_fract_x
_atom_site_fract_y
_atom_site_fract_z
Si Si1 0.440919 0.214823 0.390901
Si Si2 0.371350 0.478018 0.077836
Si Si3 0.162245 0.124522 0.851648
Si Si4 0.841781 0.797706 0.986298
Si Si5 0.558330 0.167533 0.588789
Si Si6 0.973845 0.937102 0.830247
Si Si7 0.030790 0.663796 0.524304
Si Si8 0.556387 0.628293 0.219280
O O1 0.517237 0.232691 0.491875
O O2 0.120965 0.541850 0.267396
O O3 0.453864 0.012632 0.404779
O O4 0.704005 0.022710 0.417359
O O5 0.543151 0.482777 0.160807
O O6 0.101247 0.694407 0.049957
O O7 0.583430 0.136466 0.129606
O O8 0.229946 0.628533 0.954711
O O9 0.228947 0.151565 0.950535
O O10 0.069583 0.029162 0.844312
O O11 0.000000 0.500000 0.000000
O O12 0.558782 0.116531 0.858597
O O13 0.278174 0.495662 0.544863
O O14 0.856615 0.958393 0.719102
O O15 0.694495 0.176637 0.797592
O O16 0.155362 0.590487 0.644418
O O17 0.000000 0.500000 0.500000
#
# Coordination Sequence:
#
# PCOD9109556 Si02
#       8
#     2   2   2   2   2   2   2   2
#     4  10  23  41  59  89 126 158 216 257 307 360
#     4  11  23  43  63  95 129 164 209 246 319 389
#     4  12  25  39  63  96 127 164 206 260 308 369
#     4  11  25  42  65  97 129 158 204 269 312 365
#     4   9  21  42  62  85 119 169 205 261 307 367
#     4  10  20  41  66  87 127 165 208 254 310 374
#     4   9  20  38  65  88 115 166 213 247 305 371
#     4  10  20  43  67  91 123 172 208 251 316 378
#
# _framework density 22.891781999999999
#
# number of rings (size 3 to 8) (size 9 to 14) (size 15 to 20)
#    0.000    1.750    2.500    1.125    8.750    2.000 
#    4.500    1.250    0.000    0.000    0.000    0.000 
#    0.000    0.000    0.000    0.000    0.000    0.000 
#
# Total GULP energy -89407.742240 kJ/mol
# GULP energy per Si atom -5587.983890 kJ/mol
# Density = 2.283968 g / cm^3
# Si number density = 22.891782 Si / 1000 Ang^3
#
#
#
# Elastic Constant Matrix: (Units=GPa)
#
#
# Indices 1 2 3 4 5 6 
#
# 1 21.5695 132.0952 185.1313 -28.0228 24.7619 -16.6799
# 2 132.0952-1615.0223-2312.2554 366.2335 -257.6856 70.0947
# 3 185.1313-2312.2554-3146.5507 509.5165 -337.5275 101.0679
# 4 -28.0228 366.2335 509.5165 -28.0553 57.9467 -6.5876
# 5 24.7619 -257.6856 -337.5275 57.9467 -13.2657 15.9425
# 6 -16.6799 70.0947 101.0679 -6.5876 15.9425 27.8065
#
#
#
# Elastic Compliance Matrix: (Units=1/GPa)
#
#
# Indices 1 2 3 4 5 6 
#
# 1 0.038123 0.001013 0.002617 -0.003469 -0.010823 0.016184
# 2 0.001013 0.012653 -0.009486 0.001433 0.004718 0.000826
# 3 0.002617 -0.009486 0.008202 0.001738 -0.009862 0.001736
# 4 -0.003469 0.001433 0.001738 0.020015 0.000101 -0.007325
# 5 -0.010823 0.004718 -0.009862 0.000101 0.050414 -0.011420
# 6 0.016184 0.000826 0.001736 -0.007325 -0.011420 0.042091
#
#
# Mechanical properties :
#
#
# Convention : Reuss Voigt Hill
#
# Bulk Modulus (GPa) = 21.15604 -970.00680 -474.42538
# Shear Modulus (GPa) = 25.13015 -185.70122 -80.28553
#
# Velocity S-wave (km/s) = 3.31687 -9.01651 -5.92857
# Velocity P-wave (km/s) = 4.89190 23.08793 15.95496
#
# Compressibility (1/GPa) = 0.04726784
#
# Stress axis : x y z
#
# Youngs Moduli (GPa) = 26.23073 79.03310 121.91950
#
# Poissons Ratio (x) = -0.08009 -0.31912
# Poissons Ratio (y) = -0.02658 1.15653
# Poissons Ratio (z) = -0.06866 0.74971
#
# Static dielectric constant tensor:
#      x y z
#    x 1.891830 -0.030370 0.049760 
#    y -0.030370 1.880340 0.002990 
#    z 0.049760 0.002990 1.853580 
# 
# From -- ./inp_files/234248.got.cif
#   From: 2010.05.17/outbox.cif.g08.bks.cpg/sg2_118_cif.got.tgz:234248.got - 2010.06.03 11:33:40.
