data_PCOD9109321
_publ_section_title
;
Structure prediction by ZEFSAII (Michael W. Deem and Ramdas Pophale) SiO2 
 PCOD9109321
Probable space group: P -1
;
_chemical_formula_sum "Si O2"
_cell_formula_units_Z 16
_cell_length_a 7.745135
_cell_length_b 11.668158
_cell_length_c 23.323722
_cell_angle_alpha 150.847148
_cell_angle_beta 129.550319
_cell_angle_gamma 38.822329
_cell_volume 637.098221
_symmetry_space_group_name_H-M "P -1"
_symmetry_group_IT_number 2
_symmetry_cell_setting 'triclinic'
loop_
_space_group_symop_operation_xyz
x,y,z
-x,-y,-z
loop_
_atom_site_type_symbol
_atom_site_label
_atom_site_fract_x
_atom_site_fract_y
_atom_site_fract_z
Si Si1 0.382309 0.836280 0.829951
Si Si2 0.507529 0.230458 0.564603
Si Si3 0.105488 0.682000 0.996499
Si Si4 0.812539 0.859725 0.190139
Si Si5 0.315185 0.336798 0.444486
Si Si6 0.219516 0.136234 0.229635
Si Si7 0.044755 0.255940 0.125251
Si Si8 0.913426 0.054369 0.399469
O O1 0.427713 0.529043 0.707557
O O2 0.657251 0.814279 0.860634
O O3 0.215077 0.038880 0.937575
O O4 0.172297 0.010823 0.808480
O O5 0.324695 0.312294 0.504211
O O6 0.500000 0.000000 0.500000
O O7 0.840251 0.055747 0.552256
O O8 0.148154 0.550445 0.884065
O O9 0.262622 0.829293 0.100765
O O10 0.163205 0.432835 0.942192
O O11 0.501782 0.090871 0.250433
O O12 0.008635 0.821400 0.266229
O O13 0.174327 0.233268 0.327879
O O14 0.643888 0.134085 0.410636
O O15 0.183262 0.657345 0.531208
O O16 0.010216 0.333992 0.219537
O O17 0.000000 0.000000 0.000000
#
# Coordination Sequence:
#
# PCOD9109321 Si02
#       8
#     2   2   2   2   2   2   2   2
#     4  11  23  41  63  94 140 180 224 274 342 410
#     4  12  27  44  65 103 141 185 226 277 346 410
#     4  11  21  37  65  98 133 178 219 275 341 418
#     4  10  20  41  64  95 129 179 223 279 343 396
#     4  10  22  46  70  98 132 177 235 287 332 397
#     4   9  21  39  65  95 129 172 220 283 340 395
#     4   9  20  40  63  93 126 168 219 280 335 395
#     4  10  22  42  73  96 128 179 230 287 340 395
#
# _framework density 25.113866999999999
#
# number of rings (size 3 to 8) (size 9 to 14) (size 15 to 20)
#    0.000    1.750    1.250    2.250    3.500    1.500 
#    4.500    6.250    0.000    0.000    0.000    0.000 
#    0.000    0.000    0.000    0.000    0.000    0.000 
#
# Total GULP energy -89285.063467 kJ/mol
# GULP energy per Si atom -5580.316467 kJ/mol
# Density = 2.505671 g / cm^3
# Si number density = 25.113867 Si / 1000 Ang^3
#
#
#
# Elastic Constant Matrix: (Units=GPa)
#
#
# Indices 1 2 3 4 5 6 
#
# 1 86.4300 30.6943 32.0097 -8.0564 4.7459 -0.9805
# 2 30.6943 111.1849 51.4384 -28.2951 -3.1504 20.8348
# 3 32.0097 51.4384 119.3353 -12.5663 8.0510 19.0678
# 4 -8.0564 -28.2951 -12.5663 48.0626 8.9995 4.6570
# 5 4.7459 -3.1504 8.0510 8.9995 33.3231 -2.1858
# 6 -0.9805 20.8348 19.0678 4.6570 -2.1858 39.2733
#
#
#
# Elastic Compliance Matrix: (Units=1/GPa)
#
#
# Indices 1 2 3 4 5 6 
#
# 1 0.013854 -0.003335 -0.002796 -0.000471 -0.001259 0.003458
# 2 -0.003335 0.014955 -0.003563 0.007992 0.000117 -0.007228
# 3 -0.002796 -0.003563 0.011747 0.001570 -0.003480 -0.004263
# 4 -0.000471 0.007992 0.001570 0.028141 -0.007733 -0.008781
# 5 -0.001259 0.000117 -0.003480 -0.007733 0.033415 0.004373
# 6 0.003458 -0.007228 -0.004263 -0.008781 0.004373 0.032738
#
#
# Mechanical properties :
#
#
# Convention : Reuss Voigt Hill
#
# Bulk Modulus (GPa) = 47.24129 60.58169 53.91149
# Shear Modulus (GPa) = 30.99935 37.65231 34.32583
#
# Velocity S-wave (km/s) = 3.51715 3.87623 3.70105
# Velocity P-wave (km/s) = 5.94520 6.64897 6.30691
#
# Compressibility (1/GPa) = 0.02116792
#
# Stress axis : x y z
#
# Youngs Moduli (GPa) = 72.17964 66.86899 85.13015
#
# Poissons Ratio (x) = 0.22300 0.23803
# Poissons Ratio (y) = 0.24071 0.30332
# Poissons Ratio (z) = 0.20182 0.23825
#
# Static dielectric constant tensor:
#      x y z
#    x 2.021430 -0.028000 -0.028270 
#    y -0.028000 2.035940 -0.024220 
#    z -0.028270 -0.024220 2.095490 
# 
# From -- ./inp_files/607694.got.cif
#   From: 2010.05.17/outbox.cif.g08.bks.cpg/sg2_304_cif.got.tgz:607694.got - 2010.06.03 11:33:40.
