data_PCOD9109716
_publ_section_title
;
Structure prediction by ZEFSAII (Michael W. Deem and Ramdas Pophale) SiO2 
 PCOD9109716
Probable space group: P -1
;
_chemical_formula_sum "Si O2"
_cell_formula_units_Z 16
_cell_length_a 14.859954
_cell_length_b 12.370324
_cell_length_c 8.715272
_cell_angle_alpha 79.084295
_cell_angle_beta 31.739864
_cell_angle_gamma 65.909763
_cell_volume 726.682442
_symmetry_space_group_name_H-M "P -1"
_symmetry_group_IT_number 2
_symmetry_cell_setting 'triclinic'
loop_
_space_group_symop_operation_xyz
x,y,z
-x,-y,-z
loop_
_atom_site_type_symbol
_atom_site_label
_atom_site_fract_x
_atom_site_fract_y
_atom_site_fract_z
Si Si1 0.562035 0.259983 0.337884
Si Si2 0.228890 0.635838 0.799691
Si Si3 0.807422 0.135301 0.732098
Si Si4 0.210927 0.463370 0.636344
Si Si5 0.085378 0.866613 0.740666
Si Si6 0.300139 0.970359 0.609733
Si Si7 0.573819 0.879085 0.815880
Si Si8 0.088972 0.399919 0.535504
O O1 0.596692 0.355660 0.369800
O O2 0.367016 0.327796 0.505221
O O3 0.548483 0.158599 0.495841
O O4 0.742624 0.206411 0.969113
O O5 0.279207 0.553251 0.595147
O O6 0.102394 0.774573 0.877635
O O7 0.094674 0.603209 0.113530
O O8 0.852354 0.194761 0.499800
O O9 0.615823 0.128769 0.958886
O O10 0.000000 0.000000 0.500000
O O11 0.187963 0.458138 0.490942
O O12 0.000000 0.500000 0.000000
O O13 0.211154 0.931239 0.603461
O O14 0.863475 0.971224 0.038029
O O15 0.355029 0.073872 0.447716
O O16 0.742022 0.748127 0.681478
O O17 0.500000 0.000000 0.000000
O O18 0.000000 0.500000 0.500000
#
# Coordination Sequence:
#
# PCOD9109716 Si02
#       8
#     2   2   2   2   2   2   2   2
#     4  11  23  43  71 105 143 176 239 298 362 429
#     4  10  23  44  74  94 134 189 238 281 366 425
#     4  12  25  42  65 109 148 177 231 303 364 429
#     4  10  23  47  66  97 137 184 243 292 339 434
#     4  10  20  41  66  99 139 178 226 290 348 423
#     4  10  21  40  71  97 138 186 227 282 360 429
#     4  12  25  44  72 106 148 189 241 292 367 430
#     4  11  25  47  71 101 145 190 240 301 350 426
#
# _framework density 22.017871
#
# number of rings (size 3 to 8) (size 9 to 14) (size 15 to 20)
#    0.000    1.250    5.000    0.375    1.750    3.500 
#    6.750    1.250    0.000    0.000    0.000    0.000 
#    0.000    0.000    0.000    0.000    0.000    0.000 
#
# Total GULP energy -89200.031489 kJ/mol
# GULP energy per Si atom -5575.001968 kJ/mol
# Density = 2.196776 g / cm^3
# Si number density = 22.017871 Si / 1000 Ang^3
#
#
#
# Elastic Constant Matrix: (Units=GPa)
#
#
# Indices 1 2 3 4 5 6 
#
# 1 117.7032 62.9774 33.3732 3.7480 0.4661 -16.0734
# 2 62.9774 110.2671 33.9584 0.4879 2.8615 -18.6381
# 3 33.3732 33.9584 60.0472 3.6055 5.7209 -23.1797
# 4 3.7480 0.4879 3.6055 36.7327 -5.8367 8.2967
# 5 0.4661 2.8615 5.7209 -5.8367 33.5022 12.7474
# 6 -16.0734 -18.6381 -23.1797 8.2967 12.7474 40.5167
#
#
#
# Elastic Compliance Matrix: (Units=1/GPa)
#
#
# Indices 1 2 3 4 5 6 
#
# 1 0.012906 -0.006257 -0.003650 -0.000755 0.000829 0.000047
# 2 -0.006257 0.014162 -0.003381 -0.000048 -0.001540 0.002592
# 3 -0.003650 -0.003381 0.030761 -0.009723 -0.014675 0.021203
# 4 -0.000755 -0.000048 -0.009723 0.034472 0.014319 -0.017448
# 5 0.000829 -0.001540 -0.014675 0.014319 0.044786 -0.025798
# 6 0.000047 0.002592 0.021203 -0.017448 -0.025798 0.049713
#
#
# Mechanical properties :
#
#
# Convention : Reuss Voigt Hill
#
# Bulk Modulus (GPa) = 31.99655 60.95951 46.47803
# Shear Modulus (GPa) = 22.34207 32.66419 27.50313
#
# Velocity S-wave (km/s) = 3.18893 3.85584 3.53813
# Velocity P-wave (km/s) = 5.30308 6.89709 6.15193
#
# Compressibility (1/GPa) = 0.03125337
#
# Stress axis : x y z
#
# Youngs Moduli (GPa) = 77.48395 70.61021 32.50861
#
# Poissons Ratio (x) = 0.44182 0.11864
# Poissons Ratio (y) = 0.48483 0.10992
# Poissons Ratio (z) = 0.28278 0.23874
#
# Static dielectric constant tensor:
#      x y z
#    x 1.799410 0.033170 -0.053610 
#    y 0.033170 1.845130 0.088700 
#    z -0.053610 0.088700 1.719670 
# 
# From -- ./inp_files/226465.got.cif
#   From: 2010.05.17/outbox.cif.g08.bks.cpg/sg2_114_cif.got.tgz:226465.got - 2010.06.03 11:33:40.
