data_PCOD9109152
_publ_section_title
;
Structure prediction by ZEFSAII (Michael W. Deem and Ramdas Pophale) SiO2 
 PCOD9109152
Probable space group: P -1
;
_chemical_formula_sum "Si O2"
_cell_formula_units_Z 16
_cell_length_a 11.494166
_cell_length_b 14.629239
_cell_length_c 8.856430
_cell_angle_alpha 54.724278
_cell_angle_beta 74.217059
_cell_angle_gamma 43.892435
_cell_volume 815.093120
_symmetry_space_group_name_H-M "P -1"
_symmetry_group_IT_number 2
_symmetry_cell_setting 'triclinic'
loop_
_space_group_symop_operation_xyz
x,y,z
-x,-y,-z
loop_
_atom_site_type_symbol
_atom_site_label
_atom_site_fract_x
_atom_site_fract_y
_atom_site_fract_z
Si Si1 0.826619 0.128447 0.122574
Si Si2 0.833717 0.620289 0.049901
Si Si3 0.453782 0.353234 0.876893
Si Si4 0.486794 0.735196 0.410456
Si Si5 0.131630 0.499351 0.524042
Si Si6 0.632432 0.371053 0.209441
Si Si7 0.045139 0.155013 0.818490
Si Si8 0.683853 0.936000 0.953057
O O1 0.788618 0.206395 0.224331
O O2 0.907880 0.951459 0.241939
O O3 0.640702 0.240548 0.997074
O O4 0.947377 0.135612 0.984581
O O5 0.652259 0.686214 0.994946
O O6 0.870461 0.520697 0.278663
O O7 0.795150 0.770672 0.980188
O O8 0.000000 0.500000 0.000000
O O9 0.491249 0.325785 0.710564
O O10 0.338817 0.535779 0.793752
O O11 0.677644 0.653722 0.458648
O O12 0.442100 0.670299 0.608315
O O13 0.356534 0.925684 0.260517
O O14 0.000000 0.500000 0.500000
O O15 0.079198 0.659866 0.351922
O O16 0.500000 0.500000 0.000000
O O17 0.212003 0.093962 0.905868
O O18 0.500000 0.000000 0.000000
#
# Coordination Sequence:
#
# PCOD9109152 Si02
#       8
#     2   2   2   2   2   2   2   2
#     4  10  22  40  62  91 123 170 203 266 319 369
#     4  11  25  39  64  97 129 165 209 270 319 367
#     4  10  20  41  63  91 127 166 214 252 319 387
#     4  11  22  39  67  92 120 173 213 251 317 389
#     4  11  21  38  63  92 121 165 212 254 314 377
#     4  10  22  37  61  91 127 156 208 265 311 365
#     4  11  22  39  66  89 129 161 215 260 317 377
#     4  12  21  44  67  90 127 171 212 259 310 388
#
# _framework density 19.629660000000001
#
# number of rings (size 3 to 8) (size 9 to 14) (size 15 to 20)
#    0.000    1.250    5.000    1.875    1.750    4.000 
#    0.000    0.625    0.000    6.750    0.000    0.000 
#    0.000    0.000    0.000    0.000    0.000    0.000 
#
# Total GULP energy -89276.728867 kJ/mol
# GULP energy per Si atom -5579.795554 kJ/mol
# Density = 1.958498 g / cm^3
# Si number density = 19.629660 Si / 1000 Ang^3
#
#
#
# Elastic Constant Matrix: (Units=GPa)
#
#
# Indices 1 2 3 4 5 6 
#
# 1 69.2136 20.2604 3.1460 -0.0962 -7.2552 11.6666
# 2 20.2604 120.6805 17.7627 5.3327 -16.1780 20.7088
# 3 3.1460 17.7627 75.8303 -10.0324 -18.2875 7.7789
# 4 -0.0962 5.3327 -10.0324 26.6895 -4.5874 -7.0131
# 5 -7.2552 -16.1780 -18.2875 -4.5874 22.0806 -10.2130
# 6 11.6666 20.7088 7.7789 -7.0131 -10.2130 30.6436
#
#
#
# Elastic Compliance Matrix: (Units=1/GPa)
#
#
# Indices 1 2 3 4 5 6 
#
# 1 0.015904 -0.001713 0.000849 0.000099 0.002767 -0.004168
# 2 -0.001713 0.010325 -0.001823 -0.004080 0.001775 -0.006205
# 3 0.000849 -0.001823 0.019619 0.012747 0.020461 0.005665
# 4 0.000099 -0.004080 0.012747 0.053573 0.028567 0.021265
# 5 0.002767 0.001775 0.020461 0.028567 0.082708 0.026656
# 6 -0.004168 -0.006205 0.005665 0.021265 0.026656 0.050726
#
#
# Mechanical properties :
#
#
# Convention : Reuss Voigt Hill
#
# Bulk Modulus (GPa) = 24.70691 38.67362 31.69027
# Shear Modulus (GPa) = 19.86338 30.85308 25.35823
#
# Velocity S-wave (km/s) = 3.18450 3.96884 3.59811
# Velocity P-wave (km/s) = 5.11226 6.38331 5.78281
#
# Compressibility (1/GPa) = 0.04047450
#
# Stress axis : x y z
#
# Youngs Moduli (GPa) = 62.87879 96.84998 50.97167
#
# Poissons Ratio (x) = 0.16593 -0.04330
# Poissons Ratio (y) = 0.10773 0.09291
# Poissons Ratio (z) = -0.05341 0.17653
#
# Static dielectric constant tensor:
#      x y z
#    x 1.565560 -0.034400 -0.128480 
#    y -0.034400 1.704270 -0.049300 
#    z -0.128480 -0.049300 1.548240 
# 
# From -- ./inp_files/177556.got.cif
#   From: 2010.05.17/outbox.cif.g08.bks.cpg/sg2_89_cif.got.tgz:177556.got - 2010.06.03 11:33:40.
