data_PCOD9109781
_publ_section_title
;
Structure prediction by ZEFSAII (Michael W. Deem and Ramdas Pophale) SiO2 
 PCOD9109781
Probable space group: P -1
;
_chemical_formula_sum "Si O2"
_cell_formula_units_Z 16
_cell_length_a 14.012015
_cell_length_b 22.455184
_cell_length_c 9.632410
_cell_angle_alpha 43.480430
_cell_angle_beta 149.663884
_cell_angle_gamma 152.744438
_cell_volume 689.569516
_symmetry_space_group_name_H-M "P -1"
_symmetry_group_IT_number 2
_symmetry_cell_setting 'triclinic'
loop_
_space_group_symop_operation_xyz
x,y,z
-x,-y,-z
loop_
_atom_site_type_symbol
_atom_site_label
_atom_site_fract_x
_atom_site_fract_y
_atom_site_fract_z
Si Si1 0.939646 0.758067 0.331137
Si Si2 0.676715 0.187348 0.683159
Si Si3 0.962416 0.367810 0.469276
Si Si4 0.895988 0.916367 0.873040
Si Si5 0.987481 0.434197 0.820920
Si Si6 0.413020 0.038970 0.115595
Si Si7 0.631172 0.290319 0.894555
Si Si8 0.418206 0.373095 0.644029
O O1 0.869448 0.732410 0.449466
O O2 0.831113 0.635891 0.321012
O O3 0.291396 0.882131 0.562086
O O4 0.804191 0.791586 0.025992
O O5 0.756733 0.254110 0.518826
O O6 0.902882 0.315147 0.847358
O O7 0.365673 0.117384 0.455269
O O8 0.680555 0.084958 0.858652
O O9 0.108570 0.507613 0.464438
O O10 0.792374 0.329132 0.177544
O O11 0.159405 0.988266 0.979931
O O12 0.000000 0.000000 0.000000
O O13 0.852682 0.385808 0.888042
O O14 0.329801 0.561676 0.040371
O O15 0.480285 0.145473 0.922648
O O16 0.441449 0.310383 0.656483
O O17 0.500000 0.500000 0.500000
#
# Coordination Sequence:
#
# PCOD9109781 Si02
#       8
#     2   2   2   2   2   2   2   2
#     4  11  20  36  66  99 124 162 223 278 313 374
#     4  12  25  42  67  98 137 174 206 274 338 385
#     4  10  20  41  67  92 127 170 218 269 317 380
#     4  12  21  38  65  96 128 171 222 260 321 387
#     4  11  24  45  62  94 137 172 214 272 331 388
#     4  11  23  41  63  98 135 164 220 271 323 384
#     4  10  22  40  67  92 126 173 219 270 313 385
#     4  11  21  40  68  98 122 174 229 264 320 389
#
# _framework density 23.202881999999999
#
# number of rings (size 3 to 8) (size 9 to 14) (size 15 to 20)
#    0.000    1.000    2.500    8.250    0.000    0.500 
#    4.500    1.875    0.000    0.000    0.000    0.000 
#    0.000    0.000    0.000    0.000    0.000    0.000 
#
# Total GULP energy -89307.360327 kJ/mol
# GULP energy per Si atom -5581.710020 kJ/mol
# Density = 2.315007 g / cm^3
# Si number density = 23.202882 Si / 1000 Ang^3
#
#
#
# Elastic Constant Matrix: (Units=GPa)
#
#
# Indices 1 2 3 4 5 6 
#
# 1 112.8732 44.4820 22.0850 -7.3337 27.5940 -2.3632
# 2 44.4820 116.0402 16.3143 -31.2659 15.7120 -17.7844
# 3 22.0850 16.3143 23.3910 -14.8442 23.4919 -7.6342
# 4 -7.3337 -31.2659 -14.8442 38.9209 -9.2769 8.9238
# 5 27.5940 15.7120 23.4919 -9.2769 32.6025 -7.0799
# 6 -2.3632 -17.7844 -7.6342 8.9238 -7.0799 60.2236
#
#
#
# Elastic Compliance Matrix: (Units=1/GPa)
#
#
# Indices 1 2 3 4 5 6 
#
# 1 0.013207 -0.004979 -0.008098 -0.005353 -0.004848 -0.001755
# 2 -0.004979 0.013388 0.006027 0.010824 -0.002942 0.002572
# 3 -0.008098 0.006027 0.222562 0.053617 -0.140018 0.005270
# 4 -0.005353 0.010824 0.053617 0.047754 -0.025803 -0.000326
# 5 -0.004848 -0.002942 -0.140018 -0.025803 0.129802 0.000275
# 6 -0.001755 0.002572 0.005270 -0.000326 0.000275 0.018044
#
#
# Mechanical properties :
#
#
# Convention : Reuss Voigt Hill
#
# Bulk Modulus (GPa) = 4.25430 46.45188 25.35309
# Shear Modulus (GPa) = 9.30738 37.64427 23.47582
#
# Velocity S-wave (km/s) = 2.00500 4.03227 3.18427
# Velocity P-wave (km/s) = 2.68282 6.46082 4.94670
#
# Compressibility (1/GPa) = 0.23505650
#
# Stress axis : x y z
#
# Youngs Moduli (GPa) = 75.71946 74.69338 4.49313
#
# Poissons Ratio (x) = 0.37189 0.03638
# Poissons Ratio (y) = 0.37700 -0.02708
# Poissons Ratio (z) = 0.61317 -0.45016
#
# Static dielectric constant tensor:
#      x y z
#    x 1.918280 -0.066170 0.051530 
#    y -0.066170 1.933090 -0.044620 
#    z 0.051530 -0.044620 1.981810 
# 
# From -- ./inp_files/282954.got.cif
#   From: 2010.05.17/outbox.cif.g08.bks.cpg/sg2_142_cif.got.tgz:282954.got - 2010.06.03 11:33:40.
