data_PCOD9109685
_publ_section_title
;
Structure prediction by ZEFSAII (Michael W. Deem and Ramdas Pophale) SiO2 
 PCOD9109685
Probable space group: P -1
;
_chemical_formula_sum "Si O2"
_cell_formula_units_Z 12
_cell_length_a 10.585887
_cell_length_b 7.269787
_cell_length_c 14.247105
_cell_angle_alpha 108.525980
_cell_angle_beta 29.480784
_cell_angle_gamma 93.814448
_cell_volume 456.843746
_symmetry_space_group_name_H-M "P -1"
_symmetry_group_IT_number 2
_symmetry_cell_setting 'triclinic'
loop_
_space_group_symop_operation_xyz
x,y,z
-x,-y,-z
loop_
_atom_site_type_symbol
_atom_site_label
_atom_site_fract_x
_atom_site_fract_y
_atom_site_fract_z
Si Si1 0.336302 0.460081 0.952839
Si Si2 0.585373 0.754138 0.932168
Si Si3 0.817053 0.865156 0.321364
Si Si4 0.536161 0.094820 0.281203
Si Si5 0.907341 0.198248 0.206165
Si Si6 0.244201 0.535299 0.464604
O O1 0.389686 0.654538 0.998266
O O2 0.565630 0.385207 0.707984
O O3 0.404765 0.297810 0.970936
O O4 0.008438 0.604287 0.148908
O O5 0.914443 0.623369 0.664925
O O6 0.500000 0.000000 0.000000
O O7 0.727189 0.911916 0.495050
O O8 0.500000 0.000000 0.500000
O O9 0.985341 0.980149 0.181142
O O10 0.685430 0.200983 0.272146
O O11 0.397493 0.274652 0.321078
O O12 0.796739 0.861755 0.050870
O O13 0.781471 0.379683 0.396763
#
# Coordination Sequence:
#
# PCOD9109685 Si02
#       6
#     2   2   2   2   2   2
#     4  11  24  46  69 103 140 175 232 292 334 411
#     4  11  26  46  71  98 134 185 234 282 349 402
#     4  10  20  41  66  96 134 176 220 279 343 404
#     4  10  21  40  65  94 140 176 221 276 337 411
#     4  10  22  39  64 100 135 181 219 274 345 408
#     4  12  23  42  68  99 135 176 230 284 341 406
#
# _framework density 26.267187
#
# number of rings (size 3 to 8) (size 9 to 14) (size 15 to 20)
#    0.000    1.333    3.333    2.000    0.000    2.000 
#    0.000    1.667    0.000    0.000    0.000    0.000 
#    0.000    0.000    0.000    0.000    0.000    0.000 
#
# Total GULP energy -67048.366389 kJ/mol
# GULP energy per Si atom -5587.363866 kJ/mol
# Density = 2.620740 g / cm^3
# Si number density = 26.267187 Si / 1000 Ang^3
#
#
#
# Elastic Constant Matrix: (Units=GPa)
#
#
# Indices 1 2 3 4 5 6 
#
# 1 84.0975 -15.6673 -2.0855 13.0244 -3.6225 -2.6610
# 2 -15.6673 123.9721 29.6655 15.5178 -5.4744 -48.7490
# 3 -2.0855 29.6655 164.3611 -7.9940 -4.2319 -32.9345
# 4 13.0244 15.5178 -7.9940 59.3513 -12.5382 5.8004
# 5 -3.6225 -5.4744 -4.2319 -12.5382 36.4368 6.0870
# 6 -2.6610 -48.7490 -32.9345 5.8004 6.0870 38.2612
#
#
#
# Elastic Compliance Matrix: (Units=1/GPa)
#
#
# Indices 1 2 3 4 5 6 
#
# 1 0.014561 0.007135 0.000983 -0.006463 -0.001626 0.012188
# 2 0.007135 0.023416 0.002123 -0.011961 -0.005462 0.034841
# 3 0.000983 0.002123 0.007562 -0.000800 -0.000566 0.009494
# 4 -0.006463 -0.011961 -0.000800 0.025508 0.009890 -0.021818
# 5 -0.001626 -0.005462 -0.000566 0.009890 0.032168 -0.014177
# 6 0.012188 0.034841 0.009494 -0.021818 -0.014177 0.085111
#
#
# Mechanical properties :
#
#
# Convention : Reuss Voigt Hill
#
# Bulk Modulus (GPa) = 15.14657 44.02843 29.58750
# Shear Modulus (GPa) = 26.33621 50.84440 38.59031
#
# Velocity S-wave (km/s) = 3.16986 4.40439 3.83710
# Velocity P-wave (km/s) = 4.37907 6.53169 5.56054
#
# Compressibility (1/GPa) = 0.06602153
#
# Stress axis : x y z
#
# Youngs Moduli (GPa) = 68.67626 42.70521 132.23256
#
# Poissons Ratio (x) = -0.30469 -0.12998
# Poissons Ratio (y) = -0.48998 -0.28075
# Poissons Ratio (z) = -0.06751 -0.09067
#
# Static dielectric constant tensor:
#      x y z
#    x 2.147470 0.065990 0.009410 
#    y 0.065990 2.187470 -0.049360 
#    z 0.009410 -0.049360 2.053140 
# 
# From -- ./inp_files/512051.got.cif
#   From: 2010.05.17/outbox.cif.g08.bks.cpg/sg2_257_cif.got.tgz:512051.got - 2010.06.03 11:33:40.
