data_PCOD9109985
_publ_section_title
;
Structure prediction by ZEFSAII (Michael W. Deem and Ramdas Pophale) SiO2 
 PCOD9109985
Probable space group: P -1
;
_chemical_formula_sum "Si O2"
_cell_formula_units_Z 14
_cell_length_a 9.636141
_cell_length_b 9.405331
_cell_length_c 13.213746
_cell_angle_alpha 27.674519
_cell_angle_beta 58.855237
_cell_angle_gamma 62.299934
_cell_volume 475.971754
_symmetry_space_group_name_H-M "P -1"
_symmetry_group_IT_number 2
_symmetry_cell_setting 'triclinic'
loop_
_space_group_symop_operation_xyz
x,y,z
-x,-y,-z
loop_
_atom_site_type_symbol
_atom_site_label
_atom_site_fract_x
_atom_site_fract_y
_atom_site_fract_z
Si Si1 0.253416 0.538419 0.378566
Si Si2 0.021311 0.006650 0.807647
Si Si3 0.368599 0.817537 0.973217
Si Si4 0.182674 0.405293 0.749655
Si Si5 0.275431 0.074634 0.249002
Si Si6 0.058902 0.799024 0.704690
Si Si7 0.494210 0.035326 0.599167
O O1 0.276286 0.564855 0.230429
O O2 0.228039 0.714987 0.476143
O O3 0.426991 0.375705 0.441058
O O4 0.163124 0.865411 0.222313
O O5 0.123854 0.296051 0.621200
O O6 0.095925 0.941686 0.709266
O O7 0.993601 0.760093 0.063281
O O8 0.558433 0.824476 0.928750
O O9 0.302010 0.144452 0.830665
O O10 0.374172 0.817639 0.848437
O O11 0.180134 0.544916 0.776093
O O12 0.127110 0.303477 0.140741
O O13 0.336631 0.060467 0.352408
O O14 0.000000 0.000000 0.500000
O O15 0.500000 0.000000 0.500000
#
# Coordination Sequence:
#
# PCOD9109985 Si02
#       7
#     2   2   2   2   2   2   2
#     4  10  23  45  65  97 132 172 221 267 319 395
#     4  10  23  42  64  96 133 172 218 265 330 389
#     4   9  22  43  68  97 129 172 218 269 326 382
#     4  10  20  41  68  97 130 170 217 272 325 385
#     4   9  22  41  63  98 128 167 222 263 328 383
#     4  10  22  38  66  94 131 172 210 273 324 381
#     4  10  24  43  66  94 130 174 216 267 329 387
#
# _framework density 29.413511
#
# number of rings (size 3 to 8) (size 9 to 14) (size 15 to 20)
#    0.857    1.429    0.000    0.857    8.000    1.714 
#    7.714    5.000    0.000    0.000    0.000    0.000 
#    0.000    0.000    0.000    0.000    0.000    0.000 
#
# Total GULP energy -77936.199545 kJ/mol
# GULP energy per Si atom -5566.871396 kJ/mol
# Density = 2.934656 g / cm^3
# Si number density = 29.413511 Si / 1000 Ang^3
#
#
#
# Elastic Constant Matrix: (Units=GPa)
#
#
# Indices 1 2 3 4 5 6 
#
# 1 73.2114 12.7136 5.3677 8.2280 11.6455 -13.1290
# 2 12.7136 142.0304 -4.8404 0.3003 -7.4939 -14.7050
# 3 5.3677 -4.8404 199.1508 24.8506 3.5430 14.8716
# 4 8.2280 0.3003 24.8506 45.5912 1.2188 2.3437
# 5 11.6455 -7.4939 3.5430 1.2188 35.8394 1.4759
# 6 -13.1290 -14.7050 14.8716 2.3437 1.4759 33.2887
#
#
#
# Elastic Compliance Matrix: (Units=1/GPa)
#
#
# Indices 1 2 3 4 5 6 
#
# 1 0.016289 -0.001081 -0.000504 -0.002847 -0.005645 0.006623
# 2 -0.001081 0.007526 -0.000027 -0.000033 0.001812 0.002832
# 3 -0.000504 -0.000027 0.005575 -0.002814 -0.000195 -0.002495
# 4 -0.002847 -0.000033 -0.002814 0.024052 0.000444 -0.001594
# 5 -0.005645 0.001812 -0.000195 0.000444 0.030231 -0.002711
# 6 0.006623 0.002832 -0.002495 -0.001594 -0.002711 0.035250
#
#
# Mechanical properties :
#
#
# Convention : Reuss Voigt Hill
#
# Bulk Modulus (GPa) = 38.22050 48.98604 43.60327
# Shear Modulus (GPa) = 38.20543 49.68730 43.94637
#
# Velocity S-wave (km/s) = 3.60795 4.11453 3.86954
# Velocity P-wave (km/s) = 5.51169 6.26601 5.90092
#
# Compressibility (1/GPa) = 0.02616397
#
# Stress axis : x y z
#
# Youngs Moduli (GPa) = 61.38932 132.88120 179.36631
#
# Poissons Ratio (x) = 0.14371 0.09043
# Poissons Ratio (y) = 0.06639 0.00493
# Poissons Ratio (z) = 0.03095 0.00365
#
# Static dielectric constant tensor:
#      x y z
#    x 2.388500 0.031970 -0.052420 
#    y 0.031970 2.430050 0.009660 
#    z -0.052420 0.009660 2.561700 
# 
# From -- ./inp_files/518512.got.cif
#   From: 2010.05.17/outbox.cif.g08.bks.cpg/sg2_260_cif.got.tgz:518512.got - 2010.06.03 11:33:40.
