data_PCOD9109845
_publ_section_title
;
Structure prediction by ZEFSAII (Michael W. Deem and Ramdas Pophale) SiO2 
 PCOD9109845
Probable space group: P -1
;
_chemical_formula_sum "Si O2"
_cell_formula_units_Z 16
_cell_length_a 10.018510
_cell_length_b 14.295134
_cell_length_c 8.374415
_cell_angle_alpha 51.874266
_cell_angle_beta 71.374488
_cell_angle_gamma 103.801516
_cell_volume 725.419439
_symmetry_space_group_name_H-M "P -1"
_symmetry_group_IT_number 2
_symmetry_cell_setting 'triclinic'
loop_
_space_group_symop_operation_xyz
x,y,z
-x,-y,-z
loop_
_atom_site_type_symbol
_atom_site_label
_atom_site_fract_x
_atom_site_fract_y
_atom_site_fract_z
Si Si1 0.569714 0.146715 0.213310
Si Si2 0.993188 0.854533 0.149707
Si Si3 0.314666 0.563719 0.990090
Si Si4 0.999342 0.165653 0.190089
Si Si5 0.260372 0.171103 0.279361
Si Si6 0.627021 0.630307 0.657890
Si Si7 0.056343 0.652060 0.737181
Si Si8 0.303026 0.866273 0.163729
O O1 0.932884 0.236911 0.255785
O O2 0.411895 0.152219 0.207737
O O3 0.500000 0.000000 0.500000
O O4 0.670010 0.164466 0.995218
O O5 0.788953 0.724414 0.382866
O O6 0.143137 0.882422 0.185340
O O7 0.030877 0.820424 0.996433
O O8 0.000000 0.000000 0.000000
O O9 0.434967 0.593688 0.758042
O O10 0.324622 0.707777 0.870423
O O11 0.397839 0.521688 0.140586
O O12 0.122200 0.417119 0.217852
O O13 0.193162 0.223795 0.109624
O O14 0.892081 0.992967 0.438667
O O15 0.301125 0.266550 0.320763
O O16 0.220078 0.737757 0.465048
O O17 0.000000 0.500000 0.000000
O O18 0.500000 0.000000 0.000000
#
# Coordination Sequence:
#
# PCOD9109845 Si02
#       8
#     2   2   2   2   2   2   2   2
#     4  11  26  43  73 107 143 196 244 300 372 441
#     4  12  25  42  71 110 140 184 247 310 358 440
#     4  10  23  44  71  95 143 186 240 291 368 428
#     4  11  23  41  71 100 141 187 243 297 367 427
#     4  10  20  41  67  97 141 186 238 293 361 432
#     4  10  20  44  71  98 135 187 236 300 359 425
#     4  12  28  48  72 104 150 200 241 306 371 435
#     4  12  29  48  72 106 153 187 252 302 368 441
#
# _framework density 22.056204999999999
#
# number of rings (size 3 to 8) (size 9 to 14) (size 15 to 20)
#    0.000    1.000    3.750    1.500   10.500    1.500 
#    0.000    0.625    0.000    0.000    0.000    0.000 
#    0.000    0.000    0.000    0.000    0.000    0.000 
#
# Total GULP energy -89116.087660 kJ/mol
# GULP energy per Si atom -5569.755479 kJ/mol
# Density = 2.200600 g / cm^3
# Si number density = 22.056205 Si / 1000 Ang^3
#
#
#
# Elastic Constant Matrix: (Units=GPa)
#
#
# Indices 1 2 3 4 5 6 
#
# 1 90.0206 3.5391 29.4366 7.6585 -7.6281 -3.0593
# 2 3.5391 89.6069 52.7293 -5.0636 6.5743 -7.5734
# 3 29.4366 52.7293 156.6166 -4.4475 -13.1430 -6.8082
# 4 7.6585 -5.0636 -4.4475 32.7616 0.6443 -0.6123
# 5 -7.6281 6.5743 -13.1430 0.6443 35.2358 -10.5779
# 6 -3.0593 -7.5734 -6.8082 -0.6123 -10.5779 32.3114
#
#
#
# Elastic Compliance Matrix: (Units=1/GPa)
#
#
# Indices 1 2 3 4 5 6 
#
# 1 0.012366 0.000722 -0.002412 -0.003121 0.002142 0.001474
# 2 0.000722 0.014794 -0.005395 0.001490 -0.004341 0.001006
# 3 -0.002412 -0.005395 0.009137 0.000919 0.004448 0.001906
# 4 -0.003121 0.001490 0.000919 0.031638 -0.001037 0.000507
# 5 0.002142 -0.004341 0.004448 -0.001037 0.034781 0.011489
# 6 0.001474 0.001006 0.001906 0.000507 0.011489 0.035497
#
#
# Mechanical properties :
#
#
# Convention : Reuss Voigt Hill
#
# Bulk Modulus (GPa) = 45.19366 56.40601 50.79984
# Shear Modulus (GPa) = 31.29748 36.76437 34.03093
#
# Velocity S-wave (km/s) = 3.77103 4.08714 3.93226
# Velocity P-wave (km/s) = 6.28455 6.92114 6.61051
#
# Compressibility (1/GPa) = 0.02212700
#
# Stress axis : x y z
#
# Youngs Moduli (GPa) = 80.86622 67.59711 109.44728
#
# Poissons Ratio (x) = -0.04881 0.26400
# Poissons Ratio (y) = -0.05839 0.59043
# Poissons Ratio (z) = 0.19506 0.36466
#
# Static dielectric constant tensor:
#      x y z
#    x 2.109350 0.081300 -0.043370 
#    y 0.081300 1.850760 0.032540 
#    z -0.043370 0.032540 1.922750 
# 
# From -- ./inp_files/216680.got.cif
#   From: 2010.05.17/outbox.cif.g08.bks.cpg/sg2_109_cif.got.tgz:216680.got - 2010.06.03 11:33:40.
