data_PCOD9109543
_publ_section_title
;
Structure prediction by ZEFSAII (Michael W. Deem and Ramdas Pophale) SiO2 
 PCOD9109543
Probable space group: P -1
;
_chemical_formula_sum "Si O2"
_cell_formula_units_Z 14
_cell_length_a 11.014142
_cell_length_b 19.611772
_cell_length_c 5.289268
_cell_angle_alpha 114.112844
_cell_angle_beta 68.681105
_cell_angle_gamma 148.383717
_cell_volume 546.385144
_symmetry_space_group_name_H-M "P -1"
_symmetry_group_IT_number 2
_symmetry_cell_setting 'triclinic'
loop_
_space_group_symop_operation_xyz
x,y,z
-x,-y,-z
loop_
_atom_site_type_symbol
_atom_site_label
_atom_site_fract_x
_atom_site_fract_y
_atom_site_fract_z
Si Si1 0.459822 0.424288 0.143368
Si Si2 0.093027 0.105051 0.388185
Si Si3 0.018196 0.426816 0.564455
Si Si4 0.182936 0.745434 0.055617
Si Si5 0.369716 0.122710 0.877329
Si Si6 0.634418 0.355301 0.695160
Si Si7 0.874874 0.719777 0.433576
O O1 0.677856 0.561639 0.341192
O O2 0.193547 0.293901 0.244107
O O3 0.500000 0.500000 0.000000
O O4 0.534830 0.376607 0.952001
O O5 0.181015 0.228573 0.589842
O O6 0.288170 0.152000 0.161794
O O7 0.000000 0.000000 0.500000
O O8 0.874768 0.025170 0.256177
O O9 0.953916 0.357754 0.767205
O O10 0.884020 0.441655 0.714941
O O11 0.285265 0.572790 0.526399
O O12 0.909525 0.326056 0.258080
O O13 0.447829 0.844422 0.066079
O O14 0.107381 0.795233 0.250957
O O15 0.481645 0.211747 0.672929
#
# Coordination Sequence:
#
# PCOD9109543 Si02
#       7
#     2   2   2   2   2   2   2
#     4  11  23  40  67 105 141 190 225 294 368 429
#     4  11  26  48  69  99 133 198 246 298 347 431
#     4  10  23  40  70 107 151 178 232 289 365 434
#     4  11  24  46  70 112 142 188 233 301 368 422
#     4  10  25  44  69  96 141 184 251 288 354 424
#     4  10  20  41  66 102 140 188 230 289 351 431
#     4  11  25  43  70 102 149 178 243 298 362 429
#
# _framework density 25.622951
#
# number of rings (size 3 to 8) (size 9 to 14) (size 15 to 20)
#    0.000    1.429    2.857    0.857    6.000    5.714 
#    2.571    0.714    0.000    0.000    0.000    0.000 
#    0.000    0.000    0.000    0.000    0.000    0.000 
#
# Total GULP energy -77946.725049 kJ/mol
# GULP energy per Si atom -5567.623218 kJ/mol
# Density = 2.556463 g / cm^3
# Si number density = 25.622951 Si / 1000 Ang^3
#
#
#
# Elastic Constant Matrix: (Units=GPa)
#
#
# Indices 1 2 3 4 5 6 
#
# 1 110.8084 46.4156 60.4029 -0.0840 -34.3002 10.1663
# 2 46.4156 91.4473 31.2910 -14.3105 -4.1166 16.8226
# 3 60.4029 31.2910 113.9855 -15.8576 -12.0882 12.0049
# 4 -0.0840 -14.3105 -15.8576 34.6195 -2.4939 3.0630
# 5 -34.3002 -4.1166 -12.0882 -2.4939 50.4825 -6.9152
# 6 10.1663 16.8226 12.0049 3.0630 -6.9152 56.8889
#
#
#
# Elastic Compliance Matrix: (Units=1/GPa)
#
#
# Indices 1 2 3 4 5 6 
#
# 1 0.020431 -0.008446 -0.008514 -0.006747 0.011145 0.002361
# 2 -0.008446 0.016701 0.000932 0.007396 -0.004413 -0.004561
# 3 -0.008514 0.000932 0.013974 0.006805 -0.002349 -0.002355
# 4 -0.006747 0.007396 0.006805 0.035351 -0.001218 -0.004468
# 5 0.011145 -0.004413 -0.002349 -0.001218 0.026828 0.003136
# 6 0.002361 -0.004561 -0.002355 -0.004468 0.003136 0.019624
#
#
# Mechanical properties :
#
#
# Convention : Reuss Voigt Hill
#
# Bulk Modulus (GPa) = 52.48900 65.82892 59.15896
# Shear Modulus (GPa) = 29.18610 40.27363 34.72986
#
# Velocity S-wave (km/s) = 3.37866 3.96887 3.68560
# Velocity P-wave (km/s) = 5.97914 6.83738 6.42261
#
# Compressibility (1/GPa) = 0.01905161
#
# Stress axis : x y z
#
# Youngs Moduli (GPa) = 48.94423 59.87788 71.55908
#
# Poissons Ratio (x) = 0.50570 0.60925
# Poissons Ratio (y) = 0.41336 -0.06670
# Poissons Ratio (z) = 0.41671 -0.05581
#
# Static dielectric constant tensor:
#      x y z
#    x 2.684360 -0.032340 -0.411150 
#    y -0.032340 2.085630 0.042160 
#    z -0.411150 0.042160 1.998330 
# 
# From -- ./inp_files/83399.got.cif
#   From: 2010.05.17/outbox.cif.g08.bks.cpg/sg2_42_cif.got.tgz:83399.got - 2010.06.03 11:33:40.
