data_PCOD9109828
_publ_section_title
;
Structure prediction by ZEFSAII (Michael W. Deem and Ramdas Pophale) SiO2 
 PCOD9109828
Probable space group: P -1
;
_chemical_formula_sum "Si O2"
_cell_formula_units_Z 16
_cell_length_a 16.048007
_cell_length_b 6.216530
_cell_length_c 7.580792
_cell_angle_alpha 71.092377
_cell_angle_beta 65.447822
_cell_angle_gamma 86.357203
_cell_volume 648.557791
_symmetry_space_group_name_H-M "P -1"
_symmetry_group_IT_number 2
_symmetry_cell_setting 'triclinic'
loop_
_space_group_symop_operation_xyz
x,y,z
-x,-y,-z
loop_
_atom_site_type_symbol
_atom_site_label
_atom_site_fract_x
_atom_site_fract_y
_atom_site_fract_z
Si Si1 0.500301 0.766799 0.922669
Si Si2 0.080194 0.505259 0.782280
Si Si3 0.194189 0.111537 0.886688
Si Si4 0.223140 0.368795 0.150173
Si Si5 0.172279 0.912945 0.435749
Si Si6 0.349802 0.780445 0.773297
Si Si7 0.629049 0.146243 0.664901
Si Si8 0.928218 0.274986 0.767306
O O1 0.437183 0.855137 0.797710
O O2 0.602853 0.873049 0.759142
O O3 0.500000 0.500000 0.000000
O O4 0.452492 0.804723 0.143746
O O5 0.163378 0.347682 0.779156
O O6 0.124030 0.763741 0.672323
O O7 0.027866 0.393995 0.686422
O O8 0.000000 0.500000 0.000000
O O9 0.276442 0.972294 0.780703
O O10 0.223450 0.185557 0.040114
O O11 0.103163 0.937436 0.022266
O O12 0.139672 0.529222 0.184908
O O13 0.197769 0.180346 0.375227
O O14 0.306119 0.555323 0.975840
O O15 0.270676 0.807069 0.350156
O O16 0.099283 0.839947 0.365273
O O17 0.373488 0.745693 0.555738
#
# Coordination Sequence:
#
# PCOD9109828 Si02
#       8
#     2   2   2   2   2   2   2   2
#     4  11  25  46  74 109 149 178 228 294 350 432
#     4  12  24  43  66  98 141 184 247 296 350 416
#     4  10  22  41  68  96 141 185 233 293 345 416
#     4  10  20  41  67  95 137 183 233 292 347 412
#     4  11  25  43  67  99 139 187 234 294 360 416
#     4  11  24  44  76 105 143 191 236 281 361 425
#     4  11  25  45  70 107 143 183 238 284 352 430
#     4  10  22  42  64  93 133 186 234 298 355 402
#
# _framework density 24.670123
#
# number of rings (size 3 to 8) (size 9 to 14) (size 15 to 20)
#    0.000    1.250    1.250    4.875    1.750    5.000 
#    2.250    0.000    0.000    0.000    0.000    0.000 
#    0.000    0.000    0.000    0.000    0.000    0.000 
#
# Total GULP energy -89257.763464 kJ/mol
# GULP energy per Si atom -5578.610217 kJ/mol
# Density = 2.461397 g / cm^3
# Si number density = 24.670123 Si / 1000 Ang^3
#
#
#
# Elastic Constant Matrix: (Units=GPa)
#
#
# Indices 1 2 3 4 5 6 
#
# 1 79.3156 2.6678 21.6915 0.8877 4.0212 1.3641
# 2 2.6678 60.0053 42.9745 -11.4484 3.7455 -3.0146
# 3 21.6915 42.9745 116.5552 -19.1395 -4.2261 -7.5260
# 4 0.8877 -11.4484 -19.1395 46.0714 9.1041 -2.3477
# 5 4.0212 3.7455 -4.2261 9.1041 35.8286 -1.5539
# 6 1.3641 -3.0146 -7.5260 -2.3477 -1.5539 20.5321
#
#
#
# Elastic Compliance Matrix: (Units=1/GPa)
#
#
# Indices 1 2 3 4 5 6 
#
# 1 0.013679 0.001773 -0.003585 -0.001035 -0.001977 -0.002231
# 2 0.001773 0.023712 -0.008708 0.003138 -0.004494 0.000190
# 3 -0.003585 -0.008708 0.013354 0.003231 0.002258 0.004395
# 4 -0.001035 0.003138 0.003231 0.025258 -0.006069 0.004142
# 5 -0.001977 -0.004494 0.002258 -0.006069 0.030494 0.001913
# 6 -0.002231 0.000190 0.004395 0.004142 0.001913 0.051110
#
#
# Mechanical properties :
#
#
# Convention : Reuss Voigt Hill
#
# Bulk Modulus (GPa) = 33.66499 43.39373 38.52936
# Shear Modulus (GPa) = 26.51866 33.05592 29.78729
#
# Velocity S-wave (km/s) = 3.28217 3.66446 3.47857
# Velocity P-wave (km/s) = 5.29521 5.96088 5.63788
#
# Compressibility (1/GPa) = 0.02970445
#
# Stress axis : x y z
#
# Youngs Moduli (GPa) = 73.10520 42.17340 74.88600
#
# Poissons Ratio (x) = -0.07479 0.26849
# Poissons Ratio (y) = -0.12964 0.65210
# Poissons Ratio (z) = 0.26210 0.36724
#
# Static dielectric constant tensor:
#      x y z
#    x 2.108810 0.212370 0.064930 
#    y 0.212370 2.219910 -0.067580 
#    z 0.064930 -0.067580 2.201470 
# 
# From -- ./inp_files/323296.got.cif
#   From: 2010.05.17/outbox.cif.g08.bks.cpg/sg2_162_cif.got.tgz:323296.got - 2010.06.03 11:33:40.
