data_PCOD9109076
_publ_section_title
;
Structure prediction by ZEFSAII (Michael W. Deem and Ramdas Pophale) SiO2 
 PCOD9109076
Probable space group: P -1
;
_chemical_formula_sum "Si O2"
_cell_formula_units_Z 16
_cell_length_a 20.604180
_cell_length_b 18.721515
_cell_length_c 12.297368
_cell_angle_alpha 159.475722
_cell_angle_beta 28.664989
_cell_angle_gamma 155.012490
_cell_volume 689.339737
_symmetry_space_group_name_H-M "P -1"
_symmetry_group_IT_number 2
_symmetry_cell_setting 'triclinic'
loop_
_space_group_symop_operation_xyz
x,y,z
-x,-y,-z
loop_
_atom_site_type_symbol
_atom_site_label
_atom_site_fract_x
_atom_site_fract_y
_atom_site_fract_z
Si Si1 0.250849 0.792091 0.404295
Si Si2 0.668762 0.139530 0.391375
Si Si3 0.054499 0.294114 0.703824
Si Si4 0.450545 0.692547 0.350628
Si Si5 0.142829 0.778518 0.319402
Si Si6 0.810103 0.993442 0.790070
Si Si7 0.473899 0.195439 0.374900
Si Si8 0.384713 0.434633 0.677570
O O1 0.210703 0.798383 0.598928
O O2 0.125347 0.747000 0.430824
O O3 0.399398 0.049576 0.526007
O O4 0.311252 0.602635 0.037907
O O5 0.673167 0.357079 0.632785
O O6 0.500000 0.000000 0.500000
O O7 0.688570 0.005648 0.068388
O O8 0.987952 0.253487 0.621454
O O9 0.925140 0.238509 0.910268
O O10 0.112700 0.118038 0.404734
O O11 0.177608 0.570434 0.933554
O O12 0.409198 0.708586 0.558340
O O13 0.500000 0.500000 0.000000
O O14 0.292446 0.035740 0.450011
O O15 0.746483 0.824219 0.537690
O O16 0.476189 0.404748 0.601316
O O17 0.500000 0.000000 0.000000
O O18 0.500000 0.500000 0.500000
#
# Coordination Sequence:
#
# PCOD9109076 Si02
#       8
#     2   2   2   2   2   2   2   2
#     4  10  21  38  60  89 124 166 209 256 318 383
#     4  10  21  41  61  91 131 166 204 259 322 393
#     4  10  22  40  65  92 128 169 220 267 308 373
#     4  10  21  38  55  86 128 167 197 251 322 382
#     4  10  20  41  62  91 129 167 214 273 312 370
#     4  11  22  40  65  96 123 171 220 259 323 378
#     4  11  22  36  60  97 124 159 211 270 321 372
#     4  12  21  36  62  94 126 164 208 270 322 380
#
# _framework density 23.210616000000002
#
# number of rings (size 3 to 8) (size 9 to 14) (size 15 to 20)
#    0.000    1.500    2.500    4.500    0.000    1.000 
#    0.000    1.250    0.000    0.000    0.000    0.000 
#    0.000    0.000    0.000    0.000    0.000    0.000 
#
# Total GULP energy -89184.943150 kJ/mol
# GULP energy per Si atom -5574.058947 kJ/mol
# Density = 2.315779 g / cm^3
# Si number density = 23.210616 Si / 1000 Ang^3
#
#
#
# Elastic Constant Matrix: (Units=GPa)
#
#
# Indices 1 2 3 4 5 6 
#
# 1 194.3933 5.4035 9.3555 1.8831 -5.1014 -43.1886
# 2 5.4035 46.6976 11.2268 10.7483 -1.2171 -11.1472
# 3 9.3555 11.2268 78.9249 2.6476 1.7375 -19.7433
# 4 1.8831 10.7483 2.6476 24.5150 -6.9114 -3.9695
# 5 -5.1014 -1.2171 1.7375 -6.9114 35.9059 4.6291
# 6 -43.1886 -11.1472 -19.7433 -3.9695 4.6291 30.0721
#
#
#
# Elastic Compliance Matrix: (Units=1/GPa)
#
#
# Indices 1 2 3 4 5 6 
#
# 1 0.008035 0.001702 0.002257 0.000459 -0.000601 0.013806
# 2 0.001702 0.026310 -0.000903 -0.010479 -0.002201 0.010560
# 3 0.002257 -0.000903 0.016026 0.000091 -0.002245 0.013786
# 4 0.000459 -0.010479 0.000091 0.048099 0.008727 0.001840
# 5 -0.000601 -0.002201 -0.002245 0.008727 0.030339 -0.006672
# 6 0.013806 0.010560 0.013786 0.001840 -0.006672 0.067316
#
#
# Mechanical properties :
#
#
# Convention : Reuss Voigt Hill
#
# Bulk Modulus (GPa) = 17.70430 41.33195 29.51813
# Shear Modulus (GPa) = 23.94168 37.70059 30.82113
#
# Velocity S-wave (km/s) = 3.21518 4.03461 3.64798
# Velocity P-wave (km/s) = 4.62897 6.28889 5.52166
#
# Compressibility (1/GPa) = 0.05648345
#
# Stress axis : x y z
#
# Youngs Moduli (GPa) = 124.45079 38.00863 62.39825
#
# Poissons Ratio (x) = -0.06469 -0.14082
# Poissons Ratio (y) = -0.21181 0.05632
# Poissons Ratio (z) = -0.28086 0.03431
#
# Static dielectric constant tensor:
#      x y z
#    x 1.988290 0.047700 0.014270 
#    y 0.047700 2.010390 0.018250 
#    z 0.014270 0.018250 1.874510 
# 
# From -- ./inp_files/338451.got.cif
#   From: 2010.05.17/outbox.cif.g08.bks.cpg/sg2_170_cif.got.tgz:338451.got - 2010.06.03 11:33:40.
