data_PCOD9109846
_publ_section_title
;
Structure prediction by ZEFSAII (Michael W. Deem and Ramdas Pophale) SiO2 
 PCOD9109846
Probable space group: P -1
;
_chemical_formula_sum "Si O2"
_cell_formula_units_Z 12
_cell_length_a 16.233513
_cell_length_b 5.433961
_cell_length_c 12.294182
_cell_angle_alpha 99.360290
_cell_angle_beta 151.770849
_cell_angle_gamma 95.915149
_cell_volume 429.877096
_symmetry_space_group_name_H-M "P -1"
_symmetry_group_IT_number 2
_symmetry_cell_setting 'triclinic'
loop_
_space_group_symop_operation_xyz
x,y,z
-x,-y,-z
loop_
_atom_site_type_symbol
_atom_site_label
_atom_site_fract_x
_atom_site_fract_y
_atom_site_fract_z
Si Si1 0.833298 0.584101 0.809029
Si Si2 0.087672 0.294673 0.553639
Si Si3 0.253629 0.012573 0.011092
Si Si4 0.798740 0.879681 0.618171
Si Si5 0.486213 0.859181 0.090104
Si Si6 0.587118 0.323749 0.701473
O O1 0.781984 0.585456 0.622600
O O2 0.629886 0.385935 0.627688
O O3 0.000000 0.500000 0.000000
O O4 0.967354 0.883658 0.058558
O O5 0.291383 0.832289 0.133898
O O6 0.327986 0.509436 0.865750
O O7 0.000000 0.500000 0.500000
O O8 0.000000 0.000000 0.500000
O O9 0.378822 0.975232 0.055087
O O10 0.010507 0.821925 0.687177
O O11 0.319766 0.351511 0.116273
O O12 0.692516 0.911111 0.390578
O O13 0.642300 0.868036 0.531832
O O14 0.500000 0.000000 0.000000
#
# Coordination Sequence:
#
# PCOD9109846 Si02
#       6
#     2   2   2   2   2   2
#     4  11  27  47  77 106 143 192 251 312 369 445
#     4  10  20  41  67  97 141 190 241 288 355 442
#     4  10  23  44  72 107 147 191 246 291 376 446
#     4  10  25  48  71 108 148 188 251 300 378 437
#     4  10  23  45  74 109 151 198 244 312 367 445
#     4  11  25  47  78 106 148 196 237 313 373 443
#
# _framework density 27.914954999999999
#
# number of rings (size 3 to 8) (size 9 to 14) (size 15 to 20)
#    0.000    1.667    0.000    3.500   11.667    0.667 
#    3.000   10.000    0.000    0.000    0.000    0.000 
#    0.000    0.000    0.000    0.000    0.000    0.000 
#
# Total GULP energy -67115.203819 kJ/mol
# GULP energy per Si atom -5592.933652 kJ/mol
# Density = 2.785142 g / cm^3
# Si number density = 27.914955 Si / 1000 Ang^3
#
#
#
# Elastic Constant Matrix: (Units=GPa)
#
#
# Indices 1 2 3 4 5 6 
#
# 1 74.6781 41.9255 10.8319 -2.6605 8.4527 13.3420
# 2 41.9255 191.2082 85.4053 -18.5981 -9.8491 15.2888
# 3 10.8319 85.4053 169.0718 -2.3067 -1.2182 -4.4334
# 4 -2.6605 -18.5981 -2.3067 69.7392 -7.8316 -14.0870
# 5 8.4527 -9.8491 -1.2182 -7.8316 52.3252 -4.2323
# 6 13.3420 15.2888 -4.4334 -14.0870 -4.2323 70.9488
#
#
#
# Elastic Compliance Matrix: (Units=1/GPa)
#
#
# Indices 1 2 3 4 5 6 
#
# 1 0.016439 -0.004139 0.000921 -0.001413 -0.003839 -0.002651
# 2 -0.004139 0.008243 -0.003872 0.002040 0.002379 -0.000693
# 3 0.000921 -0.003872 0.007824 -0.000619 -0.000709 0.000985
# 4 -0.001413 0.002040 -0.000619 0.015799 0.003214 0.003116
# 5 -0.003839 0.002379 -0.000709 0.003214 0.020809 0.002045
# 6 -0.002651 -0.000693 0.000985 0.003116 0.002045 0.015545
#
#
# Mechanical properties :
#
#
# Convention : Reuss Voigt Hill
#
# Bulk Modulus (GPa) = 54.56722 79.03151 66.79937
# Shear Modulus (GPa) = 47.64263 58.38899 53.01581
#
# Velocity S-wave (km/s) = 4.13571 4.57844 4.36270
# Velocity P-wave (km/s) = 6.51119 7.50483 7.02560
#
# Compressibility (1/GPa) = 0.01832602
#
# Stress axis : x y z
#
# Youngs Moduli (GPa) = 60.83141 121.31002 127.81431
#
# Poissons Ratio (x) = 0.50212 -0.11774
# Poissons Ratio (y) = 0.25179 0.49491
# Poissons Ratio (z) = -0.05604 0.46972
#
# Static dielectric constant tensor:
#      x y z
#    x 2.094600 0.113200 -0.074780 
#    y 0.113200 2.320870 0.093890 
#    z -0.074780 0.093890 2.322720 
# 
# From -- ./inp_files/440652.got.cif
#   From: 2010.05.17/outbox.cif.g08.bks.cpg/sg2_221_cif.got.tgz:440652.got - 2010.06.03 11:33:40.
