data_PCOD9109494
_publ_section_title
;
Structure prediction by ZEFSAII (Michael W. Deem and Ramdas Pophale) SiO2 
 PCOD9109494
Probable space group: P -1
;
_chemical_formula_sum "Si O2"
_cell_formula_units_Z 15
_cell_length_a 18.890812
_cell_length_b 6.611736
_cell_length_c 15.029492
_cell_angle_alpha 96.031352
_cell_angle_beta 21.272986
_cell_angle_gamma 85.754660
_cell_volume 595.447116
_symmetry_space_group_name_H-M "P -1"
_symmetry_group_IT_number 2
_symmetry_cell_setting 'triclinic'
loop_
_space_group_symop_operation_xyz
x,y,z
-x,-y,-z
loop_
_atom_site_type_symbol
_atom_site_label
_atom_site_fract_x
_atom_site_fract_y
_atom_site_fract_z
Si Si1 0.186487 0.575551 0.624586
Si Si2 0.674331 0.149838 0.277168
Si Si3 0.388348 0.668547 0.221580
Si Si4 0.844400 0.501751 0.102696
Si Si5 0.182086 0.519720 0.186415
Si Si6 0.000000 0.000000 0.000000
Si Si7 0.013495 0.181423 0.401055
Si Si8 0.651148 0.213826 0.109039
O O1 0.289672 0.574843 0.409148
O O2 0.388381 0.362909 0.428298
O O3 0.131236 0.809502 0.753080
O O4 0.976956 0.529853 0.866411
O O5 0.846798 0.253204 0.104044
O O6 0.417596 0.330891 0.594921
O O7 0.723601 0.089299 0.113789
O O8 0.764431 0.977376 0.245285
O O9 0.166577 0.866237 0.444003
O O10 0.500000 0.500000 0.000000
O O11 0.594559 0.667600 0.031543
O O12 0.000000 0.500000 0.000000
O O13 0.027525 0.401604 0.352902
O O14 0.062168 0.735088 0.406181
O O15 0.258289 0.606684 0.014521
O O16 0.252527 0.969758 0.090884
#
# Coordination Sequence:
#
# PCOD9109494 Si02
#       8
#     2   2   2   2   2   1   2   2
#     4  11  23  42  67  97 132 180 220 277 337 399
#     4  11  24  41  65  94 130 171 223 282 328 406
#     4   9  20  41  65  97 134 167 220 279 330 399
#     4  11  21  46  65  89 130 176 221 271 337 405
#     4   9  21  40  66  95 132 172 225 276 330 410
#     4  12  24  44  64 100 134 176 232 270 340 404
#     4  10  20  41  65  95 132 177 218 274 345 395
#     4  11  22  42  65  99 132 176 224 281 339 397
#
# _framework density 25.191155999999999
#
# number of rings (size 3 to 8) (size 9 to 14) (size 15 to 20)
#    0.000    1.600    2.667    2.000    1.867    0.533 
#   12.000    0.000    0.000    8.800    0.000    0.000 
#    0.000    0.000    0.000    0.000    0.000    0.000 
#
# Total GULP energy -83512.432952 kJ/mol
# GULP energy per Si atom -5567.495530 kJ/mol
# Density = 2.513382 g / cm^3
# Si number density = 25.191156 Si / 1000 Ang^3
#
#
#
# Elastic Constant Matrix: (Units=GPa)
#
#
# Indices 1 2 3 4 5 6 
#
# 1 110.0772 36.4360 55.6515 -6.2680 -15.7021 -6.3466
# 2 36.4360 69.6257 50.2352 -1.9789 -5.9968 5.3586
# 3 55.6515 50.2352 171.9216 3.2940 0.6051 3.1839
# 4 -6.2680 -1.9789 3.2940 43.2179 -19.1523 -5.3774
# 5 -15.7021 -5.9968 0.6051 -19.1523 50.1344 -5.9874
# 6 -6.3466 5.3586 3.1839 -5.3774 -5.9874 31.2513
#
#
#
# Elastic Compliance Matrix: (Units=1/GPa)
#
#
# Indices 1 2 3 4 5 6 
#
# 1 0.014040 -0.004570 -0.003465 0.005947 0.006921 0.006337
# 2 -0.004570 0.020292 -0.004393 0.000488 0.000791 -0.003724
# 3 -0.003465 -0.004393 0.008324 -0.002927 -0.003055 -0.001887
# 4 0.005947 0.000488 -0.002927 0.032358 0.015507 0.009961
# 5 0.006921 0.000791 -0.003055 0.015507 0.029349 0.009872
# 6 0.006337 -0.003724 -0.001887 0.009961 0.009872 0.037722
#
#
# Mechanical properties :
#
#
# Convention : Reuss Voigt Hill
#
# Bulk Modulus (GPa) = 56.18065 70.69664 63.43865
# Shear Modulus (GPa) = 28.92256 38.87419 33.89838
#
# Velocity S-wave (km/s) = 3.39207 3.93258 3.67228
# Velocity P-wave (km/s) = 6.13936 6.98178 6.57408
#
# Compressibility (1/GPa) = 0.01779972
#
# Stress axis : x y z
#
# Youngs Moduli (GPa) = 71.22286 49.27952 120.13743
#
# Poissons Ratio (x) = 0.22520 0.41631
# Poissons Ratio (y) = 0.32548 0.52780
# Poissons Ratio (z) = 0.24681 0.21650
#
# Static dielectric constant tensor:
#      x y z
#    x 2.314980 -0.279700 -0.133230 
#    y -0.279700 2.369010 0.086760 
#    z -0.133230 0.086760 2.033660 
# 
# From -- ./inp_files/537477.got.cif
#   From: 2010.05.17/outbox.cif.g08.bks.cpg/sg2_269_cif.got.tgz:537477.got - 2010.06.03 11:33:40.
