data_PCOD9109086
_publ_section_title
;
Structure prediction by ZEFSAII (Michael W. Deem and Ramdas Pophale) SiO2 
 PCOD9109086
Probable space group: P -1
;
_chemical_formula_sum "Si O2"
_cell_formula_units_Z 16
_cell_length_a 11.327920
_cell_length_b 15.811444
_cell_length_c 9.248755
_cell_angle_alpha 41.490845
_cell_angle_beta 144.484476
_cell_angle_gamma 136.130688
_cell_volume 610.343039
_symmetry_space_group_name_H-M "P -1"
_symmetry_group_IT_number 2
_symmetry_cell_setting 'triclinic'
loop_
_space_group_symop_operation_xyz
x,y,z
-x,-y,-z
loop_
_atom_site_type_symbol
_atom_site_label
_atom_site_fract_x
_atom_site_fract_y
_atom_site_fract_z
Si Si1 0.615373 0.204283 0.258048
Si Si2 0.571668 0.369271 0.757759
Si Si3 0.205270 0.112687 0.132987
Si Si4 0.059215 0.582823 0.305518
Si Si5 0.447483 0.087336 0.961123
Si Si6 0.112807 0.338653 0.574489
Si Si7 0.017776 0.324157 0.173849
Si Si8 0.948019 0.135524 0.102377
O O1 0.607741 0.111624 0.226483
O O2 0.858806 0.278964 0.435389
O O3 0.537024 0.319425 0.952627
O O4 0.445283 0.122636 0.309042
O O5 0.500000 0.500000 0.500000
O O6 0.125374 0.318411 0.441320
O O7 0.814112 0.373393 0.954316
O O8 0.197686 0.251528 0.879842
O O9 0.152464 0.124652 0.233269
O O10 0.000000 0.000000 0.000000
O O11 0.202008 0.496292 0.492043
O O12 0.899952 0.585757 0.005088
O O13 0.133809 0.741744 0.200913
O O14 0.000000 0.500000 0.500000
O O15 0.224276 0.004651 0.908365
O O16 0.451350 0.234417 0.722833
O O17 0.500000 0.000000 0.000000
O O18 0.966460 0.179460 0.232013
#
# Coordination Sequence:
#
# PCOD9109086 Si02
#       8
#     2   2   2   2   2   2   2   2
#     4   9  23  37  63  96 124 169 226 262 328 396
#     4   9  18  31  57  94 128 161 217 274 318 381
#     4  12  23  41  66  94 133 174 214 272 341 396
#     4  10  20  36  64  94 124 172 216 262 326 396
#     4  10  16  37  62  88 132 173 213 271 325 397
#     4  11  21  42  66  92 129 172 217 278 323 392
#     4   9  20  37  63  92 127 171 225 263 330 394
#     4  10  20  37  62  92 126 173 221 261 330 399
#
# _framework density 26.214766999999998
#
# number of rings (size 3 to 8) (size 9 to 14) (size 15 to 20)
#    1.500    0.500    3.750    0.375    1.750    0.500 
#    0.000    1.250    0.000    7.500    0.000    0.000 
#    0.000    0.000    0.000    0.000    0.000    0.000 
#
# Total GULP energy -89074.731533 kJ/mol
# GULP energy per Si atom -5567.170721 kJ/mol
# Density = 2.615510 g / cm^3
# Si number density = 26.214767 Si / 1000 Ang^3
#
#
#
# Elastic Constant Matrix: (Units=GPa)
#
#
# Indices 1 2 3 4 5 6 
#
# 1 163.3557 44.2080 13.3823 0.9015 0.0540 1.6632
# 2 44.2080 123.3640 21.3081 -25.1069 15.2394 5.0247
# 3 13.3823 21.3081 86.4913 -25.7592 8.0682 0.9131
# 4 0.9015 -25.1069 -25.7592 40.0248 -5.9438 7.4319
# 5 0.0540 15.2394 8.0682 -5.9438 41.6292 -3.3803
# 6 1.6632 5.0247 0.9131 7.4319 -3.3803 49.3135
#
#
#
# Elastic Compliance Matrix: (Units=1/GPa)
#
#
# Indices 1 2 3 4 5 6 
#
# 1 0.007058 -0.003034 -0.001295 -0.002858 0.000993 0.000594
# 2 -0.003034 0.011106 0.000176 0.007094 -0.003272 -0.002326
# 3 -0.001295 0.000176 0.014801 0.009755 -0.001687 -0.001834
# 4 -0.002858 0.007094 0.009755 0.037001 0.000282 -0.006364
# 5 0.000993 -0.003272 -0.001687 0.000282 0.025752 0.002054
# 6 0.000594 -0.002326 -0.001834 -0.006364 0.002054 0.021629
#
#
# Mechanical properties :
#
#
# Convention : Reuss Voigt Hill
#
# Bulk Modulus (GPa) = 40.55346 59.00085 49.77716
# Shear Modulus (GPa) = 37.34898 45.81435 41.58167
#
# Velocity S-wave (km/s) = 3.77865 4.18503 3.98702
# Velocity P-wave (km/s) = 5.87715 6.77556 6.34229
#
# Compressibility (1/GPa) = 0.02465881
#
# Stress axis : x y z
#
# Youngs Moduli (GPa) = 141.67869 90.04380 67.56339
#
# Poissons Ratio (x) = 0.27322 0.08748
# Poissons Ratio (y) = 0.42989 -0.01189
# Poissons Ratio (z) = 0.18344 -0.01585
#
# Static dielectric constant tensor:
#      x y z
#    x 2.139770 0.033390 0.061170 
#    y 0.033390 2.189460 0.027750 
#    z 0.061170 0.027750 2.146890 
# 
# From -- ./inp_files/435504.got.cif
#   From: 2010.05.17/outbox.cif.g08.bks.cpg/sg2_218_cif.got.tgz:435504.got - 2010.06.03 11:33:40.
