data_PCOD9109286
_publ_section_title
;
Structure prediction by ZEFSAII (Michael W. Deem and Ramdas Pophale) SiO2 
 PCOD9109286
Probable space group: P -1
;
_chemical_formula_sum "Si O2"
_cell_formula_units_Z 14
_cell_length_a 20.061556
_cell_length_b 7.290462
_cell_length_c 6.852801
_cell_angle_alpha 82.859161
_cell_angle_beta 69.431048
_cell_angle_gamma 133.412523
_cell_volume 574.694267
_symmetry_space_group_name_H-M "P -1"
_symmetry_group_IT_number 2
_symmetry_cell_setting 'triclinic'
loop_
_space_group_symop_operation_xyz
x,y,z
-x,-y,-z
loop_
_atom_site_type_symbol
_atom_site_label
_atom_site_fract_x
_atom_site_fract_y
_atom_site_fract_z
Si Si1 0.841185 0.094008 0.353061
Si Si2 0.176359 0.639073 0.960011
Si Si3 0.411324 0.429221 0.233647
Si Si4 0.595607 0.321767 0.119724
Si Si5 0.169045 0.188148 0.956984
Si Si6 0.999410 0.221843 0.495007
Si Si7 0.438871 0.156126 0.631764
O O1 0.882424 0.344860 0.137511
O O2 0.918284 0.167384 0.435097
O O3 0.718365 0.908790 0.589303
O O4 0.817954 0.875552 0.258232
O O5 0.161958 0.397319 0.934581
O O6 0.309770 0.967960 0.784307
O O7 0.123796 0.539052 0.245793
O O8 0.466255 0.547665 0.375212
O O9 0.500000 0.500000 0.000000
O O10 0.402901 0.610826 0.112539
O O11 0.717335 0.623113 0.056173
O O12 0.492707 0.206370 0.363548
O O13 0.580499 0.075167 0.199726
O O14 0.057140 0.873778 0.222071
O O15 0.000000 0.000000 0.500000
#
# Coordination Sequence:
#
# PCOD9109286 Si02
#       7
#     2   2   2   2   2   2   2
#     4  12  24  43  71  96 135 178 219 279 337 390
#     4  10  24  42  66 101 134 173 224 276 327 402
#     4  12  25  38  64 101 135 173 221 272 334 407
#     4  10  20  41  64  92 129 172 222 267 328 396
#     4  10  22  44  70  94 132 178 221 273 334 392
#     4  10  23  46  69  98 133 173 229 276 327 400
#     4  10  22  41  64  94 132 172 215 274 332 391
#
# _framework density 24.360776999999999
#
# number of rings (size 3 to 8) (size 9 to 14) (size 15 to 20)
#    0.000    1.429    2.857    1.714    2.000    4.000 
#    2.571    5.714    0.000    0.000    0.000    0.000 
#    0.000    0.000    0.000    0.000    0.000    0.000 
#
# Total GULP energy -78324.875400 kJ/mol
# GULP energy per Si atom -5594.633957 kJ/mol
# Density = 2.430533 g / cm^3
# Si number density = 24.360777 Si / 1000 Ang^3
#
#
#
# Elastic Constant Matrix: (Units=GPa)
#
#
# Indices 1 2 3 4 5 6 
#
# 1 109.4063 24.1017 31.4062 -14.0276 10.7442 10.3181
# 2 24.1017 59.8559 17.1422 -3.1645 -4.8287 3.6978
# 3 31.4062 17.1422 112.1078 -31.6097 -0.7193 7.9708
# 4 -14.0276 -3.1645 -31.6097 36.3658 2.4785 2.7679
# 5 10.7442 -4.8287 -0.7193 2.4785 53.7176 -5.1333
# 6 10.3181 3.6978 7.9708 2.7679 -5.1333 29.7717
#
#
#
# Elastic Compliance Matrix: (Units=1/GPa)
#
#
# Indices 1 2 3 4 5 6 
#
# 1 0.011577 -0.004098 -0.001385 0.003432 -0.003244 -0.004011
# 2 -0.004098 0.019121 -0.002409 -0.002218 0.002642 0.000352
# 3 -0.001385 -0.002409 0.013020 0.010908 -0.000635 -0.003830
# 4 0.003432 -0.002218 0.010908 0.038947 -0.003304 -0.008025
# 5 -0.003244 0.002642 -0.000635 -0.003304 0.020099 0.004739
# 6 -0.004011 0.000352 -0.003830 -0.008025 0.004739 0.037524
#
#
# Mechanical properties :
#
#
# Convention : Reuss Voigt Hill
#
# Bulk Modulus (GPa) = 35.79680 47.40778 41.60229
# Shear Modulus (GPa) = 30.23279 37.88569 34.05924
#
# Velocity S-wave (km/s) = 3.52667 3.94787 3.74320
# Velocity P-wave (km/s) = 5.59549 6.34696 5.98303
#
# Compressibility (1/GPa) = 0.02793546
#
# Stress axis : x y z
#
# Youngs Moduli (GPa) = 86.37554 52.29888 76.80332
#
# Poissons Ratio (x) = 0.21430 0.10635
# Poissons Ratio (y) = 0.35394 0.18503
# Poissons Ratio (z) = 0.11960 0.12600
#
# Static dielectric constant tensor:
#      x y z
#    x 1.972680 -0.012240 0.010200 
#    y -0.012240 1.946960 -0.036070 
#    z 0.010200 -0.036070 1.916120 
# 
# From -- ./inp_files/116924.got.cif
#   From: 2010.05.17/outbox.cif.g08.bks.cpg/sg2_59_cif.got.tgz:116924.got - 2010.06.03 11:33:40.
