data_PCOD9109332
_publ_section_title
;
Structure prediction by ZEFSAII (Michael W. Deem and Ramdas Pophale) SiO2 
 PCOD9109332
Probable space group: P -1
;
_chemical_formula_sum "Si O2"
_cell_formula_units_Z 15
_cell_length_a 8.984753
_cell_length_b 11.837929
_cell_length_c 8.031315
_cell_angle_alpha 76.400154
_cell_angle_beta 50.917173
_cell_angle_gamma 75.837600
_cell_volume 639.196834
_symmetry_space_group_name_H-M "P -1"
_symmetry_group_IT_number 2
_symmetry_cell_setting 'triclinic'
loop_
_space_group_symop_operation_xyz
x,y,z
-x,-y,-z
loop_
_atom_site_type_symbol
_atom_site_label
_atom_site_fract_x
_atom_site_fract_y
_atom_site_fract_z
Si Si1 0.305465 0.946235 0.114457
Si Si2 0.620979 0.185700 0.240499
Si Si3 0.629310 0.442499 0.076008
Si Si4 0.187356 0.407865 0.862024
Si Si5 0.044979 0.394744 0.630917
Si Si6 0.207593 0.135121 0.586362
Si Si7 0.050672 0.154847 0.058229
Si Si8 0.000000 0.000000 0.500000
O O1 0.185374 0.890973 0.358893
O O2 0.135874 0.060041 0.169346
O O3 0.500000 0.000000 0.000000
O O4 0.334493 0.868570 0.956620
O O5 0.557524 0.324350 0.229527
O O6 0.436723 0.129450 0.452690
O O7 0.820244 0.168416 0.207987
O O8 0.649499 0.543172 0.162223
O O9 0.500000 0.500000 0.000000
O O10 0.843045 0.393747 0.871618
O O11 0.203474 0.416545 0.649968
O O12 0.138930 0.276785 0.981799
O O13 0.000000 0.500000 0.000000
O O14 0.118303 0.267378 0.554968
O O15 0.000000 0.500000 0.500000
O O16 0.121794 0.111411 0.838073
O O17 0.149721 0.056538 0.505921
#
# Coordination Sequence:
#
# PCOD9109332 Si02
#       8
#     2   2   2   2   2   2   2   1
#     4  12  27  44  69  99 134 178 224 283 338 409
#     4  12  23  44  68  97 133 177 228 276 344 400
#     4  11  22  39  70  97 134 179 223 279 339 402
#     4   9  19  41  66  91 131 174 216 270 335 403
#     4  10  20  41  64  96 138 172 219 281 330 398
#     4  11  24  43  69  97 135 177 227 279 337 409
#     4  11  24  46  69  94 140 174 223 283 338 402
#     4  12  24  44  66  98 134 168 232 278 336 398
#
# _framework density 23.466953
#
# number of rings (size 3 to 8) (size 9 to 14) (size 15 to 20)
#    0.000    1.067    6.667    1.200    1.867    3.733 
#    0.000    6.000    0.000    0.000    0.000    0.000 
#    0.000    0.000    0.000    0.000    0.000    0.000 
#
# Total GULP energy -83675.833023 kJ/mol
# GULP energy per Si atom -5578.388868 kJ/mol
# Density = 2.341354 g / cm^3
# Si number density = 23.466953 Si / 1000 Ang^3
#
#
#
# Elastic Constant Matrix: (Units=GPa)
#
#
# Indices 1 2 3 4 5 6 
#
# 1 168.5300 74.2034 27.8454 -12.1336 -10.1552 27.6317
# 2 74.2034 139.7655 15.5683 -1.2057 15.5575 16.3653
# 3 27.8454 15.5683 87.8571 2.9232 -27.4514 4.6065
# 4 -12.1336 -1.2057 2.9232 32.1097 1.0417 -1.8914
# 5 -10.1552 15.5575 -27.4514 1.0417 43.1552 -0.7821
# 6 27.6317 16.3653 4.6065 -1.8914 -0.7821 40.4982
#
#
#
# Elastic Compliance Matrix: (Units=1/GPa)
#
#
# Indices 1 2 3 4 5 6 
#
# 1 0.009206 -0.004599 -0.001050 0.003063 0.003008 -0.004103
# 2 -0.004599 0.010694 -0.002358 -0.000977 -0.006434 -0.001085
# 3 -0.001050 -0.002358 0.015491 -0.002236 0.010511 0.000006
# 4 0.003063 -0.000977 -0.002236 0.032507 -0.001133 0.000056
# 5 0.003008 -0.006434 0.010511 -0.001133 0.032912 -0.000066
# 6 -0.004103 -0.001085 0.000006 0.000056 -0.000066 0.027931
#
#
# Mechanical properties :
#
#
# Convention : Reuss Voigt Hill
#
# Bulk Modulus (GPa) = 51.60587 70.15406 60.87996
# Shear Modulus (GPa) = 33.06561 41.72165 37.39363
#
# Velocity S-wave (km/s) = 3.75778 4.22108 3.99615
# Velocity P-wave (km/s) = 6.39269 7.32915 6.87688
#
# Compressibility (1/GPa) = 0.01937764
#
# Stress axis : x y z
#
# Youngs Moduli (GPa) = 108.61982 93.51099 64.55333
#
# Poissons Ratio (x) = 0.43005 0.06777
# Poissons Ratio (y) = 0.49954 0.15223
# Poissons Ratio (z) = 0.11403 0.22051
#
# Static dielectric constant tensor:
#      x y z
#    x 1.827640 0.004500 -0.123650 
#    y 0.004500 1.880050 0.053030 
#    z -0.123650 0.053030 1.469910 
# 
# From -- ./inp_files/187304.got.cif
#   From: 2010.05.17/outbox.cif.g08.bks.cpg/sg2_94_cif.got.tgz:187304.got - 2010.06.03 11:33:40.
