data_PCOD9109917
_publ_section_title
;
Structure prediction by ZEFSAII (Michael W. Deem and Ramdas Pophale) SiO2 
 PCOD9109917
Probable space group: P -1
;
_chemical_formula_sum "Si O2"
_cell_formula_units_Z 12
_cell_length_a 12.420068
_cell_length_b 5.414173
_cell_length_c 13.793006
_cell_angle_alpha 115.929993
_cell_angle_beta 139.145038
_cell_angle_gamma 92.848313
_cell_volume 416.200414
_symmetry_space_group_name_H-M "P -1"
_symmetry_group_IT_number 2
_symmetry_cell_setting 'triclinic'
loop_
_space_group_symop_operation_xyz
x,y,z
-x,-y,-z
loop_
_atom_site_type_symbol
_atom_site_label
_atom_site_fract_x
_atom_site_fract_y
_atom_site_fract_z
Si Si1 0.237768 0.739577 0.281676
Si Si2 0.892049 0.940973 0.598261
Si Si3 0.935605 0.398925 0.551731
Si Si4 0.718324 0.804338 0.762238
Si Si5 0.551732 0.282793 0.935608
Si Si6 0.401731 0.265231 0.107937
O O1 0.161024 0.355029 0.192373
O O2 0.500000 0.000000 0.500000
O O3 0.163328 0.879526 0.333690
O O4 0.192372 0.823670 0.161014
O O5 0.975464 0.753644 0.675985
O O6 0.661183 0.588807 0.338804
O O7 0.011777 0.217178 0.635795
O O8 0.000000 0.500000 0.500000
O O9 0.678321 0.071687 0.321677
O O10 0.500000 0.500000 0.500000
O O11 0.666308 0.790841 0.836677
O O12 0.675982 0.553110 0.975465
O O13 0.635805 0.093174 0.011795
O O14 0.500000 0.500000 0.000000
#
# Coordination Sequence:
#
# PCOD9109917 Si02
#       6
#     2   2   2   2   2   2
#     4  10  17  24  41  66 103 129 150 184 254 315
#     4  10  18  29  46  69  98 136 154 198 250 300
#     4  10  21  34  50  69  98 132 171 208 243 285
#     4  10  17  24  41  66 103 129 150 184 254 315
#     4  10  21  34  50  69  98 132 171 208 243 285
#     4  10  18  29  46  69  98 136 154 198 250 300
#
# _framework density 28.832263000000001
#
# number of rings (size 3 to 8) (size 9 to 14) (size 15 to 20)
#    0.000    2.000    3.333    3.000    9.333    0.000 
#    0.000    0.000    0.000    0.000    0.000    0.000 
#    0.000   26.667    0.000    0.000    0.000    0.000 
#
# Total GULP energy -67185.967715 kJ/mol
# GULP energy per Si atom -5598.830643 kJ/mol
# Density = 2.876664 g / cm^3
# Si number density = 28.832263 Si / 1000 Ang^3
#
#
#
# Elastic Constant Matrix: (Units=GPa)
#
#
# Indices 1 2 3 4 5 6 
#
# 1 127.0414 85.0936 26.3496 20.0872 -40.5146 7.2677
# 2 85.0936 338.8589 61.7349 31.1864 -18.4846 -6.3593
# 3 26.3496 61.7349 91.0462 46.9247 -13.9909 5.5897
# 4 20.0872 31.1864 46.9247 84.2130 -5.6482 8.6467
# 5 -40.5146 -18.4846 -13.9909 -5.6482 53.7385 3.4509
# 6 7.2677 -6.3593 5.5897 8.6467 3.4509 79.2070
#
#
#
# Elastic Compliance Matrix: (Units=1/GPa)
#
#
# Indices 1 2 3 4 5 6 
#
# 1 0.012682 -0.002666 0.000330 -0.001473 0.008679 -0.001618
# 2 -0.002666 0.003958 -0.002303 0.000292 -0.001266 0.000748
# 3 0.000330 -0.002303 0.017435 -0.008666 0.003126 -0.000636
# 4 -0.001473 0.000292 -0.008666 0.016956 -0.001419 -0.001019
# 5 0.008679 -0.001266 0.003126 -0.001419 0.025515 -0.002075
# 6 -0.001618 0.000748 -0.000636 -0.001019 -0.002075 0.013080
#
#
# Mechanical properties :
#
#
# Convention : Reuss Voigt Hill
#
# Bulk Modulus (GPa) = 40.32719 100.36698 70.34709
# Shear Modulus (GPa) = 46.65385 69.01626 57.83505
#
# Velocity S-wave (km/s) = 4.02694 4.89787 4.48360
# Velocity P-wave (km/s) = 5.96983 8.17751 7.15928
#
# Compressibility (1/GPa) = 0.02479716
#
# Stress axis : x y z
#
# Youngs Moduli (GPa) = 78.84997 252.62940 57.35430
#
# Poissons Ratio (x) = 0.67356 -0.01892
# Poissons Ratio (y) = 0.21023 0.13210
# Poissons Ratio (z) = -0.02601 0.58184
#
# Static dielectric constant tensor:
#      x y z
#    x 2.199710 -0.117070 0.065650 
#    y -0.117070 2.322560 -0.148360 
#    z 0.065650 -0.148360 2.204250 
# 
# From -- ./inp_files/40793.got.cif
#   From: 2010.05.17/outbox.cif.g08.bks.cpg/sg2_21_cif.got.tgz:40793.got - 2010.06.03 11:33:40.
