data_PCOD9109269
_publ_section_title
;
Structure prediction by ZEFSAII (Michael W. Deem and Ramdas Pophale) SiO2 
 PCOD9109269
Probable space group: P -1
;
_chemical_formula_sum "Si O2"
_cell_formula_units_Z 12
_cell_length_a 7.947618
_cell_length_b 10.572810
_cell_length_c 11.900270
_cell_angle_alpha 39.222001
_cell_angle_beta 74.626750
_cell_angle_gamma 50.252861
_cell_volume 428.190721
_symmetry_space_group_name_H-M "P -1"
_symmetry_group_IT_number 2
_symmetry_cell_setting 'triclinic'
loop_
_space_group_symop_operation_xyz
x,y,z
-x,-y,-z
loop_
_atom_site_type_symbol
_atom_site_label
_atom_site_fract_x
_atom_site_fract_y
_atom_site_fract_z
Si Si1 0.482860 0.070520 0.320453
Si Si2 0.632379 0.374198 0.835650
Si Si3 0.964418 0.267738 0.042229
Si Si4 0.249752 0.390443 0.805117
Si Si5 0.855269 0.020961 0.384766
Si Si6 0.619758 0.600946 0.466195
O O1 0.252449 0.402342 0.107653
O O2 0.735859 0.990448 0.324913
O O3 0.500000 0.000000 0.500000
O O4 0.481620 0.888151 0.362290
O O5 0.834735 0.246245 0.981988
O O6 0.505174 0.269687 0.893965
O O7 0.384022 0.691268 0.708604
O O8 0.746165 0.390945 0.695057
O O9 0.172576 0.242549 0.972338
O O10 0.013982 0.068460 0.268224
O O11 0.025520 0.735312 0.624846
O O12 0.262288 0.385445 0.670959
O O13 0.500000 0.500000 0.500000
#
# Coordination Sequence:
#
# PCOD9109269 Si02
#       6
#     2   2   2   2   2   2
#     4  11  18  39  68  92 124 178 225 260 323 398
#     4  10  20  41  64  91 128 175 220 264 321 396
#     4  11  23  42  68  99 130 173 227 273 325 395
#     4  11  23  40  65  96 135 173 216 272 342 390
#     4  11  22  40  68  99 130 169 227 278 321 394
#     4  10  21  38  66  98 131 175 219 270 336 397
#
# _framework density 28.024894
#
# number of rings (size 3 to 8) (size 9 to 14) (size 15 to 20)
#    0.000    1.333    5.000    2.500    0.000    4.667 
#    0.000   10.000    0.000   13.000    0.000    0.000 
#    0.000    0.000    0.000    0.000    0.000    0.000 
#
# Total GULP energy -67180.385013 kJ/mol
# GULP energy per Si atom -5598.365418 kJ/mol
# Density = 2.796111 g / cm^3
# Si number density = 28.024894 Si / 1000 Ang^3
#
#
#
# Elastic Constant Matrix: (Units=GPa)
#
#
# Indices 1 2 3 4 5 6 
#
# 1 143.5551 55.1590 66.5537 -4.4433 -33.2550 23.3940
# 2 55.1590 174.4177 58.0319 -2.2524 5.2033 13.2998
# 3 66.5537 58.0319 154.4864 11.2715 -52.1974 2.5748
# 4 -4.4433 -2.2524 11.2715 56.7422 -9.0399 10.6300
# 5 -33.2550 5.2033 -52.1974 -9.0399 53.8515 -3.8411
# 6 23.3940 13.2998 2.5748 10.6300 -3.8411 32.7249
#
#
#
# Elastic Compliance Matrix: (Units=1/GPa)
#
#
# Indices 1 2 3 4 5 6 
#
# 1 0.011548 -0.002305 -0.002586 0.003547 0.004894 -0.007693
# 2 -0.002305 0.008259 -0.004287 0.000391 -0.006472 -0.002258
# 3 -0.002586 -0.004287 0.013181 -0.002001 0.011583 0.004563
# 4 0.003547 0.000391 -0.002001 0.020448 0.003017 -0.008825
# 5 0.004894 -0.006472 0.011583 0.003017 0.034039 0.001236
# 6 -0.007693 -0.002258 0.004563 -0.008825 0.001236 0.039627
#
#
# Mechanical properties :
#
#
# Convention : Reuss Voigt Hill
#
# Bulk Modulus (GPa) = 68.34578 92.43870 80.39224
# Shear Modulus (GPa) = 33.25871 48.17803 40.71837
#
# Velocity S-wave (km/s) = 3.44867 4.15072 3.81587
# Velocity P-wave (km/s) = 6.34809 7.48515 6.93994
#
# Compressibility (1/GPa) = 0.01463148
#
# Stress axis : x y z
#
# Youngs Moduli (GPa) = 86.59773 121.07857 75.86572
#
# Poissons Ratio (x) = 0.27910 0.19618
# Poissons Ratio (y) = 0.19962 0.32525
# Poissons Ratio (z) = 0.22393 0.51909
#
# Static dielectric constant tensor:
#      x y z
#    x 2.237150 -0.059180 -0.046220 
#    y -0.059180 2.254410 -0.017390 
#    z -0.046220 -0.017390 2.178800 
# 
# From -- ./inp_files/377600.got.cif
#   From: 2010.05.17/outbox.cif.g08.bks.cpg/sg2_189_cif.got.tgz:377600.got - 2010.06.03 11:33:40.
