data_PCOD9109637
_publ_section_title
;
Structure prediction by ZEFSAII (Michael W. Deem and Ramdas Pophale) SiO2 
 PCOD9109637
Probable space group: P -1
;
_chemical_formula_sum "Si O2"
_cell_formula_units_Z 16
_cell_length_a 11.113807
_cell_length_b 13.622828
_cell_length_c 8.221467
_cell_angle_alpha 55.540575
_cell_angle_beta 52.797978
_cell_angle_gamma 45.140392
_cell_volume 681.038023
_symmetry_space_group_name_H-M "P -1"
_symmetry_group_IT_number 2
_symmetry_cell_setting 'triclinic'
loop_
_space_group_symop_operation_xyz
x,y,z
-x,-y,-z
loop_
_atom_site_type_symbol
_atom_site_label
_atom_site_fract_x
_atom_site_fract_y
_atom_site_fract_z
Si Si1 0.312432 0.695617 0.251129
Si Si2 0.747365 0.871729 0.754744
Si Si3 0.636082 0.048450 0.384564
Si Si4 0.105771 0.013319 0.249501
Si Si5 0.003343 0.812811 0.127653
Si Si6 0.610940 0.697888 0.863974
Si Si7 0.980412 0.434253 0.824309
Si Si8 0.131297 0.592498 0.697028
O O1 0.178231 0.727588 0.179347
O O2 0.289136 0.606519 0.490952
O O3 0.239198 0.854306 0.225674
O O4 0.516944 0.628496 0.094129
O O5 0.672579 0.013281 0.576758
O O6 0.780710 0.917520 0.858234
O O7 0.636736 0.799685 0.871419
O O8 0.949526 0.745479 0.652118
O O9 0.827935 0.943289 0.238438
O O10 0.500000 0.000000 0.500000
O O11 0.528476 0.206146 0.253741
O O12 0.000000 0.000000 0.500000
O O13 0.972282 0.115513 0.119538
O O14 0.957244 0.700471 0.210264
O O15 0.808776 0.576816 0.753397
O O16 0.126801 0.468272 0.725385
O O17 0.902188 0.418698 0.075466
#
# Coordination Sequence:
#
# PCOD9109637 Si02
#       8
#     2   2   2   2   2   2   2   2
#     4  12  24  39  65  97 135 172 219 273 331 386
#     4  10  20  41  66  93 132 170 219 270 329 385
#     4  10  21  42  64  99 132 164 213 280 325 380
#     4  12  22  37  67 101 125 165 226 277 322 383
#     4  12  23  41  71  96 129 176 226 260 333 400
#     4  10  24  41  64  95 140 170 210 275 332 384
#     4  10  23  43  70  92 129 180 219 265 328 400
#     4  10  20  43  66  94 128 171 225 272 320 395
#
# _framework density 23.493549000000002
#
# number of rings (size 3 to 8) (size 9 to 14) (size 15 to 20)
#    0.000    1.250    5.000    0.375    1.750    2.000 
#    0.000    0.000    0.000    0.000    0.000    0.000 
#    0.000    0.000    0.000    0.000    0.000    0.000 
#
# Total GULP energy -89425.040149 kJ/mol
# GULP energy per Si atom -5589.065009 kJ/mol
# Density = 2.344008 g / cm^3
# Si number density = 23.493549 Si / 1000 Ang^3
#
#
#
# Elastic Constant Matrix: (Units=GPa)
#
#
# Indices 1 2 3 4 5 6 
#
# 1 88.3186 16.6802 13.3922 -9.0690 4.0810 4.6835
# 2 16.6802 49.3184 -8.2098 -19.4914 4.4217 5.7947
# 3 13.3922 -8.2098 78.7552 -19.1444 -11.4773 -5.4215
# 4 -9.0690 -19.4914 -19.1444 20.0160 0.2321 -3.7136
# 5 4.0810 4.4217 -11.4773 0.2321 29.0595 -1.3057
# 6 4.6835 5.7947 -5.4215 -3.7136 -1.3057 29.6874
#
#
#
# Elastic Compliance Matrix: (Units=1/GPa)
#
#
# Indices 1 2 3 4 5 6 
#
# 1 0.013084 -0.007371 -0.005199 -0.006659 -0.002830 -0.002532
# 2 -0.007371 0.058859 0.027988 0.081665 0.002711 0.005120
# 3 -0.005199 0.027988 0.032416 0.057442 0.009214 0.008868
# 4 -0.006659 0.081665 0.057442 0.184845 0.010582 0.019188
# 5 -0.002830 0.002711 0.009214 0.010582 0.038158 0.004602
# 6 -0.002532 0.005120 0.008868 0.019188 0.004602 0.037306
#
#
# Mechanical properties :
#
#
# Convention : Reuss Voigt Hill
#
# Bulk Modulus (GPa) = 7.39670 28.90194 18.14932
# Shear Modulus (GPa) = 13.19617 28.72123 20.95870
#
# Velocity S-wave (km/s) = 2.37258 3.50024 2.99005
# Velocity P-wave (km/s) = 3.26508 5.35391 4.43425
#
# Compressibility (1/GPa) = 0.13519536
#
# Stress axis : x y z
#
# Youngs Moduli (GPa) = 76.42681 16.98975 30.84905
#
# Poissons Ratio (x) = 0.12524 0.16038
# Poissons Ratio (y) = 0.56338 -0.86342
# Poissons Ratio (z) = 0.39734 -0.47552
#
# Static dielectric constant tensor:
#      x y z
#    x 1.918670 -0.008660 0.027790 
#    y -0.008660 1.859590 -0.031500 
#    z 0.027790 -0.031500 1.964400 
# 
# From -- ./inp_files/271757.got.cif
#   From: 2010.05.17/outbox.cif.g08.bks.cpg/sg2_136_cif.got.tgz:271757.got - 2010.06.03 11:33:40.
