data_PCOD9109583
_publ_section_title
;
Structure prediction by ZEFSAII (Michael W. Deem and Ramdas Pophale) SiO2 
 PCOD9109583
Probable space group: P -1
;
_chemical_formula_sum "Si O2"
_cell_formula_units_Z 16
_cell_length_a 7.845073
_cell_length_b 11.342319
_cell_length_c 19.328089
_cell_angle_alpha 23.287767
_cell_angle_beta 73.822253
_cell_angle_gamma 74.533309
_cell_volume 652.750890
_symmetry_space_group_name_H-M "P -1"
_symmetry_group_IT_number 2
_symmetry_cell_setting 'triclinic'
loop_
_space_group_symop_operation_xyz
x,y,z
-x,-y,-z
loop_
_atom_site_type_symbol
_atom_site_label
_atom_site_fract_x
_atom_site_fract_y
_atom_site_fract_z
Si Si1 0.180656 0.784506 0.964734
Si Si2 0.965015 0.318283 0.297721
Si Si3 0.323919 0.709034 0.421156
Si Si4 0.389557 0.533050 0.817155
Si Si5 0.793583 0.072512 0.831483
Si Si6 0.763683 0.677335 0.241932
Si Si7 0.601056 0.581533 0.637315
Si Si8 0.569384 0.120084 0.245915
O O1 0.299854 0.828316 0.860342
O O2 0.245119 0.983338 0.914654
O O3 0.986531 0.925568 0.893424
O O4 0.137033 0.448904 0.171550
O O5 0.797600 0.306253 0.270851
O O6 0.901108 0.566080 0.228317
O O7 0.000000 0.000000 0.500000
O O8 0.500000 0.500000 0.500000
O O9 0.239231 0.795454 0.311901
O O10 0.202259 0.518517 0.587322
O O11 0.391345 0.996637 0.299024
O O12 0.540389 0.644447 0.688246
O O13 0.440200 0.595668 0.856467
O O14 0.346710 0.186253 0.000004
O O15 0.759258 0.339886 0.744582
O O16 0.572609 0.576003 0.290414
O O17 0.631054 0.859638 0.433699
#
# Coordination Sequence:
#
# PCOD9109583 Si02
#       8
#     2   2   2   2   2   2   2   2
#     4  11  23  39  65  98 123 160 217 256 307 375
#     4  10  24  43  61  89 131 170 198 260 321 369
#     4  11  20  41  64  90 126 165 204 255 311 362
#     4  10  24  40  62  93 125 164 217 257 307 370
#     4  11  22  38  64  95 124 166 207 264 308 359
#     4  10  20  41  66  90 124 164 214 253 303 377
#     4  10  20  42  65  89 130 167 205 259 310 367
#     4  11  22  41  65  92 130 164 210 258 308 377
#
# _framework density 24.511648000000001
#
# number of rings (size 3 to 8) (size 9 to 14) (size 15 to 20)
#    0.000    1.500    3.750    1.125    0.000    7.500 
#    0.000    8.750    0.000    0.000    0.000    0.000 
#    0.000    0.000    0.000    0.000    0.000    0.000 
#
# Total GULP energy -89654.146677 kJ/mol
# GULP energy per Si atom -5603.384167 kJ/mol
# Density = 2.445586 g / cm^3
# Si number density = 24.511648 Si / 1000 Ang^3
#
#
#
# Elastic Constant Matrix: (Units=GPa)
#
#
# Indices 1 2 3 4 5 6 
#
# 1 69.6058 26.8905 34.4596 7.6964 1.6519 3.2120
# 2 26.8905 137.0021 29.7023 8.7639 -21.5590 0.8781
# 3 34.4596 29.7023 108.9061 15.2177 -14.8565 -10.5479
# 4 7.6964 8.7639 15.2177 31.9676 -0.7476 -2.6973
# 5 1.6519 -21.5590 -14.8565 -0.7476 35.5296 4.6898
# 6 3.2120 0.8781 -10.5479 -2.6973 4.6898 28.4996
#
#
#
# Elastic Compliance Matrix: (Units=1/GPa)
#
#
# Indices 1 2 3 4 5 6 
#
# 1 0.018932 -0.003070 -0.005974 -0.001287 -0.004795 -0.003583
# 2 -0.003070 0.009000 -0.000662 -0.001387 0.005457 -0.001206
# 3 -0.005974 -0.000662 0.012862 -0.004031 0.004600 0.004316
# 4 -0.001287 -0.001387 -0.004031 0.034033 -0.002049 0.002254
# 5 -0.004795 0.005457 0.004600 -0.002049 0.034052 -0.003723
# 6 -0.003583 -0.001206 0.004316 0.002254 -0.003723 0.037952
#
#
# Mechanical properties :
#
#
# Convention : Reuss Voigt Hill
#
# Bulk Modulus (GPa) = 46.76871 55.29098 51.02984
# Shear Modulus (GPa) = 28.83994 34.16346 31.50170
#
# Velocity S-wave (km/s) = 3.43385 3.73737 3.58882
# Velocity P-wave (km/s) = 5.90283 6.42105 6.16739
#
# Compressibility (1/GPa) = 0.02138182
#
# Stress axis : x y z
#
# Youngs Moduli (GPa) = 52.82126 111.10548 77.74923
#
# Poissons Ratio (x) = 0.34109 0.46451
# Poissons Ratio (y) = 0.16216 0.05145
# Poissons Ratio (z) = 0.31558 0.07353
#
# Static dielectric constant tensor:
#      x y z
#    x 1.946910 -0.006410 0.017620 
#    y -0.006410 1.965300 -0.032790 
#    z 0.017620 -0.032790 1.980950 
# 
# From -- ./inp_files/589309.got.cif
#   From: 2010.05.17/outbox.cif.g08.bks.cpg/sg2_295_cif.got.tgz:589309.got - 2010.06.03 11:33:40.
