data_PCOD9109399
_publ_section_title
;
Structure prediction by ZEFSAII (Michael W. Deem and Ramdas Pophale) SiO2 
 PCOD9109399
Probable space group: P -1
;
_chemical_formula_sum "Si O2"
_cell_formula_units_Z 14
_cell_length_a 11.935500
_cell_length_b 13.699283
_cell_length_c 9.594743
_cell_angle_alpha 108.379538
_cell_angle_beta 87.252139
_cell_angle_gamma 31.366986
_cell_volume 594.094146
_symmetry_space_group_name_H-M "P -1"
_symmetry_group_IT_number 2
_symmetry_cell_setting 'triclinic'
loop_
_space_group_symop_operation_xyz
x,y,z
-x,-y,-z
loop_
_atom_site_type_symbol
_atom_site_label
_atom_site_fract_x
_atom_site_fract_y
_atom_site_fract_z
Si Si1 0.381109 0.738920 0.132020
Si Si2 0.230297 0.378989 0.616080
Si Si3 0.820056 0.085792 0.370511
Si Si4 0.714972 0.427744 0.231994
Si Si5 0.236528 0.376611 0.288767
Si Si6 0.309056 0.861184 0.911932
Si Si7 0.778964 0.939470 0.532964
O O1 0.296230 0.925987 0.269510
O O2 0.112723 0.897353 0.259767
O O3 0.643464 0.490713 0.101209
O O4 0.452696 0.671049 0.934956
O O5 0.216666 0.513211 0.698242
O O6 0.288127 0.308151 0.417488
O O7 0.938153 0.567389 0.747695
O O8 0.491609 0.126795 0.583398
O O9 0.570896 0.362140 0.579751
O O10 0.706438 0.156091 0.255283
O O11 0.842900 0.966396 0.415275
O O12 0.989626 0.132068 0.106418
O O13 0.027338 0.651527 0.417722
O O14 0.525916 0.169562 0.110116
#
# Coordination Sequence:
#
# PCOD9109399 Si02
#       7
#     2   2   2   2   2   2   2
#     4  10  23  41  63  89 122 163 204 250 302 350
#     4   9  20  41  63  89 121 161 201 246 304 361
#     4  10  22  45  61  87 126 164 201 249 300 357
#     4  10  22  43  61  89 126 157 203 252 295 364
#     4  11  21  37  65  92 121 159 201 249 306 359
#     4  12  24  38  62  95 123 158 204 251 299 360
#     4  10  20  41  65  89 121 162 204 245 301 363
#
# _framework density 23.565289
#
# number of rings (size 3 to 8) (size 9 to 14) (size 15 to 20)
#    0.000    2.000    2.857    3.429    2.000    1.714 
#    5.143    2.857    0.000    0.000    0.000    0.000 
#    0.000    0.000    0.000    0.000    0.000    0.000 
#
# Total GULP energy -78308.017141 kJ/mol
# GULP energy per Si atom -5593.429796 kJ/mol
# Density = 2.351165 g / cm^3
# Si number density = 23.565289 Si / 1000 Ang^3
#
#
#
# Elastic Constant Matrix: (Units=GPa)
#
#
# Indices 1 2 3 4 5 6 
#
# 1 76.9279 14.9724 10.7217 -2.2344 -6.7570 -25.7822
# 2 14.9724 100.8605 27.2037 -19.3705 2.4643 -25.0613
# 3 10.7217 27.2037 58.1024 -12.8297 -3.4799 -6.6541
# 4 -2.2344 -19.3705 -12.8297 37.7620 0.2182 1.3436
# 5 -6.7570 2.4643 -3.4799 0.2182 29.8757 11.2471
# 6 -25.7822 -25.0613 -6.6541 1.3436 11.2471 41.3943
#
#
#
# Elastic Compliance Matrix: (Units=1/GPa)
#
#
# Indices 1 2 3 4 5 6 
#
# 1 0.016687 0.000852 -0.002223 0.000292 -0.000586 0.010701
# 2 0.000852 0.014847 -0.005046 0.005628 -0.005425 0.010000
# 3 -0.002223 -0.005046 0.020913 0.004441 0.003093 -0.002062
# 4 0.000292 0.005628 0.004441 0.030771 -0.001503 0.003712
# 5 -0.000586 -0.005425 0.003093 -0.001503 0.039352 -0.013796
# 6 0.010701 0.010000 -0.002062 0.003712 -0.013796 0.040174
#
#
# Mechanical properties :
#
#
# Convention : Reuss Voigt Hill
#
# Bulk Modulus (GPa) = 25.24408 37.96518 31.60463
# Shear Modulus (GPa) = 26.48542 34.00592 30.24567
#
# Velocity S-wave (km/s) = 3.35612 3.80287 3.58646
# Velocity P-wave (km/s) = 5.07481 5.95215 5.53090
#
# Compressibility (1/GPa) = 0.03961325
#
# Stress axis : x y z
#
# Youngs Moduli (GPa) = 59.92759 67.35253 47.81620
#
# Poissons Ratio (x) = -0.05738 0.10631
# Poissons Ratio (y) = -0.05105 0.24127
# Poissons Ratio (z) = 0.13323 0.33985
#
# Static dielectric constant tensor:
#      x y z
#    x 1.923860 -0.000250 0.009920 
#    y -0.000250 1.855770 -0.000850 
#    z 0.009920 -0.000850 1.878600 
# 
# From -- ./inp_files/317734.got.cif
#   From: 2010.05.17/outbox.cif.g08.bks.cpg/sg2_159_cif.got.tgz:317734.got - 2010.06.03 11:33:40.
