data_PCOD9109119
_publ_section_title
;
Structure prediction by ZEFSAII (Michael W. Deem and Ramdas Pophale) SiO2 
 PCOD9109119
Probable space group: P -1
;
_chemical_formula_sum "Si O2"
_cell_formula_units_Z 14
_cell_length_a 8.259688
_cell_length_b 14.333339
_cell_length_c 9.256434
_cell_angle_alpha 124.623672
_cell_angle_beta 132.065953
_cell_angle_gamma 86.326960
_cell_volume 572.534342
_symmetry_space_group_name_H-M "P -1"
_symmetry_group_IT_number 2
_symmetry_cell_setting 'triclinic'
loop_
_space_group_symop_operation_xyz
x,y,z
-x,-y,-z
loop_
_atom_site_type_symbol
_atom_site_label
_atom_site_fract_x
_atom_site_fract_y
_atom_site_fract_z
Si Si1 0.992475 0.553483 0.887575
Si Si2 0.933628 0.177922 0.720519
Si Si3 0.600548 0.913072 0.604469
Si Si4 0.853241 0.924202 0.029620
Si Si5 0.748927 0.389114 0.340236
Si Si6 0.485688 0.322067 0.840187
Si Si7 0.931914 0.206249 0.400511
O O1 0.762304 0.458368 0.560550
O O2 0.005603 0.690919 0.040751
O O3 0.251373 0.575446 0.988341
O O4 0.000000 0.500000 0.000000
O O5 0.638210 0.072176 0.493259
O O6 0.932585 0.201803 0.570860
O O7 0.124806 0.134419 0.857401
O O8 0.880247 0.039065 0.856832
O O9 0.549471 0.817469 0.354693
O O10 0.634212 0.845073 0.710798
O O11 0.852042 0.058838 0.174749
O O12 0.000000 0.500000 0.500000
O O13 0.769489 0.262387 0.283281
O O14 0.522885 0.346489 0.054608
O O15 0.225645 0.308740 0.621608
#
# Coordination Sequence:
#
# PCOD9109119 Si02
#       7
#     2   2   2   2   2   2   2
#     4  10  20  41  63  87 121 161 205 253 299 357
#     4  11  22  39  63  88 129 159 201 257 306 359
#     4   9  21  39  62  89 125 162 204 251 297 369
#     4  10  22  39  63  93 121 161 208 244 312 364
#     4  10  22  40  64  87 122 165 204 246 308 358
#     4   9  22  40  65  88 124 162 204 249 310 361
#     4  11  23  40  61  94 127 156 205 257 300 370
#
# _framework density 24.452680000000001
#
# number of rings (size 3 to 8) (size 9 to 14) (size 15 to 20)
#    0.000    2.000    1.429    0.857    0.000   16.571 
#    0.000    2.143    0.000    0.000    0.000    0.000 
#    0.000    0.000    0.000    0.000    0.000    0.000 
#
# Total GULP energy -78243.345357 kJ/mol
# GULP energy per Si atom -5588.810383 kJ/mol
# Density = 2.439702 g / cm^3
# Si number density = 24.452680 Si / 1000 Ang^3
#
#
#
# Elastic Constant Matrix: (Units=GPa)
#
#
# Indices 1 2 3 4 5 6 
#
# 1 59.1858 5.7447 15.1402 7.6893 -14.8794 3.0730
# 2 5.7447 103.8759 11.4165 -3.0896 -9.8482 -7.7237
# 3 15.1402 11.4165 104.7664 -6.5556 -25.1438 -2.8972
# 4 7.6893 -3.0896 -6.5556 26.6566 -1.5610 -9.5571
# 5 -14.8794 -9.8482 -25.1438 -1.5610 37.2219 -4.3146
# 6 3.0730 -7.7237 -2.8972 -9.5571 -4.3146 27.0874
#
#
#
# Elastic Compliance Matrix: (Units=1/GPa)
#
#
# Indices 1 2 3 4 5 6 
#
# 1 0.020167 -0.000937 -0.002101 -0.007784 0.005530 -0.004645
# 2 -0.000937 0.010424 0.000101 0.003406 0.003150 0.004793
# 3 -0.002101 0.000101 0.012356 0.005946 0.008365 0.005019
# 4 -0.007784 0.003406 0.005946 0.049501 0.006312 0.020961
# 5 0.005530 0.003150 0.008365 0.006312 0.036900 0.009270
# 6 -0.004645 0.004793 0.005019 0.020961 0.009270 0.048220
#
#
# Mechanical properties :
#
#
# Convention : Reuss Voigt Hill
#
# Bulk Modulus (GPa) = 26.97326 36.93677 31.95501
# Shear Modulus (GPa) = 25.53641 33.89495 29.71568
#
# Velocity S-wave (km/s) = 3.23510 3.72714 3.48980
# Velocity P-wave (km/s) = 5.00092 5.80175 5.41616
#
# Compressibility (1/GPa) = 0.03707375
#
# Stress axis : x y z
#
# Youngs Moduli (GPa) = 49.58600 95.93310 80.93272
#
# Poissons Ratio (x) = 0.08990 0.17002
# Poissons Ratio (y) = 0.04647 -0.00819
# Poissons Ratio (z) = 0.10417 -0.00971
#
# Static dielectric constant tensor:
#      x y z
#    x 1.989280 0.058330 0.011130 
#    y 0.058330 1.972850 0.011910 
#    z 0.011130 0.011910 1.965240 
# 
# From -- ./inp_files/91043.got.cif
#   From: 2010.05.17/outbox.cif.g08.bks.cpg/sg2_46_cif.got.tgz:91043.got - 2010.06.03 11:33:40.
