data_PCOD9109166
_publ_section_title
;
Structure prediction by ZEFSAII (Michael W. Deem and Ramdas Pophale) SiO2 
 PCOD9109166
Probable space group: P -1
;
_chemical_formula_sum "Si O2"
_cell_formula_units_Z 16
_cell_length_a 14.015261
_cell_length_b 20.397975
_cell_length_c 10.415914
_cell_angle_alpha 60.012851
_cell_angle_beta 109.012758
_cell_angle_gamma 160.336757
_cell_volume 753.025043
_symmetry_space_group_name_H-M "P -1"
_symmetry_group_IT_number 2
_symmetry_cell_setting 'triclinic'
loop_
_space_group_symop_operation_xyz
x,y,z
-x,-y,-z
loop_
_atom_site_type_symbol
_atom_site_label
_atom_site_fract_x
_atom_site_fract_y
_atom_site_fract_z
Si Si1 0.131618 0.249425 0.043417
Si Si2 0.108792 0.407543 0.937469
Si Si3 0.109449 0.899229 0.187265
Si Si4 0.848377 0.470867 0.917899
Si Si5 0.788245 0.919621 0.434047
Si Si6 0.267004 0.767485 0.574862
Si Si7 0.290128 0.064233 0.366179
Si Si8 0.001458 0.353402 0.666244
O O1 0.500000 0.500000 0.000000
O O2 0.047247 0.275299 0.021286
O O3 0.907678 0.032336 0.237716
O O4 0.109036 0.228075 0.900692
O O5 0.490692 0.704641 0.794463
O O6 0.941969 0.326243 0.817870
O O7 0.021513 0.375606 0.071289
O O8 0.035928 0.867762 0.332952
O O9 0.462744 0.187874 0.036566
O O10 0.132259 0.824887 0.255313
O O11 0.953135 0.554623 0.735789
O O12 0.000000 0.500000 0.000000
O O13 0.855011 0.030618 0.463704
O O14 0.394966 0.628625 0.548319
O O15 0.000000 0.000000 0.500000
O O16 0.451385 0.820476 0.630602
O O17 0.163407 0.704669 0.444153
O O18 0.500000 0.000000 0.500000
#
# Coordination Sequence:
#
# PCOD9109166 Si02
#       8
#     2   2   2   2   2   2   2   2
#     4  11  23  43  65  90 120 160 207 257 305 361
#     4   9  21  38  60  87 122 159 205 248 297 364
#     4  10  20  41  63  93 123 161 205 249 299 371
#     4  11  20  39  60  88 126 164 201 245 302 358
#     4  11  24  44  66  90 123 160 206 260 310 363
#     4  12  22  37  62  93 133 163 203 252 306 365
#     4  10  21  41  62  91 127 164 203 252 307 361
#     4  10  21  40  62  92 127 162 204 255 308 361
#
# _framework density 21.247634000000001
#
# number of rings (size 3 to 8) (size 9 to 14) (size 15 to 20)
#    0.000    1.500    3.750    3.000    1.750    2.000 
#    2.250   11.250    0.000    0.000    0.000    0.000 
#    0.000    0.000    0.000    0.000    0.000    0.000 
#
# Total GULP energy -89316.810943 kJ/mol
# GULP energy per Si atom -5582.300684 kJ/mol
# Density = 2.119927 g / cm^3
# Si number density = 21.247634 Si / 1000 Ang^3
#
#
#
# Elastic Constant Matrix: (Units=GPa)
#
#
# Indices 1 2 3 4 5 6 
#
# 1 38.7290 21.4317 15.9771 11.0882 -1.9942 -5.7911
# 2 21.4317 100.0230 24.3361 36.1781 0.9290 -4.1690
# 3 15.9771 24.3361 70.8410 25.4516 5.1008 1.5570
# 4 11.0882 36.1781 25.4516 45.0066 -6.0616 -1.9676
# 5 -1.9942 0.9290 5.1008 -6.0616 29.4077 4.5165
# 6 -5.7911 -4.1690 1.5570 -1.9676 4.5165 33.4147
#
#
#
# Elastic Compliance Matrix: (Units=1/GPa)
#
#
# Indices 1 2 3 4 5 6 
#
# 1 0.031939 -0.005364 -0.005751 0.000261 0.002651 0.004791
# 2 -0.005364 0.015330 0.000351 -0.011628 -0.003420 0.000744
# 3 -0.005751 0.000351 0.019634 -0.010821 -0.005772 -0.001725
# 4 0.000261 -0.011628 -0.010821 0.039009 0.010302 0.000003
# 5 0.002651 -0.003420 -0.005772 0.010302 0.038068 -0.004237
# 6 0.004791 0.000744 -0.001725 0.000003 -0.004237 0.031503
#
#
# Mechanical properties :
#
#
# Convention : Reuss Voigt Hill
#
# Bulk Modulus (GPa) = 22.03813 37.00918 29.52366
# Shear Modulus (GPa) = 23.56975 31.42233 27.49604
#
# Velocity S-wave (km/s) = 3.33421 3.84977 3.60123
# Velocity P-wave (km/s) = 5.02167 6.10056 5.58722
#
# Compressibility (1/GPa) = 0.04537590
#
# Stress axis : x y z
#
# Youngs Moduli (GPa) = 31.30953 65.23053 50.93228
#
# Poissons Ratio (x) = 0.34988 0.29290
# Poissons Ratio (y) = 0.16794 -0.01787
# Poissons Ratio (z) = 0.18006 -0.02289
#
# Static dielectric constant tensor:
#      x y z
#    x 1.783740 -0.031600 -0.029210 
#    y -0.031600 1.782810 0.021710 
#    z -0.029210 0.021710 1.856820 
# 
# From -- ./inp_files/218702.got.cif
#   From: 2010.05.17/outbox.cif.g08.bks.cpg/sg2_110_cif.got.tgz:218702.got - 2010.06.03 11:33:40.
