data_PCOD9109037
_publ_section_title
;
Structure prediction by ZEFSAII (Michael W. Deem and Ramdas Pophale) SiO2 
 PCOD9109037
Probable space group: P -1
;
_chemical_formula_sum "Si O2"
_cell_formula_units_Z 14
_cell_length_a 5.012601
_cell_length_b 17.797548
_cell_length_c 23.749932
_cell_angle_alpha 160.791517
_cell_angle_beta 90.498756
_cell_angle_gamma 98.681553
_cell_volume 610.062204
_symmetry_space_group_name_H-M "P -1"
_symmetry_group_IT_number 2
_symmetry_cell_setting 'triclinic'
loop_
_space_group_symop_operation_xyz
x,y,z
-x,-y,-z
loop_
_atom_site_type_symbol
_atom_site_label
_atom_site_fract_x
_atom_site_fract_y
_atom_site_fract_z
Si Si1 0.241317 0.298637 0.041495
Si Si2 0.382493 0.923211 0.171956
Si Si3 0.116811 0.497263 0.671999
Si Si4 0.194111 0.510993 0.453603
Si Si5 0.569687 0.850194 0.550331
Si Si6 0.302624 0.096577 0.533605
Si Si7 0.108699 0.979669 0.048201
O O1 0.354919 0.142763 0.891546
O O2 0.932662 0.272911 0.996477
O O3 0.509023 0.591453 0.250856
O O4 0.151843 0.169760 0.011507
O O5 0.499826 0.214021 0.354238
O O6 0.356879 0.949520 0.256855
O O7 0.005475 0.502284 0.611598
O O8 0.797273 0.310224 0.571007
O O9 0.324625 0.361003 0.580953
O O10 0.254603 0.788557 0.904286
O O11 0.271385 0.275024 0.279969
O O12 0.000000 0.500000 0.500000
O O13 0.735019 0.991062 0.593265
O O14 0.500000 0.000000 0.500000
O O15 0.000000 0.000000 0.500000
O O16 0.000000 0.000000 0.000000
#
# Coordination Sequence:
#
# PCOD9109037 Si02
#       7
#     2   2   2   2   2   2   2
#     4  12  25  47  71 103 144 183 232 292 348 419
#     4  11  25  44  69 102 144 190 224 281 357 409
#     4  10  22  41  65  98 140 189 232 280 345 396
#     4  10  20  41  62 103 145 191 238 280 326 416
#     4  11  23  46  72  99 138 183 227 286 356 419
#     4  12  27  49  78 108 132 176 237 295 360 427
#     4  10  22  41  66 104 144 190 239 285 334 405
#
# _framework density 22.948481999999998
#
# number of rings (size 3 to 8) (size 9 to 14) (size 15 to 20)
#    0.000    1.143    2.857    3.429    2.000    0.571 
#    5.143   12.143    0.000    0.000    0.000    0.000 
#    0.000    0.000    0.000    0.000    0.000    0.000 
#
# Total GULP energy -78396.607493 kJ/mol
# GULP energy per Si atom -5599.757678 kJ/mol
# Density = 2.289625 g / cm^3
# Si number density = 22.948482 Si / 1000 Ang^3
#
#
#
# Elastic Constant Matrix: (Units=GPa)
#
#
# Indices 1 2 3 4 5 6 
#
# 1 79.3985 17.0313 -8.9261 1.5262 -9.5429 9.5485
# 2 17.0313 183.4695 12.2638 -8.0186 -5.7262 23.6234
# 3 -8.9261 12.2638 36.4502 0.4603 -1.9496 10.1480
# 4 1.5262 -8.0186 0.4603 36.0464 10.9493 0.2573
# 5 -9.5429 -5.7262 -1.9496 10.9493 39.7486 5.5915
# 6 9.5485 23.6234 10.1480 0.2573 5.5915 36.0466
#
#
#
# Elastic Compliance Matrix: (Units=1/GPa)
#
#
# Indices 1 2 3 4 5 6 
#
# 1 0.014822 -0.000976 0.005860 -0.002454 0.005186 -0.005723
# 2 -0.000976 0.006161 -0.001302 0.001226 0.000749 -0.003537
# 3 0.005860 -0.001302 0.032560 -0.002387 0.004967 -0.010619
# 4 -0.002454 0.001226 -0.002387 0.030963 -0.009304 0.001741
# 5 0.005186 0.000749 0.004967 -0.009304 0.030431 -0.007917
# 6 -0.005723 -0.003537 -0.010619 0.001741 -0.007917 0.035781
#
#
# Mechanical properties :
#
#
# Convention : Reuss Voigt Hill
#
# Bulk Modulus (GPa) = 16.47323 37.78403 27.12863
# Shear Modulus (GPa) = 30.52699 40.96493 35.74596
#
# Velocity S-wave (km/s) = 3.65120 4.22961 3.95100
# Velocity P-wave (km/s) = 4.99690 6.35242 5.71499
#
# Compressibility (1/GPa) = 0.06070455
#
# Stress axis : x y z
#
# Youngs Moduli (GPa) = 67.46919 162.32274 30.71258
#
# Poissons Ratio (x) = 0.15843 -0.17997
# Poissons Ratio (y) = 0.06585 0.04000
# Poissons Ratio (z) = -0.39535 0.21141
#
# Static dielectric constant tensor:
#      x y z
#    x 1.857680 0.010390 -0.003310 
#    y 0.010390 1.854880 -0.033990 
#    z -0.003310 -0.033990 1.886160 
# 
# From -- ./inp_files/605009.got.cif
#   From: 2010.05.17/outbox.cif.g08.bks.cpg/sg2_303_cif.got.tgz:605009.got - 2010.06.03 11:33:40.
