data_PCOD9109078
_publ_section_title
;
Structure prediction by ZEFSAII (Michael W. Deem and Ramdas Pophale) SiO2 
 PCOD9109078
Probable space group: P -1
;
_chemical_formula_sum "Si O2"
_cell_formula_units_Z 12
_cell_length_a 8.837782
_cell_length_b 17.588213
_cell_length_c 23.082456
_cell_angle_alpha 20.718091
_cell_angle_beta 145.857390
_cell_angle_gamma 148.403684
_cell_volume 655.686552
_symmetry_space_group_name_H-M "P -1"
_symmetry_group_IT_number 2
_symmetry_cell_setting 'triclinic'
loop_
_space_group_symop_operation_xyz
x,y,z
-x,-y,-z
loop_
_atom_site_type_symbol
_atom_site_label
_atom_site_fract_x
_atom_site_fract_y
_atom_site_fract_z
Si Si1 0.207388 0.500881 0.835582
Si Si2 0.344926 0.800247 0.925946
Si Si3 0.297451 0.057513 0.182143
Si Si4 0.263628 0.966145 0.575228
Si Si5 0.289680 0.290074 0.247162
Si Si6 0.292848 0.954964 0.022033
O O1 0.168912 0.691542 0.728283
O O2 0.448253 0.637464 0.767082
O O3 0.903777 0.323015 0.837669
O O4 0.314372 0.307579 0.034323
O O5 0.519522 0.891006 0.856293
O O6 0.026804 0.809588 0.813051
O O7 0.525600 0.942412 0.936154
O O8 0.303643 0.529877 0.110722
O O9 0.448931 0.952269 0.351425
O O10 0.953672 0.936801 0.144161
O O11 0.315645 0.110475 0.429847
O O12 0.000000 0.000000 0.500000
O O13 0.500000 0.000000 0.000000
#
# Coordination Sequence:
#
# PCOD9109078 Si02
#       6
#     2   2   2   2   2   2
#     4   9  23  40  62  90 118 168 200 246 305 355
#     4  10  20  41  62  92 117 164 203 242 309 358
#     4   9  21  39  64  88 119 163 196 253 294 364
#     4  12  22  38  62  97 125 150 207 253 303 352
#     4  10  22  36  68  88 124 159 199 255 296 361
#     4  10  23  38  67  86 120 162 211 245 292 369
#
# _framework density 18.301427
#
# number of rings (size 3 to 8) (size 9 to 14) (size 15 to 20)
#    1.000    1.000    1.667    1.500    4.667    0.000 
#    0.000    1.667    0.000    0.000    0.000    0.000 
#    0.000    0.000    0.000    0.000    0.000    0.000 
#
# Total GULP energy -66870.837971 kJ/mol
# GULP energy per Si atom -5572.569831 kJ/mol
# Density = 1.825977 g / cm^3
# Si number density = 18.301427 Si / 1000 Ang^3
#
#
#
# Elastic Constant Matrix: (Units=GPa)
#
#
# Indices 1 2 3 4 5 6 
#
# 1 57.0908 51.7306 31.6842 14.4124 30.4002 13.5139
# 2 51.7306 152.3713 42.5688 31.0485 7.7658 -3.1667
# 3 31.6842 42.5688 82.7367 23.8001 -0.7517 -4.3068
# 4 14.4124 31.0485 23.8001 17.5076 -8.6766 -0.3207
# 5 30.4002 7.7658 -0.7517 -8.6766 7.4693 -2.0203
# 6 13.5139 -3.1667 -4.3068 -0.3207 -2.0203 33.7941
#
#
#
# Elastic Compliance Matrix: (Units=1/GPa)
#
#
# Indices 1 2 3 4 5 6 
#
# 1 0.004849 -0.008389 -0.007740 0.036108 0.029720 -0.001592
# 2 -0.008389 0.013002 0.002602 -0.020343 -0.001492 0.004623
# 3 -0.007740 0.002602 0.022548 -0.029723 -0.001887 0.005818
# 4 0.036108 -0.020343 -0.029723 0.086715 -0.033841 -0.021334
# 5 0.029720 -0.001492 -0.001887 -0.033841 -0.028902 -0.014314
# 6 -0.001592 0.004623 0.005818 -0.021334 -0.014314 0.030344
#
#
# Mechanical properties :
#
#
# Convention : Reuss Voigt Hill
#
# Bulk Modulus (GPa) = 74.94153 60.46290 67.70222
# Shear Modulus (GPa) = 31.23862 22.83522 27.03692
#
# Velocity S-wave (km/s) = 4.13594 3.53615 3.84775
# Velocity P-wave (km/s) = 7.99033 7.05560 7.53747
#
# Compressibility (1/GPa) = 0.01334374
#
# Stress axis : x y z
#
# Youngs Moduli (GPa) = 206.21414 76.91391 44.35051
#
# Poissons Ratio (x) = 0.64526 0.34329
# Poissons Ratio (y) = 1.73002 -0.11542
# Poissons Ratio (z) = 1.59616 -0.20016
#
# Static dielectric constant tensor:
#      x y z
#    x 1.624050 0.005050 0.018970 
#    y 0.005050 1.647720 0.003070 
#    z 0.018970 0.003070 1.629550 
# 
# From -- ./inp_files/157163.got.cif
#   From: 2010.05.17/outbox.cif.g08.bks.cpg/sg2_79_cif.got.tgz:157163.got - 2010.06.03 11:33:40.
