data_PCOD9109646
_publ_section_title
;
Structure prediction by ZEFSAII (Michael W. Deem and Ramdas Pophale) SiO2 
 PCOD9109646
Probable space group: P -1
;
_chemical_formula_sum "Si O2"
_cell_formula_units_Z 12
_cell_length_a 13.860109
_cell_length_b 16.133852
_cell_length_c 10.677886
_cell_angle_alpha 23.654282
_cell_angle_beta 142.136004
_cell_angle_gamma 151.354120
_cell_volume 457.975996
_symmetry_space_group_name_H-M "P -1"
_symmetry_group_IT_number 2
_symmetry_cell_setting 'triclinic'
loop_
_space_group_symop_operation_xyz
x,y,z
-x,-y,-z
loop_
_atom_site_type_symbol
_atom_site_label
_atom_site_fract_x
_atom_site_fract_y
_atom_site_fract_z
Si Si1 0.776974 0.559782 0.732625
Si Si2 0.406140 0.145605 0.787425
Si Si3 0.768193 0.329845 0.541124
Si Si4 0.631541 0.370713 0.097363
Si Si5 0.224772 0.067260 0.454935
Si Si6 0.231143 0.210430 0.990179
O O1 0.642902 0.366835 0.749705
O O2 0.693906 0.718025 0.464763
O O3 0.724888 0.379498 0.050004
O O4 0.009783 0.781095 0.640707
O O5 0.359033 0.077126 0.687798
O O6 0.302824 0.899835 0.116041
O O7 0.650296 0.229532 0.426706
O O8 0.737155 0.525996 0.303427
O O9 0.000000 0.500000 0.500000
O O10 0.769550 0.683314 0.848341
O O11 0.405500 0.276823 0.983558
O O12 0.274534 0.117995 0.289693
O O13 0.000000 0.000000 0.000000
#
# Coordination Sequence:
#
# PCOD9109646 Si02
#       6
#     2   2   2   2   2   2
#     4  10  21  38  68  97 133 180 224 265 341 410
#     4  10  21  36  64  97 132 164 227 277 324 382
#     4  11  22  41  70 103 133 175 231 285 326 396
#     4  10  22  43  68  96 140 179 218 283 343 401
#     4  10  20  41  66  94 130 179 224 269 334 412
#     4  11  26  45  70  95 140 186 222 271 355 406
#
# _framework density 26.202248000000001
#
# number of rings (size 3 to 8) (size 9 to 14) (size 15 to 20)
#    0.000    1.667    0.000    7.000    9.333    0.667 
#    3.000    8.333    0.000    0.000    0.000    0.000 
#    0.000    0.000    0.000    0.000    0.000    0.000 
#
# Total GULP energy -67294.076404 kJ/mol
# GULP energy per Si atom -5607.839700 kJ/mol
# Density = 2.614261 g / cm^3
# Si number density = 26.202248 Si / 1000 Ang^3
#
#
#
# Elastic Constant Matrix: (Units=GPa)
#
#
# Indices 1 2 3 4 5 6 
#
# 1 70.6077 34.1872 48.2610 -1.2411 -3.5732 8.4235
# 2 34.1872 192.6211 49.2160 -5.3461 -29.3221 6.1353
# 3 48.2610 49.2160 182.0721 -0.6869 -26.8075 -17.0339
# 4 -1.2411 -5.3461 -0.6869 36.8036 -7.7612 -15.4104
# 5 -3.5732 -29.3221 -26.8075 -7.7612 54.8104 -3.0334
# 6 8.4235 6.1353 -17.0339 -15.4104 -3.0334 40.7663
#
#
#
# Elastic Compliance Matrix: (Units=1/GPa)
#
#
# Indices 1 2 3 4 5 6 
#
# 1 0.020208 -0.002504 -0.006048 -0.004055 -0.004006 -0.008157
# 2 -0.002504 0.006297 -0.000551 0.001556 0.003165 0.000163
# 3 -0.006048 -0.000551 0.008508 0.003529 0.004334 0.006544
# 4 -0.004055 0.001556 0.003529 0.035878 0.008274 0.016257
# 5 -0.004006 0.003165 0.004334 0.008274 0.023357 0.007028
# 6 -0.008157 0.000163 0.006544 0.016257 0.007028 0.035594
#
#
# Mechanical properties :
#
#
# Convention : Reuss Voigt Hill
#
# Bulk Modulus (GPa) = 59.49985 78.73660 69.11823
# Shear Modulus (GPa) = 32.54165 47.38517 39.96341
#
# Velocity S-wave (km/s) = 3.52794 4.25719 3.90961
# Velocity P-wave (km/s) = 6.27315 7.36747 6.84222
#
# Compressibility (1/GPa) = 0.01680677
#
# Stress axis : x y z
#
# Youngs Moduli (GPa) = 49.48556 158.81719 117.53569
#
# Poissons Ratio (x) = 0.39766 0.71083
# Poissons Ratio (y) = 0.12390 0.06479
# Poissons Ratio (z) = 0.29928 0.08755
#
# Static dielectric constant tensor:
#      x y z
#    x 2.011350 -0.014470 0.032480 
#    y -0.014470 2.047100 0.014530 
#    z 0.032480 0.014530 2.084390 
# 
# From -- ./inp_files/465661.got.cif
#   From: 2010.05.17/outbox.cif.g08.bks.cpg/sg2_233_cif.got.tgz:465661.got - 2010.06.03 11:33:40.
