data_PCOD9109208
_publ_section_title
;
Structure prediction by ZEFSAII (Michael W. Deem and Ramdas Pophale) SiO2 
 PCOD9109208
Probable space group: P -1
;
_chemical_formula_sum "Si O2"
_cell_formula_units_Z 14
_cell_length_a 11.868780
_cell_length_b 14.314776
_cell_length_c 9.406197
_cell_angle_alpha 56.828542
_cell_angle_beta 43.595010
_cell_angle_gamma 31.151129
_cell_volume 558.101999
_symmetry_space_group_name_H-M "P -1"
_symmetry_group_IT_number 2
_symmetry_cell_setting 'triclinic'
loop_
_space_group_symop_operation_xyz
x,y,z
-x,-y,-z
loop_
_atom_site_type_symbol
_atom_site_label
_atom_site_fract_x
_atom_site_fract_y
_atom_site_fract_z
Si Si1 0.065005 0.851879 0.377279
Si Si2 0.839195 0.212556 0.319576
Si Si3 0.662199 0.517035 0.052387
Si Si4 0.853189 0.697110 0.388954
Si Si5 0.699729 0.736366 0.987751
Si Si6 0.410427 0.060090 0.319355
Si Si7 0.718574 0.606260 0.353247
O O1 0.093260 0.816240 0.551009
O O2 0.345128 0.662233 0.206146
O O3 0.805367 0.923673 0.503737
O O4 0.014562 0.012205 0.268648
O O5 0.824093 0.335908 0.145531
O O6 0.532331 0.336362 0.481598
O O7 0.660011 0.633885 0.045879
O O8 0.837605 0.443408 0.812603
O O9 0.750093 0.760190 0.590213
O O10 0.769329 0.629267 0.442010
O O11 0.673135 0.886057 0.312318
O O12 0.525527 0.918521 0.908012
O O13 0.009142 0.596820 0.785149
O O14 0.664356 0.739908 0.184082
#
# Coordination Sequence:
#
# PCOD9109208 Si02
#       7
#     2   2   2   2   2   2   2
#     4  11  24  40  67  98 131 177 213 266 338 385
#     4  11  23  41  65 100 138 166 214 278 327 391
#     4  11  24  41  67  99 134 168 218 274 327 390
#     4  10  25  44  65  95 132 176 221 269 328 378
#     4  10  23  37  70 100 128 168 225 268 330 383
#     4  11  24  45  66  94 134 176 221 269 322 400
#     4  10  20  41  64 101 127 171 213 273 328 384
#
# _framework density 25.085021000000001
#
# number of rings (size 3 to 8) (size 9 to 14) (size 15 to 20)
#    0.000    1.429    2.857    1.286    8.000    3.429 
#    0.000    2.143    0.000    0.000    0.000    0.000 
#    0.000    0.000    0.000    0.000    0.000    0.000 
#
# Total GULP energy -78421.334385 kJ/mol
# GULP energy per Si atom -5601.523885 kJ/mol
# Density = 2.502793 g / cm^3
# Si number density = 25.085021 Si / 1000 Ang^3
#
#
#
# Elastic Constant Matrix: (Units=GPa)
#
#
# Indices 1 2 3 4 5 6 
#
# 1 70.1763 6.3339 27.0606 11.5046 -4.4079 12.7401
# 2 6.3339 136.5989 36.0502 -23.7551 -12.4581 -6.0746
# 3 27.0606 36.0502 78.8518 3.0702 3.3903 -3.3618
# 4 11.5046 -23.7551 3.0702 55.6041 -2.3373 -10.2402
# 5 -4.4079 -12.4581 3.3903 -2.3373 27.7538 4.1083
# 6 12.7401 -6.0746 -3.3618 -10.2402 4.1083 28.1789
#
#
#
# Elastic Compliance Matrix: (Units=1/GPa)
#
#
# Indices 1 2 3 4 5 6 
#
# 1 0.021115 -0.000088 -0.007790 -0.006239 0.005753 -0.013601
# 2 -0.000088 0.010157 -0.004924 0.005370 0.005179 0.002838
# 3 -0.007790 -0.004924 0.018143 -0.000794 -0.006513 0.005286
# 4 -0.006239 0.005370 -0.000794 0.023958 0.001707 0.012341
# 5 0.005753 0.005179 -0.006513 0.001707 0.041344 -0.007669
# 6 -0.013601 0.002838 0.005286 0.012341 -0.007669 0.048482
#
#
# Mechanical properties :
#
#
# Convention : Reuss Voigt Hill
#
# Bulk Modulus (GPa) = 41.99956 47.16850 44.58403
# Shear Modulus (GPa) = 25.41424 36.71952 31.06688
#
# Velocity S-wave (km/s) = 3.18641 3.83012 3.52300
# Velocity P-wave (km/s) = 5.50608 6.19710 5.86178
#
# Compressibility (1/GPa) = 0.02380977
#
# Stress axis : x y z
#
# Youngs Moduli (GPa) = 47.35917 98.45813 55.11772
#
# Poissons Ratio (x) = 0.00869 0.42939
# Poissons Ratio (y) = 0.00418 0.27139
# Poissons Ratio (z) = 0.36894 0.48480
#
# Static dielectric constant tensor:
#      x y z
#    x 1.962030 0.029210 -0.014620 
#    y 0.029210 2.060560 0.012270 
#    z -0.014620 0.012270 1.943790 
# 
# From -- ./inp_files/186807.got.cif
#   From: 2010.05.17/outbox.cif.g08.bks.cpg/sg2_94_cif.got.tgz:186807.got - 2010.06.03 11:33:40.
