data_PCOD9109318
_publ_section_title
;
Structure prediction by ZEFSAII (Michael W. Deem and Ramdas Pophale) SiO2 
 PCOD9109318
Probable space group: P -1
;
_chemical_formula_sum "Si O2"
_cell_formula_units_Z 16
_cell_length_a 8.614248
_cell_length_b 10.488200
_cell_length_c 10.604434
_cell_angle_alpha 58.167952
_cell_angle_beta 60.693399
_cell_angle_gamma 65.151368
_cell_volume 692.621050
_symmetry_space_group_name_H-M "P -1"
_symmetry_group_IT_number 2
_symmetry_cell_setting 'triclinic'
loop_
_space_group_symop_operation_xyz
x,y,z
-x,-y,-z
loop_
_atom_site_type_symbol
_atom_site_label
_atom_site_fract_x
_atom_site_fract_y
_atom_site_fract_z
Si Si1 0.631966 0.924054 0.873022
Si Si2 0.285351 0.484736 0.423615
Si Si3 0.952333 0.945238 0.241811
Si Si4 0.563825 0.079232 0.309050
Si Si5 0.308840 0.677947 0.702558
Si Si6 0.165964 0.813595 0.432603
Si Si7 0.975854 0.356937 0.748257
Si Si8 0.034677 0.285835 0.043209
O O1 0.549569 0.893049 0.787318
O O2 0.766872 0.765477 0.946630
O O3 0.732524 0.061311 0.727781
O O4 0.500000 0.000000 0.000000
O O5 0.503264 0.426078 0.369915
O O6 0.235515 0.644824 0.435664
O O7 0.158007 0.380264 0.591070
O O8 0.196411 0.519531 0.301716
O O9 0.068666 0.807600 0.185203
O O10 0.967616 0.879703 0.414403
O O11 0.751938 0.965613 0.256428
O O12 0.999033 0.111406 0.129686
O O13 0.615617 0.232023 0.262508
O O14 0.500000 0.000000 0.500000
O O15 0.209638 0.793364 0.572432
O O16 0.135112 0.620682 0.856062
O O17 0.019792 0.361617 0.873758
#
# Coordination Sequence:
#
# PCOD9109318 Si02
#       8
#     2   2   2   2   2   2   2   2
#     4  11  24  41  66 102 128 165 212 268 328 383
#     4  10  23  41  68  89 124 177 223 250 312 383
#     4   9  20  36  64  92 124 161 203 262 324 379
#     4  11  21  35  64  94 129 163 202 269 323 373
#     4  11  23  40  62  95 130 170 209 263 318 387
#     4  10  22  41  65  90 128 170 214 258 313 391
#     4  10  20  41  64  95 121 166 219 265 305 389
#     4  10  23  38  64  94 131 160 206 270 334 364
#
# _framework density 23.100653000000001
#
# number of rings (size 3 to 8) (size 9 to 14) (size 15 to 20)
#    0.000    1.750    1.250    2.250    3.500    7.000 
#    0.000    0.625    0.000    0.000    0.000    0.000 
#    0.000    0.000    0.000    0.000    0.000    0.000 
#
# Total GULP energy -89239.722361 kJ/mol
# GULP energy per Si atom -5577.482648 kJ/mol
# Density = 2.304807 g / cm^3
# Si number density = 23.100653 Si / 1000 Ang^3
#
#
#
# Elastic Constant Matrix: (Units=GPa)
#
#
# Indices 1 2 3 4 5 6 
#
# 1 101.5559 18.6888 49.8018 5.9639 41.9476 -15.5318
# 2 18.6888 68.7818 12.9949 0.0968 10.1327 0.0649
# 3 49.8018 12.9949 120.1785 2.9775 40.1098 -23.4550
# 4 5.9639 0.0968 2.9775 18.5054 -3.4882 2.7797
# 5 41.9476 10.1327 40.1098 -3.4882 35.0360 1.9140
# 6 -15.5318 0.0649 -23.4550 2.7797 1.9140 42.9885
#
#
#
# Elastic Compliance Matrix: (Units=1/GPa)
#
#
# Indices 1 2 3 4 5 6 
#
# 1 0.030858 -0.002710 0.008169 -0.023360 -0.048894 0.019298
# 2 -0.002710 0.015443 -0.000870 0.001161 -0.000025 -0.001551
# 3 0.008169 -0.000870 0.020459 -0.015089 -0.035363 0.016665
# 4 -0.023360 0.001161 -0.015089 0.077782 0.053968 -0.024107
# 5 -0.048894 -0.000025 -0.035363 0.053968 0.135485 -0.046482
# 6 0.019298 -0.001551 0.016665 -0.024107 -0.046482 0.042958
#
#
# Mechanical properties :
#
#
# Convention : Reuss Voigt Hill
#
# Bulk Modulus (GPa) = 13.16875 50.38747 31.77811
# Shear Modulus (GPa) = 14.74406 33.24136 23.99271
#
# Velocity S-wave (km/s) = 2.52911 3.79750 3.22625
# Velocity P-wave (km/s) = 3.77379 6.40996 5.25971
#
# Compressibility (1/GPa) = 0.07593738
#
# Stress axis : x y z
#
# Youngs Moduli (GPa) = 32.40613 64.75411 48.87919
#
# Poissons Ratio (x) = 0.17551 -0.39928
# Poissons Ratio (y) = 0.08783 0.04251
# Poissons Ratio (z) = -0.26472 0.05632
#
# Static dielectric constant tensor:
#      x y z
#    x 2.022540 -0.000910 0.002090 
#    y -0.000910 1.933830 0.017480 
#    z 0.002090 0.017480 1.900150 
# 
# From -- ./inp_files/184937.got.cif
#   From: 2010.05.17/outbox.cif.g08.bks.cpg/sg2_93_cif.got.tgz:184937.got - 2010.06.03 11:33:40.
