data_PCOD9109403
_publ_section_title
;
Structure prediction by ZEFSAII (Michael W. Deem and Ramdas Pophale) SiO2 
 PCOD9109403
Probable space group: P -1
;
_chemical_formula_sum "Si O2"
_cell_formula_units_Z 14
_cell_length_a 11.959073
_cell_length_b 12.954100
_cell_length_c 21.832940
_cell_angle_alpha 159.060101
_cell_angle_beta 150.250526
_cell_angle_gamma 38.057392
_cell_volume 594.544916
_symmetry_space_group_name_H-M "P -1"
_symmetry_group_IT_number 2
_symmetry_cell_setting 'triclinic'
loop_
_space_group_symop_operation_xyz
x,y,z
-x,-y,-z
loop_
_atom_site_type_symbol
_atom_site_label
_atom_site_fract_x
_atom_site_fract_y
_atom_site_fract_z
Si Si1 0.864877 0.182644 0.084707
Si Si2 0.111894 0.075420 0.729965
Si Si3 0.612839 0.607707 0.678406
Si Si4 0.033003 0.426557 0.544097
Si Si5 0.983484 0.308525 0.632811
Si Si6 0.393043 0.766467 0.414427
Si Si7 0.436855 0.633862 0.221348
O O1 0.010771 0.323637 0.289723
O O2 0.817241 0.466248 0.178957
O O3 0.664303 0.956995 0.892685
O O4 0.000000 0.000000 0.000000
O O5 0.852599 0.139532 0.633013
O O6 0.163097 0.822193 0.567600
O O7 0.280658 0.367922 0.968902
O O8 0.105213 0.893250 0.688341
O O9 0.500000 0.500000 0.500000
O O10 0.859174 0.497121 0.724536
O O11 0.535840 0.449406 0.618373
O O12 0.298800 0.406137 0.671842
O O13 0.000000 0.500000 0.500000
O O14 0.000000 0.000000 0.500000
O O15 0.361906 0.641216 0.261079
O O16 0.566541 0.062380 0.648345
#
# Coordination Sequence:
#
# PCOD9109403 Si02
#       7
#     2   2   2   2   2   2   2
#     4   9  22  42  61  91 131 171 214 267 334 391
#     4  10  21  40  66  91 127 171 223 273 326 392
#     4  11  24  40  63  96 135 169 218 275 336 398
#     4  10  23  41  64  95 131 171 221 274 331 398
#     4  10  20  41  65  89 125 172 220 263 327 397
#     4  10  22  43  60  95 133 169 221 276 325 401
#     4  10  23  40  66  95 127 172 227 269 330 395
#
# _framework density 23.547422000000001
#
# number of rings (size 3 to 8) (size 9 to 14) (size 15 to 20)
#    0.000    2.000    1.429    0.429    4.000    5.143 
#    2.571    1.429    0.000    0.000    0.000    0.000 
#    0.000    0.000    0.000    0.000    0.000    0.000 
#
# Total GULP energy -77974.508050 kJ/mol
# GULP energy per Si atom -5569.607718 kJ/mol
# Density = 2.349383 g / cm^3
# Si number density = 23.547422 Si / 1000 Ang^3
#
#
#
# Elastic Constant Matrix: (Units=GPa)
#
#
# Indices 1 2 3 4 5 6 
#
# 1 98.6036 29.9072 23.7522 13.2157 -0.4958 22.4439
# 2 29.9072 83.6424 42.9149 30.2113 30.1559 42.8954
# 3 23.7522 42.9149 170.9471 31.2061 25.9191 30.8317
# 4 13.2157 30.2113 31.2061 33.1811 11.0327 18.0851
# 5 -0.4958 30.1559 25.9191 11.0327 42.5701 18.1844
# 6 22.4439 42.8954 30.8317 18.0851 18.1844 53.0977
#
#
#
# Elastic Compliance Matrix: (Units=1/GPa)
#
#
# Indices 1 2 3 4 5 6 
#
# 1 0.012337 -0.004076 -0.000818 -0.000444 0.004917 -0.002980
# 2 -0.004076 0.029572 -0.000130 -0.014061 -0.011575 -0.013339
# 3 -0.000818 -0.000130 0.007559 -0.005074 -0.002648 -0.001303
# 4 -0.000444 -0.014061 -0.005074 0.048832 0.001526 -0.002661
# 5 0.004917 -0.011575 -0.002648 0.001526 0.034465 -0.003513
# 6 -0.002980 -0.013339 -0.001303 -0.002661 -0.003513 0.033735
#
#
# Mechanical properties :
#
#
# Convention : Reuss Voigt Hill
#
# Bulk Modulus (GPa) = 25.36709 60.70465 43.03587
# Shear Modulus (GPa) = 26.35906 42.87770 34.61838
#
# Velocity S-wave (km/s) = 3.34938 4.27184 3.83842
# Velocity P-wave (km/s) = 5.07483 7.08288 6.16121
#
# Compressibility (1/GPa) = 0.03942116
#
# Stress axis : x y z
#
# Youngs Moduli (GPa) = 81.05430 33.81548 132.29542
#
# Poissons Ratio (x) = 0.13782 0.10822
# Poissons Ratio (y) = 0.33035 0.01720
# Poissons Ratio (z) = 0.06630 0.00440
#
# Static dielectric constant tensor:
#      x y z
#    x 1.999260 0.002820 0.040540 
#    y 0.002820 2.068870 0.074970 
#    z 0.040540 0.074970 1.913960 
# 
# From -- ./inp_files/382883.got.cif
#   From: 2010.05.17/outbox.cif.g08.bks.cpg/sg2_192_cif.got.tgz:382883.got - 2010.06.03 11:33:40.
