data_PCOD9109567
_publ_section_title
;
Structure prediction by ZEFSAII (Michael W. Deem and Ramdas Pophale) SiO2 
 PCOD9109567
Probable space group: P -1
;
_chemical_formula_sum "Si O2"
_cell_formula_units_Z 16
_cell_length_a 13.737178
_cell_length_b 6.950236
_cell_length_c 12.435455
_cell_angle_alpha 79.359894
_cell_angle_beta 135.116740
_cell_angle_gamma 72.986071
_cell_volume 652.141294
_symmetry_space_group_name_H-M "P -1"
_symmetry_group_IT_number 2
_symmetry_cell_setting 'triclinic'
loop_
_space_group_symop_operation_xyz
x,y,z
-x,-y,-z
loop_
_atom_site_type_symbol
_atom_site_label
_atom_site_fract_x
_atom_site_fract_y
_atom_site_fract_z
Si Si1 0.375204 0.817014 0.123626
Si Si2 0.663451 0.480191 0.010025
Si Si3 0.146076 0.515701 0.040454
Si Si4 0.168953 0.070585 0.152214
Si Si5 0.114036 0.440128 0.337682
Si Si6 0.611518 0.977593 0.242577
Si Si7 0.150389 0.368000 0.719842
Si Si8 0.357045 0.593884 0.472383
O O1 0.454499 0.963950 0.151970
O O2 0.536095 0.543593 0.321770
O O3 0.240209 0.939434 0.105202
O O4 0.321564 0.762875 0.975059
O O5 0.721744 0.502094 0.934665
O O6 0.788799 0.478327 0.194869
O O7 0.473092 0.734763 0.855714
O O8 0.040381 0.742135 0.017243
O O9 0.988589 0.581763 0.833103
O O10 0.227348 0.248570 0.180262
O O11 0.242319 0.883418 0.328593
O O12 0.237797 0.193275 0.532896
O O13 0.235738 0.507527 0.383418
O O14 0.951028 0.656687 0.261173
O O15 0.690006 0.848684 0.202826
O O16 0.000000 0.500000 0.500000
O O17 0.500000 0.500000 0.500000
#
# Coordination Sequence:
#
# PCOD9109567 Si02
#       8
#     2   2   2   2   2   2   2   2
#     4  10  22  39  60  95 130 160 215 259 310 368
#     4  11  22  38  65  95 121 168 208 255 322 373
#     4  10  22  37  59  92 124 174 217 245 321 366
#     4  10  21  38  57  86 132 168 207 260 301 369
#     4   9  20  38  62  90 122 167 209 258 315 370
#     4  10  20  41  66  88 128 162 207 267 311 373
#     4   9  20  41  68  90 122 160 208 260 319 377
#     4   9  20  37  58  90 126 168 205 260 309 357
#
# _framework density 24.534561
#
# number of rings (size 3 to 8) (size 9 to 14) (size 15 to 20)
#    0.000    2.250    1.250    0.375    1.750    6.500 
#    0.000    2.500    2.750    3.750    0.000    0.000 
#    0.000    0.000    0.000    0.000    0.000    0.000 
#
# Total GULP energy -89300.405611 kJ/mol
# GULP energy per Si atom -5581.275351 kJ/mol
# Density = 2.447872 g / cm^3
# Si number density = 24.534561 Si / 1000 Ang^3
#
#
#
# Elastic Constant Matrix: (Units=GPa)
#
#
# Indices 1 2 3 4 5 6 
#
# 1 92.8932 19.6975 12.2896 7.6376 17.1230 -21.8350
# 2 19.6975 121.9358 35.2319 -0.6552 5.3714 -26.7621
# 3 12.2896 35.2319 91.1088 6.5515 -5.9563 0.2837
# 4 7.6376 -0.6552 6.5515 35.0922 2.6910 4.3065
# 5 17.1230 5.3714 -5.9563 2.6910 48.3313 -9.2373
# 6 -21.8350 -26.7621 0.2837 4.3065 -9.2373 44.4391
#
#
#
# Elastic Compliance Matrix: (Units=1/GPa)
#
#
# Indices 1 2 3 4 5 6 
#
# 1 0.013368 -0.000187 -0.001767 -0.003043 -0.003615 0.006011
# 2 -0.000187 0.010878 -0.004253 0.000293 -0.000468 0.006361
# 3 -0.001767 -0.004253 0.013159 -0.001978 0.002287 -0.002847
# 4 -0.003043 0.000293 -0.001978 0.030233 -0.001761 -0.004602
# 5 -0.003615 -0.000468 0.002287 -0.001761 0.022951 0.002869
# 6 0.006011 0.006361 -0.002847 -0.004602 0.002869 0.030347
#
#
# Mechanical properties :
#
#
# Convention : Reuss Voigt Hill
#
# Bulk Modulus (GPa) = 40.01303 48.93067 44.47185
# Shear Modulus (GPa) = 35.29043 41.48711 38.38877
#
# Velocity S-wave (km/s) = 3.79673 4.11660 3.95990
# Velocity P-wave (km/s) = 5.96360 6.52549 6.25086
#
# Compressibility (1/GPa) = 0.02499186
#
# Stress axis : x y z
#
# Youngs Moduli (GPa) = 74.80666 91.92635 75.99123
#
# Poissons Ratio (x) = 0.01717 0.13429
# Poissons Ratio (y) = 0.01397 0.32318
# Poissons Ratio (z) = 0.13219 0.39095
#
# Static dielectric constant tensor:
#      x y z
#    x 1.997030 0.017050 -0.019040 
#    y 0.017050 2.054800 -0.016190 
#    z -0.019040 -0.016190 2.001360 
# 
# From -- ./inp_files/417170.got.cif
#   From: 2010.05.17/outbox.cif.g08.bks.cpg/sg2_209_cif.got.tgz:417170.got - 2010.06.03 11:33:40.
