data_PCOD9109277
_publ_section_title
;
Structure prediction by ZEFSAII (Michael W. Deem and Ramdas Pophale) SiO2 
 PCOD9109277
Probable space group: P -1
;
_chemical_formula_sum "Si O2"
_cell_formula_units_Z 16
_cell_length_a 17.746559
_cell_length_b 22.305020
_cell_length_c 11.653524
_cell_angle_alpha 150.358036
_cell_angle_beta 147.127584
_cell_angle_gamma 16.691597
_cell_volume 654.393309
_symmetry_space_group_name_H-M "P -1"
_symmetry_group_IT_number 2
_symmetry_cell_setting 'triclinic'
loop_
_space_group_symop_operation_xyz
x,y,z
-x,-y,-z
loop_
_atom_site_type_symbol
_atom_site_label
_atom_site_fract_x
_atom_site_fract_y
_atom_site_fract_z
Si Si1 0.595189 0.492870 0.441586
Si Si2 0.500419 0.821909 0.968724
Si Si3 0.040670 0.175465 0.135641
Si Si4 0.635412 0.286771 0.716425
Si Si5 0.085630 0.786302 0.415115
Si Si6 0.713079 0.634120 0.446646
Si Si7 0.236235 0.177097 0.030716
Si Si8 0.356989 0.055691 0.523507
O O1 0.551850 0.514942 0.288317
O O2 0.336907 0.627887 0.395963
O O3 0.839559 0.252368 0.419730
O O4 0.610546 0.622024 0.715609
O O5 0.316736 0.024488 0.978847
O O6 0.691119 0.788361 0.201847
O O7 0.303505 0.932381 0.004880
O O8 0.940509 0.371478 0.267667
O O9 0.802701 0.259214 0.955890
O O10 0.114667 0.161892 0.336318
O O11 0.487499 0.298559 0.623969
O O12 0.852817 0.050831 0.530036
O O13 0.986077 0.724286 0.162039
O O14 0.834907 0.644240 0.703772
O O15 0.549528 0.824313 0.455963
O O16 0.500000 0.000000 0.000000
O O17 0.500000 0.000000 0.500000
#
# Coordination Sequence:
#
# PCOD9109277 Si02
#       8
#     2   2   2   2   2   2   2   2
#     4  11  23  41  66 104 123 172 224 268 335 385
#     4  10  20  41  64  91 135 160 217 275 314 389
#     4  11  24  42  66  91 130 182 213 265 321 387
#     4  12  23  44  65  96 137 166 219 276 328 387
#     4  11  23  39  67  97 131 172 211 272 332 385
#     4  11  25  42  65  96 130 175 219 263 331 391
#     4  11  21  41  66  96 133 168 211 274 333 385
#     4   9  23  42  60  92 125 167 219 263 312 384
#
# _framework density 24.450127999999999
#
# number of rings (size 3 to 8) (size 9 to 14) (size 15 to 20)
#    0.000    1.250    3.750    1.500    1.750    7.000 
#    4.500    1.250    0.000    0.000    0.000    0.000 
#    0.000    0.000    0.000    0.000    0.000    0.000 
#
# Total GULP energy -89558.549362 kJ/mol
# GULP energy per Si atom -5597.409335 kJ/mol
# Density = 2.439448 g / cm^3
# Si number density = 24.450128 Si / 1000 Ang^3
#
#
#
# Elastic Constant Matrix: (Units=GPa)
#
#
# Indices 1 2 3 4 5 6 
#
# 1 83.6647 31.3184 21.6642 -23.8600 3.2068 16.2023
# 2 31.3184 65.7378 36.7634 -26.1544 0.5603 25.9918
# 3 21.6642 36.7634 158.9906 -34.9163 2.2002 10.0175
# 4 -23.8600 -26.1544 -34.9163 54.1303 2.8321 -6.5959
# 5 3.2068 0.5603 2.2002 2.8321 26.5447 0.4681
# 6 16.2023 25.9918 10.0175 -6.5959 0.4681 29.4756
#
#
#
# Elastic Compliance Matrix: (Units=1/GPa)
#
#
# Indices 1 2 3 4 5 6 
#
# 1 0.015621 -0.004084 0.000110 0.004618 -0.002233 -0.003954
# 2 -0.004084 0.031185 -0.003409 0.008382 -0.000385 -0.022214
# 3 0.000110 -0.003409 0.007802 0.003622 -0.000994 0.001120
# 4 0.004618 0.008382 0.003622 0.026462 -0.003767 -0.005180
# 5 -0.002233 -0.000385 -0.000994 -0.003767 0.038427 0.000452
# 6 -0.003954 -0.022214 0.001120 -0.005180 0.000452 0.054142
#
#
# Mechanical properties :
#
#
# Convention : Reuss Voigt Hill
#
# Bulk Modulus (GPa) = 25.09832 54.20944 39.65388
# Shear Modulus (GPa) = 24.79123 36.60660 30.69891
#
# Velocity S-wave (km/s) = 3.18771 3.87356 3.54725
# Velocity P-wave (km/s) = 4.88222 6.49811 5.74724
#
# Compressibility (1/GPa) = 0.03984330
#
# Stress axis : x y z
#
# Youngs Moduli (GPa) = 64.01608 32.06633 128.17947
#
# Poissons Ratio (x) = 0.13095 -0.01410
# Poissons Ratio (y) = 0.26142 0.43692
# Poissons Ratio (z) = -0.00704 0.10930
#
# Static dielectric constant tensor:
#      x y z
#    x 1.952110 -0.019400 -0.001230 
#    y -0.019400 1.951630 -0.004830 
#    z -0.001230 -0.004830 1.973140 
# 
# From -- ./inp_files/427579.got.cif
#   From: 2010.05.17/outbox.cif.g08.bks.cpg/sg2_214_cif.got.tgz:427579.got - 2010.06.03 11:33:40.
