data_PCOD9109544
_publ_section_title
;
Structure prediction by ZEFSAII (Michael W. Deem and Ramdas Pophale) SiO2 
 PCOD9109544
Probable space group: P -1
;
_chemical_formula_sum "Si O2"
_cell_formula_units_Z 16
_cell_length_a 19.634041
_cell_length_b 14.238382
_cell_length_c 10.885535
_cell_angle_alpha 30.170412
_cell_angle_beta 147.829015
_cell_angle_gamma 151.729020
_cell_volume 676.568358
_symmetry_space_group_name_H-M "P -1"
_symmetry_group_IT_number 2
_symmetry_cell_setting 'triclinic'
loop_
_space_group_symop_operation_xyz
x,y,z
-x,-y,-z
loop_
_atom_site_type_symbol
_atom_site_label
_atom_site_fract_x
_atom_site_fract_y
_atom_site_fract_z
Si Si1 0.240266 0.711636 0.380679
Si Si2 0.701349 0.813763 0.046679
Si Si3 0.824239 0.231200 0.415903
Si Si4 0.402215 0.405167 0.136266
Si Si5 0.510370 0.100086 0.646325
Si Si6 0.125596 0.379291 0.811899
Si Si7 0.902227 0.645323 0.648631
Si Si8 0.216981 0.787582 0.908752
O O1 0.408133 0.823248 0.447961
O O2 0.202101 0.558673 0.613457
O O3 0.131931 0.528967 0.318495
O O4 0.228775 0.922849 0.145519
O O5 0.534504 0.668171 0.023771
O O6 0.816086 0.763270 0.346585
O O7 0.666378 0.707117 0.976203
O O8 0.891259 0.493787 0.243579
O O9 0.784569 0.165748 0.288730
O O10 0.953796 0.198540 0.705758
O O11 0.664501 0.102709 0.389698
O O12 0.496282 0.301675 0.442420
O O13 0.256762 0.332182 0.082358
O O14 0.619665 0.068157 0.937085
O O15 0.086017 0.807621 0.750350
O O16 0.834400 0.471052 0.854884
#
# Coordination Sequence:
#
# PCOD9109544 Si02
#       8
#     2   2   2   2   2   2   2   2
#     4  11  20  40  66  98 119 163 207 257 322 356
#     4  11  20  34  66  98 128 155 207 271 308 364
#     4  11  23  40  63  90 124 174 206 252 323 370
#     4  11  20  37  58  95 130 160 209 258 313 369
#     4  11  23  39  65  94 124 170 207 255 314 376
#     4  11  23  40  64  91 129 164 206 267 311 368
#     4  10  20  41  66  94 122 162 212 262 304 370
#     4  10  20  41  66  83 131 170 203 257 313 367
#
# _framework density 23.648757
#
# number of rings (size 3 to 8) (size 9 to 14) (size 15 to 20)
#    0.000    1.250    5.000    2.625    0.000    2.000 
#    0.000    8.750    5.500    0.000    0.000    0.000 
#    0.000    0.000    0.000    0.000    0.000    0.000 
#
# Total GULP energy -89414.811691 kJ/mol
# GULP energy per Si atom -5588.425731 kJ/mol
# Density = 2.359493 g / cm^3
# Si number density = 23.648757 Si / 1000 Ang^3
#
#
#
# Elastic Constant Matrix: (Units=GPa)
#
#
# Indices 1 2 3 4 5 6 
#
# 1 52.1542 16.8391 7.6946 19.5122 10.8508 12.8473
# 2 16.8391 89.1785 32.9619 12.6709 7.8346 20.9801
# 3 7.6946 32.9619 107.8904 24.0637 25.4674 11.7612
# 4 19.5122 12.6709 24.0637 43.3207 7.4948 16.3458
# 5 10.8508 7.8346 25.4674 7.4948 37.7684 9.3258
# 6 12.8473 20.9801 11.7612 16.3458 9.3258 32.7413
#
#
#
# Elastic Compliance Matrix: (Units=1/GPa)
#
#
# Indices 1 2 3 4 5 6 
#
# 1 0.025530 -0.003547 0.003288 -0.010484 -0.006265 -0.001907
# 2 -0.003547 0.015006 -0.004578 0.002542 0.002610 -0.008592
# 3 0.003288 -0.004578 0.013784 -0.007383 -0.008517 0.002804
# 4 -0.010484 0.002542 -0.007383 0.035703 0.003777 -0.013763
# 5 -0.006265 0.002610 -0.008517 0.003777 0.034685 -0.007920
# 6 -0.001907 -0.008592 0.002804 -0.013763 -0.007920 0.044916
#
#
# Mechanical properties :
#
#
# Convention : Reuss Voigt Hill
#
# Bulk Modulus (GPa) = 22.39860 40.46826 31.43343
# Shear Modulus (GPa) = 25.74915 35.54792 30.64854
#
# Velocity S-wave (km/s) = 3.30330 3.88127 3.60389
# Velocity P-wave (km/s) = 4.90316 6.10205 5.53516
#
# Compressibility (1/GPa) = 0.04464566
#
# Stress axis : x y z
#
# Youngs Moduli (GPa) = 39.17001 66.63891 72.54579
#
# Poissons Ratio (x) = 0.23639 -0.23854
# Poissons Ratio (y) = 0.13895 0.33212
# Poissons Ratio (z) = -0.12879 0.30508
#
# Static dielectric constant tensor:
#      x y z
#    x 1.925000 0.039280 0.027360 
#    y 0.039280 1.971340 -0.002930 
#    z 0.027360 -0.002930 1.932960 
# 
# From -- ./inp_files/471869.got.cif
#   From: 2010.05.17/outbox.cif.g08.bks.cpg/sg2_236_cif.got.tgz:471869.got - 2010.06.03 11:33:40.
