data_PCOD9109257
_publ_section_title
;
Structure prediction by ZEFSAII (Michael W. Deem and Ramdas Pophale) SiO2 
 PCOD9109257
Probable space group: P -1
;
_chemical_formula_sum "Si O2"
_cell_formula_units_Z 12
_cell_length_a 8.978322
_cell_length_b 9.507582
_cell_length_c 16.106049
_cell_angle_alpha 150.174105
_cell_angle_beta 88.060835
_cell_angle_gamma 103.717606
_cell_volume 620.841918
_symmetry_space_group_name_H-M "P -1"
_symmetry_group_IT_number 2
_symmetry_cell_setting 'triclinic'
loop_
_space_group_symop_operation_xyz
x,y,z
-x,-y,-z
loop_
_atom_site_type_symbol
_atom_site_label
_atom_site_fract_x
_atom_site_fract_y
_atom_site_fract_z
Si Si1 0.212048 0.859128 0.755203
Si Si2 0.040102 0.841461 0.571309
Si Si3 0.154580 0.279935 0.102413
Si Si4 0.877403 0.305565 0.831346
Si Si5 0.485381 0.833244 0.182220
Si Si6 0.653338 0.144048 0.508408
O O1 0.130396 0.905364 0.693400
O O2 0.085368 0.521570 0.615049
O O3 0.398845 0.925975 0.764785
O O4 0.232450 0.116032 0.954817
O O5 0.182358 0.922154 0.540028
O O6 0.929935 0.031568 0.666661
O O7 0.112857 0.503320 0.155059
O O8 0.267098 0.492381 0.282342
O O9 0.000000 0.000000 0.000000
O O10 0.700544 0.216050 0.830741
O O11 0.000000 0.500000 0.000000
O O12 0.566199 0.009868 0.355334
O O13 0.500000 0.500000 0.000000
O O14 0.500000 0.000000 0.500000
#
# Coordination Sequence:
#
# PCOD9109257 Si02
#       6
#     2   2   2   2   2   2
#     4  10  20  41  64  90 127 175 216 254 325 395
#     4  10  22  38  65  94 128 168 216 267 319 385
#     4  12  23  41  66  96 129 173 214 268 324 383
#     4  12  23  40  67  97 128 167 223 272 321 382
#     4  11  21  39  67  94 127 175 222 261 318 402
#     4  11  21  39  65  94 127 174 217 257 325 389
#
# _framework density 19.328590999999999
#
# number of rings (size 3 to 8) (size 9 to 14) (size 15 to 20)
#    0.000    1.000    6.667    1.000    0.000    1.333 
#    0.000    0.000    0.000    3.000    0.000    0.000 
#    0.000    0.000    0.000    0.000    0.000    0.000 
#
# Total GULP energy -66815.409245 kJ/mol
# GULP energy per Si atom -5567.950770 kJ/mol
# Density = 1.928460 g / cm^3
# Si number density = 19.328591 Si / 1000 Ang^3
#
#
#
# Elastic Constant Matrix: (Units=GPa)
#
#
# Indices 1 2 3 4 5 6 
#
# 1 175.6014 50.2164 58.0680 9.7977 -6.5985 41.1163
# 2 50.2164 59.1524 20.8266 1.2567 -8.4688 24.8977
# 3 58.0680 20.8266 156.4356 -17.9668 4.9426 7.0285
# 4 9.7977 1.2567 -17.9668 30.7770 4.8923 0.8858
# 5 -6.5985 -8.4688 4.9426 4.8923 45.0278 -2.6664
# 6 41.1163 24.8977 7.0285 0.8858 -2.6664 35.4492
#
#
#
# Elastic Compliance Matrix: (Units=1/GPa)
#
#
# Indices 1 2 3 4 5 6 
#
# 1 0.010192 -0.003582 -0.003560 -0.005138 0.001273 -0.008375
# 2 -0.003582 0.027248 -0.001943 -0.001350 0.004116 -0.014254
# 3 -0.003560 -0.001943 0.008642 0.006531 -0.002342 0.003441
# 4 -0.005138 -0.001350 0.006531 0.038778 -0.005687 0.004216
# 5 0.001273 0.004116 -0.002342 -0.005687 0.023928 -0.001961
# 6 -0.008375 -0.014254 0.003441 0.004216 -0.001961 0.047000
#
#
# Mechanical properties :
#
#
# Convention : Reuss Voigt Hill
#
# Bulk Modulus (GPa) = 35.82679 72.15682 53.99180
# Shear Modulus (GPa) = 27.28330 39.72271 33.50301
#
# Velocity S-wave (km/s) = 3.76114 4.53827 4.16786
# Velocity P-wave (km/s) = 6.11861 8.05443 7.15232
#
# Compressibility (1/GPa) = 0.02791208
#
# Stress axis : x y z
#
# Youngs Moduli (GPa) = 98.11640 36.69973 115.71318
#
# Poissons Ratio (x) = 0.13146 0.41198
# Poissons Ratio (y) = 0.35146 0.22479
# Poissons Ratio (z) = 0.34933 0.07129
#
# Static dielectric constant tensor:
#      x y z
#    x 1.728920 0.041800 -0.012230 
#    y 0.041800 1.735580 -0.031700 
#    z -0.012230 -0.031700 1.706070 
# 
# From -- ./inp_files/147331.got.cif
#   From: 2010.05.17/outbox.cif.g08.bks.cpg/sg2_74_cif.got.tgz:147331.got - 2010.06.03 11:33:40.
