data_PCOD9109408
_publ_section_title
;
Structure prediction by ZEFSAII (Michael W. Deem and Ramdas Pophale) SiO2 
 PCOD9109408
Probable space group: P -1
;
_chemical_formula_sum "Si O2"
_cell_formula_units_Z 16
_cell_length_a 14.481081
_cell_length_b 12.473021
_cell_length_c 6.632177
_cell_angle_alpha 133.636569
_cell_angle_beta 74.327440
_cell_angle_gamma 124.178862
_cell_volume 703.282288
_symmetry_space_group_name_H-M "P -1"
_symmetry_group_IT_number 2
_symmetry_cell_setting 'triclinic'
loop_
_space_group_symop_operation_xyz
x,y,z
-x,-y,-z
loop_
_atom_site_type_symbol
_atom_site_label
_atom_site_fract_x
_atom_site_fract_y
_atom_site_fract_z
Si Si1 0.923370 0.305782 0.553754
Si Si2 0.570119 0.731880 0.891840
Si Si3 0.630160 0.574604 0.964226
Si Si4 0.682176 0.060391 0.536029
Si Si5 0.025725 0.902536 0.037948
Si Si6 0.730161 0.882669 0.621500
Si Si7 0.921194 0.642992 0.105545
Si Si8 0.334545 0.615241 0.009450
O O1 0.789931 0.162731 0.458915
O O2 0.970494 0.254518 0.273752
O O3 0.935655 0.492702 0.798378
O O4 0.982983 0.280960 0.680803
O O5 0.636538 0.644185 0.828633
O O6 0.432854 0.610780 0.822294
O O7 0.597283 0.881161 0.236546
O O8 0.626657 0.808582 0.744814
O O9 0.704255 0.731766 0.280528
O O10 0.500000 0.500000 0.000000
O O11 0.653176 0.425549 0.815855
O O12 0.642767 0.192823 0.775670
O O13 0.725613 0.024656 0.670824
O O14 0.941172 0.796096 0.137995
O O15 0.150297 0.038526 0.233966
O O16 0.000000 0.000000 0.000000
O O17 0.797689 0.531605 0.143266
#
# Coordination Sequence:
#
# PCOD9109408 Si02
#       8
#     2   2   2   2   2   2   2   2
#     4  10  21  43  64  88 125 167 203 258 314 360
#     4  10  21  41  65  90 127 162 206 254 314 370
#     4   9  22  42  62  88 124 166 203 254 311 364
#     4  10  20  41  65  90 123 162 210 256 310 366
#     4  12  26  39  64  98 123 162 211 257 309 377
#     4  11  23  40  64  91 126 166 203 257 318 362
#     4  10  23  42  64  89 127 163 208 255 310 369
#     4  10  22  39  64  92 121 165 207 256 302 369
#
# _framework density 22.750467
#
# number of rings (size 3 to 8) (size 9 to 14) (size 15 to 20)
#    0.000    1.750    2.500    0.750    3.500    3.000 
#    0.000    5.000    0.000    0.000    0.000    0.000 
#    0.000    0.000    0.000    0.000    0.000    0.000 
#
# Total GULP energy -89315.505217 kJ/mol
# GULP energy per Si atom -5582.219076 kJ/mol
# Density = 2.269869 g / cm^3
# Si number density = 22.750467 Si / 1000 Ang^3
#
#
#
# Elastic Constant Matrix: (Units=GPa)
#
#
# Indices 1 2 3 4 5 6 
#
# 1 106.3517 40.5151 38.1025 -0.5880 16.3633 -6.4528
# 2 40.5151 114.1713 31.6785 -10.7789 4.1978 -12.1980
# 3 38.1025 31.6785 86.1596 8.5693 12.4833 2.8047
# 4 -0.5880 -10.7789 8.5693 25.3856 7.5819 -1.6885
# 5 16.3633 4.1978 12.4833 7.5819 17.6268 1.0832
# 6 -6.4528 -12.1980 2.8047 -1.6885 1.0832 51.1101
#
#
#
# Elastic Compliance Matrix: (Units=1/GPa)
#
#
# Indices 1 2 3 4 5 6 
#
# 1 0.013681 -0.002854 -0.003832 0.003804 -0.011043 0.001616
# 2 -0.002854 0.011746 -0.003728 0.006516 -0.000488 0.002873
# 3 -0.003832 -0.003728 0.015941 -0.005976 -0.004129 -0.002358
# 4 0.003804 0.006516 -0.005976 0.051525 -0.023294 0.004559
# 5 -0.011043 -0.000488 -0.004129 -0.023294 0.080274 -0.003755
# 6 0.001616 0.002873 -0.002358 0.004559 -0.003755 0.020815
#
#
# Mechanical properties :
#
#
# Convention : Reuss Voigt Hill
#
# Bulk Modulus (GPa) = 48.68305 58.58606 53.63456
# Shear Modulus (GPa) = 22.55760 31.91693 27.23726
#
# Velocity S-wave (km/s) = 3.15226 3.74961 3.46384
# Velocity P-wave (km/s) = 5.89017 6.67485 6.29475
#
# Compressibility (1/GPa) = 0.02054103
#
# Stress axis : x y z
#
# Youngs Moduli (GPa) = 73.09474 85.13661 62.73196
#
# Poissons Ratio (x) = 0.24296 0.24038
# Poissons Ratio (y) = 0.20859 0.23384
# Poissons Ratio (z) = 0.28009 0.31735
#
# Static dielectric constant tensor:
#      x y z
#    x 1.868710 -0.040460 -0.010310 
#    y -0.040460 1.887800 0.023430 
#    z -0.010310 0.023430 1.839730 
# 
# From -- ./inp_files/95516.got.cif
#   From: 2010.05.17/outbox.cif.g08.bks.cpg/sg2_48_cif.got.tgz:95516.got - 2010.06.03 11:33:40.
