data_PCOD9109008
_publ_section_title
;
Structure prediction by ZEFSAII (Michael W. Deem and Ramdas Pophale) SiO2 
 PCOD9109008
Probable space group: P -1
;
_chemical_formula_sum "Si O2"
_cell_formula_units_Z 16
_cell_length_a 19.777286
_cell_length_b 6.846580
_cell_length_c 5.480431
_cell_angle_alpha 81.163846
_cell_angle_beta 101.394050
_cell_angle_gamma 77.407715
_cell_volume 694.799601
_symmetry_space_group_name_H-M "P -1"
_symmetry_group_IT_number 2
_symmetry_cell_setting 'triclinic'
loop_
_space_group_symop_operation_xyz
x,y,z
-x,-y,-z
loop_
_atom_site_type_symbol
_atom_site_label
_atom_site_fract_x
_atom_site_fract_y
_atom_site_fract_z
Si Si1 0.916060 0.844400 0.551262
Si Si2 0.643159 0.872388 0.556841
Si Si3 0.729004 0.015601 0.982384
Si Si4 0.825350 0.229772 0.704836
Si Si5 0.580943 0.491952 0.622937
Si Si6 0.053077 0.860156 0.874774
Si Si7 0.370228 0.742770 0.788480
Si Si8 0.210107 0.343061 0.584483
O O1 0.866077 0.691673 0.540569
O O2 0.999324 0.762320 0.699582
O O3 0.874093 0.028099 0.657478
O O4 0.917854 0.971907 0.282787
O O5 0.598694 0.710302 0.609687
O O6 0.720874 0.754829 0.519913
O O7 0.603881 0.056549 0.313486
O O8 0.661453 0.978709 0.795616
O O9 0.708599 0.142630 0.193177
O O10 0.773225 0.789284 0.131105
O O11 0.765474 0.151610 0.816141
O O12 0.797982 0.416656 0.467543
O O13 0.879025 0.291760 0.926835
O O14 0.500000 0.500000 0.500000
O O15 0.622998 0.388862 0.427375
O O16 0.597490 0.383439 0.921971
O O17 0.000000 0.000000 0.000000
#
# Coordination Sequence:
#
# PCOD9109008 Si02
#       8
#     2   2   2   2   2   2   2   2
#     4  10  20  41  61  91 130 173 232 290 346 424
#     4  11  26  46  72 105 144 190 233 294 354 424
#     4  11  23  45  68 103 146 180 235 294 354 421
#     4  11  22  40  63  95 131 180 225 296 355 410
#     4  12  28  49  77 110 146 191 242 285 348 429
#     4   9  20  39  63  84 132 175 221 292 351 414
#     4  11  26  49  73 106 150 189 231 297 351 416
#     4  11  24  37  68  99 131 179 236 282 355 422
#
# _framework density 23.028226
#
# number of rings (size 3 to 8) (size 9 to 14) (size 15 to 20)
#    0.000    1.250    3.750    1.125    3.500    2.500 
#    0.000    5.625    0.000    0.000    0.000    0.000 
#    0.000    0.000    0.000    0.000    0.000    0.000 
#
# Total GULP energy -89270.778280 kJ/mol
# GULP energy per Si atom -5579.423642 kJ/mol
# Density = 2.297581 g / cm^3
# Si number density = 23.028226 Si / 1000 Ang^3
#
#
#
# Elastic Constant Matrix: (Units=GPa)
#
#
# Indices 1 2 3 4 5 6 
#
# 1 122.2032 53.3186 34.9368 -0.5308 12.5634 42.9167
# 2 53.3186 110.8903 65.3182 -24.6003 2.2218 42.8364
# 3 34.9368 65.3182 132.6170 -26.3030 0.1322 17.6857
# 4 -0.5308 -24.6003 -26.3030 41.2432 -2.2499 -12.5157
# 5 12.5634 2.2218 0.1322 -2.2499 40.8288 8.4390
# 6 42.9167 42.8364 17.6857 -12.5157 8.4390 33.2779
#
#
#
# Elastic Compliance Matrix: (Units=1/GPa)
#
#
# Indices 1 2 3 4 5 6 
#
# 1 0.017937 0.002195 -0.004026 -0.009306 -0.000519 -0.027186
# 2 0.002195 0.025489 -0.008838 0.000115 0.004601 -0.032068
# 3 -0.004026 -0.008838 0.012573 0.006442 -0.000538 0.012446
# 4 -0.009306 0.000115 0.006442 0.034830 0.000323 0.021446
# 5 -0.000519 0.004601 -0.000538 0.000323 0.026829 -0.011648
# 6 -0.027186 -0.032068 0.012446 0.021446 -0.011648 0.110794
#
#
# Mechanical properties :
#
#
# Convention : Reuss Voigt Hill
#
# Bulk Modulus (GPa) = 28.85109 74.76197 51.80653
# Shear Modulus (GPa) = 19.13195 37.21246 28.17221
#
# Velocity S-wave (km/s) = 2.88549 4.02425 3.50148
# Velocity P-wave (km/s) = 4.86387 7.35722 6.23642
#
# Compressibility (1/GPa) = 0.03466073
#
# Stress axis : x y z
#
# Youngs Moduli (GPa) = 55.75091 39.23215 79.53866
#
# Poissons Ratio (x) = -0.08610 0.32022
# Poissons Ratio (y) = -0.12236 0.70294
# Poissons Ratio (z) = 0.22445 0.34672
#
# Static dielectric constant tensor:
#      x y z
#    x 1.843010 -0.027990 0.079940 
#    y -0.027990 1.860380 0.035040 
#    z 0.079940 0.035040 1.933790 
# 
# From -- ./inp_files/114557.got.cif
#   From: 2010.05.17/outbox.cif.g08.bks.cpg/sg2_58_cif.got.tgz:114557.got - 2010.06.03 11:33:40.
