data_PCOD9109686
_publ_section_title
;
Structure prediction by ZEFSAII (Michael W. Deem and Ramdas Pophale) SiO2 
 PCOD9109686
Probable space group: P -1
;
_chemical_formula_sum "Si O2"
_cell_formula_units_Z 12
_cell_length_a 6.570345
_cell_length_b 12.034370
_cell_length_c 9.164934
_cell_angle_alpha 89.348389
_cell_angle_beta 104.329565
_cell_angle_gamma 52.196803
_cell_volume 542.030300
_symmetry_space_group_name_H-M "P -1"
_symmetry_group_IT_number 2
_symmetry_cell_setting 'triclinic'
loop_
_space_group_symop_operation_xyz
x,y,z
-x,-y,-z
loop_
_atom_site_type_symbol
_atom_site_label
_atom_site_fract_x
_atom_site_fract_y
_atom_site_fract_z
Si Si1 0.644294 0.599661 0.145069
Si Si2 0.800868 0.290755 0.156478
Si Si3 0.773215 0.139261 0.750891
Si Si4 0.886253 0.459910 0.611853
Si Si5 0.249887 0.042749 0.046031
Si Si6 0.257594 0.730753 0.534616
O O1 0.738061 0.441024 0.168385
O O2 0.428475 0.694503 0.234808
O O3 0.901947 0.591343 0.218147
O O4 0.463133 0.675579 0.967434
O O5 0.851375 0.218962 0.322379
O O6 0.052125 0.194113 0.092553
O O7 0.796698 0.148622 0.584321
O O8 0.648858 0.072400 0.804994
O O9 0.056108 0.052322 0.888823
O O10 0.583219 0.599267 0.600367
O O11 0.871512 0.338037 0.556764
O O12 0.000000 0.500000 0.500000
O O13 0.500000 0.000000 0.000000
#
# Coordination Sequence:
#
# PCOD9109686 Si02
#       6
#     2   2   2   2   2   2
#     4  10  20  41  66  96 135 169 216 262 318 395
#     4  10  22  42  65 105 132 162 225 275 319 380
#     4  10  22  42  65  93 128 175 216 259 334 397
#     4  11  20  37  63 100 139 176 205 256 344 390
#     4  10  24  46  65  86 129 182 218 262 330 400
#     4  11  22  37  65 101 137 163 217 279 314 392
#
# _framework density 22.138981999999999
#
# number of rings (size 3 to 8) (size 9 to 14) (size 15 to 20)
#    0.000    1.667    3.333    1.000    2.333    1.333 
#    9.000    0.833    0.000    0.000    0.000    0.000 
#    0.000    0.000    0.000    0.000    0.000    0.000 
#
# Total GULP energy -67060.845375 kJ/mol
# GULP energy per Si atom -5588.403781 kJ/mol
# Density = 2.208859 g / cm^3
# Si number density = 22.138982 Si / 1000 Ang^3
#
#
#
# Elastic Constant Matrix: (Units=GPa)
#
#
# Indices 1 2 3 4 5 6 
#
# 1 131.4688 29.9768 57.7059 -3.1840 2.4825 -7.7386
# 2 29.9768 70.3609 33.9493 -10.2108 -7.5348 -6.4594
# 3 57.7059 33.9493 135.9558 -8.5139 -6.5378 -1.9843
# 4 -3.1840 -10.2108 -8.5139 21.9043 6.6168 -2.2704
# 5 2.4825 -7.5348 -6.5378 6.6168 46.2876 0.1551
# 6 -7.7386 -6.4594 -1.9843 -2.2704 0.1551 15.8096
#
#
#
# Elastic Compliance Matrix: (Units=1/GPa)
#
#
# Indices 1 2 3 4 5 6 
#
# 1 0.009982 -0.002353 -0.003685 -0.000297 -0.001408 0.003433
# 2 -0.002353 0.018557 -0.002990 0.007385 0.001645 0.007099
# 3 -0.003685 -0.002990 0.009776 0.001435 0.000892 -0.001601
# 4 -0.000297 0.007385 0.001435 0.052567 -0.006129 0.010661
# 5 -0.001408 0.001645 0.000892 -0.006129 0.022953 -0.001010
# 6 0.003433 0.007099 -0.001601 0.010661 -0.001010 0.069174
#
#
# Mechanical properties :
#
#
# Convention : Reuss Voigt Hill
#
# Bulk Modulus (GPa) = 49.36375 64.56106 56.96240
# Shear Modulus (GPa) = 24.05948 31.21055 27.63502
#
# Velocity S-wave (km/s) = 3.30016 3.75874 3.53689
# Velocity P-wave (km/s) = 6.07182 6.93272 6.51650
#
# Compressibility (1/GPa) = 0.02025778
#
# Stress axis : x y z
#
# Youngs Moduli (GPa) = 100.17952 53.88702 102.29600
#
# Poissons Ratio (x) = 0.12681 0.37700
# Poissons Ratio (y) = 0.23576 0.30585
# Poissons Ratio (z) = 0.36920 0.16111
#
# Static dielectric constant tensor:
#      x y z
#    x 1.822530 0.029760 -0.003320 
#    y 0.029760 1.845600 -0.016910 
#    z -0.003320 -0.016910 1.848060 
# 
# From -- ./inp_files/26927.got.cif
#   From: 2010.05.17/outbox.cif.g08.bks.cpg/sg2_14_cif.got.tgz:26927.got - 2010.06.03 11:33:40.
