data_PCOD9109352
_publ_section_title
;
Structure prediction by ZEFSAII (Michael W. Deem and Ramdas Pophale) SiO2 
 PCOD9109352
Probable space group: P -1
;
_chemical_formula_sum "Si O2"
_cell_formula_units_Z 14
_cell_length_a 12.523614
_cell_length_b 7.634470
_cell_length_c 7.355703
_cell_angle_alpha 82.497508
_cell_angle_beta 76.347525
_cell_angle_gamma 51.383692
_cell_volume 533.852471
_symmetry_space_group_name_H-M "P -1"
_symmetry_group_IT_number 2
_symmetry_cell_setting 'triclinic'
loop_
_space_group_symop_operation_xyz
x,y,z
-x,-y,-z
loop_
_atom_site_type_symbol
_atom_site_label
_atom_site_fract_x
_atom_site_fract_y
_atom_site_fract_z
Si Si1 0.909342 0.093362 0.770702
Si Si2 0.204473 0.347692 0.055375
Si Si3 0.807326 0.309381 0.185629
Si Si4 0.042374 0.327981 0.664451
Si Si5 0.659195 0.132733 0.789356
Si Si6 0.653405 0.111635 0.385720
Si Si7 0.536475 0.791030 0.885195
O O1 0.981928 0.197064 0.657108
O O2 0.773449 0.169240 0.707617
O O3 0.851522 0.185034 0.986449
O O4 0.042366 0.831915 0.757181
O O5 0.044559 0.529725 0.144511
O O6 0.298506 0.351834 0.174804
O O7 0.250031 0.100340 0.096761
O O8 0.241072 0.440888 0.860670
O O9 0.698942 0.272327 0.312049
O O10 0.000000 0.500000 0.500000
O O11 0.204274 0.140443 0.661711
O O12 0.611913 0.122574 0.610212
O O13 0.526035 0.297394 0.945659
O O14 0.539518 0.159200 0.281075
O O15 0.500000 0.000000 0.000000
#
# Coordination Sequence:
#
# PCOD9109352 Si02
#       7
#     2   2   2   2   2   2   2
#     4   9  19  37  65  93 132 165 209 259 330 374
#     4  10  22  40  65  95 128 170 215 262 316 376
#     4   9  19  38  64  92 126 173 206 262 323 375
#     4  10  20  41  65 101 125 167 212 271 315 375
#     4  11  22  41  67  97 126 173 212 262 318 383
#     4  11  22  42  70  89 133 169 210 265 328 370
#     4  10  24  44  63  93 132 174 210 260 321 383
#
# _framework density 26.224475000000002
#
# number of rings (size 3 to 8) (size 9 to 14) (size 15 to 20)
#    0.000    2.000    2.857    0.857    0.000    5.714 
#    2.571    0.714    0.000    0.000    0.000    0.000 
#    0.000    0.000    0.000    0.000    0.000    0.000 
#
# Total GULP energy -78254.932383 kJ/mol
# GULP energy per Si atom -5589.638027 kJ/mol
# Density = 2.616479 g / cm^3
# Si number density = 26.224475 Si / 1000 Ang^3
#
#
#
# Elastic Constant Matrix: (Units=GPa)
#
#
# Indices 1 2 3 4 5 6 
#
# 1 103.8797 7.1274 26.7436 -3.4175 21.0416 4.8234
# 2 7.1274 53.6606 21.8783 -8.2939 -6.7130 15.2893
# 3 26.7436 21.8783 121.7712 -15.0684 20.2299 13.4352
# 4 -3.4175 -8.2939 -15.0684 29.9476 11.5537 -11.6217
# 5 21.0416 -6.7130 20.2299 11.5537 43.0467 -9.6422
# 6 4.8234 15.2893 13.4352 -11.6217 -9.6422 30.4832
#
#
#
# Elastic Compliance Matrix: (Units=1/GPa)
#
#
# Indices 1 2 3 4 5 6 
#
# 1 0.011372 -0.001073 -0.000704 0.002331 -0.006495 -0.002117
# 2 -0.001073 0.023212 -0.003711 -0.000527 0.004069 -0.008751
# 3 -0.000704 -0.003711 0.011558 0.006621 -0.008155 -0.003177
# 4 0.002331 -0.000527 0.006621 0.046347 -0.014520 0.010054
# 5 -0.006495 0.004069 -0.008155 -0.014520 0.036709 0.008657
# 6 -0.002117 -0.008751 -0.003177 0.010054 0.008657 0.045501
#
#
# Mechanical properties :
#
#
# Convention : Reuss Voigt Hill
#
# Bulk Modulus (GPa) = 28.43498 43.42335 35.92917
# Shear Modulus (GPa) = 25.33001 35.59963 30.46482
#
# Velocity S-wave (km/s) = 3.11125 3.68842 3.41206
# Velocity P-wave (km/s) = 4.87575 5.89352 5.40863
#
# Compressibility (1/GPa) = 0.03516795
#
# Stress axis : x y z
#
# Youngs Moduli (GPa) = 87.93607 43.08116 86.52055
#
# Poissons Ratio (x) = 0.04621 0.06089
# Poissons Ratio (y) = 0.09432 0.32104
# Poissons Ratio (z) = 0.06189 0.15986
#
# Static dielectric constant tensor:
#      x y z
#    x 2.126670 0.033000 -0.009480 
#    y 0.033000 2.148300 -0.022960 
#    z -0.009480 -0.022960 2.089590 
# 
# From -- ./inp_files/237637.got.cif
#   From: 2010.05.17/outbox.cif.g08.bks.cpg/sg2_119_cif.got.tgz:237637.got - 2010.06.03 11:33:40.
