data_PCOD9109756
_publ_section_title
;
Structure prediction by ZEFSAII (Michael W. Deem and Ramdas Pophale) SiO2 
 PCOD9109756
Probable space group: P -1
;
_chemical_formula_sum "Si O2"
_cell_formula_units_Z 14
_cell_length_a 6.359709
_cell_length_b 15.231655
_cell_length_c 8.428921
_cell_angle_alpha 67.135175
_cell_angle_beta 124.030415
_cell_angle_gamma 126.966886
_cell_volume 538.974394
_symmetry_space_group_name_H-M "P -1"
_symmetry_group_IT_number 2
_symmetry_cell_setting 'triclinic'
loop_
_space_group_symop_operation_xyz
x,y,z
-x,-y,-z
loop_
_atom_site_type_symbol
_atom_site_label
_atom_site_fract_x
_atom_site_fract_y
_atom_site_fract_z
Si Si1 0.814656 0.834554 0.377473
Si Si2 0.274596 0.187792 0.281238
Si Si3 0.314963 0.595666 0.876623
Si Si4 0.297073 0.855483 0.103147
Si Si5 0.185678 0.392028 0.442293
Si Si6 0.861777 0.621876 0.228706
Si Si7 0.738873 0.992017 0.785847
O O1 0.748225 0.848592 0.521835
O O2 0.563855 0.841677 0.165592
O O3 0.793699 0.717109 0.459888
O O4 0.114447 0.924347 0.359185
O O5 0.468899 0.316613 0.227246
O O6 0.404804 0.128092 0.267909
O O7 0.940060 0.146927 0.116607
O O8 0.173491 0.470843 0.843185
O O9 0.045005 0.615632 0.780527
O O10 0.542095 0.612935 0.099555
O O11 0.097445 0.744728 0.196189
O O12 0.410360 0.961194 0.191807
O O13 0.500000 0.500000 0.500000
O O14 0.053897 0.399909 0.549288
O O15 0.000000 0.000000 0.000000
#
# Coordination Sequence:
#
# PCOD9109756 Si02
#       7
#     2   2   2   2   2   2   2
#     4  12  24  41  66  99 130 169 219 267 326 378
#     4  10  23  42  65  95 129 168 221 268 318 385
#     4  10  22  40  65  93 128 173 214 262 323 382
#     4  10  22  44  67  93 130 173 216 265 325 384
#     4  12  24  38  62  99 134 166 213 265 322 391
#     4  10  20  41  67  89 129 175 210 263 325 379
#     4  10  23  45  66  95 128 174 223 262 326 380
#
# _framework density 25.975261
#
# number of rings (size 3 to 8) (size 9 to 14) (size 15 to 20)
#    0.000    1.429    1.429    3.429    0.000    4.571 
#    2.571    0.000    0.000    0.000    0.000    0.000 
#    0.000    0.000    0.000    0.000    0.000    0.000 
#
# Total GULP energy -78384.411472 kJ/mol
# GULP energy per Si atom -5598.886534 kJ/mol
# Density = 2.591614 g / cm^3
# Si number density = 25.975261 Si / 1000 Ang^3
#
#
#
# Elastic Constant Matrix: (Units=GPa)
#
#
# Indices 1 2 3 4 5 6 
#
# 1 54.2871 29.0909 31.0166 -2.6649 29.5760 3.0737
# 2 29.0909 116.3971 15.9111 -19.9006 5.1791 -8.2640
# 3 31.0166 15.9111 104.4152 -6.5684 21.1194 -1.2619
# 4 -2.6649 -19.9006 -6.5684 34.4431 -5.0587 -0.5497
# 5 29.5760 5.1791 21.1194 -5.0587 51.0762 -15.1819
# 6 3.0737 -8.2640 -1.2619 -0.5497 -15.1819 40.8404
#
#
#
# Elastic Compliance Matrix: (Units=1/GPa)
#
#
# Indices 1 2 3 4 5 6 
#
# 1 0.043225 -0.011328 -0.006431 -0.008612 -0.026775 -0.015813
# 2 -0.011328 0.012822 0.000408 0.007857 0.007789 0.006461
# 3 -0.006431 0.000408 0.011708 0.001867 -0.000776 0.000665
# 4 -0.008612 0.007857 0.001867 0.034624 0.008621 0.005966
# 5 -0.026775 0.007789 -0.000776 0.008621 0.041105 0.018963
# 6 -0.015813 0.006461 0.000665 0.005966 0.018963 0.034133
#
#
# Mechanical properties :
#
#
# Convention : Reuss Voigt Hill
#
# Bulk Modulus (GPa) = 30.25433 47.45961 38.85697
# Shear Modulus (GPa) = 22.38771 38.54399 30.46585
#
# Velocity S-wave (km/s) = 2.93897 3.85629 3.42845
# Velocity P-wave (km/s) = 4.81554 6.17565 5.53751
#
# Compressibility (1/GPa) = 0.03305312
#
# Stress axis : x y z
#
# Youngs Moduli (GPa) = 23.13463 77.99039 85.41334
#
# Poissons Ratio (x) = 0.88346 0.54930
# Poissons Ratio (y) = 0.26207 -0.03484
# Poissons Ratio (z) = 0.14878 -0.03181
#
# Static dielectric constant tensor:
#      x y z
#    x 2.065080 -0.024300 0.028240 
#    y -0.024300 2.015330 0.019730 
#    z 0.028240 0.019730 2.008090 
# 
# From -- ./inp_files/135063.got.cif
#   From: 2010.05.17/outbox.cif.g08.bks.cpg/sg2_68_cif.got.tgz:135063.got - 2010.06.03 11:33:40.
