data_PCOD9109300
_publ_section_title
;
Structure prediction by ZEFSAII (Michael W. Deem and Ramdas Pophale) SiO2 
 PCOD9109300
Probable space group: P -1
;
_chemical_formula_sum "Si O2"
_cell_formula_units_Z 15
_cell_length_a 13.067817
_cell_length_b 8.887444
_cell_length_c 15.652987
_cell_angle_alpha 42.887928
_cell_angle_beta 41.950874
_cell_angle_gamma 29.914177
_cell_volume 584.538930
_symmetry_space_group_name_H-M "P -1"
_symmetry_group_IT_number 2
_symmetry_cell_setting 'triclinic'
loop_
_space_group_symop_operation_xyz
x,y,z
-x,-y,-z
loop_
_atom_site_type_symbol
_atom_site_label
_atom_site_fract_x
_atom_site_fract_y
_atom_site_fract_z
Si Si1 0.787088 0.489342 0.367967
Si Si2 0.500000 0.500000 0.500000
Si Si3 0.753307 0.974680 0.416904
Si Si4 0.201217 0.578989 0.214204
Si Si5 0.475315 0.838521 0.679381
Si Si6 0.681681 0.673114 0.173566
Si Si7 0.026582 0.207204 0.023683
Si Si8 0.224495 0.241679 0.183060
O O1 0.685293 0.375895 0.515648
O O2 0.639142 0.610979 0.320173
O O3 0.035536 0.253137 0.291814
O O4 0.712408 0.799460 0.322922
O O5 0.686506 0.152385 0.472813
O O6 0.623943 0.198339 0.320474
O O7 0.002230 0.731952 0.337472
O O8 0.662334 0.816385 0.541945
O O9 0.416911 0.400231 0.209988
O O10 0.235820 0.340955 0.228007
O O11 0.128331 0.866831 0.085908
O O12 0.880895 0.346637 0.141593
O O13 0.465245 0.910797 0.155081
O O14 0.780301 0.814735 0.071712
O O15 0.866874 0.478793 0.940893
#
# Coordination Sequence:
#
# PCOD9109300 Si02
#       8
#     2   1   2   2   2   2   2   2
#     4  10  20  41  64  93 128 171 213 265 326 381
#     4  10  22  42  66  90 132 166 206 270 318 382
#     4  10  22  41  64  94 128 167 214 265 323 384
#     4  12  22  39  66  98 127 171 219 268 311 392
#     4  10  21  40  66  92 129 171 209 263 329 380
#     4  10  21  43  63  88 134 178 206 272 328 379
#     4  10  24  39  62  94 134 172 220 263 324 383
#     4  11  22  39  67  94 129 174 220 265 328 376
#
# _framework density 25.661249999999999
#
# number of rings (size 3 to 8) (size 9 to 14) (size 15 to 20)
#    0.000    1.600    2.667    2.000    0.000    1.600 
#    0.000    8.000    0.000    0.000    0.000    0.000 
#    0.000    0.000    0.000    0.000    0.000    0.000 
#
# Total GULP energy -83753.866387 kJ/mol
# GULP energy per Si atom -5583.591092 kJ/mol
# Density = 2.560284 g / cm^3
# Si number density = 25.661250 Si / 1000 Ang^3
#
#
#
# Elastic Constant Matrix: (Units=GPa)
#
#
# Indices 1 2 3 4 5 6 
#
# 1 76.6753 39.1112 16.1334 4.0936 -1.3929 -10.2605
# 2 39.1112 89.5657 33.3675 9.7878 -2.7578 -25.9336
# 3 16.1334 33.3675 70.3017 9.1888 -4.9830 -7.8187
# 4 4.0936 9.7878 9.1888 42.6973 -1.2883 9.4269
# 5 -1.3929 -2.7578 -4.9830 -1.2883 41.8623 -3.6048
# 6 -10.2605 -25.9336 -7.8187 9.4269 -3.6048 47.5546
#
#
#
# Elastic Compliance Matrix: (Units=1/GPa)
#
#
# Indices 1 2 3 4 5 6 
#
# 1 0.016802 -0.007344 -0.000466 0.000286 -0.000016 -0.000514
# 2 -0.007344 0.019810 -0.006029 -0.004541 0.000996 0.009203
# 3 -0.000466 -0.006029 0.017624 -0.002338 0.001621 0.000096
# 4 0.000286 -0.004541 -0.002338 0.026719 -0.000446 -0.008130
# 5 -0.000016 0.000996 0.001621 -0.000446 0.024368 0.002742
# 6 -0.000514 0.009203 0.000096 -0.008130 0.002742 0.027771
#
#
# Mechanical properties :
#
#
# Convention : Reuss Voigt Hill
#
# Bulk Modulus (GPa) = 37.65425 45.97412 41.81419
# Shear Modulus (GPa) = 29.47672 36.28487 32.88080
#
# Velocity S-wave (km/s) = 3.39290 3.76439 3.58346
# Velocity P-wave (km/s) = 5.48220 6.07033 5.78374
#
# Compressibility (1/GPa) = 0.02655743
#
# Stress axis : x y z
#
# Youngs Moduli (GPa) = 59.51758 50.47991 56.74016
#
# Poissons Ratio (x) = 0.37073 0.02643
# Poissons Ratio (y) = 0.43710 0.34211
# Poissons Ratio (z) = 0.02772 0.30436
#
# Static dielectric constant tensor:
#      x y z
#    x 2.022380 -0.026530 0.038560 
#    y -0.026530 2.036510 -0.028880 
#    z 0.038560 -0.028880 2.214650 
# 
# From -- ./inp_files/48855.got.cif
#   From: 2010.05.17/outbox.cif.g08.bks.cpg/sg2_25_cif.got.tgz:48855.got - 2010.06.03 11:33:40.
