data_PCOD9109742
_publ_section_title
;
Structure prediction by ZEFSAII (Michael W. Deem and Ramdas Pophale) SiO2 
 PCOD9109742
Probable space group: P -1
;
_chemical_formula_sum "Si O2"
_cell_formula_units_Z 14
_cell_length_a 15.565500
_cell_length_b 14.170143
_cell_length_c 12.793894
_cell_angle_alpha 150.371412
_cell_angle_beta 139.227217
_cell_angle_gamma 28.032771
_cell_volume 655.048894
_symmetry_space_group_name_H-M "P -1"
_symmetry_group_IT_number 2
_symmetry_cell_setting 'triclinic'
loop_
_space_group_symop_operation_xyz
x,y,z
-x,-y,-z
loop_
_atom_site_type_symbol
_atom_site_label
_atom_site_fract_x
_atom_site_fract_y
_atom_site_fract_z
Si Si1 0.559488 0.320616 0.549631
Si Si2 0.746724 0.218657 0.415104
Si Si3 0.450955 0.810796 0.190862
Si Si4 0.885396 0.104992 0.101935
Si Si5 0.211761 0.603493 0.046013
Si Si6 0.088212 0.606251 0.141793
Si Si7 0.622606 0.692651 0.452157
O O1 0.649442 0.203437 0.406164
O O2 0.386469 0.629832 0.659736
O O3 0.703384 0.292548 0.723318
O O4 0.482323 0.228133 0.458878
O O5 0.789797 0.391460 0.662254
O O6 0.928426 0.920094 0.272240
O O7 0.497615 0.735723 0.283536
O O8 0.359887 0.107410 0.372325
O O9 0.304050 0.811817 0.013676
O O10 0.643032 0.608548 0.111187
O O11 0.814213 0.386373 0.340423
O O12 0.018345 0.857219 0.063052
O O13 0.000000 0.000000 0.000000
O O14 0.190910 0.477869 0.002466
O O15 0.000000 0.500000 0.000000
#
# Coordination Sequence:
#
# PCOD9109742 Si02
#       7
#     2   2   2   2   2   2   2
#     4  10  20  41  67  86 126 171 202 259 317 367
#     4   9  21  41  60  94 126 159 214 257 306 380
#     4  11  25  43  61 100 130 160 220 258 310 391
#     4  12  23  42  67  91 128 170 208 261 315 371
#     4  11  23  42  67  94 128 169 213 260 312 382
#     4  10  22  39  64  94 127 162 208 262 313 367
#     4  11  23  42  66  92 130 169 206 263 321 370
#
# _framework density 21.372451000000002
#
# number of rings (size 3 to 8) (size 9 to 14) (size 15 to 20)
#    0.000    1.429    2.857    2.143    2.000    1.714 
#    2.571    2.143    0.000    0.000    0.000    0.000 
#    0.000    0.000    0.000    0.000    0.000    0.000 
#
# Total GULP energy -78183.546961 kJ/mol
# GULP energy per Si atom -5584.539069 kJ/mol
# Density = 2.132381 g / cm^3
# Si number density = 21.372451 Si / 1000 Ang^3
#
#
#
# Elastic Constant Matrix: (Units=GPa)
#
#
# Indices 1 2 3 4 5 6 
#
# 1 124.4198 27.5597 21.8782 -1.9429 -4.5143 11.4602
# 2 27.5597 54.8671 29.8658 9.2475 9.1655 -0.5287
# 3 21.8782 29.8658 47.6796 10.5417 5.1409 1.9690
# 4 -1.9429 9.2475 10.5417 16.6643 -2.4264 -11.1672
# 5 -4.5143 9.1655 5.1409 -2.4264 25.3955 -1.4564
# 6 11.4602 -0.5287 1.9690 -11.1672 -1.4564 28.9739
#
#
#
# Elastic Compliance Matrix: (Units=1/GPa)
#
#
# Indices 1 2 3 4 5 6 
#
# 1 0.010128 -0.005157 -0.003151 0.005779 0.004770 -0.001419
# 2 -0.005157 0.032292 -0.013784 -0.012675 -0.011099 -0.001878
# 3 -0.003151 -0.013784 0.037838 -0.025412 -0.006343 -0.011690
# 4 0.005779 -0.012675 -0.025412 0.118221 0.024681 0.046015
# 5 0.004770 -0.011099 -0.006343 0.024681 0.048463 0.010290
# 6 -0.001419 -0.001878 -0.011690 0.046015 0.010290 0.054088
#
#
# Mechanical properties :
#
#
# Convention : Reuss Voigt Hill
#
# Bulk Modulus (GPa) = 27.72018 42.84156 35.28087
# Shear Modulus (GPa) = 13.99633 24.05092 19.02362
#
# Velocity S-wave (km/s) = 2.56183 3.35822 2.98669
# Velocity P-wave (km/s) = 4.66357 5.92669 5.33266
#
# Compressibility (1/GPa) = 0.03607480
#
# Stress axis : x y z
#
# Youngs Moduli (GPa) = 98.74100 30.96789 26.42834
#
# Poissons Ratio (x) = 0.15969 0.08326
# Poissons Ratio (y) = 0.50917 0.36429
# Poissons Ratio (z) = 0.31109 0.42686
#
# Static dielectric constant tensor:
#      x y z
#    x 1.810310 -0.020130 -0.015480 
#    y -0.020130 1.761020 -0.015340 
#    z -0.015480 -0.015340 1.789650 
# 
# From -- ./inp_files/451938.got.cif
#   From: 2010.05.17/outbox.cif.g08.bks.cpg/sg2_226_cif.got.tgz:451938.got - 2010.06.03 11:33:40.
