data_PCOD9109046
_publ_section_title
;
Structure prediction by ZEFSAII (Michael W. Deem and Ramdas Pophale) SiO2 
 PCOD9109046
Probable space group: P -1
;
_chemical_formula_sum "Si O2"
_cell_formula_units_Z 10
_cell_length_a 7.499329
_cell_length_b 6.941079
_cell_length_c 11.778050
_cell_angle_alpha 123.450222
_cell_angle_beta 121.395106
_cell_angle_gamma 52.566039
_cell_volume 389.875144
_symmetry_space_group_name_H-M "P -1"
_symmetry_group_IT_number 2
_symmetry_cell_setting 'triclinic'
loop_
_space_group_symop_operation_xyz
x,y,z
-x,-y,-z
loop_
_atom_site_type_symbol
_atom_site_label
_atom_site_fract_x
_atom_site_fract_y
_atom_site_fract_z
Si Si1 0.893563 0.379862 0.835323
Si Si2 0.568767 0.285453 0.855286
Si Si3 0.854410 0.720864 0.718629
Si Si4 0.353642 0.947582 0.592658
Si Si5 0.093609 0.830038 0.646871
O O1 0.652344 0.393335 0.809406
O O2 0.869976 0.519507 0.753175
O O3 0.074324 0.081329 0.787309
O O4 0.000000 0.500000 0.000000
O O5 0.788774 0.996558 0.849864
O O6 0.372759 0.188024 0.738476
O O7 0.500000 0.500000 0.000000
O O8 0.619838 0.789028 0.588532
O O9 0.062120 0.656837 0.677566
O O10 0.145642 0.053888 0.469042
O O11 0.297417 0.771924 0.606185
#
# Coordination Sequence:
#
# PCOD9109046 Si02
#       5
#     2   2   2   2   2
#     4  11  23  39  59  88 120 158 199 243 292 344
#     4   9  20  39  58  86 119 152 194 247 283 352
#     4   9  22  39  61  88 116 160 194 239 298 347
#     4   9  20  41  61  89 117 156 194 240 298 345
#     4  10  20  41  62  85 125 149 194 251 283 358
#
# _framework density 25.649236999999999
#
# number of rings (size 3 to 8) (size 9 to 14) (size 15 to 20)
#    1.200    1.200    0.000    1.800    0.000    4.800 
#    7.200    2.000    0.000    0.000    0.000    0.000 
#    0.000    0.000    0.000    0.000    0.000    0.000 
#
# Total GULP energy -55835.859932 kJ/mol
# GULP energy per Si atom -5583.585993 kJ/mol
# Density = 2.559086 g / cm^3
# Si number density = 25.649237 Si / 1000 Ang^3
#
#
#
# Elastic Constant Matrix: (Units=GPa)
#
#
# Indices 1 2 3 4 5 6 
#
# 1 163.0504 48.4727 3.1281 -8.4454 -8.7893 61.4955
# 2 48.4727 109.9113 1.8879 -0.7081 -13.5306 38.8344
# 3 3.1281 1.8879 80.3423 32.1360 10.7580 4.0595
# 4 -8.4454 -0.7081 32.1360 44.0107 0.0836 -14.1377
# 5 -8.7893 -13.5306 10.7580 0.0836 41.9035 -5.3167
# 6 61.4955 38.8344 4.0595 -14.1377 -5.3167 45.6311
#
#
#
# Elastic Compliance Matrix: (Units=1/GPa)
#
#
# Indices 1 2 3 4 5 6 
#
# 1 0.013578 0.001752 0.003396 -0.007007 -0.000273 -0.022295
# 2 0.001752 0.014442 0.002955 -0.007001 0.002150 -0.016834
# 3 0.003396 0.002955 0.022119 -0.020629 -0.006020 -0.016152
# 4 -0.007007 -0.007001 -0.020629 0.046712 0.005578 0.032359
# 5 -0.000273 0.002150 -0.006020 0.005578 0.026530 0.003893
# 6 -0.022295 -0.016834 -0.016152 0.032359 0.003893 0.078203
#
#
# Mechanical properties :
#
#
# Convention : Reuss Voigt Hill
#
# Bulk Modulus (GPa) = 15.07257 51.14237 33.10747
# Shear Modulus (GPa) = 24.09740 46.29676 35.19708
#
# Velocity S-wave (km/s) = 3.06845 4.25313 3.70840
# Velocity P-wave (km/s) = 4.29453 6.64088 5.59215
#
# Compressibility (1/GPa) = 0.06634566
#
# Stress axis : x y z
#
# Youngs Moduli (GPa) = 73.64900 69.24181 45.21081
#
# Poissons Ratio (x) = -0.12132 -0.15354
# Poissons Ratio (y) = -0.12904 -0.13362
# Poissons Ratio (z) = -0.25011 -0.20464
#
# Static dielectric constant tensor:
#      x y z
#    x 2.043290 -0.052250 0.001950 
#    y -0.052250 2.036650 0.013030 
#    z 0.001950 0.013030 1.990010 
# 
# From -- ./inp_files/18162.got.cif
#   From: 2010.05.17/outbox.cif.g08.bks.cpg/sg2_10_cif.got.tgz:18162.got - 2010.06.03 11:33:40.
