data_PCOD9109872
_publ_section_title
;
Structure prediction by ZEFSAII (Michael W. Deem and Ramdas Pophale) SiO2 
 PCOD9109872
Probable space group: P -1
;
_chemical_formula_sum "Si O2"
_cell_formula_units_Z 14
_cell_length_a 9.386270
_cell_length_b 11.238664
_cell_length_c 8.564129
_cell_angle_alpha 135.197613
_cell_angle_beta 74.898406
_cell_angle_gamma 113.890406
_cell_volume 581.560903
_symmetry_space_group_name_H-M "P -1"
_symmetry_group_IT_number 2
_symmetry_cell_setting 'triclinic'
loop_
_space_group_symop_operation_xyz
x,y,z
-x,-y,-z
loop_
_atom_site_type_symbol
_atom_site_label
_atom_site_fract_x
_atom_site_fract_y
_atom_site_fract_z
Si Si1 0.878599 0.808125 0.731503
Si Si2 0.575022 0.853934 0.792187
Si Si3 0.291274 0.568202 0.739290
Si Si4 0.123542 0.957376 0.539406
Si Si5 0.236353 0.616715 0.151810
Si Si6 0.452872 0.163698 0.590571
Si Si7 0.995129 0.371347 0.232481
O O1 0.751490 0.906338 0.849672
O O2 0.781211 0.620633 0.500459
O O3 0.933548 0.771985 0.852156
O O4 0.031706 0.890482 0.661899
O O5 0.466297 0.672656 0.736210
O O6 0.563554 0.839459 0.594535
O O7 0.500000 0.000000 0.000000
O O8 0.181900 0.683726 0.823989
O O9 0.266409 0.546138 0.910090
O O10 0.181917 0.793445 0.311566
O O11 0.278408 0.128398 0.670347
O O12 0.000000 0.000000 0.500000
O O13 0.400431 0.669892 0.246492
O O14 0.102370 0.480013 0.164195
O O15 0.500000 0.000000 0.500000
O O16 0.000000 0.500000 0.500000
#
# Coordination Sequence:
#
# PCOD9109872 Si02
#       7
#     2   2   2   2   2   2   2
#     4  11  24  44  70 102 135 181 228 290 341 404
#     4  12  25  46  67  99 139 179 231 286 350 405
#     4  11  24  42  71 100 139 178 231 280 341 412
#     4  11  21  39  68  99 138 176 230 273 345 396
#     4  11  22  43  68 101 139 183 224 275 346 411
#     4  10  22  39  67  95 136 181 216 276 340 406
#     4  10  20  41  68 100 134 175 224 282 337 402
#
# _framework density 24.073146000000001
#
# number of rings (size 3 to 8) (size 9 to 14) (size 15 to 20)
#    0.000    1.143    4.286    4.286    2.000    0.000 
#    0.000    9.286    0.000    0.000    0.000    0.000 
#    0.000    0.000    0.000    0.000    0.000    0.000 
#
# Total GULP energy -78405.029626 kJ/mol
# GULP energy per Si atom -5600.359259 kJ/mol
# Density = 2.401835 g / cm^3
# Si number density = 24.073146 Si / 1000 Ang^3
#
#
#
# Elastic Constant Matrix: (Units=GPa)
#
#
# Indices 1 2 3 4 5 6 
#
# 1 157.9162 18.6192 17.5192 -6.7062 -1.2488 8.9081
# 2 18.6192 99.3399 28.3542 -26.2929 -9.0572 14.6516
# 3 17.5192 28.3542 52.0198 -1.9989 -8.2044 6.0183
# 4 -6.7062 -26.2929 -1.9989 33.0509 -4.6884 1.6001
# 5 -1.2488 -9.0572 -8.2044 -4.6884 28.4458 -5.1560
# 6 8.9081 14.6516 6.0183 1.6001 -5.1560 54.9297
#
#
#
# Elastic Compliance Matrix: (Units=1/GPa)
#
#
# Indices 1 2 3 4 5 6 
#
# 1 0.006678 -0.000346 -0.001988 0.000945 -0.000386 -0.000837
# 2 -0.000346 0.016835 -0.007355 0.013737 0.004840 -0.003574
# 3 -0.001988 -0.007355 0.024344 -0.004232 0.003914 0.000108
# 4 0.000945 0.013737 -0.004232 0.042655 0.009555 -0.003700
# 5 -0.000386 0.004840 0.003914 0.009555 0.039707 0.001792
# 6 -0.000837 -0.003574 0.000108 -0.003700 0.001792 0.019558
#
#
# Mechanical properties :
#
#
# Convention : Reuss Voigt Hill
#
# Bulk Modulus (GPa) = 35.11329 48.69566 41.90448
# Shear Modulus (GPa) = 27.98779 39.60416 33.79597
#
# Velocity S-wave (km/s) = 3.41341 4.06046 3.75091
# Velocity P-wave (km/s) = 5.49117 6.50040 6.01698
#
# Compressibility (1/GPa) = 0.02847924
#
# Stress axis : x y z
#
# Youngs Moduli (GPa) = 149.74265 59.40014 41.07736
#
# Poissons Ratio (x) = 0.02053 0.08168
# Poissons Ratio (y) = 0.05176 0.30212
# Poissons Ratio (z) = 0.29775 0.43689
#
# Static dielectric constant tensor:
#      x y z
#    x 1.962090 -0.091070 -0.036460 
#    y -0.091070 2.006880 0.076320 
#    z -0.036460 0.076320 1.928410 
# 
# From -- ./inp_files/184462.got.cif
#   From: 2010.05.17/outbox.cif.g08.bks.cpg/sg2_93_cif.got.tgz:184462.got - 2010.06.03 11:33:40.
