data_PCOD9109750
_publ_section_title
;
Structure prediction by ZEFSAII (Michael W. Deem and Ramdas Pophale) SiO2 
 PCOD9109750
Probable space group: P -1
;
_chemical_formula_sum "Si O2"
_cell_formula_units_Z 16
_cell_length_a 9.502310
_cell_length_b 16.122232
_cell_length_c 9.666429
_cell_angle_alpha 115.196340
_cell_angle_beta 103.388388
_cell_angle_gamma 32.731604
_cell_volume 699.869393
_symmetry_space_group_name_H-M "P -1"
_symmetry_group_IT_number 2
_symmetry_cell_setting 'triclinic'
loop_
_space_group_symop_operation_xyz
x,y,z
-x,-y,-z
loop_
_atom_site_type_symbol
_atom_site_label
_atom_site_fract_x
_atom_site_fract_y
_atom_site_fract_z
Si Si1 0.653414 0.079727 0.130715
Si Si2 0.700780 0.373892 0.660077
Si Si3 0.912330 0.961641 0.606331
Si Si4 0.529323 0.075312 0.808309
Si Si5 0.203901 0.774215 0.148840
Si Si6 0.448971 0.684981 0.850278
Si Si7 0.043913 0.365155 0.714434
Si Si8 0.550504 0.849488 0.580452
O O1 0.727530 0.142362 0.137611
O O2 0.470187 0.185094 0.299198
O O3 0.531527 0.090509 0.982244
O O4 0.926531 0.882940 0.101327
O O5 0.669482 0.358120 0.800109
O O6 0.464696 0.572728 0.712735
O O7 0.959483 0.302793 0.652895
O O8 0.791294 0.236795 0.498325
O O9 0.788064 0.985492 0.734708
O O10 0.887955 0.083257 0.696271
O O11 0.703969 0.042386 0.495318
O O12 0.265966 0.259767 0.807843
O O13 0.541492 0.963016 0.687560
O O14 0.385010 0.704919 0.010687
O O15 0.752126 0.563363 0.815926
O O16 0.186379 0.312976 0.565994
#
# Coordination Sequence:
#
# PCOD9109750 Si02
#       8
#     2   2   2   2   2   2   2   2
#     4  12  25  37  65  98 133 164 202 269 321 368
#     4  10  20  41  67  89 122 169 213 258 306 371
#     4  11  20  39  70  92 120 169 220 261 291 382
#     4  11  19  39  65  95 124 165 212 262 312 371
#     4  12  23  41  66  97 127 164 221 253 313 381
#     4  10  23  42  61  93 135 166 201 268 316 375
#     4   9  20  39  66  87 122 167 212 249 311 373
#     4  11  20  40  64  95 125 163 217 259 311 374
#
# _framework density 22.861408000000001
#
# number of rings (size 3 to 8) (size 9 to 14) (size 15 to 20)
#    0.750    0.500    5.000    2.250    0.000    1.000 
#    0.000    0.625    2.750    0.000    0.000    0.000 
#    0.000    0.000    0.000    0.000    0.000    0.000 
#
# Total GULP energy -89349.901559 kJ/mol
# GULP energy per Si atom -5584.368847 kJ/mol
# Density = 2.280937 g / cm^3
# Si number density = 22.861408 Si / 1000 Ang^3
#
#
#
# Elastic Constant Matrix: (Units=GPa)
#
#
# Indices 1 2 3 4 5 6 
#
# 1 61.3855 6.6441 32.5141 -6.3790 -20.3342 5.4508
# 2 6.6441 52.4116 18.9204 -8.1378 -7.2888 5.2632
# 3 32.5141 18.9204 127.0581 -14.2258 -22.2754 -9.4725
# 4 -6.3790 -8.1378 -14.2258 34.0766 9.7338 -1.2439
# 5 -20.3342 -7.2888 -22.2754 9.7338 55.2634 1.2259
# 6 5.4508 5.2632 -9.4725 -1.2439 1.2259 29.8871
#
#
#
# Elastic Compliance Matrix: (Units=1/GPa)
#
#
# Indices 1 2 3 4 5 6 
#
# 1 0.021363 0.000503 -0.004895 0.000134 0.006058 -0.005779
# 2 0.000503 0.021292 -0.003050 0.003369 0.001275 -0.004720
# 3 -0.004895 -0.003050 0.010471 0.002480 0.001474 0.004791
# 4 0.000134 0.003369 0.002480 0.032491 -0.004267 0.001696
# 5 0.006058 0.001275 0.001474 -0.004267 0.021881 -0.001937
# 6 -0.005779 -0.004720 0.004791 0.001696 -0.001937 0.037013
#
#
# Mechanical properties :
#
#
# Convention : Reuss Voigt Hill
#
# Bulk Modulus (GPa) = 26.15128 39.66804 32.90966
# Shear Modulus (GPa) = 29.04561 36.03052 32.53807
#
# Velocity S-wave (km/s) = 3.56829 3.97425 3.77672
# Velocity P-wave (km/s) = 5.33299 6.20070 5.78314
#
# Compressibility (1/GPa) = 0.03823905
#
# Stress axis : x y z
#
# Youngs Moduli (GPa) = 46.81019 46.96693 95.50504
#
# Poissons Ratio (x) = -0.02361 0.46753
# Poissons Ratio (y) = -0.02353 0.29133
# Poissons Ratio (z) = 0.22915 0.14327
#
# Static dielectric constant tensor:
#      x y z
#    x 1.859070 0.007680 0.010130 
#    y 0.007680 1.861610 0.014900 
#    z 0.010130 0.014900 1.889490 
# 
# From -- ./inp_files/279644.got.cif
#   From: 2010.05.17/outbox.cif.g08.bks.cpg/sg2_140_cif.got.tgz:279644.got - 2010.06.03 11:33:40.
