data_PCOD9109990
_publ_section_title
;
Structure prediction by ZEFSAII (Michael W. Deem and Ramdas Pophale) SiO2 
 PCOD9109990
Probable space group: P -1
;
_chemical_formula_sum "Si O2"
_cell_formula_units_Z 16
_cell_length_a 11.119827
_cell_length_b 9.425671
_cell_length_c 11.378157
_cell_angle_alpha 128.802741
_cell_angle_beta 105.151560
_cell_angle_gamma 57.773177
_cell_volume 781.391556
_symmetry_space_group_name_H-M "P -1"
_symmetry_group_IT_number 2
_symmetry_cell_setting 'triclinic'
loop_
_space_group_symop_operation_xyz
x,y,z
-x,-y,-z
loop_
_atom_site_type_symbol
_atom_site_label
_atom_site_fract_x
_atom_site_fract_y
_atom_site_fract_z
Si Si1 0.563910 0.280105 0.965809
Si Si2 0.137773 0.343130 0.880567
Si Si3 0.388314 0.247098 0.081276
Si Si4 0.147665 0.991003 0.003650
Si Si5 0.430346 0.160913 0.296406
Si Si6 0.741751 0.104661 0.286797
Si Si7 0.818182 0.458211 0.475197
Si Si8 0.024020 0.558165 0.724527
O O1 0.732269 0.178341 0.970143
O O2 0.548010 0.076135 0.814786
O O3 0.500000 0.500000 0.000000
O O4 0.485000 0.337237 0.101557
O O5 0.124643 0.443321 0.801778
O O6 0.149655 0.118932 0.745841
O O7 0.268895 0.298742 0.978914
O O8 0.000000 0.500000 0.000000
O O9 0.344033 0.297093 0.229500
O O10 0.500000 0.000000 0.000000
O O11 0.105799 0.225259 0.148974
O O12 0.216761 0.942605 0.866404
O O13 0.000000 0.000000 0.000000
O O14 0.584888 0.147941 0.312270
O O15 0.321885 0.310267 0.445122
O O16 0.768240 0.295507 0.418992
O O17 0.886459 0.403792 0.333902
O O18 0.946025 0.445161 0.582287
#
# Coordination Sequence:
#
# PCOD9109990 Si02
#       8
#     2   2   2   2   2   2   2   2
#     4  11  23  38  68 103 135 171 230 291 344 401
#     4  12  23  38  70 107 133 169 234 302 335 391
#     4  10  20  41  68  97 135 175 223 288 347 393
#     4  12  23  42  70 102 133 176 234 289 345 404
#     4  11  21  45  68  96 141 188 225 278 354 416
#     4  12  23  41  72 103 130 182 239 282 338 412
#     4  11  25  45  67  93 145 198 221 270 357 429
#     4  11  25  44  67  98 143 186 227 285 352 405
#
# _framework density 20.476291
#
# number of rings (size 3 to 8) (size 9 to 14) (size 15 to 20)
#    0.000    0.750    7.500    1.875    1.750    0.500 
#    0.000    1.875    0.000    0.000    0.000    0.000 
#    0.000    0.000    0.000    0.000    0.000    0.000 
#
# Total GULP energy -89105.954929 kJ/mol
# GULP energy per Si atom -5569.122183 kJ/mol
# Density = 2.042969 g / cm^3
# Si number density = 20.476291 Si / 1000 Ang^3
#
#
#
# Elastic Constant Matrix: (Units=GPa)
#
#
# Indices 1 2 3 4 5 6 
#
# 1 139.3286 41.2310 11.1417 8.6275 5.6554 -7.9146
# 2 41.2310 148.5925 19.8828 5.3719 9.0720 -4.9975
# 3 11.1417 19.8828 56.2774 10.6283 -0.7044 -4.4964
# 4 8.6275 5.3719 10.6283 32.1348 0.3717 -1.6424
# 5 5.6554 9.0720 -0.7044 0.3717 28.8544 6.7262
# 6 -7.9146 -4.9975 -4.4964 -1.6424 6.7262 34.4575
#
#
#
# Elastic Compliance Matrix: (Units=1/GPa)
#
#
# Indices 1 2 3 4 5 6 
#
# 1 0.008047 -0.001973 -0.000482 -0.001570 -0.001342 0.001686
# 2 -0.001973 0.007754 -0.002326 0.000071 -0.002300 0.000820
# 3 -0.000482 -0.002326 0.019968 -0.006012 0.001000 0.001676
# 4 -0.001570 0.000071 -0.006012 0.033550 -0.000421 0.000547
# 5 -0.001342 -0.002300 0.001000 -0.000421 0.037503 -0.007852
# 6 0.001686 0.000820 0.001676 0.000547 -0.007852 0.031305
#
#
# Mechanical properties :
#
#
# Convention : Reuss Voigt Hill
#
# Bulk Modulus (GPa) = 38.15578 54.30107 46.22843
# Shear Modulus (GPa) = 31.96452 37.21887 34.59169
#
# Velocity S-wave (km/s) = 3.95530 4.26802 4.11463
# Velocity P-wave (km/s) = 6.28759 7.13194 6.72303
#
# Compressibility (1/GPa) = 0.02620835
#
# Stress axis : x y z
#
# Youngs Moduli (GPa) = 124.26794 128.96715 50.08037
#
# Poissons Ratio (x) = 0.25446 0.02412
# Poissons Ratio (y) = 0.24519 0.11646
# Poissons Ratio (z) = 0.05986 0.29992
#
# Static dielectric constant tensor:
#      x y z
#    x 1.816340 0.012390 0.020760 
#    y 0.012390 1.729340 -0.035300 
#    z 0.020760 -0.035300 1.890200 
# 
# From -- ./inp_files/418152.got.cif
#   From: 2010.05.17/outbox.cif.g08.bks.cpg/sg2_210_cif.got.tgz:418152.got - 2010.06.03 11:33:40.
