data_PCOD9109533
_publ_section_title
;
Structure prediction by ZEFSAII (Michael W. Deem and Ramdas Pophale) SiO2 
 PCOD9109533
Probable space group: P -1
;
_chemical_formula_sum "Si O2"
_cell_formula_units_Z 14
_cell_length_a 12.745555
_cell_length_b 9.630154
_cell_length_c 10.385985
_cell_angle_alpha 124.503746
_cell_angle_beta 132.013644
_cell_angle_gamma 34.819994
_cell_volume 540.390285
_symmetry_space_group_name_H-M "P -1"
_symmetry_group_IT_number 2
_symmetry_cell_setting 'triclinic'
loop_
_space_group_symop_operation_xyz
x,y,z
-x,-y,-z
loop_
_atom_site_type_symbol
_atom_site_label
_atom_site_fract_x
_atom_site_fract_y
_atom_site_fract_z
Si Si1 0.528143 0.783834 0.036162
Si Si2 0.765123 0.245912 0.638483
Si Si3 0.074660 0.745729 0.902731
Si Si4 0.883140 0.590415 0.591905
Si Si5 0.261681 0.072803 0.714767
Si Si6 0.602293 0.564304 0.437396
Si Si7 0.211887 0.814661 0.823711
O O1 0.392066 0.775283 0.004540
O O2 0.372522 0.952712 0.879056
O O3 0.733697 0.515332 0.010689
O O4 0.600355 0.896234 0.217811
O O5 0.667789 0.478703 0.595828
O O6 0.630653 0.297594 0.675232
O O7 0.764066 0.075879 0.463123
O O8 0.995862 0.093580 0.781343
O O9 0.893664 0.768266 0.752259
O O10 0.170751 0.688565 0.810298
O O11 0.000000 0.000000 0.000000
O O12 0.037075 0.344665 0.675844
O O13 0.000000 0.500000 0.500000
O O14 0.669266 0.680362 0.487441
O O15 0.720795 0.320130 0.326565
#
# Coordination Sequence:
#
# PCOD9109533 Si02
#       7
#     2   2   2   2   2   2   2
#     4  10  23  40  67  94 138 182 223 277 352 409
#     4  11  23  40  70 105 129 176 239 277 345 411
#     4  11  26  42  67  99 138 184 235 278 344 420
#     4  11  21  44  70 102 139 182 230 287 345 407
#     4  10  20  41  66 100 132 180 227 279 343 413
#     4  11  23  38  70 102 137 172 224 295 339 404
#     4  12  22  43  66  96 136 182 225 284 344 403
#
# _framework density 25.907201000000001
#
# number of rings (size 3 to 8) (size 9 to 14) (size 15 to 20)
#    0.000    1.143    4.286    1.714    2.000    1.143 
#    0.000    2.857    0.000    7.714    0.000    0.000 
#    0.000    0.000    0.000    0.000    0.000    0.000 
#
# Total GULP energy -78192.687857 kJ/mol
# GULP energy per Si atom -5585.191990 kJ/mol
# Density = 2.584823 g / cm^3
# Si number density = 25.907201 Si / 1000 Ang^3
#
#
#
# Elastic Constant Matrix: (Units=GPa)
#
#
# Indices 1 2 3 4 5 6 
#
# 1 139.7748 15.8531 30.4113 15.2225 36.7823 -5.3094
# 2 15.8531 100.9853 15.3995 -4.3249 -1.6063 -2.8123
# 3 30.4113 15.3995 69.7497 8.8471 33.3407 3.7402
# 4 15.2225 -4.3249 8.8471 41.4007 16.5523 11.5564
# 5 36.7823 -1.6063 33.3407 16.5523 55.5327 -0.8222
# 6 -5.3094 -2.8123 3.7402 11.5564 -0.8222 40.0107
#
#
#
# Elastic Compliance Matrix: (Units=1/GPa)
#
#
# Indices 1 2 3 4 5 6 
#
# 1 0.009085 -0.001340 -0.001259 -0.001772 -0.004748 0.001643
# 2 -0.001340 0.010729 -0.003341 0.000972 0.002924 0.000668
# 3 -0.001259 -0.003341 0.021715 0.001452 -0.012779 -0.003114
# 4 -0.001772 0.000972 0.001452 0.030813 -0.008993 -0.009387
# 5 -0.004748 0.002924 -0.012779 -0.008993 0.031649 0.004018
# 6 0.001643 0.000668 -0.003114 -0.009387 0.004018 0.028343
#
#
# Mechanical properties :
#
#
# Convention : Reuss Voigt Hill
#
# Bulk Modulus (GPa) = 33.72924 48.20417 40.96671
# Shear Modulus (GPa) = 32.44704 43.97855 38.21279
#
# Velocity S-wave (km/s) = 3.54281 4.12459 3.84472
# Velocity P-wave (km/s) = 5.45737 6.42883 5.96292
#
# Compressibility (1/GPa) = 0.02964787
#
# Stress axis : x y z
#
# Youngs Moduli (GPa) = 110.07030 93.20485 46.05159
#
# Poissons Ratio (x) = 0.12488 0.05799
# Poissons Ratio (y) = 0.14748 0.15388
# Poissons Ratio (z) = 0.13861 0.31144
#
# Static dielectric constant tensor:
#      x y z
#    x 2.167610 0.027980 -0.050510 
#    y 0.027980 2.072620 -0.039990 
#    z -0.050510 -0.039990 2.107740 
# 
# From -- ./inp_files/419781.got.cif
#   From: 2010.05.17/outbox.cif.g08.bks.cpg/sg2_210_cif.got.tgz:419781.got - 2010.06.03 11:33:40.
