data_PCOD9109392
_publ_section_title
;
Structure prediction by ZEFSAII (Michael W. Deem and Ramdas Pophale) SiO2 
 PCOD9109392
Probable space group: P -1
;
_chemical_formula_sum "Si O2"
_cell_formula_units_Z 14
_cell_length_a 9.602060
_cell_length_b 12.607233
_cell_length_c 11.337771
_cell_angle_alpha 130.143140
_cell_angle_beta 127.200400
_cell_angle_gamma 40.840051
_cell_volume 667.103911
_symmetry_space_group_name_H-M "P -1"
_symmetry_group_IT_number 2
_symmetry_cell_setting 'triclinic'
loop_
_space_group_symop_operation_xyz
x,y,z
-x,-y,-z
loop_
_atom_site_type_symbol
_atom_site_label
_atom_site_fract_x
_atom_site_fract_y
_atom_site_fract_z
Si Si1 0.161886 0.857890 0.579798
Si Si2 0.276655 0.101023 0.850026
Si Si3 0.215707 0.583137 0.261548
Si Si4 0.240082 0.954819 0.339481
Si Si5 0.154362 0.319795 0.165696
Si Si6 0.422309 0.072581 0.325278
Si Si7 0.693659 0.402997 0.934352
O O1 0.286100 0.673952 0.448874
O O2 0.298926 0.923768 0.738076
O O3 0.000000 0.000000 0.500000
O O4 0.998568 0.890266 0.622580
O O5 0.029714 0.260047 0.796431
O O6 0.431771 0.074240 0.804323
O O7 0.285387 0.159527 0.025718
O O8 0.188814 0.455761 0.228909
O O9 0.353826 0.512026 0.160183
O O10 0.415776 0.912565 0.500390
O O11 0.246031 0.787958 0.195753
O O12 0.304465 0.015900 0.304725
O O13 0.251448 0.248719 0.293328
O O14 0.903287 0.387881 0.079131
O O15 0.500000 0.500000 0.000000
#
# Coordination Sequence:
#
# PCOD9109392 Si02
#       7
#     2   2   2   2   2   2   2
#     4  10  16  38  67  86 113 165 220 238 288 388
#     4  10  18  39  66  89 121 167 209 247 308 374
#     4  10  20  38  67  92 122 165 205 253 308 375
#     4  11  22  41  65  87 124 174 210 244 311 378
#     4  11  24  40  60  99 130 155 208 265 308 359
#     4  11  24  38  64  94 125 162 210 260 305 367
#     4  11  23  40  65  90 128 169 204 251 320 372
#
# _framework density 20.986238
#
# number of rings (size 3 to 8) (size 9 to 14) (size 15 to 20)
#    0.000    1.429    7.143    2.143    4.000    0.571 
#    0.000    5.714    0.000    0.000    0.000    0.000 
#    0.000    0.000    0.000    0.000    0.000    0.000 
#
# Total GULP energy -78204.039470 kJ/mol
# GULP energy per Si atom -5586.002819 kJ/mol
# Density = 2.093847 g / cm^3
# Si number density = 20.986238 Si / 1000 Ang^3
#
#
#
# Elastic Constant Matrix: (Units=GPa)
#
#
# Indices 1 2 3 4 5 6 
#
# 1 152.5816 41.9878 51.6746 -6.5618 -27.3621 17.5311
# 2 41.9878 60.2664 42.8249 -8.7599 1.2758 19.6552
# 3 51.6746 42.8249 97.1493 -2.7394 -6.9796 14.8208
# 4 -6.5618 -8.7599 -2.7394 20.8954 1.6055 -5.7512
# 5 -27.3621 1.2758 -6.9796 1.6055 43.7519 9.7433
# 6 17.5311 19.6552 14.8208 -5.7512 9.7433 35.4764
#
#
#
# Elastic Compliance Matrix: (Units=1/GPa)
#
#
# Indices 1 2 3 4 5 6 
#
# 1 0.010247 -0.004446 -0.002461 -0.000483 0.006956 -0.003561
# 2 -0.004446 0.030751 -0.009954 0.008181 -0.003709 -0.008336
# 3 -0.002461 -0.009954 0.016174 -0.003232 0.001675 -0.001010
# 4 -0.000483 0.008181 -0.003232 0.052955 -0.004533 0.006886
# 5 0.006956 -0.003709 0.001675 -0.004533 0.030224 -0.011118
# 6 -0.003561 -0.008336 -0.001010 0.006886 -0.011118 0.039157
#
#
# Mechanical properties :
#
#
# Convention : Reuss Voigt Hill
#
# Bulk Modulus (GPa) = 42.64817 64.77466 53.71142
# Shear Modulus (GPa) = 22.61970 31.59208 27.10589
#
# Velocity S-wave (km/s) = 3.28660 3.88412 3.59779
# Velocity P-wave (km/s) = 5.89647 7.14475 6.55042
#
# Compressibility (1/GPa) = 0.02344766
#
# Stress axis : x y z
#
# Youngs Moduli (GPa) = 97.59377 32.51960 61.82905
#
# Poissons Ratio (x) = 0.14459 0.15215
# Poissons Ratio (y) = 0.43394 0.61547
# Poissons Ratio (z) = 0.24017 0.32371
#
# Static dielectric constant tensor:
#      x y z
#    x 1.769350 -0.038780 0.013810 
#    y -0.038780 1.779190 -0.023130 
#    z 0.013810 -0.023130 1.802470 
# 
# From -- ./inp_files/190206.got.cif
#   From: 2010.05.17/outbox.cif.g08.bks.cpg/sg2_96_cif.got.tgz:190206.got - 2010.06.03 11:33:40.
