data_PCOD9109719
_publ_section_title
;
Structure prediction by ZEFSAII (Michael W. Deem and Ramdas Pophale) SiO2 
 PCOD9109719
Probable space group: P -1
;
_chemical_formula_sum "Si O2"
_cell_formula_units_Z 16
_cell_length_a 16.572516
_cell_length_b 5.922454
_cell_length_c 18.612851
_cell_angle_alpha 122.117722
_cell_angle_beta 29.784438
_cell_angle_gamma 127.828950
_cell_volume 716.757240
_symmetry_space_group_name_H-M "P -1"
_symmetry_group_IT_number 2
_symmetry_cell_setting 'triclinic'
loop_
_space_group_symop_operation_xyz
x,y,z
-x,-y,-z
loop_
_atom_site_type_symbol
_atom_site_label
_atom_site_fract_x
_atom_site_fract_y
_atom_site_fract_z
Si Si1 0.560456 0.846310 0.197331
Si Si2 0.770760 0.129973 0.792567
Si Si3 0.070648 0.682211 0.650335
Si Si4 0.899799 0.202060 0.075871
Si Si5 0.252027 0.289738 0.372242
Si Si6 0.313561 0.745682 0.610038
Si Si7 0.702374 0.850884 0.527521
Si Si8 0.445957 0.168041 0.968289
O O1 0.447000 0.512628 0.241406
O O2 0.568513 0.889733 0.113660
O O3 0.752830 0.978135 0.101873
O O4 0.445044 0.015927 0.349732
O O5 0.598700 0.085863 0.871753
O O6 0.876984 0.465407 0.773313
O O7 0.838567 0.920265 0.658334
O O8 0.725985 0.006744 0.885186
O O9 0.146991 0.493274 0.508350
O O10 0.179802 0.752526 0.651268
O O11 0.116638 0.973597 0.621659
O O12 0.789713 0.270824 0.238360
O O13 0.000000 0.500000 0.000000
O O14 0.000000 0.000000 0.000000
O O15 0.264407 0.138332 0.411459
O O16 0.354953 0.463763 0.512542
O O17 0.500000 0.000000 0.500000
O O18 0.500000 0.500000 0.000000
#
# Coordination Sequence:
#
# PCOD9109719 Si02
#       8
#     2   2   2   2   2   2   2   2
#     4  11  24  46  73 101 145 194 254 301 380 457
#     4  11  23  40  64 100 144 182 244 291 369 444
#     4  10  24  39  68 104 138 180 233 313 364 439
#     4  12  32  51  78 117 157 198 256 333 395 453
#     4  10  20  41  67 100 134 186 240 292 368 440
#     4  11  26  50  77 106 145 200 262 309 388 461
#     4  10  22  43  76 103 135 193 243 310 370 449
#     4  11  24  41  66  96 138 201 233 291 357 458
#
# _framework density 22.322759999999999
#
# number of rings (size 3 to 8) (size 9 to 14) (size 15 to 20)
#    0.000    1.250    2.500    2.625    7.000    4.500 
#    0.000    0.000    0.000    0.000    0.000    0.000 
#    0.000    0.000    0.000    0.000    0.000    0.000 
#
# Total GULP energy -89330.764481 kJ/mol
# GULP energy per Si atom -5583.172780 kJ/mol
# Density = 2.227195 g / cm^3
# Si number density = 22.322760 Si / 1000 Ang^3
#
#
#
# Elastic Constant Matrix: (Units=GPa)
#
#
# Indices 1 2 3 4 5 6 
#
# 1 100.9387 54.1712 55.3588 -17.4660 9.4433 14.4507
# 2 54.1712 117.8927 44.3592 -44.7665 12.1982 7.9333
# 3 55.3588 44.3592 100.5832 -24.6351 26.7525 6.3734
# 4 -17.4660 -44.7665 -24.6351 44.9210 -3.6343 -1.7658
# 5 9.4433 12.1982 26.7525 -3.6343 41.7150 1.3414
# 6 14.4507 7.9333 6.3734 -1.7658 1.3414 34.5176
#
#
#
# Elastic Compliance Matrix: (Units=1/GPa)
#
#
# Indices 1 2 3 4 5 6 
#
# 1 0.017691 -0.006574 -0.008392 -0.004209 0.003083 -0.004681
# 2 -0.006574 0.017193 0.000261 0.014508 -0.002430 -0.000411
# 3 -0.008392 0.000261 0.018494 0.006400 -0.009503 0.000735
# 4 -0.004209 0.014508 0.006400 0.038241 -0.004042 -0.000641
# 5 0.003083 -0.002430 -0.009503 -0.004042 0.029738 -0.000340
# 6 -0.004681 -0.000411 0.000735 -0.000641 -0.000340 0.030870
#
#
# Mechanical properties :
#
#
# Convention : Reuss Voigt Hill
#
# Bulk Modulus (GPa) = 41.72044 69.68812 55.70428
# Shear Modulus (GPa) = 26.36805 35.26575 30.81690
#
# Velocity S-wave (km/s) = 3.44061 3.97900 3.71956
# Velocity P-wave (km/s) = 5.87486 7.23851 6.59204
#
# Compressibility (1/GPa) = 0.02396906
#
# Stress axis : x y z
#
# Youngs Moduli (GPa) = 56.52701 58.16440 54.07170
#
# Poissons Ratio (x) = 0.38235 0.45376
# Poissons Ratio (y) = 0.37159 -0.01413
# Poissons Ratio (z) = 0.47437 -0.01520
#
# Static dielectric constant tensor:
#      x y z
#    x 1.810950 -0.036080 -0.039440 
#    y -0.036080 1.855180 0.009200 
#    z -0.039440 0.009200 1.956500 
# 
# From -- ./inp_files/574926.got.cif
#   From: 2010.05.17/outbox.cif.g08.bks.cpg/sg2_288_cif.got.tgz:574926.got - 2010.06.03 11:33:40.
