data_PCOD9109499
_publ_section_title
;
Structure prediction by ZEFSAII (Michael W. Deem and Ramdas Pophale) SiO2 
 PCOD9109499
Probable space group: P -1
;
_chemical_formula_sum "Si O2"
_cell_formula_units_Z 14
_cell_length_a 9.056626
_cell_length_b 11.440102
_cell_length_c 7.059192
_cell_angle_alpha 51.958387
_cell_angle_beta 76.417458
_cell_angle_gamma 64.789735
_cell_volume 520.761626
_symmetry_space_group_name_H-M "P -1"
_symmetry_group_IT_number 2
_symmetry_cell_setting 'triclinic'
loop_
_space_group_symop_operation_xyz
x,y,z
-x,-y,-z
loop_
_atom_site_type_symbol
_atom_site_label
_atom_site_fract_x
_atom_site_fract_y
_atom_site_fract_z
Si Si1 0.108828 0.579599 0.698942
Si Si2 0.673553 0.372808 0.752229
Si Si3 0.384151 0.665502 0.718684
Si Si4 0.113812 0.871319 0.758177
Si Si5 0.484185 0.836881 0.860516
Si Si6 0.827831 0.783049 0.974179
Si Si7 0.174578 0.140210 0.657028
O O1 0.209088 0.603485 0.462475
O O2 0.243059 0.585651 0.809397
O O3 0.101605 0.406667 0.878998
O O4 0.923482 0.700969 0.589215
O O5 0.533811 0.542446 0.678083
O O6 0.789441 0.278791 0.983513
O O7 0.586431 0.244953 0.866393
O O8 0.243777 0.843308 0.575782
O O9 0.486714 0.713605 0.811532
O O10 0.079050 0.024295 0.745415
O O11 0.950710 0.851392 0.769214
O O12 0.358049 0.016366 0.679195
O O13 0.651925 0.841211 0.875614
O O14 0.824032 0.822643 0.158907
#
# Coordination Sequence:
#
# PCOD9109499 Si02
#       7
#     2   2   2   2   2   2   2
#     4  12  24  38  71  99 132 163 214 272 326 370
#     4  10  20  41  65  96 123 176 208 263 316 384
#     4  10  22  43  64  97 128 173 217 257 321 393
#     4  10  23  41  72  86 131 176 216 257 320 386
#     4  10  23  41  70  91 129 174 217 260 315 385
#     4  12  23  40  66 106 124 165 221 271 313 378
#     4  10  23  44  64  96 130 173 213 263 322 390
#
# _framework density 26.883702
#
# number of rings (size 3 to 8) (size 9 to 14) (size 15 to 20)
#    0.000    1.714    2.857    3.429    2.000    2.857 
#    0.000    0.000    0.000    5.143    0.000    0.000 
#    0.000    0.000    0.000    0.000    0.000    0.000 
#
# Total GULP energy -78025.009892 kJ/mol
# GULP energy per Si atom -5573.214992 kJ/mol
# Density = 2.682251 g / cm^3
# Si number density = 26.883702 Si / 1000 Ang^3
#
#
#
# Elastic Constant Matrix: (Units=GPa)
#
#
# Indices 1 2 3 4 5 6 
#
# 1 173.1456 50.8238 33.0227 -16.8492 37.6109 -7.3394
# 2 50.8238 139.7255 59.9524 -22.9769 26.6445 7.6918
# 3 33.0227 59.9524 89.6850 -22.2187 38.3027 -16.5051
# 4 -16.8492 -22.9769 -22.2187 42.0797 -6.1509 19.0869
# 5 37.6109 26.6445 38.3027 -6.1509 30.2969 -1.0238
# 6 -7.3394 7.6918 -16.5051 19.0869 -1.0238 48.8375
#
#
#
# Elastic Compliance Matrix: (Units=1/GPa)
#
#
# Indices 1 2 3 4 5 6 
#
# 1 0.009422 -0.002978 0.007034 0.001869 -0.017484 0.003165
# 2 -0.002978 0.012634 -0.010264 0.004642 0.006249 -0.007590
# 3 0.007034 -0.010264 0.039906 0.005231 -0.048651 0.013096
# 4 0.001869 0.004642 0.005231 0.034437 -0.006440 -0.012276
# 5 -0.017484 0.006249 -0.048651 -0.006440 0.108901 -0.015254
# 6 0.003165 -0.007590 0.013096 -0.012276 -0.015254 0.031051
#
#
# Mechanical properties :
#
#
# Convention : Reuss Voigt Hill
#
# Bulk Modulus (GPa) = 20.18360 76.68376 48.43368
# Shear Modulus (GPa) = 18.84793 41.49330 30.17062
#
# Velocity S-wave (km/s) = 2.65069 3.93292 3.35366
# Velocity P-wave (km/s) = 4.11001 7.01499 5.74901
#
# Compressibility (1/GPa) = 0.04954518
#
# Stress axis : x y z
#
# Youngs Moduli (GPa) = 106.13362 79.15224 25.05915
#
# Poissons Ratio (x) = 0.23573 -0.17627
# Poissons Ratio (y) = 0.31608 0.25722
# Poissons Ratio (z) = -0.74658 0.81244
#
# Static dielectric constant tensor:
#      x y z
#    x 2.098310 -0.056640 -0.057010 
#    y -0.056640 2.300590 0.207390 
#    z -0.057010 0.207390 2.329770 
# 
# From -- ./inp_files/174893.got.cif
#   From: 2010.05.17/outbox.cif.g08.bks.cpg/sg2_88_cif.got.tgz:174893.got - 2010.06.03 11:33:40.
