data_PCOD9109431
_publ_section_title
;
Structure prediction by ZEFSAII (Michael W. Deem and Ramdas Pophale) SiO2 
 PCOD9109431
Probable space group: P -1
;
_chemical_formula_sum "Si O2"
_cell_formula_units_Z 16
_cell_length_a 9.462083
_cell_length_b 8.290455
_cell_length_c 22.190464
_cell_angle_alpha 64.861374
_cell_angle_beta 25.863098
_cell_angle_gamma 69.063022
_cell_volume 686.052227
_symmetry_space_group_name_H-M "P -1"
_symmetry_group_IT_number 2
_symmetry_cell_setting 'triclinic'
loop_
_space_group_symop_operation_xyz
x,y,z
-x,-y,-z
loop_
_atom_site_type_symbol
_atom_site_label
_atom_site_fract_x
_atom_site_fract_y
_atom_site_fract_z
Si Si1 0.730787 0.220993 0.036176
Si Si2 0.264283 0.539814 0.508912
Si Si3 0.123852 0.227424 0.778777
Si Si4 0.434418 0.921957 0.103892
Si Si5 0.555903 0.079500 0.255496
Si Si6 0.334497 0.557116 0.161292
Si Si7 0.994901 0.774278 0.483498
Si Si8 0.250349 0.150240 0.567013
O O1 0.720148 0.155403 0.119480
O O2 0.538737 0.400863 0.082212
O O3 0.568788 0.060930 0.081411
O O4 0.074131 0.260891 0.864465
O O5 0.551934 0.684301 0.389147
O O6 0.407868 0.347525 0.486860
O O7 0.955326 0.532346 0.672333
O O8 0.141204 0.595826 0.481318
O O9 0.836143 0.330971 0.843004
O O10 0.180678 0.016739 0.790216
O O11 0.529660 0.714631 0.099852
O O12 0.047011 0.896819 0.266913
O O13 0.500000 0.000000 0.000000
O O14 0.347025 0.212945 0.352085
O O15 0.272388 0.927640 0.371240
O O16 0.916906 0.821690 0.437743
O O17 0.500000 0.000000 0.500000
#
# Coordination Sequence:
#
# PCOD9109431 Si02
#       8
#     2   2   2   2   2   2   2   2
#     4  12  23  45  70  93 137 175 217 271 331 401
#     4  10  23  41  62  96 134 170 223 268 327 390
#     4  11  24  38  66  96 132 168 220 275 322 387
#     4  11  25  43  65  98 134 171 216 266 336 386
#     4  10  22  39  65  96 126 175 220 267 333 388
#     4  11  24  43  67  99 128 181 219 270 329 389
#     4  10  20  41  65  91 130 174 217 269 330 390
#     4  11  25  39  68  98 130 171 221 278 324 384
#
# _framework density 23.321840000000002
#
# number of rings (size 3 to 8) (size 9 to 14) (size 15 to 20)
#    0.000    1.250    3.750    1.500    5.250    0.000 
#    0.000    0.000    0.000    2.250    0.000    0.000 
#    0.000    0.000    0.000    0.000    0.000    0.000 
#
# Total GULP energy -89315.118441 kJ/mol
# GULP energy per Si atom -5582.194903 kJ/mol
# Density = 2.326876 g / cm^3
# Si number density = 23.321840 Si / 1000 Ang^3
#
#
#
# Elastic Constant Matrix: (Units=GPa)
#
#
# Indices 1 2 3 4 5 6 
#
# 1 106.5742 43.3731 17.0621 -3.2351 18.9860 -28.0533
# 2 43.3731 148.6120 46.3352 14.7891 -0.2680 -24.2047
# 3 17.0621 46.3352 91.3604 -10.7584 26.9785 -8.7339
# 4 -3.2351 14.7891 -10.7584 33.5477 -7.6910 -0.3451
# 5 18.9860 -0.2680 26.9785 -7.6910 32.6179 -3.9576
# 6 -28.0533 -24.2047 -8.7339 -0.3451 -3.9576 44.3239
#
#
#
# Elastic Compliance Matrix: (Units=1/GPa)
#
#
# Indices 1 2 3 4 5 6 
#
# 1 0.014079 -0.004333 0.003285 0.002171 -0.009666 0.006346
# 2 -0.004333 0.011500 -0.007850 -0.006148 0.007982 0.002655
# 3 0.003285 -0.007850 0.020136 0.006316 -0.017108 0.000281
# 4 0.002171 -0.006148 0.006316 0.035142 0.001710 -0.000313
# 5 -0.009666 0.007982 -0.017108 0.001710 0.050833 -0.000577
# 6 0.006346 0.002655 0.000281 -0.000313 -0.000577 0.028029
#
#
# Mechanical properties :
#
#
# Convention : Reuss Voigt Hill
#
# Bulk Modulus (GPa) = 35.81977 62.23194 49.02585
# Shear Modulus (GPa) = 26.76339 38.08298 32.42319
#
# Velocity S-wave (km/s) = 3.39125 4.04534 3.73265
# Velocity P-wave (km/s) = 5.54314 6.96862 6.29635
#
# Compressibility (1/GPa) = 0.02791755
#
# Stress axis : x y z
#
# Youngs Moduli (GPa) = 71.02859 86.95745 49.66161
#
# Poissons Ratio (x) = 0.37679 -0.16312
# Poissons Ratio (y) = 0.30777 0.38986
# Poissons Ratio (z) = -0.23331 0.68265
#
# Static dielectric constant tensor:
#      x y z
#    x 1.974470 0.043780 -0.026640 
#    y 0.043780 1.888500 -0.025190 
#    z -0.026640 -0.025190 1.884520 
# 
# From -- ./inp_files/618218.got.cif
#   From: 2010.05.17/outbox.cif.g08.bks.cpg/sg2_310_cif.got.tgz:618218.got - 2010.06.03 11:33:40.
