data_PCOD9109792
_publ_section_title
;
Structure prediction by ZEFSAII (Michael W. Deem and Ramdas Pophale) SiO2 
 PCOD9109792
Probable space group: P -1
;
_chemical_formula_sum "Si O2"
_cell_formula_units_Z 14
_cell_length_a 22.982231
_cell_length_b 7.827645
_cell_length_c 5.225244
_cell_angle_alpha 116.850016
_cell_angle_beta 95.588969
_cell_angle_gamma 125.466167
_cell_volume 593.632421
_symmetry_space_group_name_H-M "P -1"
_symmetry_group_IT_number 2
_symmetry_cell_setting 'triclinic'
loop_
_space_group_symop_operation_xyz
x,y,z
-x,-y,-z
loop_
_atom_site_type_symbol
_atom_site_label
_atom_site_fract_x
_atom_site_fract_y
_atom_site_fract_z
Si Si1 0.408042 0.702364 0.732905
Si Si2 0.028386 0.275796 0.763738
Si Si3 0.666456 0.278722 0.789576
Si Si4 0.409465 0.316116 0.729150
Si Si5 0.922340 0.339606 0.545867
Si Si6 0.252514 0.983516 0.705914
Si Si7 0.204972 0.676802 0.962639
O O1 0.362992 0.677603 0.444727
O O2 0.410127 0.477986 0.618441
O O3 0.360423 0.672441 0.938093
O O4 0.500000 0.000000 0.000000
O O5 0.108117 0.481310 0.753772
O O6 0.950280 0.235251 0.680989
O O7 0.067775 0.431530 0.155607
O O8 0.000000 0.000000 0.500000
O O9 0.622217 0.967803 0.554565
O O10 0.762537 0.444309 0.976875
O O11 0.347315 0.247767 0.878648
O O12 0.500000 0.500000 0.000000
O O13 0.826423 0.079688 0.267430
O O14 0.000000 0.500000 0.500000
O O15 0.249413 0.808297 0.798802
O O16 0.228436 0.884323 0.332692
#
# Coordination Sequence:
#
# PCOD9109792 Si02
#       7
#     2   2   2   2   2   2   2
#     4  12  26  44  69 101 134 177 231 286 345 409
#     4  10  22  39  66 101 133 179 229 279 344 414
#     4  11  25  46  68  98 141 178 226 288 341 410
#     4  11  25  45  73 100 134 185 230 282 348 410
#     4  10  20  41  67  92 137 177 220 286 340 406
#     4  10  22  42  67 100 131 182 230 277 345 411
#     4  10  21  42  68  97 139 179 223 283 343 401
#
# _framework density 23.583618000000001
#
# number of rings (size 3 to 8) (size 9 to 14) (size 15 to 20)
#    0.000    1.429    2.857    2.143    0.000    5.714 
#    0.000    0.000    3.143    0.000    0.000    0.000 
#    0.000    0.000    0.000    0.000    0.000    0.000 
#
# Total GULP energy -78011.700483 kJ/mol
# GULP energy per Si atom -5572.264320 kJ/mol
# Density = 2.352994 g / cm^3
# Si number density = 23.583618 Si / 1000 Ang^3
#
#
#
# Elastic Constant Matrix: (Units=GPa)
#
#
# Indices 1 2 3 4 5 6 
#
# 1 142.3452 43.5869 48.6289 4.1519 35.0427 1.3878
# 2 43.5869 101.2402 35.1221 -5.4581 11.7140 -1.1889
# 3 48.6289 35.1221 81.2280 -13.2437 1.3886 -10.6363
# 4 4.1519 -5.4581 -13.2437 37.8680 -6.8089 6.9769
# 5 35.0427 11.7140 1.3886 -6.8089 57.6565 7.9543
# 6 1.3878 -1.1889 -10.6363 6.9769 7.9543 58.4791
#
#
#
# Elastic Compliance Matrix: (Units=1/GPa)
#
#
# Indices 1 2 3 4 5 6 
#
# 1 0.012072 -0.002198 -0.007031 -0.005432 -0.007368 0.000040
# 2 -0.002198 0.012334 -0.003961 0.000524 -0.000964 -0.000349
# 3 -0.007031 -0.003961 0.019656 0.007638 0.005226 0.002039
# 4 -0.005432 0.000524 0.007638 0.031637 0.007192 -0.003224
# 5 -0.007368 -0.000964 0.005226 0.007192 0.023142 -0.002900
# 6 0.000040 -0.000349 0.002039 -0.003224 -0.002900 0.018242
#
#
# Mechanical properties :
#
#
# Convention : Reuss Voigt Hill
#
# Bulk Modulus (GPa) = 56.55494 64.38769 60.47132
# Shear Modulus (GPa) = 33.47668 43.96575 38.72122
#
# Velocity S-wave (km/s) = 3.77170 4.32238 4.05639
# Velocity P-wave (km/s) = 6.55746 7.22992 6.90188
#
# Compressibility (1/GPa) = 0.01768192
#
# Stress axis : x y z
#
# Youngs Moduli (GPa) = 82.83397 81.07913 50.87456
#
# Poissons Ratio (x) = 0.17821 0.35772
# Poissons Ratio (y) = 0.18207 0.20150
# Poissons Ratio (z) = 0.58244 0.32114
#
# Static dielectric constant tensor:
#      x y z
#    x 1.980650 -0.028710 0.062300 
#    y -0.028710 2.129130 -0.102430 
#    z 0.062300 -0.102430 2.045290 
# 
# From -- ./inp_files/123005.got.cif
#   From: 2010.05.17/outbox.cif.g08.bks.cpg/sg2_62_cif.got.tgz:123005.got - 2010.06.03 11:33:40.
