data_PCOD9109647
_publ_section_title
;
Structure prediction by ZEFSAII (Michael W. Deem and Ramdas Pophale) SiO2 
 PCOD9109647
Probable space group: P -1
;
_chemical_formula_sum "Si O2"
_cell_formula_units_Z 16
_cell_length_a 9.876796
_cell_length_b 18.573520
_cell_length_c 8.846106
_cell_angle_alpha 21.630179
_cell_angle_beta 86.010044
_cell_angle_gamma 85.320985
_cell_volume 596.103896
_symmetry_space_group_name_H-M "P -1"
_symmetry_group_IT_number 2
_symmetry_cell_setting 'triclinic'
loop_
_space_group_symop_operation_xyz
x,y,z
-x,-y,-z
loop_
_atom_site_type_symbol
_atom_site_label
_atom_site_fract_x
_atom_site_fract_y
_atom_site_fract_z
Si Si1 0.598020 0.763908 0.726973
Si Si2 0.990388 0.871974 0.100665
Si Si3 0.391795 0.680071 0.126871
Si Si4 0.298481 0.211774 0.641276
Si Si5 0.175980 0.636441 0.743936
Si Si6 0.145467 0.108741 0.368160
Si Si7 0.869420 0.258446 0.112789
Si Si8 0.420302 0.700299 0.416660
O O1 0.634357 0.870815 0.359830
O O2 0.726077 0.788652 0.777239
O O3 0.463088 0.814815 0.734819
O O4 0.576199 0.537919 0.125141
O O5 0.069378 0.673318 0.542681
O O6 0.828797 0.866241 0.106213
O O7 0.074632 0.976687 0.761103
O O8 0.000000 0.000000 0.000000
O O9 0.500000 0.500000 0.500000
O O10 0.371015 0.771800 0.115542
O O11 0.251647 0.607846 0.211037
O O12 0.428169 0.242542 0.673877
O O13 0.223489 0.412602 0.195524
O O14 0.130920 0.708473 0.772469
O O15 0.310512 0.744447 0.470145
O O16 0.024089 0.266610 0.028682
O O17 0.172304 0.952164 0.539619
#
# Coordination Sequence:
#
# PCOD9109647 Si02
#       8
#     2   2   2   2   2   2   2   2
#     4  10  20  41  66  94 132 171 213 268 327 386
#     4  12  23  43  64  97 133 166 216 268 322 391
#     4  10  21  41  64  92 129 167 220 273 317 376
#     4  11  22  41  71  98 129 168 219 272 324 382
#     4  11  21  41  69  98 128 169 221 268 325 382
#     4  11  25  43  64  94 138 176 214 262 333 405
#     4  11  23  42  64  93 131 178 216 262 328 392
#     4  10  22  40  67  99 126 165 224 271 318 380
#
# _framework density 26.840961
#
# number of rings (size 3 to 8) (size 9 to 14) (size 15 to 20)
#    0.000    1.250    2.500    4.875    0.000    3.500 
#    0.000    5.000    0.000    0.000    0.000    0.000 
#    0.000    0.000    0.000    0.000    0.000    0.000 
#
# Total GULP energy -89521.639635 kJ/mol
# GULP energy per Si atom -5595.102477 kJ/mol
# Density = 2.677987 g / cm^3
# Si number density = 26.840961 Si / 1000 Ang^3
#
#
#
# Elastic Constant Matrix: (Units=GPa)
#
#
# Indices 1 2 3 4 5 6 
#
# 1 199.5153 15.9668 7.0533 2.1970 -10.0184 11.1217
# 2 15.9668 74.1598 -7.4872 16.3222 -11.0650 -14.2218
# 3 7.0533 -7.4872 80.3190 13.5450 -6.5426 -8.8156
# 4 2.1970 16.3222 13.5450 28.4598 -2.7898 -1.7224
# 5 -10.0184 -11.0650 -6.5426 -2.7898 42.7744 3.3565
# 6 11.1217 -14.2218 -8.8156 -1.7224 3.3565 54.7645
#
#
#
# Elastic Compliance Matrix: (Units=1/GPa)
#
#
# Indices 1 2 3 4 5 6 
#
# 1 0.005300 -0.001623 -0.000884 0.000928 0.000877 -0.001665
# 2 -0.001623 0.018601 0.004828 -0.012131 0.003962 0.005313
# 3 -0.000884 0.004828 0.015151 -0.009462 0.002473 0.003423
# 4 0.000928 -0.012131 -0.009462 0.046217 -0.001091 -0.003341
# 5 0.000877 0.003962 0.002473 -0.001091 0.024941 -0.000314
# 6 -0.001665 0.005313 0.003423 -0.003341 -0.000314 0.020443
#
#
# Mechanical properties :
#
#
# Convention : Reuss Voigt Hill
#
# Bulk Modulus (GPa) = 22.88666 42.78443 32.83554
# Shear Modulus (GPa) = 35.56803 47.76382 41.66592
#
# Velocity S-wave (km/s) = 3.64420 4.22300 3.94423
# Velocity P-wave (km/s) = 5.12369 6.30499 5.74478
#
# Compressibility (1/GPa) = 0.04369358
#
# Stress axis : x y z
#
# Youngs Moduli (GPa) = 188.68168 53.75987 66.00253
#
# Poissons Ratio (x) = 0.08725 0.05837
# Poissons Ratio (y) = 0.30622 -0.31867
# Poissons Ratio (z) = 0.16687 -0.25956
#
# Static dielectric constant tensor:
#      x y z
#    x 2.140030 -0.062910 0.060410 
#    y -0.062910 2.125900 -0.060010 
#    z 0.060410 -0.060010 2.285950 
# 
# From -- ./inp_files/222849.got.cif
#   From: 2010.05.17/outbox.cif.g08.bks.cpg/sg2_112_cif.got.tgz:222849.got - 2010.06.03 11:33:40.
