data_PCOD9109114
_publ_section_title
;
Structure prediction by ZEFSAII (Michael W. Deem and Ramdas Pophale) SiO2 
 PCOD9109114
Probable space group: P -1
;
_chemical_formula_sum "Si O2"
_cell_formula_units_Z 16
_cell_length_a 13.282607
_cell_length_b 12.238391
_cell_length_c 14.240870
_cell_angle_alpha 139.923428
_cell_angle_beta 148.994091
_cell_angle_gamma 34.664284
_cell_volume 663.777833
_symmetry_space_group_name_H-M "P -1"
_symmetry_group_IT_number 2
_symmetry_cell_setting 'triclinic'
loop_
_space_group_symop_operation_xyz
x,y,z
-x,-y,-z
loop_
_atom_site_type_symbol
_atom_site_label
_atom_site_fract_x
_atom_site_fract_y
_atom_site_fract_z
Si Si1 0.342159 0.909769 0.471635
Si Si2 0.154459 0.804877 0.675015
Si Si3 0.478620 0.381779 0.993375
Si Si4 0.159394 0.760725 0.077906
Si Si5 0.261807 0.634320 0.450846
Si Si6 0.192090 0.180582 0.877552
Si Si7 0.553788 0.107988 0.255051
Si Si8 0.334620 0.973023 0.212757
O O1 0.258228 0.774122 0.266355
O O2 0.493953 0.840823 0.641391
O O3 0.517715 0.939632 0.569668
O O4 0.105942 0.100609 0.438706
O O5 0.312873 0.698070 0.820484
O O6 0.228789 0.645420 0.544587
O O7 0.183053 0.993540 0.793552
O O8 0.260519 0.539466 0.978788
O O9 0.500000 0.500000 0.000000
O O10 0.496386 0.193067 0.834398
O O11 0.251120 0.871549 0.155540
O O12 0.891412 0.879843 0.928661
O O13 0.500000 0.500000 0.500000
O O14 0.245249 0.845092 0.564802
O O15 0.052934 0.651058 0.237932
O O16 0.337472 0.103705 0.846585
O O17 0.334658 0.231064 0.096747
#
# Coordination Sequence:
#
# PCOD9109114 Si02
#       8
#     2   2   2   2   2   2   2   2
#     4  12  21  38  69  96 124 171 226 262 327 395
#     4  11  21  40  66  89 127 175 212 268 328 383
#     4  10  22  43  66  94 131 173 217 271 329 383
#     4  10  23  42  64  92 134 166 218 273 326 385
#     4  11  23  40  61  92 134 163 209 270 321 382
#     4  10  20  41  63  86 121 165 211 257 319 385
#     4  10  21  36  63  88 116 163 213 254 312 389
#     4  10  22  43  65  93 127 176 214 271 329 385
#
# _framework density 24.104451999999998
#
# number of rings (size 3 to 8) (size 9 to 14) (size 15 to 20)
#    0.000    1.500    3.750    1.875    1.750    0.500 
#    2.250    1.250    0.000    0.000    0.000    0.000 
#    0.000    0.000    0.000    0.000    0.000    0.000 
#
# Total GULP energy -89209.019674 kJ/mol
# GULP energy per Si atom -5575.563730 kJ/mol
# Density = 2.404959 g / cm^3
# Si number density = 24.104452 Si / 1000 Ang^3
#
#
#
# Elastic Constant Matrix: (Units=GPa)
#
#
# Indices 1 2 3 4 5 6 
#
# 1 64.4801 -2.8900 16.7665 -4.9135 -8.6995 -3.6897
# 2 -2.8900 72.5902 16.7921 2.4327 -2.1806 -21.7604
# 3 16.7665 16.7921 97.6877 -9.8657 -12.1345 -9.8308
# 4 -4.9135 2.4327 -9.8657 24.3318 -2.6188 -4.1269
# 5 -8.6995 -2.1806 -12.1345 -2.6188 53.1475 -5.2183
# 6 -3.6897 -21.7604 -9.8308 -4.1269 -5.2183 30.9732
#
#
#
# Elastic Compliance Matrix: (Units=1/GPa)
#
#
# Indices 1 2 3 4 5 6 
#
# 1 0.017064 0.002345 -0.002246 0.003276 0.002920 0.003896
# 2 0.002345 0.018218 -0.001980 0.000232 0.001948 0.012809
# 3 -0.002246 -0.001980 0.012248 0.005620 0.002966 0.003478
# 4 0.003276 0.000232 0.005620 0.046138 0.005018 0.009330
# 5 0.002920 0.001948 0.002966 0.005018 0.020972 0.006860
# 6 0.003896 0.012809 0.003478 0.009330 0.006860 0.045252
#
#
# Mechanical properties :
#
#
# Convention : Reuss Voigt Hill
#
# Bulk Modulus (GPa) = 22.84744 32.89947 27.87346
# Shear Modulus (GPa) = 28.05150 35.29645 31.67397
#
# Velocity S-wave (km/s) = 3.41508 3.83078 3.62889
# Velocity P-wave (km/s) = 5.00494 5.76584 5.39881
#
# Compressibility (1/GPa) = 0.04376858
#
# Stress axis : x y z
#
# Youngs Moduli (GPa) = 58.60161 54.89135 81.64288
#
# Poissons Ratio (x) = -0.12871 0.18339
# Poissons Ratio (y) = -0.13740 0.16161
# Poissons Ratio (z) = 0.13163 0.10866
#
# Static dielectric constant tensor:
#      x y z
#    x 2.113310 0.083750 -0.052770 
#    y 0.083750 2.046470 0.023960 
#    z -0.052770 0.023960 1.885400 
# 
# From -- ./inp_files/533701.got.cif
#   From: 2010.05.17/outbox.cif.g08.bks.cpg/sg2_267_cif.got.tgz:533701.got - 2010.06.03 11:33:40.
