data_PCOD9109681
_publ_section_title
;
Structure prediction by ZEFSAII (Michael W. Deem and Ramdas Pophale) SiO2 
 PCOD9109681
Probable space group: P -1
;
_chemical_formula_sum "Si O2"
_cell_formula_units_Z 13
_cell_length_a 11.794459
_cell_length_b 9.172905
_cell_length_c 8.476041
_cell_angle_alpha 73.319977
_cell_angle_beta 137.947350
_cell_angle_gamma 116.366692
_cell_volume 548.935034
_symmetry_space_group_name_H-M "P -1"
_symmetry_group_IT_number 2
_symmetry_cell_setting 'triclinic'
loop_
_space_group_symop_operation_xyz
x,y,z
-x,-y,-z
loop_
_atom_site_type_symbol
_atom_site_label
_atom_site_fract_x
_atom_site_fract_y
_atom_site_fract_z
Si Si1 0.328741 0.835875 0.372921
Si Si2 0.575360 0.390063 0.252951
Si Si3 0.989655 0.118898 0.810594
Si Si4 0.758652 0.520363 0.107004
Si Si5 0.275801 0.803627 0.971037
Si Si6 0.352789 0.145769 0.827639
Si Si7 0.000000 0.000000 0.500000
O O1 0.381826 0.683359 0.521696
O O2 0.199334 0.856380 0.368118
O O3 0.245786 0.814136 0.120523
O O4 0.500000 0.000000 0.500000
O O5 0.749188 0.482467 0.295807
O O6 0.454098 0.498950 0.128175
O O7 0.452349 0.234552 0.062640
O O8 0.135036 0.302647 0.905298
O O9 0.006026 0.049562 0.680494
O O10 0.000000 0.000000 0.000000
O O11 0.809812 0.378720 0.123174
O O12 0.490384 0.848832 0.134273
O O13 0.228419 0.948186 0.790777
O O14 0.178476 0.182920 0.588562
#
# Coordination Sequence:
#
# PCOD9109681 Si02
#       7
#     2   2   2   2   2   2   1
#     4  12  23  41  69 101 132 184 226 272 339 408
#     4  10  21  43  67  94 141 172 224 277 330 404
#     4  12  27  47  68 101 141 174 231 289 332 406
#     4  10  23  44  64  97 139 176 217 293 332 389
#     4  10  22  40  68  96 135 178 221 277 339 399
#     4  10  20  41  66  96 132 177 226 270 328 416
#     4  12  24  42  72  98 126 190 224 270 352 396
#
# _framework density 23.682217999999999
#
# number of rings (size 3 to 8) (size 9 to 14) (size 15 to 20)
#    0.000    1.231    3.077    2.769    4.308    1.846 
#    2.769    0.000    0.000    0.000    0.000    0.000 
#    0.000    0.000    0.000    0.000    0.000    0.000 
#
# Total GULP energy -72443.658519 kJ/mol
# GULP energy per Si atom -5572.589117 kJ/mol
# Density = 2.362832 g / cm^3
# Si number density = 23.682218 Si / 1000 Ang^3
#
#
#
# Elastic Constant Matrix: (Units=GPa)
#
#
# Indices 1 2 3 4 5 6 
#
# 1 122.2854 25.8205 2.1858 9.0360 2.5985 -7.1435
# 2 25.8205 143.4400 34.4848 -12.5331 -25.2789 0.2953
# 3 2.1858 34.4848 48.9198 -13.1650 -10.4057 -0.2070
# 4 9.0360 -12.5331 -13.1650 42.1453 11.9555 -0.7994
# 5 2.5985 -25.2789 -10.4057 11.9555 27.7881 6.3401
# 6 -7.1435 0.2953 -0.2070 -0.7994 6.3401 49.7065
#
#
#
# Elastic Compliance Matrix: (Units=1/GPa)
#
#
# Indices 1 2 3 4 5 6 
#
# 1 0.008921 -0.002231 0.000188 -0.001815 -0.002370 0.001569
# 2 -0.002231 0.010018 -0.005436 -0.000485 0.007816 -0.001407
# 3 0.000188 -0.005436 0.026359 0.005902 0.002378 -0.000039
# 4 -0.001815 -0.000485 0.005902 0.028933 -0.010879 0.001619
# 5 -0.002370 0.007816 0.002378 -0.010879 0.050484 -0.006991
# 6 0.001569 -0.001407 -0.000039 0.001619 -0.006991 0.021270
#
#
# Mechanical properties :
#
#
# Convention : Reuss Voigt Hill
#
# Bulk Modulus (GPa) = 32.95920 48.84748 40.90334
# Shear Modulus (GPa) = 29.23007 40.73823 34.98415
#
# Velocity S-wave (km/s) = 3.51702 4.15203 3.84765
# Velocity P-wave (km/s) = 5.51725 6.60733 6.08674
#
# Compressibility (1/GPa) = 0.03034055
#
# Stress axis : x y z
#
# Youngs Moduli (GPa) = 112.08985 99.82035 37.93759
#
# Poissons Ratio (x) = 0.22266 -0.00712
# Poissons Ratio (y) = 0.25003 0.20623
# Poissons Ratio (z) = -0.02105 0.54263
#
# Static dielectric constant tensor:
#      x y z
#    x 2.590200 0.133490 0.829500 
#    y 0.133490 2.181480 0.048510 
#    z 0.829500 0.048510 2.788710 
# 
# From -- ./inp_files/155869.got.cif
#   From: 2010.05.17/outbox.cif.g08.bks.cpg/sg2_78_cif.got.tgz:155869.got - 2010.06.03 11:33:40.
