data_PCOD9109794
_publ_section_title
;
Structure prediction by ZEFSAII (Michael W. Deem and Ramdas Pophale) SiO2 
 PCOD9109794
Probable space group: P -1
;
_chemical_formula_sum "Si O2"
_cell_formula_units_Z 14
_cell_length_a 21.906608
_cell_length_b 14.014781
_cell_length_c 11.074526
_cell_angle_alpha 29.407792
_cell_angle_beta 32.655695
_cell_angle_gamma 21.867155
_cell_volume 611.320962
_symmetry_space_group_name_H-M "P -1"
_symmetry_group_IT_number 2
_symmetry_cell_setting 'triclinic'
loop_
_space_group_symop_operation_xyz
x,y,z
-x,-y,-z
loop_
_atom_site_type_symbol
_atom_site_label
_atom_site_fract_x
_atom_site_fract_y
_atom_site_fract_z
Si Si1 0.388042 0.310927 0.400111
Si Si2 0.527640 0.263699 0.476373
Si Si3 0.220639 0.776669 0.975331
Si Si4 0.845967 0.324981 0.044816
Si Si5 0.700930 0.744466 0.021417
Si Si6 0.731849 0.149267 0.610273
Si Si7 0.929080 0.375038 0.267406
O O1 0.474561 0.272465 0.420578
O O2 0.351832 0.528397 0.126544
O O3 0.205474 0.468701 0.573534
O O4 0.500000 0.000000 0.500000
O O5 0.470530 0.157152 0.774652
O O6 0.419490 0.582022 0.354030
O O7 0.712667 0.113043 0.321973
O O8 0.195601 0.643592 0.061448
O O9 0.043640 0.044511 0.035148
O O10 0.783144 0.594181 0.921687
O O11 0.753574 0.265511 0.333283
O O12 0.827139 0.475774 0.202666
O O13 0.699706 0.970075 0.815733
O O14 0.903702 0.950528 0.619164
O O15 0.000000 0.500000 0.000000
#
# Coordination Sequence:
#
# PCOD9109794 Si02
#       7
#     2   2   2   2   2   2   2
#     4  11  24  41  65  97 128 165 208 262 325 371
#     4  10  24  39  65  95 125 165 208 270 319 361
#     4  11  24  44  61  92 139 165 206 261 317 389
#     4  10  23  44  65  91 127 176 210 253 316 378
#     4   9  21  39  65  95 122 168 218 259 309 368
#     4  10  20  41  67  93 126 166 219 259 311 366
#     4   9  19  35  64  92 122 158 212 264 298 369
#
# _framework density 22.901226000000001
#
# number of rings (size 3 to 8) (size 9 to 14) (size 15 to 20)
#    0.000    2.000    1.429    0.429    8.000    6.286 
#    2.571    2.857    0.000    0.000    0.000    0.000 
#    0.000    0.000    0.000    0.000    0.000    0.000 
#
# Total GULP energy -78271.797804 kJ/mol
# GULP energy per Si atom -5590.842700 kJ/mol
# Density = 2.284910 g / cm^3
# Si number density = 22.901226 Si / 1000 Ang^3
#
#
#
# Elastic Constant Matrix: (Units=GPa)
#
#
# Indices 1 2 3 4 5 6 
#
# 1 72.9415 57.3859 12.3926 -6.8007 -9.0296 28.6193
# 2 57.3859 118.2847 37.0831 5.1573 -6.4504 31.4153
# 3 12.3926 37.0831 91.8139 6.1373 -17.9879 21.6932
# 4 -6.8007 5.1573 6.1373 37.7105 -0.0447 -4.8239
# 5 -9.0296 -6.4504 -17.9879 -0.0447 36.2610 -4.9057
# 6 28.6193 31.4153 21.6932 -4.8239 -4.9057 36.8095
#
#
#
# Elastic Compliance Matrix: (Units=1/GPa)
#
#
# Indices 1 2 3 4 5 6 
#
# 1 0.028500 -0.011551 0.004928 0.004144 0.005610 -0.013914
# 2 -0.011551 0.016357 -0.004552 -0.003988 -0.002659 -0.003173
# 3 0.004928 -0.004552 0.015577 -0.002099 0.006996 -0.008470
# 4 0.004144 -0.003988 -0.002099 0.028817 0.000020 0.005198
# 5 0.005610 -0.002659 0.006996 0.000020 0.031704 -0.001987
# 6 -0.013914 -0.003173 -0.008470 0.005198 -0.001987 0.046101
#
#
# Mechanical properties :
#
#
# Convention : Reuss Voigt Hill
#
# Bulk Modulus (GPa) = 26.25751 55.19592 40.72671
# Shear Modulus (GPa) = 24.74006 33.90143 29.32075
#
# Velocity S-wave (km/s) = 3.29035 3.85168 3.58203
# Velocity P-wave (km/s) = 5.09172 6.62832 5.91017
#
# Compressibility (1/GPa) = 0.03808434
#
# Stress axis : x y z
#
# Youngs Moduli (GPa) = 35.08727 61.13557 64.19697
#
# Poissons Ratio (x) = 0.70620 -0.31638
# Poissons Ratio (y) = 0.40531 0.29222
# Poissons Ratio (z) = -0.17292 0.27829
#
# Static dielectric constant tensor:
#      x y z
#    x 1.909220 -0.068950 0.052400 
#    y -0.068950 1.839190 -0.034560 
#    z 0.052400 -0.034560 1.928270 
# 
# From -- ./inp_files/281637.got.cif
#   From: 2010.05.17/outbox.cif.g08.bks.cpg/sg2_141_cif.got.tgz:281637.got - 2010.06.03 11:33:40.
