data_PCOD9109900
_publ_section_title
;
Structure prediction by ZEFSAII (Michael W. Deem and Ramdas Pophale) SiO2 
 PCOD9109900
Probable space group: P -1
;
_chemical_formula_sum "Si O2"
_cell_formula_units_Z 16
_cell_length_a 5.109605
_cell_length_b 20.572401
_cell_length_c 7.403508
_cell_angle_alpha 74.105199
_cell_angle_beta 125.760747
_cell_angle_gamma 91.486401
_cell_volume 598.328932
_symmetry_space_group_name_H-M "P -1"
_symmetry_group_IT_number 2
_symmetry_cell_setting 'triclinic'
loop_
_space_group_symop_operation_xyz
x,y,z
-x,-y,-z
loop_
_atom_site_type_symbol
_atom_site_label
_atom_site_fract_x
_atom_site_fract_y
_atom_site_fract_z
Si Si1 0.819295 0.673787 0.726869
Si Si2 0.627900 0.539398 0.794170
Si Si3 0.514844 0.227104 0.751796
Si Si4 0.466671 0.407351 0.879402
Si Si5 0.871592 0.085298 0.375162
Si Si6 0.360803 0.014788 0.130375
Si Si7 0.191290 0.281088 0.928072
Si Si8 0.512977 0.877962 0.482890
O O1 0.647903 0.609613 0.646310
O O2 0.787307 0.724246 0.508857
O O3 0.671219 0.716068 0.813017
O O4 0.181245 0.640648 0.966408
O O5 0.433842 0.478996 0.702963
O O6 0.518202 0.568277 0.925578
O O7 0.000000 0.500000 0.000000
O O8 0.423759 0.233022 0.920094
O O9 0.541246 0.157909 0.700826
O O10 0.841170 0.258292 0.816001
O O11 0.196324 0.358760 0.796525
O O12 0.794478 0.122966 0.508651
O O13 0.090282 0.130496 0.313468
O O14 0.491089 0.084264 0.172382
O O15 0.000000 0.000000 0.500000
O O16 0.490731 0.957196 0.370330
O O17 0.500000 0.000000 0.000000
O O18 0.000000 0.000000 0.000000
#
# Coordination Sequence:
#
# PCOD9109900 Si02
#       8
#     2   2   2   2   2   2   2   2
#     4  10  22  43  68  92 131 181 222 272 346 392
#     4   8  16  32  66  95 127 170 216 279 342 391
#     4  12  27  44  67  95 137 181 224 271 328 396
#     4   9  17  38  66  94 129 173 220 282 340 384
#     4  10  20  41  68  88 126 166 203 255 320 380
#     4  11  21  38  65  97 125 157 201 263 321 369
#     4  11  24  44  65  94 134 175 227 280 325 391
#     4  11  23  44  61  93 130 168 214 258 315 397
#
# _framework density 26.741143999999998
#
# number of rings (size 3 to 8) (size 9 to 14) (size 15 to 20)
#    0.000    1.750    1.250    4.500    3.500    0.000 
#    6.750    1.250    0.000    0.000    0.000    0.000 
#    0.000    0.000    0.000    0.000    0.000    0.000 
#
# Total GULP energy -89162.891852 kJ/mol
# GULP energy per Si atom -5572.680741 kJ/mol
# Density = 2.668028 g / cm^3
# Si number density = 26.741144 Si / 1000 Ang^3
#
#
#
# Elastic Constant Matrix: (Units=GPa)
#
#
# Indices 1 2 3 4 5 6 
#
# 1 155.4008 51.9025 9.8651 15.1035 11.8685 -15.0627
# 2 51.9025 137.7829 27.4039 24.5455 6.1202 -1.9952
# 3 9.8651 27.4039 26.9957 7.2406 2.9874 0.0811
# 4 15.1035 24.5455 7.2406 36.9019 8.0444 -0.7435
# 5 11.8685 6.1202 2.9874 8.0444 42.5810 22.0066
# 6 -15.0627 -1.9952 0.0811 -0.7435 22.0066 56.0158
#
#
#
# Elastic Compliance Matrix: (Units=1/GPa)
#
#
# Indices 1 2 3 4 5 6 
#
# 1 0.007998 -0.002777 0.000457 -0.000685 -0.003499 0.003417
# 2 -0.002777 0.010821 -0.008863 -0.004591 0.001154 -0.000863
# 3 0.000457 -0.008863 0.046899 -0.003102 -0.001759 0.000389
# 4 -0.000685 -0.004591 -0.003102 0.032493 -0.006419 0.002610
# 5 -0.003499 0.001154 -0.001759 -0.006419 0.032797 -0.013867
# 6 0.003417 -0.000863 0.000389 0.002610 -0.013867 0.024222
#
#
# Mechanical properties :
#
#
# Convention : Reuss Voigt Hill
#
# Bulk Modulus (GPa) = 23.06771 55.39137 39.22954
# Shear Modulus (GPa) = 26.03514 42.50028 34.26771
#
# Velocity S-wave (km/s) = 3.12364 3.99095 3.58363
# Velocity P-wave (km/s) = 4.65344 6.48042 5.64138
#
# Compressibility (1/GPa) = 0.04335065
#
# Stress axis : x y z
#
# Youngs Moduli (GPa) = 125.02539 92.41456 21.32242
#
# Poissons Ratio (x) = 0.25663 -0.00974
# Poissons Ratio (y) = 0.34719 0.18899
# Poissons Ratio (z) = -0.05709 0.81911
#
# Static dielectric constant tensor:
#      x y z
#    x 2.621310 -0.283380 0.141770 
#    y -0.283380 2.292000 -0.093860 
#    z 0.141770 -0.093860 2.385980 
# 
# From -- ./inp_files/141403.got.cif
#   From: 2010.05.17/outbox.cif.g08.bks.cpg/sg2_71_cif.got.tgz:141403.got - 2010.06.03 11:33:40.
