data_PCOD9109344
_publ_section_title
;
Structure prediction by ZEFSAII (Michael W. Deem and Ramdas Pophale) SiO2 
 PCOD9109344
Probable space group: P -1
;
_chemical_formula_sum "Si O2"
_cell_formula_units_Z 16
_cell_length_a 11.879929
_cell_length_b 16.606523
_cell_length_c 19.100768
_cell_angle_alpha 158.220210
_cell_angle_beta 139.441762
_cell_angle_gamma 28.459519
_cell_volume 631.162180
_symmetry_space_group_name_H-M "P -1"
_symmetry_group_IT_number 2
_symmetry_cell_setting 'triclinic'
loop_
_space_group_symop_operation_xyz
x,y,z
-x,-y,-z
loop_
_atom_site_type_symbol
_atom_site_label
_atom_site_fract_x
_atom_site_fract_y
_atom_site_fract_z
Si Si1 0.355107 0.758484 0.701784
Si Si2 0.650992 0.688446 0.224541
Si Si3 0.296468 0.769995 0.458749
Si Si4 0.486356 0.238671 0.932363
Si Si5 0.971606 0.253309 0.232009
Si Si6 0.557507 0.228635 0.627288
Si Si7 0.099408 0.974000 0.209585
Si Si8 0.727156 0.828948 0.116227
O O1 0.500000 0.500000 0.500000
O O2 0.540965 0.570056 0.703676
O O3 0.300845 0.040681 0.867865
O O4 0.088867 0.891765 0.705990
O O5 0.667245 0.706807 0.162683
O O6 0.372307 0.845486 0.237482
O O7 0.702562 0.879284 0.434437
O O8 0.838362 0.322518 0.031201
O O9 0.375672 0.766763 0.416315
O O10 0.336245 0.929529 0.661333
O O11 0.000000 0.000000 0.500000
O O12 0.433690 0.226538 0.977483
O O13 0.446144 0.535083 0.145537
O O14 0.757956 0.894801 0.769733
O O15 0.730589 0.585984 0.357957
O O16 0.946485 0.232903 0.285879
O O17 0.000000 0.000000 0.000000
O O18 0.000000 0.500000 0.000000
#
# Coordination Sequence:
#
# PCOD9109344 Si02
#       8
#     2   2   2   2   2   2   2   2
#     4  10  23  40  66 100 139 185 228 280 339 411
#     4  10  22  39  70 101 132 174 216 283 351 396
#     4  11  23  41  62  97 133 175 234 279 331 407
#     4  10  21  39  63 100 130 171 225 269 333 411
#     4   9  20  38  65  93 127 167 217 283 332 399
#     4  11  21  40  66  95 128 169 221 275 338 404
#     4  10  20  41  64  97 138 170 222 279 339 412
#     4  11  22  41  67  95 137 183 223 275 338 408
#
# _framework density 25.350061
#
# number of rings (size 3 to 8) (size 9 to 14) (size 15 to 20)
#    0.000    1.750    2.500    1.500    0.000    5.000 
#    0.000   15.000    0.000    0.000    0.000    0.000 
#    0.000    0.000    0.000    0.000    0.000    0.000 
#
# Total GULP energy -89329.619398 kJ/mol
# GULP energy per Si atom -5583.101212 kJ/mol
# Density = 2.529236 g / cm^3
# Si number density = 25.350061 Si / 1000 Ang^3
#
#
#
# Elastic Constant Matrix: (Units=GPa)
#
#
# Indices 1 2 3 4 5 6 
#
# 1 170.4186 28.1076 35.9455 17.3290 0.4239 14.5085
# 2 28.1076 55.1478 14.3301 21.2160 6.5265 3.4085
# 3 35.9455 14.3301 126.8553 3.4301 13.8557 2.9101
# 4 17.3290 21.2160 3.4301 37.7868 5.9824 -7.1986
# 5 0.4239 6.5265 13.8557 5.9824 44.2372 8.3687
# 6 14.5085 3.4085 2.9101 -7.1986 8.3687 37.4195
#
#
#
# Elastic Compliance Matrix: (Units=1/GPa)
#
#
# Indices 1 2 3 4 5 6 
#
# 1 0.007182 -0.002068 -0.001847 -0.002912 0.001857 -0.003428
# 2 -0.002068 0.025216 -0.001741 -0.013698 -0.000571 -0.003867
# 3 -0.001847 -0.001741 0.008852 0.001712 -0.002952 0.001176
# 4 -0.002912 -0.013698 0.001712 0.038318 -0.005731 0.010897
# 5 0.001857 -0.000571 -0.002952 -0.005731 0.025753 -0.007300
# 6 -0.003428 -0.003867 0.001176 0.010897 -0.007300 0.032043
#
#
# Mechanical properties :
#
#
# Convention : Reuss Voigt Hill
#
# Bulk Modulus (GPa) = 33.40265 56.57646 44.98956
# Shear Modulus (GPa) = 31.51493 42.15792 36.83642
#
# Velocity S-wave (km/s) = 3.52971 4.08245 3.81610
# Velocity P-wave (km/s) = 5.46049 6.67746 6.09940
#
# Compressibility (1/GPa) = 0.02993775
#
# Stress axis : x y z
#
# Youngs Moduli (GPa) = 139.23913 39.65757 112.96678
#
# Poissons Ratio (x) = 0.08202 0.20864
# Poissons Ratio (y) = 0.28798 0.19667
# Poissons Ratio (z) = 0.25716 0.06904
#
# Static dielectric constant tensor:
#      x y z
#    x 2.063510 -0.018780 0.027660 
#    y -0.018780 2.058670 -0.033370 
#    z 0.027660 -0.033370 2.032570 
# 
# From -- ./inp_files/544339.got.cif
#   From: 2010.05.17/outbox.cif.g08.bks.cpg/sg2_273_cif.got.tgz:544339.got - 2010.06.03 11:33:40.
