data_PCOD9109871
_publ_section_title
;
Structure prediction by ZEFSAII (Michael W. Deem and Ramdas Pophale) SiO2 
 PCOD9109871
Probable space group: P -1
;
_chemical_formula_sum "Si O2"
_cell_formula_units_Z 16
_cell_length_a 19.238180
_cell_length_b 23.524179
_cell_length_c 12.482565
_cell_angle_alpha 27.130376
_cell_angle_beta 27.466750
_cell_angle_gamma 18.289598
_cell_volume 772.367970
_symmetry_space_group_name_H-M "P -1"
_symmetry_group_IT_number 2
_symmetry_cell_setting 'triclinic'
loop_
_space_group_symop_operation_xyz
x,y,z
-x,-y,-z
loop_
_atom_site_type_symbol
_atom_site_label
_atom_site_fract_x
_atom_site_fract_y
_atom_site_fract_z
Si Si1 0.785254 0.615204 0.178660
Si Si2 0.366982 0.294023 0.540205
Si Si3 0.386857 0.414373 0.907541
Si Si4 0.868236 0.976750 0.493395
Si Si5 0.645853 0.986930 0.977710
Si Si6 0.278592 0.561098 0.578495
Si Si7 0.794516 0.999876 0.974387
Si Si8 0.111330 0.565768 0.248222
O O1 0.813753 0.581540 0.322241
O O2 0.604649 0.838295 0.027828
O O3 0.664816 0.566487 0.380646
O O4 0.000000 0.500000 0.000000
O O5 0.623193 0.154259 0.473168
O O6 0.308291 0.423666 0.307326
O O7 0.339592 0.167216 0.754967
O O8 0.271970 0.491381 0.817551
O O9 0.532209 0.450563 0.653054
O O10 0.216157 0.526019 0.054170
O O11 0.576459 0.182726 0.038055
O O12 0.820404 0.929810 0.746052
O O13 0.035156 0.783148 0.520593
O O14 0.016171 0.007771 0.265968
O O15 0.684814 0.046829 0.928197
O O16 0.932431 0.784277 0.165656
O O17 0.000000 0.500000 0.500000
#
# Coordination Sequence:
#
# PCOD9109871 Si02
#       8
#     2   2   2   2   2   2   2   2
#     4  11  22  36  65  98 130 167 213 274 337 378
#     4  11  25  43  59  96 136 175 217 262 328 406
#     4  10  24  43  68 100 129 165 226 275 319 392
#     4  10  22  39  67  97 128 164 216 279 334 381
#     4  11  20  39  65  95 131 165 218 274 328 386
#     4  10  20  41  68 100 127 160 216 284 333 371
#     4  11  23  43  68  97 126 175 221 270 326 382
#     4  12  27  45  67  91 137 186 218 260 326 401
#
# _framework density 20.715515
#
# number of rings (size 3 to 8) (size 9 to 14) (size 15 to 20)
#    0.000    1.250    2.500    4.125    5.250    1.000 
#    4.500    1.250    0.000    0.000    0.000    0.000 
#    0.000    0.000    0.000    0.000    0.000    0.000 
#
# Total GULP energy -89342.029634 kJ/mol
# GULP energy per Si atom -5583.876852 kJ/mol
# Density = 2.066837 g / cm^3
# Si number density = 20.715515 Si / 1000 Ang^3
#
#
#
# Elastic Constant Matrix: (Units=GPa)
#
#
# Indices 1 2 3 4 5 6 
#
# 1 72.9936 6.7266 9.5309 -6.1094 -1.4116 4.3920
# 2 6.7266 77.9347 24.2555 -11.8743 1.6965 9.8949
# 3 9.5309 24.2555 50.5719 -12.2932 -1.8614 2.0672
# 4 -6.1094 -11.8743 -12.2932 35.5600 0.9019 -5.5135
# 5 -1.4116 1.6965 -1.8614 0.9019 34.4868 -4.8140
# 6 4.3920 9.8949 2.0672 -5.5135 -4.8140 26.2620
#
#
#
# Elastic Compliance Matrix: (Units=1/GPa)
#
#
# Indices 1 2 3 4 5 6 
#
# 1 0.014227 -0.000099 -0.002223 0.001351 0.000173 -0.001852
# 2 -0.000099 0.016082 -0.007028 0.002136 -0.001985 -0.005405
# 3 -0.002223 -0.007028 0.025053 0.006305 0.001820 0.002705
# 4 0.001351 0.002136 0.006305 0.032054 0.000183 0.005236
# 5 0.000173 -0.001985 0.001820 0.000183 0.030049 0.006122
# 6 -0.001852 -0.005405 0.002705 0.005236 0.006122 0.042432
#
#
# Mechanical properties :
#
#
# Convention : Reuss Voigt Hill
#
# Bulk Modulus (GPa) = 27.27612 31.39183 29.33397
# Shear Modulus (GPa) = 26.20310 29.99425 28.09867
#
# Velocity S-wave (km/s) = 3.56040 3.80927 3.68694
# Velocity P-wave (km/s) = 5.48612 5.87657 5.68470
#
# Compressibility (1/GPa) = 0.03666210
#
# Stress axis : x y z
#
# Youngs Moduli (GPa) = 70.28839 62.18199 39.91615
#
# Poissons Ratio (x) = 0.00614 0.08875
# Poissons Ratio (y) = 0.00694 0.28051
# Poissons Ratio (z) = 0.15628 0.43698
#
# Static dielectric constant tensor:
#      x y z
#    x 1.764980 -0.023150 -0.013440 
#    y -0.023150 1.781160 -0.005350 
#    z -0.013440 -0.005350 1.728320 
# 
# From -- ./inp_files/426858.got.cif
#   From: 2010.05.17/outbox.cif.g08.bks.cpg/sg2_214_cif.got.tgz:426858.got - 2010.06.03 11:33:40.
