data_PCOD9109233
_publ_section_title
;
Structure prediction by ZEFSAII (Michael W. Deem and Ramdas Pophale) SiO2 
 PCOD9109233
Probable space group: P -1
;
_chemical_formula_sum "Si O2"
_cell_formula_units_Z 16
_cell_length_a 14.915659
_cell_length_b 7.991242
_cell_length_c 12.022695
_cell_angle_alpha 55.745325
_cell_angle_beta 148.452599
_cell_angle_gamma 112.766481
_cell_volume 605.311730
_symmetry_space_group_name_H-M "P -1"
_symmetry_group_IT_number 2
_symmetry_cell_setting 'triclinic'
loop_
_space_group_symop_operation_xyz
x,y,z
-x,-y,-z
loop_
_atom_site_type_symbol
_atom_site_label
_atom_site_fract_x
_atom_site_fract_y
_atom_site_fract_z
Si Si1 0.980720 0.144659 0.034732
Si Si2 0.557697 0.867035 0.767140
Si Si3 0.977149 0.764725 0.284579
Si Si4 0.105580 0.783799 0.647221
Si Si5 0.394907 0.292259 0.663931
Si Si6 0.564374 0.293325 0.532998
Si Si7 0.988144 0.508772 0.785359
Si Si8 0.476720 0.809596 0.935338
O O1 0.774487 0.242571 0.792942
O O2 0.068136 0.335071 0.024921
O O3 0.040322 0.982712 0.256001
O O4 0.000000 0.000000 0.000000
O O5 0.483511 0.781106 0.611421
O O6 0.500057 0.748429 0.855511
O O7 0.497920 0.119822 0.602624
O O8 0.769462 0.813828 0.018324
O O9 0.060695 0.616763 0.327510
O O10 0.008507 0.706556 0.468054
O O11 0.120112 0.632976 0.824420
O O12 0.288418 0.804201 0.784943
O O13 0.000000 0.000000 0.500000
O O14 0.477452 0.455740 0.618069
O O15 0.185160 0.342294 0.404498
O O16 0.491835 0.051163 0.851357
O O17 0.400281 0.319373 0.794174
#
# Coordination Sequence:
#
# PCOD9109233 Si02
#       8
#     2   2   2   2   2   2   2   2
#     4   8  17  35  64  87 119 151 192 248 305 349
#     4  10  22  40  64  95 121 154 200 249 307 360
#     4  10  22  40  64  91 120 158 196 254 306 354
#     4  12  25  41  59  88 124 164 205 246 297 357
#     4  10  22  42  62  86 122 164 201 251 297 353
#     4   9  20  39  65  91 120 153 201 251 299 360
#     4  10  20  41  64  88 119 156 202 250 305 352
#     4  11  25  39  61  86 123 165 203 245 298 360
#
# _framework density 26.432659999999998
#
# number of rings (size 3 to 8) (size 9 to 14) (size 15 to 20)
#    0.000    2.000    1.250    1.125    8.750    1.000 
#    0.000    0.625    0.000    0.000    0.000    0.000 
#    0.000    0.000    0.000    0.000    0.000    0.000 
#
# Total GULP energy -89423.631407 kJ/mol
# GULP energy per Si atom -5588.976963 kJ/mol
# Density = 2.637250 g / cm^3
# Si number density = 26.432660 Si / 1000 Ang^3
#
#
#
# Elastic Constant Matrix: (Units=GPa)
#
#
# Indices 1 2 3 4 5 6 
#
# 1 74.9282 -0.6028 23.5858 0.9983 -24.3356 22.9281
# 2 -0.6028 89.4131 10.9972 -15.6182 -1.4227 5.7528
# 3 23.5858 10.9972 71.5545 -10.4462 1.4265 11.7587
# 4 0.9983 -15.6182 -10.4462 25.1581 -4.6203 -17.5086
# 5 -24.3356 -1.4227 1.4265 -4.6203 33.0814 -16.8492
# 6 22.9281 5.7528 11.7587 -17.5086 -16.8492 45.8627
#
#
#
# Elastic Compliance Matrix: (Units=1/GPa)
#
#
# Indices 1 2 3 4 5 6 
#
# 1 0.021736 0.000579 -0.007235 -0.006331 0.011790 -0.007169
# 2 0.000579 0.013218 -0.001383 0.011975 0.005221 0.004896
# 3 -0.007235 -0.001383 0.017579 0.004900 -0.005988 -0.001046
# 4 -0.006331 0.011975 0.004900 0.085799 0.030163 0.044243
# 5 0.011790 0.005221 -0.005988 0.030163 0.057706 0.027702
# 6 -0.007169 0.004896 -0.001046 0.044243 0.027702 0.052110
#
#
# Mechanical properties :
#
#
# Convention : Reuss Voigt Hill
#
# Bulk Modulus (GPa) = 27.43021 33.76177 30.59599
# Shear Modulus (GPa) = 18.09129 34.28149 26.18639
#
# Velocity S-wave (km/s) = 2.61900 3.60521 3.15093
# Velocity P-wave (km/s) = 4.42102 5.48913 4.98377
#
# Compressibility (1/GPa) = 0.03645615
#
# Stress axis : x y z
#
# Youngs Moduli (GPa) = 46.00739 75.65564 56.88528
#
# Poissons Ratio (x) = -0.04383 0.41155
# Poissons Ratio (y) = -0.02666 0.07867
# Poissons Ratio (z) = 0.33285 0.10463
#
# Static dielectric constant tensor:
#      x y z
#    x 2.063870 -0.028650 -0.000480 
#    y -0.028650 2.191660 -0.061070 
#    z -0.000480 -0.061070 2.061400 
# 
# From -- ./inp_files/354395.got.cif
#   From: 2010.05.17/outbox.cif.g08.bks.cpg/sg2_178_cif.got.tgz:354395.got - 2010.06.03 11:33:40.
