data_PCOD9109210
_publ_section_title
;
Structure prediction by ZEFSAII (Michael W. Deem and Ramdas Pophale) SiO2 
 PCOD9109210
Probable space group: P -1
;
_chemical_formula_sum "Si O2"
_cell_formula_units_Z 13
_cell_length_a 9.788175
_cell_length_b 10.677214
_cell_length_c 7.133351
_cell_angle_alpha 88.874645
_cell_angle_beta 104.133665
_cell_angle_gamma 140.525433
_cell_volume 442.025998
_symmetry_space_group_name_H-M "P -1"
_symmetry_group_IT_number 2
_symmetry_cell_setting 'triclinic'
loop_
_space_group_symop_operation_xyz
x,y,z
-x,-y,-z
loop_
_atom_site_type_symbol
_atom_site_label
_atom_site_fract_x
_atom_site_fract_y
_atom_site_fract_z
Si Si1 0.503240 0.941204 0.718928
Si Si2 0.367760 0.230133 0.133101
Si Si3 0.081260 0.161267 0.752140
Si Si4 0.686113 0.363905 0.639899
Si Si5 0.025671 0.331294 0.981679
Si Si6 0.065121 0.793601 0.647682
Si Si7 0.500000 0.500000 0.500000
O O1 0.491514 0.800564 0.833429
O O2 0.439792 0.838982 0.495898
O O3 0.316195 0.911239 0.721238
O O4 0.765958 0.167705 0.831209
O O5 0.477099 0.421839 0.281085
O O6 0.152029 0.041103 0.206843
O O7 0.270433 0.201957 0.899210
O O8 0.013562 0.148774 0.515130
O O9 0.144147 0.340586 0.856178
O O10 0.525874 0.373816 0.592677
O O11 0.816792 0.452203 0.879782
O O12 0.894546 0.555356 0.565776
O O13 0.999284 0.221949 0.159469
#
# Coordination Sequence:
#
# PCOD9109210 Si02
#       7
#     2   2   2   2   2   2   1
#     4  10  19  37  60  87 117 156 193 235 290 349
#     4   9  19  33  61  80 116 155 188 240 293 332
#     4  10  19  39  58  87 115 151 196 240 285 344
#     4   9  20  35  62  84 114 157 188 240 292 335
#     4   9  20  36  61  81 117 160 183 240 292 334
#     4  10  21  37  61  85 120 151 193 240 287 348
#     4  10  16  38  58  80 112 154 196 228 286 352
#
# _framework density 29.410036999999999
#
# number of rings (size 3 to 8) (size 9 to 14) (size 15 to 20)
#    0.923    1.538    1.538    0.923    0.000    2.462 
#    0.000   17.692    0.000    0.000    0.000    0.000 
#    0.000    0.000    0.000    0.000    0.000    0.000 
#
# Total GULP energy -72463.303799 kJ/mol
# GULP energy per Si atom -5574.100292 kJ/mol
# Density = 2.934310 g / cm^3
# Si number density = 29.410037 Si / 1000 Ang^3
#
#
#
# Elastic Constant Matrix: (Units=GPa)
#
#
# Indices 1 2 3 4 5 6 
#
# 1 119.2669 34.0694 61.8713 6.7065 16.2245 -17.4212
# 2 34.0694 102.3305 25.1691 33.1766 -19.2440 -28.8705
# 3 61.8713 25.1691 236.3914 4.7488 12.9982 0.2363
# 4 6.7065 33.1766 4.7488 59.9360 3.1764 -17.2779
# 5 16.2245 -19.2440 12.9982 3.1764 51.6714 -0.4288
# 6 -17.4212 -28.8705 0.2363 -17.2779 -0.4288 51.8054
#
#
#
# Elastic Compliance Matrix: (Units=1/GPa)
#
#
# Indices 1 2 3 4 5 6 
#
# 1 0.011700 -0.004267 -0.002391 0.002142 -0.004775 0.002242
# 2 -0.004267 0.017144 -0.001026 -0.007766 0.008507 0.005604
# 3 -0.002391 -0.001026 0.005015 0.000090 -0.000910 -0.001376
# 4 0.002142 -0.007766 0.000090 0.022067 -0.004913 0.003711
# 5 -0.004775 0.008507 -0.000910 -0.004913 0.024565 0.001704
# 6 0.002242 0.005604 -0.001376 0.003711 0.001704 0.024438
#
#
# Mechanical properties :
#
#
# Convention : Reuss Voigt Hill
#
# Bulk Modulus (GPa) = 54.07793 77.80094 65.93943
# Shear Modulus (GPa) = 39.53801 55.14118 47.33960
#
# Velocity S-wave (km/s) = 3.67054 4.33472 4.01639
# Velocity P-wave (km/s) = 6.03252 7.18083 6.63158
#
# Compressibility (1/GPa) = 0.01849183
#
# Stress axis : x y z
#
# Youngs Moduli (GPa) = 85.46781 58.32945 199.40797
#
# Poissons Ratio (x) = 0.24889 0.47674
# Poissons Ratio (y) = 0.36469 0.20457
# Poissons Ratio (z) = 0.20433 0.05984
#
# Static dielectric constant tensor:
#      x y z
#    x 2.379130 0.084860 0.060270 
#    y 0.084860 2.436870 0.016790 
#    z 0.060270 0.016790 2.326170 
# 
# From -- ./inp_files/253223.got.cif
#   From: 2010.05.17/outbox.cif.g08.bks.cpg/sg2_127_cif.got.tgz:253223.got - 2010.06.03 11:33:40.
