data_PCOD9109330
_publ_section_title
;
Structure prediction by ZEFSAII (Michael W. Deem and Ramdas Pophale) SiO2 
 PCOD9109330
Probable space group: P -1
;
_chemical_formula_sum "Si O2"
_cell_formula_units_Z 14
_cell_length_a 5.512559
_cell_length_b 17.067843
_cell_length_c 6.809933
_cell_angle_alpha 80.026319
_cell_angle_beta 98.617415
_cell_angle_gamma 98.589983
_cell_volume 618.891472
_symmetry_space_group_name_H-M "P -1"
_symmetry_group_IT_number 2
_symmetry_cell_setting 'triclinic'
loop_
_space_group_symop_operation_xyz
x,y,z
-x,-y,-z
loop_
_atom_site_type_symbol
_atom_site_label
_atom_site_fract_x
_atom_site_fract_y
_atom_site_fract_z
Si Si1 0.725891 0.071057 0.970807
Si Si2 0.738365 0.254820 0.589960
Si Si3 0.147981 0.015518 0.312146
Si Si4 0.274905 0.273093 0.826185
Si Si5 0.492823 0.827974 0.788058
Si Si6 0.777531 0.433219 0.531736
Si Si7 0.476406 0.456062 0.812079
O O1 0.773366 0.064395 0.746580
O O2 0.654974 0.145477 0.051549
O O3 0.961119 0.048226 0.123085
O O4 0.500000 0.000000 0.000000
O O5 0.488945 0.254928 0.698990
O O6 0.664558 0.209711 0.397297
O O7 0.807325 0.347102 0.495484
O O8 0.997009 0.239142 0.733788
O O9 0.366521 0.088415 0.316641
O O10 0.000000 0.000000 0.500000
O O11 0.298484 0.370700 0.814365
O O12 0.335080 0.231545 0.059041
O O13 0.720980 0.428226 0.758498
O O14 0.571525 0.469319 0.364057
O O15 0.000000 0.500000 0.500000
O O16 0.500000 0.500000 0.000000
#
# Coordination Sequence:
#
# PCOD9109330 Si02
#       7
#     2   2   2   2   2   2   2
#     4   9  22  44  66 101 135 171 227 288 344 434
#     4  11  26  45  71 104 148 195 240 294 366 420
#     4  10  23  45  74 103 134 177 235 289 358 425
#     4  11  26  46  67 106 148 189 242 297 360 433
#     4  11  26  45  71 102 143 188 234 294 362 433
#     4  10  20  41  64  96 137 181 242 297 335 416
#     4  10  21  40  66  97 134 189 241 296 354 412
#
# _framework density 22.621086999999999
#
# number of rings (size 3 to 8) (size 9 to 14) (size 15 to 20)
#    0.000    1.714    1.429    0.857    4.000    7.429 
#    2.571    0.000    0.000    0.000    0.000    0.000 
#    0.000    0.000    0.000    0.000    0.000    0.000 
#
# Total GULP energy -77990.280396 kJ/mol
# GULP energy per Si atom -5570.734314 kJ/mol
# Density = 2.256960 g / cm^3
# Si number density = 22.621087 Si / 1000 Ang^3
#
#
#
# Elastic Constant Matrix: (Units=GPa)
#
#
# Indices 1 2 3 4 5 6 
#
# 1 96.3945 41.7544 48.2913 26.2721 1.3664 13.9629
# 2 41.7544 133.9010 76.0034 30.6710 -3.0418 13.3553
# 3 48.2913 76.0034 151.9105 31.3932 -6.6708 2.7913
# 4 26.2721 30.6710 31.3932 47.2483 -1.5915 6.7805
# 5 1.3664 -3.0418 -6.6708 -1.5915 43.4362 -3.2374
# 6 13.9629 13.3553 2.7913 6.7805 -3.2374 34.2190
#
#
#
# Elastic Compliance Matrix: (Units=1/GPa)
#
#
# Indices 1 2 3 4 5 6 
#
# 1 0.014314 -0.001372 -0.002905 -0.004570 -0.001481 -0.004303
# 2 -0.001372 0.011557 -0.004630 -0.003247 -0.000197 -0.002948
# 3 -0.002905 -0.004630 0.010379 -0.002628 0.001474 0.002806
# 4 -0.004570 -0.003247 -0.002628 0.027880 0.000375 -0.002142
# 5 -0.001481 -0.000197 0.001474 0.000375 0.023497 0.002710
# 6 -0.004303 -0.002948 0.002806 -0.002142 0.002710 0.032582
#
#
# Mechanical properties :
#
#
# Convention : Reuss Voigt Hill
#
# Bulk Modulus (GPa) = 54.24115 79.36713 66.80414
# Shear Modulus (GPa) = 34.68170 39.39116 37.03643
#
# Velocity S-wave (km/s) = 3.91980 4.17747 4.05069
# Velocity P-wave (km/s) = 6.67208 7.64395 7.17449
#
# Compressibility (1/GPa) = 0.01843619
#
# Stress axis : x y z
#
# Youngs Moduli (GPa) = 69.86319 86.52651 96.34844
#
# Poissons Ratio (x) = 0.11871 0.27992
# Poissons Ratio (y) = 0.09585 0.44605
# Poissons Ratio (z) = 0.20297 0.40058
#
# Static dielectric constant tensor:
#      x y z
#    x 1.949060 -0.080160 -0.109860 
#    y -0.080160 2.064870 0.143880 
#    z -0.109860 0.143880 1.912710 
# 
# From -- ./inp_files/7992.got.cif
#   From: 2010.05.17/outbox.cif.g08.bks.cpg/sg2_4_cif.got.tgz:7992.got - 2010.06.03 11:33:40.
