data_PCOD9109670
_publ_section_title
;
Structure prediction by ZEFSAII (Michael W. Deem and Ramdas Pophale) SiO2 
 PCOD9109670
Probable space group: P -1
;
_chemical_formula_sum "Si O2"
_cell_formula_units_Z 16
_cell_length_a 8.333835
_cell_length_b 24.614625
_cell_length_c 8.457126
_cell_angle_alpha 26.764091
_cell_angle_beta 122.848405
_cell_angle_gamma 122.722554
_cell_volume 649.021312
_symmetry_space_group_name_H-M "P -1"
_symmetry_group_IT_number 2
_symmetry_cell_setting 'triclinic'
loop_
_space_group_symop_operation_xyz
x,y,z
-x,-y,-z
loop_
_atom_site_type_symbol
_atom_site_label
_atom_site_fract_x
_atom_site_fract_y
_atom_site_fract_z
Si Si1 0.369010 0.378104 0.687748
Si Si2 0.011638 0.321465 0.065947
Si Si3 0.325751 0.189712 0.445738
Si Si4 0.772845 0.209809 0.697119
Si Si5 0.691905 0.026410 0.378960
Si Si6 0.029843 0.570421 0.594156
Si Si7 0.583528 0.190858 0.155018
Si Si8 0.029105 0.956621 0.948753
O O1 0.500000 0.500000 0.500000
O O2 0.162983 0.416007 0.446713
O O3 0.338317 0.279065 0.069604
O O4 0.475317 0.308305 0.794705
O O5 0.989224 0.373046 0.739743
O O6 0.041298 0.431385 0.920711
O O7 0.805498 0.236473 0.196284
O O8 0.199748 0.254856 0.335592
O O9 0.544626 0.178226 0.632677
O O10 0.196599 0.058640 0.701925
O O11 0.810873 0.344805 0.439492
O O12 0.825480 0.115643 0.102841
O O13 0.900686 0.172734 0.716519
O O14 0.583767 0.121852 0.168943
O O15 0.831420 0.965349 0.728031
O O16 0.529955 0.917639 0.515118
O O17 0.000000 0.000000 0.000000
#
# Coordination Sequence:
#
# PCOD9109670 Si02
#       8
#     2   2   2   2   2   2   2   2
#     4  11  22  41  70  98 132 185 232 280 344 409
#     4  10  20  41  66  95 135 180 230 270 339 407
#     4  11  26  41  66 102 141 184 227 287 345 411
#     4  12  25  45  69 103 143 177 230 288 349 405
#     4  11  24  41  72 103 136 180 225 290 345 408
#     4  10  21  41  67  96 131 181 225 283 334 405
#     4  11  21  38  70 100 133 175 239 275 337 415
#     4  12  27  45  72 104 140 184 227 283 352 418
#
# _framework density 24.652501000000001
#
# number of rings (size 3 to 8) (size 9 to 14) (size 15 to 20)
#    0.000    1.000    3.750    3.000    5.250    0.500 
#    0.000    0.625    0.000    0.000    0.000    0.000 
#    0.000    0.000    0.000    0.000    0.000    0.000 
#
# Total GULP energy -89491.873462 kJ/mol
# GULP energy per Si atom -5593.242091 kJ/mol
# Density = 2.459639 g / cm^3
# Si number density = 24.652501 Si / 1000 Ang^3
#
#
#
# Elastic Constant Matrix: (Units=GPa)
#
#
# Indices 1 2 3 4 5 6 
#
# 1 113.1460 60.3923 23.3409 -14.6395 33.1688 -1.1697
# 2 60.3923 126.8381 41.0842 -47.9600 19.1155 3.1977
# 3 23.3409 41.0842 62.2586 -25.8073 17.3774 -13.4390
# 4 -14.6395 -47.9600 -25.8073 51.5974 -5.8545 9.1112
# 5 33.1688 19.1155 17.3774 -5.8545 55.2615 -10.1684
# 6 -1.1697 3.1977 -13.4390 9.1112 -10.1684 46.6433
#
#
#
# Elastic Compliance Matrix: (Units=1/GPa)
#
#
# Indices 1 2 3 4 5 6 
#
# 1 0.013967 -0.006833 -0.000334 -0.003265 -0.006261 -0.000005
# 2 -0.006833 0.017850 -0.004899 0.013141 -0.000135 -0.005403
# 3 -0.000334 -0.004899 0.024213 0.006074 -0.004115 0.005220
# 4 -0.003265 0.013141 0.006074 0.034615 -0.002013 -0.006433
# 5 -0.006261 -0.000135 -0.004115 -0.002013 0.023762 0.004240
# 6 -0.000005 -0.005403 0.005220 -0.006433 0.004240 0.025495
#
#
# Mechanical properties :
#
#
# Convention : Reuss Voigt Hill
#
# Bulk Modulus (GPa) = 31.34933 61.31972 46.33453
# Shear Modulus (GPa) = 28.62627 42.52879 35.57753
#
# Velocity S-wave (km/s) = 3.41132 4.15798 3.80302
# Velocity P-wave (km/s) = 5.31604 6.92671 6.17412
#
# Compressibility (1/GPa) = 0.03189861
#
# Stress axis : x y z
#
# Youngs Moduli (GPa) = 71.59631 56.02353 41.30025
#
# Poissons Ratio (x) = 0.38280 0.01380
# Poissons Ratio (y) = 0.48921 0.20231
# Poissons Ratio (z) = 0.02392 0.27444
#
# Static dielectric constant tensor:
#      x y z
#    x 2.052580 -0.054120 -0.088230 
#    y -0.054120 1.941170 0.016100 
#    z -0.088230 0.016100 2.033700 
# 
# From -- ./inp_files/225887.got.cif
#   From: 2010.05.17/outbox.cif.g08.bks.cpg/sg2_113_cif.got.tgz:225887.got - 2010.06.03 11:33:40.
