data_PCOD9109922
_publ_section_title
;
Structure prediction by ZEFSAII (Michael W. Deem and Ramdas Pophale) SiO2 
 PCOD9109922
Probable space group: P -1
;
_chemical_formula_sum "Si O2"
_cell_formula_units_Z 16
_cell_length_a 9.503323
_cell_length_b 8.917584
_cell_length_c 17.816249
_cell_angle_alpha 74.344150
_cell_angle_beta 50.858500
_cell_angle_gamma 47.295758
_cell_volume 826.715192
_symmetry_space_group_name_H-M "P -1"
_symmetry_group_IT_number 2
_symmetry_cell_setting 'triclinic'
loop_
_space_group_symop_operation_xyz
x,y,z
-x,-y,-z
loop_
_atom_site_type_symbol
_atom_site_label
_atom_site_fract_x
_atom_site_fract_y
_atom_site_fract_z
Si Si1 0.962402 0.521169 0.634973
Si Si2 0.999779 0.020995 0.086559
Si Si3 0.686483 0.440424 0.234570
Si Si4 0.599795 0.193242 0.829552
Si Si5 0.405613 0.314310 0.399580
Si Si6 0.542415 0.655728 0.985983
Si Si7 0.857766 0.723747 0.794591
Si Si8 0.063623 0.132681 0.730131
O O1 0.208451 0.407519 0.519204
O O2 0.990438 0.341811 0.694067
O O3 0.735821 0.645827 0.635649
O O4 0.919524 0.672928 0.693117
O O5 0.814409 0.257580 0.151304
O O6 0.947239 0.897636 0.172314
O O7 0.000000 0.000000 0.000000
O O8 0.282880 0.895282 0.026815
O O9 0.530671 0.668658 0.219293
O O10 0.502331 0.433587 0.341645
O O11 0.901986 0.374547 0.224645
O O12 0.860810 0.130946 0.764434
O O13 0.660662 0.976477 0.838348
O O14 0.421478 0.346488 0.937419
O O15 0.655609 0.069901 0.359859
O O16 0.745901 0.626685 0.874448
O O17 0.500000 0.500000 0.000000
#
# Coordination Sequence:
#
# PCOD9109922 Si02
#       8
#     2   2   2   2   2   2   2   2
#     4  11  24  40  69  96 125 167 221 267 321 383
#     4  10  21  37  64  96 126 172 211 254 313 384
#     4  11  23  42  64  91 131 170 208 265 324 372
#     4  11  22  42  63  91 133 171 203 264 317 379
#     4  10  22  43  68  94 124 169 218 270 318 382
#     4  11  23  41  64  93 131 169 210 259 312 379
#     4  12  25  42  62  97 129 165 211 266 323 377
#     4  10  20  41  68  92 128 170 213 265 320 375
#
# _framework density 19.353701999999998
#
# number of rings (size 3 to 8) (size 9 to 14) (size 15 to 20)
#    0.000    1.250    5.000    3.000    3.500    2.000 
#    2.250    0.625    0.000    0.000    0.000    0.000 
#    0.000    0.000    0.000    0.000    0.000    0.000 
#
# Total GULP energy -89320.136288 kJ/mol
# GULP energy per Si atom -5582.508518 kJ/mol
# Density = 1.930965 g / cm^3
# Si number density = 19.353702 Si / 1000 Ang^3
#
#
#
# Elastic Constant Matrix: (Units=GPa)
#
#
# Indices 1 2 3 4 5 6 
#
# 1 68.7489 38.4629 64.0779 -8.4217 7.4891 7.8461
# 2 38.4629 87.8073 26.9226 -9.0255 3.8935 2.6548
# 3 64.0779 26.9226 110.4381 3.5290 0.0299 8.2934
# 4 -8.4217 -9.0255 3.5290 25.5950 -2.8825 -2.2041
# 5 7.4891 3.8935 0.0299 -2.8825 29.4261 4.0310
# 6 7.8461 2.6548 8.2934 -2.2041 4.0310 27.6754
#
#
#
# Elastic Compliance Matrix: (Units=1/GPa)
#
#
# Indices 1 2 3 4 5 6 
#
# 1 0.046396 -0.010956 -0.024499 0.013596 -0.008671 -0.002415
# 2 -0.010956 0.015553 0.002443 0.001707 0.000771 0.000906
# 3 -0.024499 0.002443 0.023123 -0.009959 0.005154 -0.001762
# 4 0.013596 0.001707 -0.009959 0.045790 0.000461 0.002546
# 5 -0.008671 0.000771 0.005154 0.000461 0.036741 -0.004475
# 6 -0.002415 0.000906 -0.001762 0.002546 -0.004475 0.038114
#
#
# Mechanical properties :
#
#
# Convention : Reuss Voigt Hill
#
# Bulk Modulus (GPa) = 52.50402 58.43568 55.46985
# Shear Modulus (GPa) = 17.97968 25.70803 21.84385
#
# Velocity S-wave (km/s) = 3.05126 3.64857 3.36321
# Velocity P-wave (km/s) = 6.29295 6.92882 6.61852
#
# Compressibility (1/GPa) = 0.01904616
#
# Stress axis : x y z
#
# Youngs Moduli (GPa) = 21.55357 64.29710 43.24616
#
# Poissons Ratio (x) = 0.70447 1.05951
# Poissons Ratio (y) = 0.23615 -0.10564
# Poissons Ratio (z) = 0.52805 -0.15707
#
# Static dielectric constant tensor:
#      x y z
#    x 1.682640 0.003040 0.020320 
#    y 0.003040 1.694610 -0.009220 
#    z 0.020320 -0.009220 1.693150 
# 
# From -- ./inp_files/495204.got.cif
#   From: 2010.05.17/outbox.cif.g08.bks.cpg/sg2_248_cif.got.tgz:495204.got - 2010.06.03 11:33:40.
