data_PCOD9109648
_publ_section_title
;
Structure prediction by ZEFSAII (Michael W. Deem and Ramdas Pophale) SiO2 
 PCOD9109648
Probable space group: P -1
;
_chemical_formula_sum "Si O2"
_cell_formula_units_Z 12
_cell_length_a 15.340322
_cell_length_b 9.601350
_cell_length_c 12.174291
_cell_angle_alpha 132.394922
_cell_angle_beta 145.532382
_cell_angle_gamma 27.935918
_cell_volume 465.401370
_symmetry_space_group_name_H-M "P -1"
_symmetry_group_IT_number 2
_symmetry_cell_setting 'triclinic'
loop_
_space_group_symop_operation_xyz
x,y,z
-x,-y,-z
loop_
_atom_site_type_symbol
_atom_site_label
_atom_site_fract_x
_atom_site_fract_y
_atom_site_fract_z
Si Si1 0.460793 0.773267 0.728020
Si Si2 0.266450 0.513304 0.801618
Si Si3 0.289224 0.505520 0.369763
Si Si4 0.029687 0.743783 0.891811
Si Si5 0.959555 0.254975 0.551280
Si Si6 0.235342 0.980119 0.031665
O O1 0.395206 0.613061 0.560499
O O2 0.519388 0.774022 0.663843
O O3 0.708199 0.552035 0.936908
O O4 0.231919 0.077444 0.719087
O O5 0.064361 0.638328 0.747290
O O6 0.161199 0.621463 0.627444
O O7 0.302958 0.696388 0.972083
O O8 0.540773 0.163591 0.888535
O O9 0.216349 0.491940 0.403916
O O10 0.025979 0.766531 0.169975
O O11 0.000000 0.000000 0.000000
O O12 0.817586 0.883107 0.830625
O O13 0.000000 0.000000 0.500000
#
# Coordination Sequence:
#
# PCOD9109648 Si02
#       6
#     2   2   2   2   2   2
#     4   9  16  24  28  33  40  44  52  57  62  69
#     4  10  17  22  28  34  40  45  51  56  62  69
#     4   9  16  23  29  34  39  46  50  57  63  67
#     4   9  18  22  29  33  38  46  51  58  62  67
#     4  10  17  22  28  34  40  46  49  57  63  68
#     4   9  16  24  28  34  39  45  52  56  62  68
#
# _framework density 25.784196000000001
#
# number of rings (size 3 to 8) (size 9 to 14) (size 15 to 20)
#    0.000    2.667    3.333    1.000   14.000    0.000 
#    0.000    0.000    0.000    0.000    0.000    0.000 
#    0.000    0.000    0.000    0.000    0.000    0.000 
#
# Total GULP energy -66981.607771 kJ/mol
# GULP energy per Si atom -5581.800648 kJ/mol
# Density = 2.572551 g / cm^3
# Si number density = 25.784196 Si / 1000 Ang^3
#
#
#
# Elastic Constant Matrix: (Units=GPa)
#
#
# Indices 1 2 3 4 5 6 
#
# 1 68.7124 121.3445 54.2810 55.1297 -26.4506 -43.6151
# 2 121.3445 55.6579 46.8460 5.3277 12.7397 -55.0101
# 3 54.2810 46.8460 48.0316 -9.0827 -24.9329 -17.2673
# 4 55.1297 5.3277 -9.0827 24.0397 -16.9383 0.5923
# 5 -26.4506 12.7397 -24.9329 -16.9383 32.2526 34.3660
# 6 -43.6151 -55.0101 -17.2673 0.5923 34.3660 83.2229
#
#
#
# Elastic Compliance Matrix: (Units=1/GPa)
#
#
# Indices 1 2 3 4 5 6 
#
# 1 -0.003915 0.004785 0.003366 0.010922 0.002485 0.000706
# 2 0.004785 -0.003536 0.003683 0.001038 0.013794 -0.004769
# 3 0.003366 0.003683 0.006801 -0.016744 -0.014883 0.011874
# 4 0.010922 0.001038 -0.016744 0.000994 -0.012491 0.008087
# 5 0.002485 0.013794 -0.014883 -0.012491 0.002896 0.006225
# 6 0.000706 -0.004769 0.011874 0.008087 0.006225 0.009069
#
#
# Mechanical properties :
#
#
# Convention : Reuss Voigt Hill
#
# Bulk Modulus (GPa) = 43.44308 68.59387 56.01847
# Shear Modulus (GPa) = -1356.96304 24.56509 -666.19898
#
# Velocity S-wave (km/s) = -22.96562 3.08996 -16.09148
# Velocity P-wave (km/s) = 26.19811 6.27625 17.98540
#
# Compressibility (1/GPa) = 0.02301863
#
# Stress axis : x y z
#
# Youngs Moduli (GPa) = -255.44874 -282.82410 147.03553
#
# Poissons Ratio (x) = 1.35343 -0.49489
# Poissons Ratio (y) = 1.22243 -0.54150
# Poissons Ratio (z) = 0.85978 1.04159
#
# Static dielectric constant tensor:
#      x y z
#    x 2.129660 -0.014630 -0.001890 
#    y -0.014630 2.109920 0.018040 
#    z -0.001890 0.018040 1.985290 
# 
# From -- ./inp_files/253628.got.cif
#   From: 2010.05.17/outbox.cif.g08.bks.cpg/sg2_127_cif.got.tgz:253628.got - 2010.06.03 11:33:40.
