data_PCOD9109034
_publ_section_title
;
Structure prediction by ZEFSAII (Michael W. Deem and Ramdas Pophale) SiO2 
 PCOD9109034
Probable space group: P -1
;
_chemical_formula_sum "Si O2"
_cell_formula_units_Z 16
_cell_length_a 15.479784
_cell_length_b 5.115442
_cell_length_c 12.420124
_cell_angle_alpha 107.027173
_cell_angle_beta 106.612976
_cell_angle_gamma 121.371664
_cell_volume 677.353758
_symmetry_space_group_name_H-M "P -1"
_symmetry_group_IT_number 2
_symmetry_cell_setting 'triclinic'
loop_
_space_group_symop_operation_xyz
x,y,z
-x,-y,-z
loop_
_atom_site_type_symbol
_atom_site_label
_atom_site_fract_x
_atom_site_fract_y
_atom_site_fract_z
Si Si1 0.028884 0.922524 0.385538
Si Si2 0.253269 0.310050 0.625742
Si Si3 0.717801 0.117378 0.998845
Si Si4 0.207208 0.830200 0.749002
Si Si5 0.849415 0.943360 0.889763
Si Si6 0.944053 0.881388 0.139017
Si Si7 0.592869 0.194840 0.657222
Si Si8 0.517486 0.634233 0.732342
O O1 0.927025 0.487597 0.290899
O O2 0.012897 0.092375 0.299769
O O3 0.162877 0.087602 0.467432
O O4 0.000000 0.000000 0.500000
O O5 0.253389 0.632278 0.693514
O O6 0.380958 0.444018 0.659763
O O7 0.208690 0.051083 0.681899
O O8 0.782008 0.082176 0.919493
O O9 0.586736 0.923173 0.888754
O O10 0.715742 0.955373 0.091204
O O11 0.811849 0.547516 0.096377
O O12 0.738045 0.541393 0.751457
O O13 0.909513 0.968131 0.027768
O O14 0.961216 0.161917 0.874329
O O15 0.541922 0.361334 0.721431
O O16 0.500000 0.000000 0.500000
O O17 0.574620 0.874082 0.673867
#
# Coordination Sequence:
#
# PCOD9109034 Si02
#       8
#     2   2   2   2   2   2   2   2
#     4   9  21  39  64  90 131 166 215 263 326 372
#     4  11  23  42  60  98 126 167 221 259 315 387
#     4  10  22  39  63  91 130 169 211 267 325 380
#     4  10  23  39  67  89 131 168 210 268 322 372
#     4  10  22  38  67  91 131 164 226 258 329 379
#     4  10  20  41  61  97 122 175 211 274 312 389
#     4  11  24  44  66  93 130 172 213 269 326 381
#     4  11  24  42  66  92 131 168 215 266 320 388
#
# _framework density 23.621334999999998
#
# number of rings (size 3 to 8) (size 9 to 14) (size 15 to 20)
#    0.000    1.750    1.250    1.875    7.000    1.000 
#    2.250    1.250    0.000    0.000    0.000    0.000 
#    0.000    0.000    0.000    0.000    0.000    0.000 
#
# Total GULP energy -89164.529989 kJ/mol
# GULP energy per Si atom -5572.783124 kJ/mol
# Density = 2.356757 g / cm^3
# Si number density = 23.621335 Si / 1000 Ang^3
#
#
#
# Elastic Constant Matrix: (Units=GPa)
#
#
# Indices 1 2 3 4 5 6 
#
# 1 44.3096 -2.9648 -8.0554 6.0591 18.8834 -5.3868
# 2 -2.9648 44.1959 19.9953 -6.3071 7.2296 -6.6311
# 3 -8.0554 19.9953 171.9456 -10.8268 30.9515 10.0670
# 4 6.0591 -6.3071 -10.8268 32.0688 9.7704 18.3968
# 5 18.8834 7.2296 30.9515 9.7704 37.6904 4.8687
# 6 -5.3868 -6.6311 10.0670 18.3968 4.8687 25.2481
#
#
#
# Elastic Compliance Matrix: (Units=1/GPa)
#
#
# Indices 1 2 3 4 5 6 
#
# 1 0.036613 0.006173 0.003486 -0.008154 -0.022647 0.018351
# 2 0.006173 0.026863 -0.002134 -0.000666 -0.007768 0.011207
# 3 0.003486 -0.002134 0.009330 0.010562 -0.010549 -0.009199
# 4 -0.008154 -0.000666 0.010562 0.073574 -0.016221 -0.056607
# 5 -0.022647 -0.007768 -0.010549 -0.016221 0.052358 -0.000943
# 6 0.018351 0.011207 -0.009199 -0.056607 -0.000943 0.091561
#
#
# Mechanical properties :
#
#
# Convention : Reuss Voigt Hill
#
# Bulk Modulus (GPa) = 11.38224 30.93348 21.15786
# Shear Modulus (GPa) = 16.41849 35.76652 26.09251
#
# Velocity S-wave (km/s) = 2.63928 3.89544 3.32718
# Velocity P-wave (km/s) = 3.75723 5.77552 4.87204
#
# Compressibility (1/GPa) = 0.08785614
#
# Stress axis : x y z
#
# Youngs Moduli (GPa) = 27.31274 37.22534 107.18351
#
# Poissons Ratio (x) = -0.22980 -0.37366
# Poissons Ratio (y) = -0.16861 0.22878
# Poissons Ratio (z) = -0.09522 0.07946
#
# Static dielectric constant tensor:
#      x y z
#    x 1.928230 -0.032310 -0.036090 
#    y -0.032310 1.962950 0.055410 
#    z -0.036090 0.055410 2.023990 
# 
# From -- ./inp_files/118259.got.cif
#   From: 2010.05.17/outbox.cif.g08.bks.cpg/sg2_60_cif.got.tgz:118259.got - 2010.06.03 11:33:40.
