data_PCOD9109757
_publ_section_title
;
Structure prediction by ZEFSAII (Michael W. Deem and Ramdas Pophale) SiO2 
 PCOD9109757
Probable space group: P -1
;
_chemical_formula_sum "Si O2"
_cell_formula_units_Z 16
_cell_length_a 8.851631
_cell_length_b 13.876379
_cell_length_c 10.819365
_cell_angle_alpha 76.285893
_cell_angle_beta 139.802771
_cell_angle_gamma 123.665127
_cell_volume 669.544045
_symmetry_space_group_name_H-M "P -1"
_symmetry_group_IT_number 2
_symmetry_cell_setting 'triclinic'
loop_
_space_group_symop_operation_xyz
x,y,z
-x,-y,-z
loop_
_atom_site_type_symbol
_atom_site_label
_atom_site_fract_x
_atom_site_fract_y
_atom_site_fract_z
Si Si1 0.653251 0.733252 0.729326
Si Si2 0.133923 0.408500 0.161434
Si Si3 0.863203 0.277425 0.652146
Si Si4 0.815275 0.468795 0.097222
Si Si5 0.470783 0.068295 0.091532
Si Si6 0.570210 0.161881 0.765235
Si Si7 0.010202 0.897830 0.675237
Si Si8 0.275223 0.230275 0.962503
O O1 0.644676 0.626773 0.684930
O O2 0.359404 0.719773 0.573279
O O3 0.770207 0.740081 0.936478
O O4 0.860924 0.844689 0.731671
O O5 0.080064 0.461348 0.231515
O O6 0.241056 0.501122 0.083980
O O7 0.812266 0.280213 0.963917
O O8 0.678070 0.210678 0.679466
O O9 0.103511 0.419528 0.797187
O O10 0.005330 0.209014 0.724057
O O11 0.556036 0.343808 0.034914
O O12 0.820755 0.154977 0.259796
O O13 0.327568 0.127615 0.044584
O O14 0.420092 0.953929 0.170386
O O15 0.302682 0.029347 0.864827
O O16 0.238110 0.121053 0.563105
#
# Coordination Sequence:
#
# PCOD9109757 Si02
#       8
#     2   2   2   2   2   2   2   2
#     4  11  22  41  65  89 124 164 205 248 311 363
#     4  10  20  42  69  90 119 164 202 258 309 355
#     4  10  23  41  64  91 125 163 204 253 303 364
#     4  10  22  41  66  91 122 161 206 255 306 354
#     4  11  23  39  65  92 125 162 202 253 308 359
#     4  10  20  41  67  90 123 157 206 256 304 358
#     4  10  22  40  64  93 124 157 206 257 301 360
#     4  12  24  41  61  91 131 163 199 251 304 370
#
# _framework density 23.896858999999999
#
# number of rings (size 3 to 8) (size 9 to 14) (size 15 to 20)
#    0.000    1.500    3.750    1.500    1.750    4.000 
#    2.250    3.750    0.000    0.000    0.000    0.000 
#    0.000    0.000    0.000    0.000    0.000    0.000 
#
# Total GULP energy -89188.184674 kJ/mol
# GULP energy per Si atom -5574.261542 kJ/mol
# Density = 2.384247 g / cm^3
# Si number density = 23.896859 Si / 1000 Ang^3
#
#
#
# Elastic Constant Matrix: (Units=GPa)
#
#
# Indices 1 2 3 4 5 6 
#
# 1 41.0250 1.6270 17.2962 -6.0485 16.9888 -14.2466
# 2 1.6270 86.3970 28.6144 -15.8408 12.0057 -6.0682
# 3 17.2962 28.6144 134.4367 -33.0261 28.0174 -13.6763
# 4 -6.0485 -15.8408 -33.0261 19.0494 -13.1071 13.7269
# 5 16.9888 12.0057 28.0174 -13.1071 26.1966 -15.7335
# 6 -14.2466 -6.0682 -13.6763 13.7269 -15.7335 43.8760
#
#
#
# Elastic Compliance Matrix: (Units=1/GPa)
#
#
# Indices 1 2 3 4 5 6 
#
# 1 0.035455 0.001570 -0.002385 -0.012366 -0.023486 0.006433
# 2 0.001570 0.013943 0.000164 0.012013 -0.002976 -0.002336
# 3 -0.002385 0.000164 0.014259 0.025035 -0.004765 -0.005848
# 4 -0.012366 0.012013 0.025035 0.143407 0.030355 -0.028531
# 5 -0.023486 -0.002976 -0.004765 0.030355 0.081093 0.010060
# 6 0.006433 -0.002336 -0.005848 -0.028531 0.010060 0.035268
#
#
# Mechanical properties :
#
#
# Convention : Reuss Voigt Hill
#
# Bulk Modulus (GPa) = 16.03715 39.65933 27.84824
# Shear Modulus (GPa) = 14.47137 32.11246 23.29192
#
# Velocity S-wave (km/s) = 2.46352 3.66976 3.12538
# Velocity P-wave (km/s) = 3.84934 5.88118 4.97019
#
# Compressibility (1/GPa) = 0.06235520
#
# Stress axis : x y z
#
# Youngs Moduli (GPa) = 28.20490 71.72272 70.13289
#
# Poissons Ratio (x) = -0.11262 0.16724
# Poissons Ratio (y) = -0.04429 -0.01150
# Poissons Ratio (z) = 0.06726 -0.01176
#
# Static dielectric constant tensor:
#      x y z
#    x 1.990650 -0.027650 0.032170 
#    y -0.027650 1.965770 0.013090 
#    z 0.032170 0.013090 1.968560 
# 
# From -- ./inp_files/397400.got.cif
#   From: 2010.05.17/outbox.cif.g08.bks.cpg/sg2_199_cif.got.tgz:397400.got - 2010.06.03 11:33:40.
