data_PCOD9109265
_publ_section_title
;
Structure prediction by ZEFSAII (Michael W. Deem and Ramdas Pophale) SiO2 
 PCOD9109265
Probable space group: P -1
;
_chemical_formula_sum "Si O2"
_cell_formula_units_Z 12
_cell_length_a 14.240187
_cell_length_b 11.490963
_cell_length_c 8.071605
_cell_angle_alpha 41.975737
_cell_angle_beta 52.277752
_cell_angle_gamma 44.781277
_cell_volume 612.235788
_symmetry_space_group_name_H-M "P -1"
_symmetry_group_IT_number 2
_symmetry_cell_setting 'triclinic'
loop_
_space_group_symop_operation_xyz
x,y,z
-x,-y,-z
loop_
_atom_site_type_symbol
_atom_site_label
_atom_site_fract_x
_atom_site_fract_y
_atom_site_fract_z
Si Si1 0.442775 0.483755 0.900604
Si Si2 0.839189 0.502230 0.794198
Si Si3 0.134195 0.295158 0.777610
Si Si4 0.420484 0.976410 0.764865
Si Si5 0.517187 0.200111 0.682510
Si Si6 0.262507 0.234574 0.057077
O O1 0.462723 0.627723 0.600711
O O2 0.500000 0.500000 0.000000
O O3 0.285935 0.540676 0.022752
O O4 0.528177 0.251344 0.013538
O O5 0.854444 0.560980 0.526760
O O6 0.803889 0.677432 0.785343
O O7 0.983957 0.327730 0.881928
O O8 0.259213 0.086172 0.809354
O O9 0.165244 0.320489 0.910060
O O10 0.500000 0.000000 0.500000
O O11 0.460519 0.095910 0.725892
O O12 0.660756 0.008004 0.777983
O O13 0.385063 0.288276 0.849633
#
# Coordination Sequence:
#
# PCOD9109265 Si02
#       6
#     2   2   2   2   2   2
#     4  12  22  36  67  95 123 161 212 257 304 368
#     4  11  22  40  64  92 125 166 204 254 313 364
#     4  10  22  39  66  90 124 167 206 248 315 372
#     4  11  18  39  64  90 123 164 203 260 308 356
#     4  10  21  36  61  96 121 157 214 256 301 364
#     4  10  20  41  64  91 126 164 204 257 309 360
#
# _framework density 19.600290000000001
#
# number of rings (size 3 to 8) (size 9 to 14) (size 15 to 20)
#    0.000    1.333    5.000    1.500    0.000    0.667 
#    0.000    1.667    7.333    0.000    0.000    0.000 
#    0.000    0.000    0.000    0.000    0.000    0.000 
#
# Total GULP energy -66834.942729 kJ/mol
# GULP energy per Si atom -5569.578561 kJ/mol
# Density = 1.955568 g / cm^3
# Si number density = 19.600290 Si / 1000 Ang^3
#
#
#
# Elastic Constant Matrix: (Units=GPa)
#
#
# Indices 1 2 3 4 5 6 
#
# 1 123.6105 50.0331 27.8069 -9.2877 10.2882 -28.5804
# 2 50.0331 81.6898 21.5319 -3.8337 -5.3939 -25.6086
# 3 27.8069 21.5319 100.7264 -25.2826 -3.3040 -13.4126
# 4 -9.2877 -3.8337 -25.2826 28.7655 4.2016 5.3756
# 5 10.2882 -5.3939 -3.3040 4.2016 35.9313 8.6385
# 6 -28.5804 -25.6086 -13.4126 5.3756 8.6385 42.8149
#
#
#
# Elastic Compliance Matrix: (Units=1/GPa)
#
#
# Indices 1 2 3 4 5 6 
#
# 1 0.012779 -0.006110 -0.001144 0.002192 -0.006262 0.005506
# 2 -0.006110 0.018509 -0.002099 -0.002954 0.003225 0.006055
# 3 -0.001144 -0.002099 0.013610 0.011184 -0.000259 0.000892
# 4 0.002192 -0.002954 0.011184 0.045934 -0.005041 -0.001550
# 5 -0.006262 0.003225 -0.000259 -0.005041 0.032667 -0.008290
# 6 0.005506 0.006055 0.000892 -0.001550 -0.008290 0.032800
#
#
# Mechanical properties :
#
#
# Convention : Reuss Voigt Hill
#
# Bulk Modulus (GPa) = 38.17889 56.08561 47.13225
# Shear Modulus (GPa) = 27.21295 35.27932 31.24613
#
# Velocity S-wave (km/s) = 3.73016 4.24717 3.99703
# Velocity P-wave (km/s) = 6.17034 7.26141 6.73800
#
# Compressibility (1/GPa) = 0.02619249
#
# Stress axis : x y z
#
# Youngs Moduli (GPa) = 78.25184 54.02639 73.47566
#
# Poissons Ratio (x) = 0.33011 0.08404
# Poissons Ratio (y) = 0.47813 0.15424
# Poissons Ratio (z) = 0.08950 0.11341
#
# Static dielectric constant tensor:
#      x y z
#    x 1.648580 -0.083450 0.044650 
#    y -0.083450 1.677310 0.010290 
#    z 0.044650 0.010290 1.702350 
# 
# From -- ./inp_files/253334.got.cif
#   From: 2010.05.17/outbox.cif.g08.bks.cpg/sg2_127_cif.got.tgz:253334.got - 2010.06.03 11:33:40.
