data_PCOD9109349
_publ_section_title
;
Structure prediction by ZEFSAII (Michael W. Deem and Ramdas Pophale) SiO2 
 PCOD9109349
Probable space group: P -1
;
_chemical_formula_sum "Si O2"
_cell_formula_units_Z 14
_cell_length_a 19.245715
_cell_length_b 9.216224
_cell_length_c 12.421034
_cell_angle_alpha 48.589414
_cell_angle_beta 154.265470
_cell_angle_gamma 134.692922
_cell_volume 677.259955
_symmetry_space_group_name_H-M "P -1"
_symmetry_group_IT_number 2
_symmetry_cell_setting 'triclinic'
loop_
_space_group_symop_operation_xyz
x,y,z
-x,-y,-z
loop_
_atom_site_type_symbol
_atom_site_label
_atom_site_fract_x
_atom_site_fract_y
_atom_site_fract_z
Si Si1 0.937991 0.764330 0.567884
Si Si2 0.666261 0.153747 0.217196
Si Si3 0.783325 0.796510 0.564674
Si Si4 0.198537 0.539594 0.113736
Si Si5 0.351864 0.593408 0.730240
Si Si6 0.385394 0.532569 0.158382
Si Si7 0.554475 0.241293 0.457181
O O1 0.826538 0.759738 0.521155
O O2 0.819785 0.598562 0.402159
O O3 0.000000 0.000000 0.500000
O O4 0.081365 0.668003 0.848516
O O5 0.626120 0.227958 0.240513
O O6 0.799394 0.033791 0.478140
O O7 0.713762 0.353443 0.110062
O O8 0.500000 0.000000 0.000000
O O9 0.881933 0.687536 0.834212
O O10 0.583766 0.676570 0.368114
O O11 0.307813 0.511749 0.178336
O O12 0.312712 0.670205 0.305033
O O13 0.366569 0.677964 0.588082
O O14 0.500000 0.500000 0.000000
O O15 0.400270 0.327877 0.225625
O O16 0.500000 0.000000 0.500000
#
# Coordination Sequence:
#
# PCOD9109349 Si02
#       7
#     2   2   2   2   2   2   2
#     4  12  26  45  71 100 139 190 223 288 352 407
#     4  10  21  37  67  95 129 174 224 280 332 392
#     4  10  20  41  65  95 130 180 224 272 339 407
#     4  11  24  42  67 100 144 171 230 280 356 405
#     4  12  24  45  69 104 137 178 243 283 331 423
#     4  10  20  41  64  99 134 176 226 274 335 414
#     4  11  24  38  69 106 137 175 230 291 337 405
#
# _framework density 20.671530000000001
#
# number of rings (size 3 to 8) (size 9 to 14) (size 15 to 20)
#    0.000    1.143    4.286    3.857    8.000    0.000 
#    0.000    5.000    0.000    0.000    0.000    0.000 
#    0.000    0.000    0.000    0.000    0.000    0.000 
#
# Total GULP energy -78125.808758 kJ/mol
# GULP energy per Si atom -5580.414911 kJ/mol
# Density = 2.062448 g / cm^3
# Si number density = 20.671530 Si / 1000 Ang^3
#
#
#
# Elastic Constant Matrix: (Units=GPa)
#
#
# Indices 1 2 3 4 5 6 
#
# 1 117.8860 45.2845 15.3819 0.9744 -24.4491 -24.6003
# 2 45.2845 130.4499 65.0621 -35.1793 -11.6121 -16.2735
# 3 15.3819 65.0621 103.6648 -35.1750 -12.8353 -4.1754
# 4 0.9744 -35.1793 -35.1750 39.0395 0.4853 0.2343
# 5 -24.4491 -11.6121 -12.8353 0.4853 23.4394 -9.9017
# 6 -24.6003 -16.2735 -4.1754 0.2343 -9.9017 38.5620
#
#
#
# Elastic Compliance Matrix: (Units=1/GPa)
#
#
# Indices 1 2 3 4 5 6 
#
# 1 0.018884 -0.003988 0.003198 -0.001624 0.026959 0.017642
# 2 -0.003988 0.014496 -0.005423 0.008241 0.001258 0.003259
# 3 0.003198 -0.005423 0.018079 0.011140 0.012352 0.004813
# 4 -0.001624 0.008241 0.011140 0.042957 0.010129 0.005988
# 5 0.026959 0.001258 0.012352 0.010129 0.096452 0.043772
# 6 0.017642 0.003259 0.004813 0.005988 0.043772 0.050287
#
#
# Mechanical properties :
#
#
# Convention : Reuss Voigt Hill
#
# Bulk Modulus (GPa) = 25.61905 67.05086 46.33495
# Shear Modulus (GPa) = 18.75545 35.29300 27.02422
#
# Velocity S-wave (km/s) = 3.01542 4.13646 3.61961
# Velocity P-wave (km/s) = 4.95419 7.43777 6.31920
#
# Compressibility (1/GPa) = 0.03903346
#
# Stress axis : x y z
#
# Youngs Moduli (GPa) = 52.95621 68.98632 55.31392
#
# Poissons Ratio (x) = 0.27510 -0.17691
# Poissons Ratio (y) = 0.21117 0.29995
# Poissons Ratio (z) = -0.16937 0.37410
#
# Static dielectric constant tensor:
#      x y z
#    x 1.715470 0.017680 0.000470 
#    y 0.017680 1.809880 -0.011990 
#    z 0.000470 -0.011990 1.809300 
# 
# From -- ./inp_files/242758.got.cif
#   From: 2010.05.17/outbox.cif.g08.bks.cpg/sg2_122_cif.got.tgz:242758.got - 2010.06.03 11:33:40.
