data_PCOD9109669
_publ_section_title
;
Structure prediction by ZEFSAII (Michael W. Deem and Ramdas Pophale) SiO2 
 PCOD9109669
Probable space group: P -1
;
_chemical_formula_sum "Si O2"
_cell_formula_units_Z 16
_cell_length_a 6.708137
_cell_length_b 11.250686
_cell_length_c 12.033877
_cell_angle_alpha 104.319222
_cell_angle_beta 54.867449
_cell_angle_gamma 102.315014
_cell_volume 716.788722
_symmetry_space_group_name_H-M "P -1"
_symmetry_group_IT_number 2
_symmetry_cell_setting 'triclinic'
loop_
_space_group_symop_operation_xyz
x,y,z
-x,-y,-z
loop_
_atom_site_type_symbol
_atom_site_label
_atom_site_fract_x
_atom_site_fract_y
_atom_site_fract_z
Si Si1 0.235838 0.751728 0.797907
Si Si2 0.565861 0.331634 0.049455
Si Si3 0.240306 0.489122 0.641712
Si Si4 0.276898 0.568396 0.202559
Si Si5 0.360145 0.879511 0.573170
Si Si6 0.936174 0.946747 0.189680
Si Si7 0.744075 0.891503 0.009367
Si Si8 0.379612 0.287398 0.710214
O O1 0.335123 0.711052 0.874758
O O2 0.173790 0.624112 0.724531
O O3 0.410698 0.829844 0.670257
O O4 0.991396 0.819430 0.910749
O O5 0.372382 0.433439 0.155306
O O6 0.457910 0.206023 0.996038
O O7 0.739859 0.402180 0.916863
O O8 0.500000 0.500000 0.500000
O O9 0.294582 0.409566 0.712692
O O10 0.989365 0.425592 0.655039
O O11 0.481623 0.667583 0.211878
O O12 0.420898 0.771909 0.445815
O O13 0.500000 0.000000 0.500000
O O14 0.103992 0.939154 0.689434
O O15 0.857551 0.813397 0.234232
O O16 0.736920 0.937264 0.149037
O O17 0.193187 0.988471 0.059777
#
# Coordination Sequence:
#
# PCOD9109669 Si02
#       8
#     2   2   2   2   2   2   2   2
#     4  11  22  40  65 101 129 172 217 270 334 394
#     4  11  23  40  66 101 138 170 217 274 327 404
#     4  12  25  42  63  99 135 175 221 267 331 402
#     4  11  25  40  64 101 137 176 213 269 342 389
#     4   9  20  41  66  88 125 177 220 266 316 380
#     4   9  20  39  66  92 122 178 217 263 330 375
#     4  10  20  41  66  95 135 169 214 271 328 386
#     4  11  21  42  67  91 135 171 222 268 322 396
#
# _framework density 22.321781000000001
#
# number of rings (size 3 to 8) (size 9 to 14) (size 15 to 20)
#    0.000    1.500    5.000    0.000    1.750    1.000 
#    4.500    9.375    0.000    7.500    0.000    0.000 
#    0.000    0.000    0.000    0.000    0.000    0.000 
#
# Total GULP energy -89068.373214 kJ/mol
# GULP energy per Si atom -5566.773326 kJ/mol
# Density = 2.227098 g / cm^3
# Si number density = 22.321781 Si / 1000 Ang^3
#
#
#
# Elastic Constant Matrix: (Units=GPa)
#
#
# Indices 1 2 3 4 5 6 
#
# 1 62.7067 30.9403 23.8670 -14.8143 -1.9080 -9.7781
# 2 30.9403 117.1998 30.5349 -6.9685 2.5234 -8.9593
# 3 23.8670 30.5349 63.8611 -4.5611 2.2448 -24.1387
# 4 -14.8143 -6.9685 -4.5611 47.2908 -4.6139 12.0453
# 5 -1.9080 2.5234 2.2448 -4.6139 27.3444 -4.5896
# 6 -9.7781 -8.9593 -24.1387 12.0453 -4.5896 27.3425
#
#
#
# Elastic Compliance Matrix: (Units=1/GPa)
#
#
# Indices 1 2 3 4 5 6 
#
# 1 0.021660 -0.003838 -0.006474 0.006279 0.003212 -0.001454
# 2 -0.003838 0.010563 -0.004343 0.000355 -0.001179 -0.002100
# 3 -0.006474 -0.004343 0.029027 -0.006089 0.000682 0.024684
# 4 0.006279 0.000355 -0.006089 0.026481 0.002994 -0.014177
# 5 0.003212 -0.001179 0.000682 0.002994 0.038443 0.006499
# 6 -0.001454 -0.002100 0.024684 -0.014177 0.006499 0.064493
#
#
# Mechanical properties :
#
#
# Convention : Reuss Voigt Hill
#
# Bulk Modulus (GPa) = 31.30977 46.05022 38.68000
# Shear Modulus (GPa) = 21.68036 30.95723 26.31880
#
# Velocity S-wave (km/s) = 3.11989 3.72810 3.43747
# Velocity P-wave (km/s) = 5.19955 6.26152 5.75508
#
# Compressibility (1/GPa) = 0.03193891
#
# Stress axis : x y z
#
# Youngs Moduli (GPa) = 46.16911 94.66747 34.45122
#
# Poissons Ratio (x) = 0.36337 0.22302
# Poissons Ratio (y) = 0.17722 0.14963
# Poissons Ratio (z) = 0.29888 0.41117
#
# Static dielectric constant tensor:
#      x y z
#    x 1.821870 -0.015920 0.000560 
#    y -0.015920 1.861400 -0.030000 
#    z 0.000560 -0.030000 1.921800 
# 
# From -- ./inp_files/70995.got.cif
#   From: 2010.05.17/outbox.cif.g08.bks.cpg/sg2_36_cif.got.tgz:70995.got - 2010.06.03 11:33:40.
