data_PCOD9109892
_publ_section_title
;
Structure prediction by ZEFSAII (Michael W. Deem and Ramdas Pophale) SiO2 
 PCOD9109892
Probable space group: P -1
;
_chemical_formula_sum "Si O2"
_cell_formula_units_Z 14
_cell_length_a 9.420155
_cell_length_b 10.805431
_cell_length_c 9.893243
_cell_angle_alpha 113.338272
_cell_angle_beta 135.801737
_cell_angle_gamma 60.514931
_cell_volume 609.556566
_symmetry_space_group_name_H-M "P -1"
_symmetry_group_IT_number 2
_symmetry_cell_setting 'triclinic'
loop_
_space_group_symop_operation_xyz
x,y,z
-x,-y,-z
loop_
_atom_site_type_symbol
_atom_site_label
_atom_site_fract_x
_atom_site_fract_y
_atom_site_fract_z
Si Si1 0.157006 0.550005 0.819020
Si Si2 0.048539 0.650721 0.344454
Si Si3 0.421395 0.713558 0.942027
Si Si4 0.444621 0.763444 0.668056
Si Si5 0.112519 0.982235 0.926545
Si Si6 0.146167 0.055682 0.522299
Si Si7 0.915108 0.697910 0.972249
O O1 0.963404 0.485588 0.638742
O O2 0.233915 0.640741 0.800309
O O3 0.093532 0.642514 0.953779
O O4 0.363204 0.410063 0.924847
O O5 0.885191 0.790036 0.368740
O O6 0.272880 0.681444 0.489437
O O7 0.975564 0.631583 0.133136
O O8 0.441560 0.769658 0.831149
O O9 0.339149 0.856291 0.035268
O O10 0.689927 0.683408 0.762263
O O11 0.365346 0.922129 0.619473
O O12 0.963811 0.938336 0.695649
O O13 0.129347 0.133791 0.961596
O O14 0.000000 0.000000 0.000000
O O15 0.000000 0.000000 0.500000
#
# Coordination Sequence:
#
# PCOD9109892 Si02
#       7
#     2   2   2   2   2   2   2
#     4  11  26  43  66 103 147 183 228 276 358 417
#     4  11  22  42  69  98 144 177 231 288 332 421
#     4  11  23  44  68 101 134 190 228 270 352 422
#     4  11  23  41  72 104 130 180 243 273 345 407
#     4  12  23  45  76  99 141 182 229 298 346 403
#     4  10  20  41  68 105 131 173 240 285 335 410
#     4  12  24  43  72 105 137 183 227 296 345 399
#
# _framework density 22.967516
#
# number of rings (size 3 to 8) (size 9 to 14) (size 15 to 20)
#    0.000    0.857    8.571    0.429    2.000    2.286 
#    0.000    0.714    6.286    0.000    0.000    0.000 
#    0.000    0.000    0.000    0.000    0.000    0.000 
#
# Total GULP energy -78194.299131 kJ/mol
# GULP energy per Si atom -5585.307081 kJ/mol
# Density = 2.291524 g / cm^3
# Si number density = 22.967516 Si / 1000 Ang^3
#
#
#
# Elastic Constant Matrix: (Units=GPa)
#
#
# Indices 1 2 3 4 5 6 
#
# 1 91.7114 28.1078 19.4918 0.3113 -4.3371 -11.1183
# 2 28.1078 118.2400 16.4000 5.1959 4.8212 -12.4255
# 3 19.4918 16.4000 67.1821 1.5910 -2.7475 -11.8161
# 4 0.3113 5.1959 1.5910 37.1278 2.1073 8.1080
# 5 -4.3371 4.8212 -2.7475 2.1073 37.0390 7.2678
# 6 -11.1183 -12.4255 -11.8161 8.1080 7.2678 43.8475
#
#
#
# Elastic Compliance Matrix: (Units=1/GPa)
#
#
# Indices 1 2 3 4 5 6 
#
# 1 0.012484 -0.002484 -0.002692 -0.000049 0.001288 0.001532
# 2 -0.002484 0.009630 -0.001249 -0.001685 -0.002014 0.002408
# 3 -0.002692 -0.001249 0.016658 -0.001333 0.000448 0.003625
# 4 -0.000049 -0.001685 -0.001333 0.028573 -0.000318 -0.006080
# 5 0.001288 -0.002014 0.000448 -0.000318 0.028399 -0.004772
# 6 0.001532 0.002408 0.003625 -0.006080 -0.004772 0.026769
#
#
# Mechanical properties :
#
#
# Convention : Reuss Voigt Hill
#
# Bulk Modulus (GPa) = 38.57716 45.01474 41.79595
# Shear Modulus (GPa) = 34.72092 37.81179 36.26635
#
# Velocity S-wave (km/s) = 3.89233 4.06188 3.97801
# Velocity P-wave (km/s) = 6.08549 6.45294 6.27190
#
# Compressibility (1/GPa) = 0.02592207
#
# Stress axis : x y z
#
# Youngs Moduli (GPa) = 80.10280 103.83975 60.02952
#
# Poissons Ratio (x) = 0.25789 0.16163
# Poissons Ratio (y) = 0.19894 0.07499
# Poissons Ratio (z) = 0.21568 0.12972
#
# Static dielectric constant tensor:
#      x y z
#    x 1.803320 0.016870 0.019450 
#    y 0.016870 1.932680 0.042300 
#    z 0.019450 0.042300 1.856840 
# 
# From -- ./inp_files/190439.got.cif
#   From: 2010.05.17/outbox.cif.g08.bks.cpg/sg2_96_cif.got.tgz:190439.got - 2010.06.03 11:33:40.
