data_PCOD9109650
_publ_section_title
;
Structure prediction by ZEFSAII (Michael W. Deem and Ramdas Pophale) SiO2 
 PCOD9109650
Probable space group: P -1
;
_chemical_formula_sum "Si O2"
_cell_formula_units_Z 14
_cell_length_a 10.004772
_cell_length_b 18.340614
_cell_length_c 5.303578
_cell_angle_alpha 90.474172
_cell_angle_beta 59.521760
_cell_angle_gamma 128.463247
_cell_volume 584.706687
_symmetry_space_group_name_H-M "P -1"
_symmetry_group_IT_number 2
_symmetry_cell_setting 'triclinic'
loop_
_space_group_symop_operation_xyz
x,y,z
-x,-y,-z
loop_
_atom_site_type_symbol
_atom_site_label
_atom_site_fract_x
_atom_site_fract_y
_atom_site_fract_z
Si Si1 0.524727 0.095582 0.036822
Si Si2 0.497081 0.546518 0.254293
Si Si3 0.260483 0.585159 0.725300
Si Si4 0.087462 0.936483 0.697018
Si Si5 0.411558 0.187661 0.832916
Si Si6 0.391682 0.310769 0.200552
Si Si7 0.060541 0.832042 0.203637
O O1 0.496133 0.136023 0.820647
O O2 0.774609 0.179749 0.908302
O O3 0.326006 0.053989 0.412240
O O4 0.500000 0.000000 0.000000
O O5 0.500000 0.500000 0.500000
O O6 0.293310 0.532494 0.487241
O O7 0.500000 0.500000 0.000000
O O8 0.670629 0.666896 0.997425
O O9 0.409935 0.705923 0.500799
O O10 0.380048 0.599082 0.867152
O O11 0.000000 0.500000 0.000000
O O12 0.056863 0.883424 0.457042
O O13 0.854363 0.899503 0.980121
O O14 0.131090 0.898249 0.888484
O O15 0.408162 0.233000 0.098315
O O16 0.200198 0.271134 0.573306
#
# Coordination Sequence:
#
# PCOD9109650 Si02
#       7
#     2   2   2   2   2   2   2
#     4  10  22  42  64 103 139 179 235 293 350 416
#     4  11  23  43  72 101 134 180 236 292 360 418
#     4  11  24  45  72 102 143 189 243 296 351 430
#     4  10  20  41  66  94 132 181 222 278 346 420
#     4  10  22  42  67 100 138 190 234 287 354 426
#     4  10  22  44  66  97 141 183 237 284 357 425
#     4  10  21  40  66  95 134 174 222 286 340 412
#
# _framework density 23.943626999999999
#
# number of rings (size 3 to 8) (size 9 to 14) (size 15 to 20)
#    0.000    1.714    2.857    0.857    0.000    3.429 
#   12.857    4.286    0.000    0.000    0.000    0.000 
#    0.000    0.000    0.000    0.000    0.000    0.000 
#
# Total GULP energy -77953.277292 kJ/mol
# GULP energy per Si atom -5568.091235 kJ/mol
# Density = 2.388913 g / cm^3
# Si number density = 23.943627 Si / 1000 Ang^3
#
#
#
# Elastic Constant Matrix: (Units=GPa)
#
#
# Indices 1 2 3 4 5 6 
#
# 1 153.1675 46.3768 60.5851 -19.2754 24.2828 -3.2508
# 2 46.3768 70.5743 29.2895 1.1293 10.8923 -6.4308
# 3 60.5851 29.2895 138.6498 -18.1377 27.4447 2.7982
# 4 -19.2754 1.1293 -18.1377 35.1496 7.8018 5.4128
# 5 24.2828 10.8923 27.4447 7.8018 46.0471 -13.9248
# 6 -3.2508 -6.4308 2.7982 5.4128 -13.9248 45.7966
#
#
#
# Elastic Compliance Matrix: (Units=1/GPa)
#
#
# Indices 1 2 3 4 5 6 
#
# 1 0.010452 -0.005816 -0.001395 0.006703 -0.005151 -0.002348
# 2 -0.005816 0.019304 -0.002997 -0.006563 0.002625 0.004055
# 3 -0.001395 -0.002997 0.011048 0.007432 -0.007738 -0.004426
# 4 0.006703 -0.006563 0.007432 0.041570 -0.016754 -0.010907
# 5 -0.005151 0.002625 -0.007738 -0.016754 0.035246 0.013173
# 6 -0.002348 0.004055 -0.004426 -0.010907 0.013173 0.027803
#
#
# Mechanical properties :
#
#
# Convention : Reuss Voigt Hill
#
# Bulk Modulus (GPa) = 49.04337 70.54382 59.79359
# Shear Modulus (GPa) = 28.96309 40.47466 34.71888
#
# Velocity S-wave (km/s) = 3.48176 4.11593 3.81205
# Velocity P-wave (km/s) = 6.05729 7.21902 6.66352
#
# Compressibility (1/GPa) = 0.02039012
#
# Stress axis : x y z
#
# Youngs Moduli (GPa) = 95.67862 51.80231 90.51384
#
# Poissons Ratio (x) = 0.30126 0.12623
# Poissons Ratio (y) = 0.55643 0.27123
# Poissons Ratio (z) = 0.13344 0.15523
#
# Static dielectric constant tensor:
#      x y z
#    x 1.954970 0.063000 -0.053250 
#    y 0.063000 2.137210 -0.042450 
#    z -0.053250 -0.042450 2.051500 
# 
# From -- ./inp_files/51128.got.cif
#   From: 2010.05.17/outbox.cif.g08.bks.cpg/sg2_26_cif.got.tgz:51128.got - 2010.06.03 11:33:40.
