data_PCOD9109664
_publ_section_title
;
Structure prediction by ZEFSAII (Michael W. Deem and Ramdas Pophale) SiO2 
 PCOD9109664
Probable space group: P -1
;
_chemical_formula_sum "Si O2"
_cell_formula_units_Z 16
_cell_length_a 9.526631
_cell_length_b 18.586207
_cell_length_c 7.856658
_cell_angle_alpha 60.324747
_cell_angle_beta 102.081338
_cell_angle_gamma 145.327548
_cell_volume 630.098621
_symmetry_space_group_name_H-M "P -1"
_symmetry_group_IT_number 2
_symmetry_cell_setting 'triclinic'
loop_
_space_group_symop_operation_xyz
x,y,z
-x,-y,-z
loop_
_atom_site_type_symbol
_atom_site_label
_atom_site_fract_x
_atom_site_fract_y
_atom_site_fract_z
Si Si1 0.809497 0.785398 0.119451
Si Si2 0.678364 0.871919 0.190570
Si Si3 0.053456 0.709284 0.959002
Si Si4 0.547588 0.867476 0.776187
Si Si5 0.197498 0.366267 0.507143
Si Si6 0.556644 0.361193 0.103080
Si Si7 0.072949 0.196769 0.352904
Si Si8 0.878062 0.350755 0.599823
O O1 0.703560 0.786815 0.254631
O O2 0.947714 0.771298 0.243502
O O3 0.560711 0.655421 0.080648
O O4 0.032660 0.951923 0.890852
O O5 0.436969 0.783870 0.351706
O O6 0.624097 0.881304 0.974520
O O7 0.322758 0.828125 0.777901
O O8 0.981857 0.770679 0.861087
O O9 0.104007 0.696918 0.171782
O O10 0.815049 0.535373 0.029684
O O11 0.409809 0.718527 0.837145
O O12 0.809433 0.022625 0.557955
O O13 0.500000 0.500000 0.500000
O O14 0.166468 0.310371 0.381670
O O15 0.052410 0.383757 0.470746
O O16 0.317458 0.256090 0.301311
O O17 0.000000 0.500000 0.500000
#
# Coordination Sequence:
#
# PCOD9109664 Si02
#       8
#     2   2   2   2   2   2   2   2
#     4  10  20  41  66  95 131 175 217 268 327 383
#     4   9  20  41  68  94 132 171 222 273 320 391
#     4  11  24  45  67  95 137 171 221 280 335 398
#     4  10  22  43  67  99 135 176 221 272 333 395
#     4  12  24  40  67  98 134 174 221 274 328 396
#     4  11  23  41  69  97 134 182 222 268 330 398
#     4  12  24  43  64 103 136 174 222 272 335 396
#     4  11  25  46  68  98 126 172 228 274 332 400
#
# _framework density 25.392851
#
# number of rings (size 3 to 8) (size 9 to 14) (size 15 to 20)
#    0.000    1.250    1.250    4.500    0.000    3.500 
#    6.750    0.000    0.000    0.000    0.000    0.000 
#    0.000    0.000    0.000    0.000    0.000    0.000 
#
# Total GULP energy -89637.223591 kJ/mol
# GULP energy per Si atom -5602.326474 kJ/mol
# Density = 2.533506 g / cm^3
# Si number density = 25.392851 Si / 1000 Ang^3
#
#
#
# Elastic Constant Matrix: (Units=GPa)
#
#
# Indices 1 2 3 4 5 6 
#
# 1 146.0572 16.3441 4.9803 -4.6885 -11.4963 -1.9217
# 2 16.3441 52.5532 -2.6497 -6.8018 -14.1697 6.4267
# 3 4.9803 -2.6497 63.5280 0.5044 -5.3984 3.7851
# 4 -4.6885 -6.8018 0.5044 36.3393 5.3695 -5.0093
# 5 -11.4963 -14.1697 -5.3984 5.3695 46.9599 -8.0663
# 6 -1.9217 6.4267 3.7851 -5.0093 -8.0663 35.8116
#
#
#
# Elastic Compliance Matrix: (Units=1/GPa)
#
#
# Indices 1 2 3 4 5 6 
#
# 1 0.007223 -0.002020 -0.000620 0.000542 0.001226 0.001168
# 2 -0.002020 0.021898 0.001678 0.002636 0.005559 -0.002595
# 3 -0.000620 0.001678 0.016131 -0.000512 0.001981 -0.001665
# 4 0.000542 0.002636 -0.000512 0.028809 -0.001872 0.003218
# 5 0.001226 0.005559 0.001981 -0.001872 0.024418 0.004097
# 6 0.001168 -0.002595 -0.001665 0.003218 0.004097 0.030001
#
#
# Mechanical properties :
#
#
# Convention : Reuss Voigt Hill
#
# Bulk Modulus (GPa) = 23.07945 33.27641 28.17793
# Shear Modulus (GPa) = 34.51898 40.05308 37.28603
#
# Velocity S-wave (km/s) = 3.69100 3.97588 3.83609
# Velocity P-wave (km/s) = 5.22239 5.84892 5.54451
#
# Compressibility (1/GPa) = 0.04332859
#
# Stress axis : x y z
#
# Youngs Moduli (GPa) = 138.44536 45.66556 61.99119
#
# Poissons Ratio (x) = 0.09223 0.03845
# Poissons Ratio (y) = 0.27961 -0.10401
# Poissons Ratio (z) = 0.08586 -0.07662
#
# Static dielectric constant tensor:
#      x y z
#    x 1.981290 -0.015560 0.001830 
#    y -0.015560 2.005470 0.007510 
#    z 0.001830 0.007510 2.115250 
# 
# From -- ./inp_files/217114.got.cif
#   From: 2010.05.17/outbox.cif.g08.bks.cpg/sg2_109_cif.got.tgz:217114.got - 2010.06.03 11:33:40.
