data_PCOD9109474
_publ_section_title
;
Structure prediction by ZEFSAII (Michael W. Deem and Ramdas Pophale) SiO2 
 PCOD9109474
Probable space group: P -1
;
_chemical_formula_sum "Si O2"
_cell_formula_units_Z 14
_cell_length_a 8.439220
_cell_length_b 10.642270
_cell_length_c 7.775370
_cell_angle_alpha 65.352800
_cell_angle_beta 95.580939
_cell_angle_gamma 87.840412
_cell_volume 629.326804
_symmetry_space_group_name_H-M "P -1"
_symmetry_group_IT_number 2
_symmetry_cell_setting 'triclinic'
loop_
_space_group_symop_operation_xyz
x,y,z
-x,-y,-z
loop_
_atom_site_type_symbol
_atom_site_label
_atom_site_fract_x
_atom_site_fract_y
_atom_site_fract_z
Si Si1 0.050520 0.308690 0.243659
Si Si2 0.233914 0.693278 0.548808
Si Si3 0.577570 0.050240 0.655456
Si Si4 0.784592 0.473714 0.667424
Si Si5 0.233243 0.208126 0.993291
Si Si6 0.743057 0.781907 0.377772
Si Si7 0.530094 0.551344 0.165267
O O1 0.104300 0.461298 0.214327
O O2 0.099489 0.263020 0.084720
O O3 0.154778 0.203431 0.446029
O O4 0.871493 0.305502 0.291612
O O5 0.293921 0.840764 0.432178
O O6 0.142643 0.629104 0.413789
O O7 0.385863 0.583555 0.654607
O O8 0.427193 0.131413 0.688187
O O9 0.500000 0.000000 0.500000
O O10 0.663402 0.923503 0.841901
O O11 0.722970 0.617334 0.482418
O O12 0.637295 0.408714 0.780031
O O13 0.172210 0.181436 0.810521
O O14 0.354342 0.327152 0.911666
O O15 0.500000 0.500000 0.000000
#
# Coordination Sequence:
#
# PCOD9109474 Si02
#       7
#     2   2   2   2   2   2   2
#     4  10  23  43  63  98 136 166 202 270 324 387
#     4  12  23  40  70  91 127 179 207 255 340 372
#     4  12  23  44  67  94 126 176 217 266 312 380
#     4  10  20  41  65  94 130 160 213 268 318 370
#     4  12  23  40  68  94 132 166 218 264 317 372
#     4  10  21  43  67  92 129 164 214 267 316 368
#     4  12  20  39  64  95 121 164 218 266 302 375
#
# _framework density 22.245992999999999
#
# number of rings (size 3 to 8) (size 9 to 14) (size 15 to 20)
#    0.857    0.000    5.714    3.000    0.000    1.143 
#    2.571    0.714    0.000    0.000    0.000    0.000 
#    0.000    0.000    0.000    0.000    0.000    0.000 
#
# Total GULP energy -78235.998239 kJ/mol
# GULP energy per Si atom -5588.285589 kJ/mol
# Density = 2.219536 g / cm^3
# Si number density = 22.245993 Si / 1000 Ang^3
#
#
#
# Elastic Constant Matrix: (Units=GPa)
#
#
# Indices 1 2 3 4 5 6 
#
# 1 53.2185 12.3330 21.0040 -0.2000 -10.9791 -16.6632
# 2 12.3330 73.2623 34.9635 1.0887 -13.0225 -14.9594
# 3 21.0040 34.9635 100.7437 9.5542 -21.9711 -16.7829
# 4 -0.2000 1.0887 9.5542 47.2749 -11.3264 -3.8492
# 5 -10.9791 -13.0225 -21.9711 -11.3264 27.8901 -2.3505
# 6 -16.6632 -14.9594 -16.7829 -3.8492 -2.3505 19.0628
#
#
#
# Elastic Compliance Matrix: (Units=1/GPa)
#
#
# Indices 1 2 3 4 5 6 
#
# 1 0.035213 0.006131 0.002468 0.009233 0.026029 0.042839
# 2 0.006131 0.020729 -0.002011 0.005297 0.014574 0.022722
# 3 0.002468 -0.002011 0.015951 0.001725 0.014714 0.016785
# 4 0.009233 0.005297 0.001725 0.027390 0.020427 0.021796
# 5 0.026029 0.014574 0.014714 0.020427 0.077924 0.060877
# 6 0.042839 0.022722 0.016785 0.021796 0.060877 0.134422
#
#
# Mechanical properties :
#
#
# Convention : Reuss Voigt Hill
#
# Bulk Modulus (GPa) = 11.75503 40.42507 26.09005
# Shear Modulus (GPa) = 15.29948 29.44047 22.36998
#
# Velocity S-wave (km/s) = 2.62533 3.64181 3.17452
# Velocity P-wave (km/s) = 3.80597 5.99124 5.01898
#
# Compressibility (1/GPa) = 0.08506997
#
# Stress axis : x y z
#
# Youngs Moduli (GPa) = 28.39834 48.24237 62.69177
#
# Poissons Ratio (x) = -0.29578 -0.15473
# Poissons Ratio (y) = -0.17411 0.12606
# Poissons Ratio (z) = -0.07009 0.09700
#
# Static dielectric constant tensor:
#      x y z
#    x 1.846990 0.008790 0.055460 
#    y 0.008790 1.830600 0.058180 
#    z 0.055460 0.058180 1.833790 
# 
# From -- ./inp_files/167608.got.cif
#   From: 2010.05.17/outbox.cif.g08.bks.cpg/sg2_84_cif.got.tgz:167608.got - 2010.06.03 11:33:40.
