data_PCOD9109155
_publ_section_title
;
Structure prediction by ZEFSAII (Michael W. Deem and Ramdas Pophale) SiO2 
 PCOD9109155
Probable space group: P -1
;
_chemical_formula_sum "Si O2"
_cell_formula_units_Z 16
_cell_length_a 13.280659
_cell_length_b 5.585406
_cell_length_c 13.814686
_cell_angle_alpha 108.837093
_cell_angle_beta 75.609318
_cell_angle_gamma 61.780866
_cell_volume 749.193072
_symmetry_space_group_name_H-M "P -1"
_symmetry_group_IT_number 2
_symmetry_cell_setting 'triclinic'
loop_
_space_group_symop_operation_xyz
x,y,z
-x,-y,-z
loop_
_atom_site_type_symbol
_atom_site_label
_atom_site_fract_x
_atom_site_fract_y
_atom_site_fract_z
Si Si1 0.649653 0.575566 0.235788
Si Si2 0.304586 0.284206 0.156790
Si Si3 0.433885 0.344600 0.950753
Si Si4 0.109591 0.139550 0.715769
Si Si5 0.049309 0.959288 0.876026
Si Si6 0.404063 0.763018 0.634757
Si Si7 0.940191 0.042471 0.624401
Si Si8 0.102621 0.186383 0.227529
O O1 0.631777 0.528088 0.121324
O O2 0.803481 0.372842 0.201751
O O3 0.595336 0.424302 0.295611
O O4 0.583588 0.951260 0.313837
O O5 0.193313 0.602000 0.282481
O O6 0.230740 0.125000 0.145725
O O7 0.443671 0.029714 0.139310
O O8 0.339052 0.365268 0.057536
O O9 0.500000 0.500000 0.000000
O O10 0.059044 0.956132 0.654655
O O11 0.022226 0.465323 0.723835
O O12 0.073121 0.189141 0.845022
O O13 0.260844 0.947623 0.647079
O O14 0.931483 0.014964 0.848765
O O15 0.000000 0.000000 0.000000
O O16 0.500000 0.500000 0.500000
O O17 0.895998 0.847313 0.661151
O O18 0.000000 0.000000 0.500000
#
# Coordination Sequence:
#
# PCOD9109155 Si02
#       8
#     2   2   2   2   2   2   2   2
#     4  11  26  44  71 106 135 185 242 277 364 421
#     4  10  24  41  66  92 135 179 228 282 356 400
#     4  11  26  45  65  97 146 185 232 292 340 433
#     4   9  21  39  59  96 129 168 219 281 342 405
#     4  10  22  36  64  97 133 172 214 285 345 417
#     4  11  24  48  70 101 140 183 235 297 346 416
#     4  10  22  41  65  96 131 175 228 288 353 420
#     4  10  20  41  63  91 133 163 227 279 351 400
#
# _framework density 21.356311000000002
#
# number of rings (size 3 to 8) (size 9 to 14) (size 15 to 20)
#    0.000    1.750    1.250    1.125   10.500    4.500 
#    4.500    0.000    0.000    0.000    0.000    0.000 
#    0.000    0.000    0.000    0.000    0.000    0.000 
#
# Total GULP energy -89092.923108 kJ/mol
# GULP energy per Si atom -5568.307694 kJ/mol
# Density = 2.130770 g / cm^3
# Si number density = 21.356311 Si / 1000 Ang^3
#
#
#
# Elastic Constant Matrix: (Units=GPa)
#
#
# Indices 1 2 3 4 5 6 
#
# 1 69.2618 25.3575 33.6212 -10.2880 -13.5535 -4.3311
# 2 25.3575 121.9521 57.5207 -7.9314 -14.2949 -1.5706
# 3 33.6212 57.5207 143.8621 -18.3213 -24.8248 -6.8459
# 4 -10.2880 -7.9314 -18.3213 36.4785 -3.7432 -2.2184
# 5 -13.5535 -14.2949 -24.8248 -3.7432 27.6023 0.4278
# 6 -4.3311 -1.5706 -6.8459 -2.2184 0.4278 30.6265
#
#
#
# Elastic Compliance Matrix: (Units=1/GPa)
#
#
# Indices 1 2 3 4 5 6 
#
# 1 0.018132 -0.001864 -0.001525 0.004824 0.007183 0.002377
# 2 -0.001864 0.010396 -0.003506 0.000079 0.001334 -0.000527
# 3 -0.001525 -0.003506 0.010834 0.005194 0.007848 0.002293
# 4 0.004824 0.000079 0.005194 0.032824 0.011469 0.004065
# 5 0.007183 0.001334 0.007848 0.011469 0.049015 0.002985
# 6 0.002377 -0.000527 0.002293 0.004065 0.002985 0.033726
#
#
# Mechanical properties :
#
#
# Convention : Reuss Voigt Hill
#
# Bulk Modulus (GPa) = 39.10629 63.11941 51.11285
# Shear Modulus (GPa) = 28.21037 33.51323 30.86180
#
# Velocity S-wave (km/s) = 3.63841 3.96566 3.80556
# Velocity P-wave (km/s) = 6.00015 7.11254 6.57990
#
# Compressibility (1/GPa) = 0.02557133
#
# Stress axis : x y z
#
# Youngs Moduli (GPa) = 55.15209 96.19211 92.30167
#
# Poissons Ratio (x) = 0.17935 0.14076
# Poissons Ratio (y) = 0.10283 0.32358
# Poissons Ratio (z) = 0.08410 0.33722
#
# Static dielectric constant tensor:
#      x y z
#    x -5.480190 -3.881170 -6.409640 
#    y -3.881170 -0.303830 -3.517590 
#    z -6.409640 -3.517590 -3.746070 
# 
# From -- ./inp_files/370347.got.cif
#   From: 2010.05.17/outbox.cif.g08.bks.cpg/sg2_186_cif.got.tgz:370347.got - 2010.06.03 11:33:40.
