data_PCOD9109030
_publ_section_title
;
Structure prediction by ZEFSAII (Michael W. Deem and Ramdas Pophale) SiO2 
 PCOD9109030
Probable space group: P -1
;
_chemical_formula_sum "Si O2"
_cell_formula_units_Z 15
_cell_length_a 12.711182
_cell_length_b 4.982770
_cell_length_c 10.114857
_cell_angle_alpha 84.841721
_cell_angle_beta 117.483659
_cell_angle_gamma 104.768359
_cell_volume 549.279348
_symmetry_space_group_name_H-M "P -1"
_symmetry_group_IT_number 2
_symmetry_cell_setting 'triclinic'
loop_
_space_group_symop_operation_xyz
x,y,z
-x,-y,-z
loop_
_atom_site_type_symbol
_atom_site_label
_atom_site_fract_x
_atom_site_fract_y
_atom_site_fract_z
Si Si1 0.843318 0.318710 0.524576
Si Si2 0.000000 0.000000 0.000000
Si Si3 0.672506 0.542875 0.541474
Si Si4 0.857407 0.397528 0.053266
Si Si5 0.918384 0.721408 0.328075
Si Si6 0.428347 0.175887 0.313168
Si Si7 0.423948 0.703837 0.130951
Si Si8 0.308181 0.100000 0.730980
O O1 0.784029 0.397568 0.618989
O O2 0.908743 0.598441 0.474892
O O3 0.938269 0.128253 0.610964
O O4 0.739871 0.186449 0.362605
O O5 0.095774 0.309293 0.010027
O O6 0.909545 0.162546 0.022401
O O7 0.551207 0.297596 0.463029
O O8 0.671456 0.762423 0.645674
O O9 0.678683 0.697450 0.398029
O O10 0.910164 0.483018 0.225554
O O11 0.710948 0.309067 0.998620
O O12 0.802360 0.853071 0.244793
O O13 0.426909 0.390581 0.183469
O O14 0.425380 0.884838 0.257929
O O15 0.555560 0.838184 0.134319
#
# Coordination Sequence:
#
# PCOD9109030 Si02
#       8
#     2   1   2   2   2   2   2   2
#     4  10  20  41  61  95 128 173 218 280 317 394
#     4  10  26  50  70  94 136 164 232 260 324 382
#     4   9  20  34  60  92 131 169 220 260 337 376
#     4  11  25  49  70  99 127 180 212 278 319 403
#     4  10  24  40  66  91 130 173 228 260 338 380
#     4  10  21  37  61  96 132 177 208 271 321 399
#     4  11  23  40  67  95 138 167 221 267 333 375
#     4  10  21  39  61  96 131 166 213 282 317 397
#
# _framework density 27.308509999999998
#
# number of rings (size 3 to 8) (size 9 to 14) (size 15 to 20)
#    0.000    1.867    1.333    1.200    3.733    5.333 
#    2.400    0.667    0.000    0.000    0.000    0.000 
#    0.000    0.000    0.000    0.000    0.000    0.000 
#
# Total GULP energy -83592.138336 kJ/mol
# GULP energy per Si atom -5572.809222 kJ/mol
# Density = 2.724635 g / cm^3
# Si number density = 27.308510 Si / 1000 Ang^3
#
#
#
# Elastic Constant Matrix: (Units=GPa)
#
#
# Indices 1 2 3 4 5 6 
#
# 1 196.2981 40.8651 25.4096 -1.8700 16.8936 -33.7859
# 2 40.8651 111.7571 26.2011 28.2050 -8.5049 -24.4499
# 3 25.4096 26.2011 69.4089 1.3637 16.4923 -12.3719
# 4 -1.8700 28.2050 1.3637 29.5500 -11.9411 -4.9511
# 5 16.8936 -8.5049 16.4923 -11.9411 31.7485 4.0937
# 6 -33.7859 -24.4499 -12.3719 -4.9511 4.0937 37.1105
#
#
#
# Elastic Compliance Matrix: (Units=1/GPa)
#
#
# Indices 1 2 3 4 5 6 
#
# 1 0.006870 -0.002070 0.000335 0.001512 -0.004551 0.005706
# 2 -0.002070 0.015129 -0.004336 -0.012776 0.001994 0.004713
# 3 0.000335 -0.004336 0.019932 -0.001022 -0.012770 0.005366
# 4 0.001512 -0.012776 -0.001022 0.052395 0.016292 -0.002188
# 5 -0.004551 0.001994 -0.012770 0.016292 0.048539 -0.010268
# 6 0.005706 0.004713 0.005366 -0.002188 -0.010268 0.037876
#
#
# Mechanical properties :
#
#
# Convention : Reuss Voigt Hill
#
# Bulk Modulus (GPa) = 33.56887 62.49064 48.02976
# Shear Modulus (GPa) = 24.65332 38.68102 31.66717
#
# Velocity S-wave (km/s) = 3.00787 3.76765 3.40900
# Velocity P-wave (km/s) = 4.93784 6.46992 5.75509
#
# Compressibility (1/GPa) = 0.02978950
#
# Stress axis : x y z
#
# Youngs Moduli (GPa) = 145.55736 66.10022 50.17006
#
# Poissons Ratio (x) = 0.13685 -0.01683
# Poissons Ratio (y) = 0.30136 0.21752
# Poissons Ratio (z) = -0.04882 0.28659
#
# Static dielectric constant tensor:
#      x y z
#    x 2.280100 0.028870 0.084970 
#    y 0.028870 2.161350 -0.076240 
#    z 0.084970 -0.076240 2.153380 
# 
# From -- ./inp_files/411136.got.cif
#   From: 2010.05.17/outbox.cif.g08.bks.cpg/sg2_206_cif.got.tgz:411136.got - 2010.06.03 11:33:40.
