data_PCOD9109600
_publ_section_title
;
Structure prediction by ZEFSAII (Michael W. Deem and Ramdas Pophale) SiO2 
 PCOD9109600
Probable space group: P -1
;
_chemical_formula_sum "Si O2"
_cell_formula_units_Z 16
_cell_length_a 9.066710
_cell_length_b 14.833112
_cell_length_c 14.324999
_cell_angle_alpha 130.813765
_cell_angle_beta 49.843921
_cell_angle_gamma 148.653228
_cell_volume 739.906623
_symmetry_space_group_name_H-M "P -1"
_symmetry_group_IT_number 2
_symmetry_cell_setting 'triclinic'
loop_
_space_group_symop_operation_xyz
x,y,z
-x,-y,-z
loop_
_atom_site_type_symbol
_atom_site_label
_atom_site_fract_x
_atom_site_fract_y
_atom_site_fract_z
Si Si1 0.477537 0.315714 0.143410
Si Si2 0.317584 0.033243 0.583380
Si Si3 0.377215 0.315694 0.395786
Si Si4 0.093094 0.294169 0.804794
Si Si5 0.459269 0.027662 0.928688
Si Si6 0.844523 0.690602 0.873184
Si Si7 0.322390 0.194172 0.520953
Si Si8 0.606419 0.704949 0.156871
O O1 0.489329 0.328022 0.258338
O O2 0.772294 0.512479 0.117845
O O3 0.228251 0.287217 0.182807
O O4 0.428601 0.156700 0.029862
O O5 0.440015 0.162932 0.531824
O O6 0.356226 0.141117 0.727521
O O7 0.500000 0.000000 0.500000
O O8 0.975691 0.849497 0.580788
O O9 0.500000 0.500000 0.500000
O O10 0.470774 0.273304 0.414172
O O11 0.270023 0.299839 0.659888
O O12 0.159423 0.258296 0.850654
O O13 0.750660 0.133237 0.823617
O O14 0.176220 0.844083 0.871312
O O15 0.500000 0.000000 0.000000
O O16 0.693804 0.493658 0.820648
O O17 0.674339 0.701601 0.021316
O O18 0.000000 0.000000 0.500000
#
# Coordination Sequence:
#
# PCOD9109600 Si02
#       8
#     2   2   2   2   2   2   2   2
#     4  11  24  42  64  91 137 171 213 264 328 400
#     4  10  22  43  66 100 130 169 219 275 327 387
#     4  11  22  44  67  94 126 177 226 261 322 391
#     4  10  20  41  66  91 128 167 212 266 323 387
#     4  12  24  39  63 104 129 161 216 276 324 386
#     4  10  21  42  64  98 126 177 211 260 336 391
#     4   9  20  40  66  88 125 175 211 260 325 378
#     4   9  19  41  69  87 135 173 209 261 333 399
#
# _framework density 21.624348999999999
#
# number of rings (size 3 to 8) (size 9 to 14) (size 15 to 20)
#    0.000    1.750    2.500    1.500    3.500    0.000 
#   11.250    0.625    0.000    0.000    0.000    0.000 
#    0.000    0.000    0.000    0.000    0.000    0.000 
#
# Total GULP energy -89392.319796 kJ/mol
# GULP energy per Si atom -5587.019987 kJ/mol
# Density = 2.157513 g / cm^3
# Si number density = 21.624349 Si / 1000 Ang^3
#
#
#
# Elastic Constant Matrix: (Units=GPa)
#
#
# Indices 1 2 3 4 5 6 
#
# 1 49.8820 31.5788 19.6793 -6.4943 -1.4701 2.3997
# 2 31.5788 113.4918 20.5862 23.8923 -20.2094 18.8535
# 3 19.6793 20.5862 64.6301 14.9338 6.3232 -1.0360
# 4 -6.4943 23.8923 14.9338 35.6316 -5.4497 5.6378
# 5 -1.4701 -20.2094 6.3232 -5.4497 31.0716 0.2874
# 6 2.3997 18.8535 -1.0360 5.6378 0.2874 30.9847
#
#
#
# Elastic Compliance Matrix: (Units=1/GPa)
#
#
# Indices 1 2 3 4 5 6 
#
# 1 0.033952 -0.011536 -0.010826 0.018273 -0.000495 0.000708
# 2 -0.011536 0.017280 -0.000473 -0.010898 0.008950 -0.007737
# 3 -0.010826 -0.000473 0.022773 -0.013078 -0.007788 0.004340
# 4 0.018273 -0.010898 -0.013078 0.045421 0.004437 -0.003527
# 5 -0.000495 0.008950 -0.007788 0.004437 0.040408 -0.006850
# 6 0.000708 -0.007737 0.004340 -0.003527 -0.006850 0.037777
#
#
# Mechanical properties :
#
#
# Convention : Reuss Voigt Hill
#
# Bulk Modulus (GPa) = 35.29151 41.29917 38.29534
# Shear Modulus (GPa) = 19.78427 29.94823 24.86625
#
# Velocity S-wave (km/s) = 3.02802 3.72550 3.39472
# Velocity P-wave (km/s) = 5.34611 6.13561 5.75442
#
# Compressibility (1/GPa) = 0.02833543
#
# Stress axis : x y z
#
# Youngs Moduli (GPa) = 29.45358 57.87022 43.91115
#
# Poissons Ratio (x) = 0.66758 0.47538
# Poissons Ratio (y) = 0.33977 0.02077
# Poissons Ratio (z) = 0.31887 0.02737
#
# Static dielectric constant tensor:
#      x y z
#    x 1.779920 -0.024340 0.040110 
#    y -0.024340 1.813550 0.008230 
#    z 0.040110 0.008230 1.946300 
# 
# From -- ./inp_files/317723.got.cif
#   From: 2010.05.17/outbox.cif.g08.bks.cpg/sg2_159_cif.got.tgz:317723.got - 2010.06.03 11:33:40.
