data_PCOD9109061
_publ_section_title
;
Structure prediction by ZEFSAII (Michael W. Deem and Ramdas Pophale) SiO2 
 PCOD9109061
Probable space group: P -1
;
_chemical_formula_sum "Si O2"
_cell_formula_units_Z 16
_cell_length_a 6.336516
_cell_length_b 8.663564
_cell_length_c 25.649961
_cell_angle_alpha 45.215536
_cell_angle_beta 97.311156
_cell_angle_gamma 124.247015
_cell_volume 734.057906
_symmetry_space_group_name_H-M "P -1"
_symmetry_group_IT_number 2
_symmetry_cell_setting 'triclinic'
loop_
_space_group_symop_operation_xyz
x,y,z
-x,-y,-z
loop_
_atom_site_type_symbol
_atom_site_label
_atom_site_fract_x
_atom_site_fract_y
_atom_site_fract_z
Si Si1 0.614166 0.920071 0.888582
Si Si2 0.919248 0.734523 0.315326
Si Si3 0.760119 0.269321 0.979893
Si Si4 0.823137 0.843467 0.104461
Si Si5 0.521171 0.337066 0.758583
Si Si6 0.992877 0.701203 0.608749
Si Si7 0.324439 0.341355 0.144459
Si Si8 0.438722 0.376067 0.469075
O O1 0.656573 0.759461 0.886815
O O2 0.555035 0.101528 0.813211
O O3 0.368531 0.739185 0.967126
O O4 0.915283 0.131102 0.878732
O O5 0.723380 0.733755 0.268872
O O6 0.965406 0.526048 0.343911
O O7 0.738784 0.590724 0.396564
O O8 0.202651 0.077764 0.243202
O O9 0.861996 0.562784 0.886591
O O10 0.500000 0.000000 0.000000
O O11 0.929682 0.164070 0.021931
O O12 0.587057 0.690410 0.179984
O O13 0.642573 0.632012 0.101012
O O14 0.815846 0.628812 0.673609
O O15 0.793953 0.643853 0.567423
O O16 0.291074 0.036627 0.542057
O O17 0.500000 0.500000 0.500000
#
# Coordination Sequence:
#
# PCOD9109061 Si02
#       8
#     2   2   2   2   2   2   2   2
#     4  11  21  43  61  89 125 164 211 254 305 360
#     4  11  22  43  64  92 130 158 202 255 306 365
#     4   9  22  41  59  90 125 164 212 254 305 360
#     4  10  22  40  61  88 125 167 205 259 305 355
#     4  10  20  41  62  89 128 160 203 253 308 356
#     4  10  21  43  64  89 127 160 197 251 303 366
#     4  11  22  40  61  94 121 162 210 254 307 363
#     4  10  24  42  66  95 121 161 201 245 306 371
#
# _framework density 21.796648000000001
#
# number of rings (size 3 to 8) (size 9 to 14) (size 15 to 20)
#    0.000    1.750    2.500    0.750    1.750    3.000 
#   13.500    0.000    0.000    0.000    0.000    0.000 
#    0.000    0.000    0.000    0.000    0.000    0.000 
#
# Total GULP energy -89355.143463 kJ/mol
# GULP energy per Si atom -5584.696466 kJ/mol
# Density = 2.174704 g / cm^3
# Si number density = 21.796648 Si / 1000 Ang^3
#
#
#
# Elastic Constant Matrix: (Units=GPa)
#
#
# Indices 1 2 3 4 5 6 
#
# 1 83.5460 18.0876 48.8976 -9.0215 8.1958 -0.4450
# 2 18.0876 71.1649 39.8837 -8.0433 -9.4451 -0.2822
# 3 48.8976 39.8837 122.2503 -13.4837 1.2676 -17.3055
# 4 -9.0215 -8.0433 -13.4837 36.7464 -11.8814 0.2711
# 5 8.1958 -9.4451 1.2676 -11.8814 46.5227 8.6833
# 6 -0.4450 -0.2822 -17.3055 0.2711 8.6833 21.7465
#
#
#
# Elastic Compliance Matrix: (Units=1/GPa)
#
#
# Indices 1 2 3 4 5 6 
#
# 1 0.016353 -0.000422 -0.006930 0.000858 -0.001717 -0.004510
# 2 -0.000422 0.019307 -0.006906 0.003792 0.006635 -0.007950
# 3 -0.006930 -0.006906 0.015217 0.001421 -0.002644 0.012916
# 4 0.000858 0.003792 0.001421 0.031783 0.009236 -0.002887
# 5 -0.001717 0.006635 -0.002644 0.009236 0.028072 -0.013377
# 6 -0.004510 -0.007950 0.012916 -0.002887 -0.013377 0.061445
#
#
# Mechanical properties :
#
#
# Convention : Reuss Voigt Hill
#
# Bulk Modulus (GPa) = 44.71644 54.52212 49.61928
# Shear Modulus (GPa) = 24.02148 32.34259 28.18204
#
# Velocity S-wave (km/s) = 3.32335 3.85623 3.59967
# Velocity P-wave (km/s) = 5.94020 6.70042 6.33173
#
# Compressibility (1/GPa) = 0.02236314
#
# Stress axis : x y z
#
# Youngs Moduli (GPa) = 61.14905 51.79414 65.71504
#
# Poissons Ratio (x) = 0.02184 0.45537
# Poissons Ratio (y) = 0.02578 0.45384
# Poissons Ratio (z) = 0.42373 0.35770
#
# Static dielectric constant tensor:
#      x y z
#    x 1.791920 0.016600 -0.014650 
#    y 0.016600 1.777760 0.000830 
#    z -0.014650 0.000830 1.861200 
# 
# From -- ./inp_files/117370.got.cif
#   From: 2010.05.17/outbox.cif.g08.bks.cpg/sg2_59_cif.got.tgz:117370.got - 2010.06.03 11:33:40.
