data_PCOD9109296
_publ_section_title
;
Structure prediction by ZEFSAII (Michael W. Deem and Ramdas Pophale) SiO2 
 PCOD9109296
Probable space group: P -1
;
_chemical_formula_sum "Si O2"
_cell_formula_units_Z 16
_cell_length_a 9.475023
_cell_length_b 9.338444
_cell_length_c 9.610027
_cell_angle_alpha 96.470173
_cell_angle_beta 101.280306
_cell_angle_gamma 126.559846
_cell_volume 640.826650
_symmetry_space_group_name_H-M "P -1"
_symmetry_group_IT_number 2
_symmetry_cell_setting 'triclinic'
loop_
_space_group_symop_operation_xyz
x,y,z
-x,-y,-z
loop_
_atom_site_type_symbol
_atom_site_label
_atom_site_fract_x
_atom_site_fract_y
_atom_site_fract_z
Si Si1 0.481430 0.842268 0.888883
Si Si2 0.657226 0.400920 0.657451
Si Si3 0.242709 0.176008 0.921270
Si Si4 0.243423 0.815816 0.194694
Si Si5 0.734735 0.747613 0.391538
Si Si6 0.103519 0.852147 0.456161
Si Si7 0.972938 0.747494 0.915721
Si Si8 0.785977 0.335880 0.404386
O O1 0.283172 0.683182 0.766201
O O2 0.614757 0.967373 0.797825
O O3 0.561156 0.757271 0.976839
O O4 0.500000 0.000000 0.000000
O O5 0.650683 0.263403 0.751706
O O6 0.482872 0.397267 0.634898
O O7 0.849677 0.598259 0.757107
O O8 0.666594 0.339455 0.499663
O O9 0.247674 0.211943 0.764653
O O10 0.165147 0.259887 0.004157
O O11 0.104159 0.954200 0.899870
O O12 0.132536 0.793613 0.308144
O O13 0.101613 0.721111 0.027156
O O14 0.887021 0.721073 0.443358
O O15 0.815658 0.936176 0.511018
O O16 0.226717 0.843598 0.589230
O O17 0.000000 0.500000 0.500000
#
# Coordination Sequence:
#
# PCOD9109296 Si02
#       8
#     2   2   2   2   2   2   2   2
#     4  11  23  40  69  95 127 176 220 259 318 391
#     4  11  24  40  65  95 129 166 217 272 326 369
#     4  10  22  41  66  92 131 169 218 258 321 390
#     4  10  20  41  64  93 127 169 217 262 315 393
#     4  11  22  41  67  98 122 171 216 269 315 391
#     4  10  22  41  67  90 129 170 214 261 329 381
#     4  10  22  40  63  95 129 172 209 266 325 383
#     4  11  26  44  63  96 135 169 213 273 326 383
#
# _framework density 24.967751
#
# number of rings (size 3 to 8) (size 9 to 14) (size 15 to 20)
#    0.000    1.500    1.250    3.375    5.250    3.500 
#    4.500    1.250    0.000    0.000    0.000    0.000 
#    0.000    0.000    0.000    0.000    0.000    0.000 
#
# Total GULP energy -89631.254362 kJ/mol
# GULP energy per Si atom -5601.953398 kJ/mol
# Density = 2.491092 g / cm^3
# Si number density = 24.967751 Si / 1000 Ang^3
#
#
#
# Elastic Constant Matrix: (Units=GPa)
#
#
# Indices 1 2 3 4 5 6 
#
# 1 108.8989 6.1620 53.7860 -7.5803 8.4529 12.2226
# 2 6.1620 31.3880 18.2730 -2.5097 5.6018 -4.4383
# 3 53.7860 18.2730 146.9633 9.3262 19.8284 5.3272
# 4 -7.5803 -2.5097 9.3262 39.3973 5.8431 5.4567
# 5 8.4529 5.6018 19.8284 5.8431 38.7913 0.3887
# 6 12.2226 -4.4383 5.3272 5.4567 0.3887 24.8632
#
#
#
# Elastic Compliance Matrix: (Units=1/GPa)
#
#
# Indices 1 2 3 4 5 6 
#
# 1 0.012481 -0.000185 -0.004466 0.004453 -0.001019 -0.006173
# 2 -0.000185 0.036291 -0.004413 0.002871 -0.003446 0.006939
# 3 -0.004466 -0.004413 0.009556 -0.002992 -0.002824 0.000061
# 4 0.004453 0.002871 -0.002992 0.028749 -0.004113 -0.007281
# 5 -0.001019 -0.003446 -0.002824 -0.004113 0.028552 0.000947
# 6 -0.006173 0.006939 0.000061 -0.007281 0.000947 0.046063
#
#
# Mechanical properties :
#
#
# Convention : Reuss Voigt Hill
#
# Bulk Modulus (GPa) = 24.87625 49.29911 37.08768
# Shear Modulus (GPa) = 25.87706 34.54565 30.21135
#
# Velocity S-wave (km/s) = 3.22284 3.72373 3.48230
# Velocity P-wave (km/s) = 4.88200 6.18677 5.57270
#
# Compressibility (1/GPa) = 0.04019899
#
# Stress axis : x y z
#
# Youngs Moduli (GPa) = 80.12110 27.55534 104.64184
#
# Poissons Ratio (x) = 0.00510 0.46735
# Poissons Ratio (y) = 0.01484 0.46181
# Poissons Ratio (z) = 0.35784 0.12161
#
# Static dielectric constant tensor:
#      x y z
#    x 1.988030 0.005680 0.036020 
#    y 0.005680 2.022980 0.014640 
#    z 0.036020 0.014640 1.929690 
# 
# From -- ./inp_files/388058.got.cif
#   From: 2010.05.17/outbox.cif.g08.bks.cpg/sg2_195_cif.got.tgz:388058.got - 2010.06.03 11:33:40.
