data_PCOD9109308
_publ_section_title
;
Structure prediction by ZEFSAII (Michael W. Deem and Ramdas Pophale) SiO2 
 PCOD9109308
Probable space group: P -1
;
_chemical_formula_sum "Si O2"
_cell_formula_units_Z 16
_cell_length_a 7.671916
_cell_length_b 17.046256
_cell_length_c 12.935011
_cell_angle_alpha 155.092092
_cell_angle_beta 96.084454
_cell_angle_gamma 96.215266
_cell_volume 618.315871
_symmetry_space_group_name_H-M "P -1"
_symmetry_group_IT_number 2
_symmetry_cell_setting 'triclinic'
loop_
_space_group_symop_operation_xyz
x,y,z
-x,-y,-z
loop_
_atom_site_type_symbol
_atom_site_label
_atom_site_fract_x
_atom_site_fract_y
_atom_site_fract_z
Si Si1 0.794833 0.240149 0.988407
Si Si2 0.445979 0.326444 0.066357
Si Si3 0.748857 0.753649 0.655747
Si Si4 0.778426 0.537591 0.049989
Si Si5 0.201320 0.838088 0.770693
Si Si6 0.395257 0.171909 0.655002
Si Si7 0.816218 0.601604 0.694888
Si Si8 0.112864 0.616335 0.311805
O O1 0.708930 0.048292 0.673285
O O2 0.604618 0.256579 0.036147
O O3 0.943764 0.241268 0.087786
O O4 0.948593 0.448252 0.180045
O O5 0.599266 0.578895 0.357180
O O6 0.287618 0.334576 0.143932
O O7 0.357496 0.183653 0.787949
O O8 0.731635 0.640687 0.630688
O O9 0.978450 0.819154 0.721382
O O10 0.692810 0.938949 0.896151
O O11 0.685014 0.688265 0.240412
O O12 0.992903 0.652728 0.255846
O O13 0.634908 0.306572 0.814264
O O14 0.786639 0.498185 0.881684
O O15 0.211911 0.637831 0.584067
O O16 0.253492 0.819068 0.631756
#
# Coordination Sequence:
#
# PCOD9109308 Si02
#       8
#     2   2   2   2   2   2   2   2
#     4  11  24  44  69  95 134 180 213 277 339 398
#     4  12  24  44  68  95 138 173 218 282 326 398
#     4  11  23  44  70  97 132 178 226 275 333 398
#     4  10  22  37  64  96 132 171 220 269 327 406
#     4  10  22  42  70  96 131 179 219 278 339 389
#     4  11  23  42  63  98 133 175 217 268 341 396
#     4  11  25  44  71 101 132 175 227 276 333 402
#     4  10  20  41  64  93 135 168 216 280 328 394
#
# _framework density 25.876742
#
# number of rings (size 3 to 8) (size 9 to 14) (size 15 to 20)
#    0.000    1.250    3.750    2.625    1.750    3.500 
#    2.250    0.000    0.000    0.000    0.000    0.000 
#    0.000    0.000    0.000    0.000    0.000    0.000 
#
# Total GULP energy -89461.884094 kJ/mol
# GULP energy per Si atom -5591.367756 kJ/mol
# Density = 2.581785 g / cm^3
# Si number density = 25.876742 Si / 1000 Ang^3
#
#
#
# Elastic Constant Matrix: (Units=GPa)
#
#
# Indices 1 2 3 4 5 6 
#
# 1 116.7585 25.1399 51.3949 -3.5629 -17.3743 -7.7660
# 2 25.1399 75.7188 29.8764 -19.3023 -16.0802 -5.2428
# 3 51.3949 29.8764 189.5916 -18.4720 -33.8722 -8.3936
# 4 -3.5629 -19.3023 -18.4720 30.2400 -0.1246 -9.3044
# 5 -17.3743 -16.0802 -33.8722 -0.1246 40.0639 -7.1495
# 6 -7.7660 -5.2428 -8.3936 -9.3044 -7.1495 29.1680
#
#
#
# Elastic Compliance Matrix: (Units=1/GPa)
#
#
# Indices 1 2 3 4 5 6 
#
# 1 0.010395 -0.002226 -0.002052 -0.000803 0.002247 0.002072
# 2 -0.002226 0.021057 0.001514 0.017843 0.010964 0.012007
# 3 -0.002052 0.001514 0.007964 0.007556 0.007597 0.006290
# 4 -0.000803 0.017843 0.007556 0.057695 0.018392 0.028080
# 5 0.002247 0.010964 0.007597 0.018392 0.040482 0.020545
# 6 0.002072 0.012007 0.006290 0.028080 0.020545 0.052797
#
#
# Mechanical properties :
#
#
# Convention : Reuss Voigt Hill
#
# Bulk Modulus (GPa) = 29.50890 66.09905 47.80398
# Shear Modulus (GPa) = 24.12982 38.27157 31.20069
#
# Velocity S-wave (km/s) = 3.05698 3.84994 3.47615
# Velocity P-wave (km/s) = 4.88760 6.73513 5.88433
#
# Compressibility (1/GPa) = 0.03388808
#
# Stress axis : x y z
#
# Youngs Moduli (GPa) = 96.20129 47.49098 125.56210
#
# Poissons Ratio (x) = 0.10570 0.25769
# Poissons Ratio (y) = 0.21411 -0.19011
# Poissons Ratio (z) = 0.19743 -0.07190
#
# Static dielectric constant tensor:
#      x y z
#    x 2.130640 -0.004170 0.039520 
#    y -0.004170 2.069970 0.043280 
#    z 0.039520 0.043280 2.064200 
# 
# From -- ./inp_files/470051.got.cif
#   From: 2010.05.17/outbox.cif.g08.bks.cpg/sg2_236_cif.got.tgz:470051.got - 2010.06.03 11:33:40.
