data_PCOD9109705
_publ_section_title
;
Structure prediction by ZEFSAII (Michael W. Deem and Ramdas Pophale) SiO2 
 PCOD9109705
Probable space group: P -1
;
_chemical_formula_sum "Si O2"
_cell_formula_units_Z 16
_cell_length_a 5.719826
_cell_length_b 5.052498
_cell_length_c 20.669388
_cell_angle_alpha 93.024019
_cell_angle_beta 93.986594
_cell_angle_gamma 83.453981
_cell_volume 591.397020
_symmetry_space_group_name_H-M "P -1"
_symmetry_group_IT_number 2
_symmetry_cell_setting 'triclinic'
loop_
_space_group_symop_operation_xyz
x,y,z
-x,-y,-z
loop_
_atom_site_type_symbol
_atom_site_label
_atom_site_fract_x
_atom_site_fract_y
_atom_site_fract_z
Si Si1 0.484316 0.666370 0.268986
Si Si2 0.448495 0.025313 0.602416
Si Si3 0.297680 0.727025 0.022728
Si Si4 0.894082 0.227272 0.220956
Si Si5 0.156931 0.320278 0.343098
Si Si6 0.184613 0.527119 0.560078
Si Si7 0.363270 0.903803 0.895829
Si Si8 0.767974 0.457263 0.854999
O O1 0.563142 0.896509 0.319838
O O2 0.700540 0.457919 0.247117
O O3 0.330255 0.494905 0.310711
O O4 0.325007 0.741485 0.202942
O O5 0.399563 0.292176 0.562981
O O6 0.706805 0.865615 0.602855
O O7 0.274451 0.815063 0.573908
O O8 0.128755 0.636751 0.074156
O O9 0.449782 0.917334 0.069214
O O10 0.500000 0.500000 0.000000
O O11 0.203988 0.850953 0.954717
O O12 0.781425 0.013934 0.170869
O O13 0.042822 0.139816 0.285821
O O14 0.058750 0.370101 0.176828
O O15 0.959092 0.513013 0.377494
O O16 0.000000 0.500000 0.500000
O O17 0.529050 0.641577 0.872757
#
# Coordination Sequence:
#
# PCOD9109705 Si02
#       8
#     2   2   2   2   2   2   2   2
#     4  10  22  44  66 103 138 184 234 296 352 427
#     4  12  25  49  74 109 148 189 239 299 351 427
#     4   9  18  37  56  84 126 180 224 291 348 412
#     4  10  20  41  66  98 136 176 235 289 355 427
#     4  11  24  45  75 100 148 188 235 296 366 419
#     4  12  29  49  76 111 147 192 243 291 355 431
#     4   9  19  37  60  85 131 173 232 288 345 422
#     4   9  20  34  61  93 127 171 227 283 357 414
#
# _framework density 27.054584999999999
#
# number of rings (size 3 to 8) (size 9 to 14) (size 15 to 20)
#    0.000    1.750    2.500    0.375    1.750    5.500 
#    0.000   15.625    0.000    0.000    0.000    0.000 
#    0.000    0.000    0.000    0.000    0.000    0.000 
#
# Total GULP energy -89575.804618 kJ/mol
# GULP energy per Si atom -5598.487789 kJ/mol
# Density = 2.699301 g / cm^3
# Si number density = 27.054585 Si / 1000 Ang^3
#
#
#
# Elastic Constant Matrix: (Units=GPa)
#
#
# Indices 1 2 3 4 5 6 
#
# 1 51.4841 5.1123 35.8810 7.6380 13.8014 3.5105
# 2 5.1123 83.8713 29.8588 20.9960 15.5730 4.4304
# 3 35.8810 29.8588 157.2133 26.3636 26.9391 8.7747
# 4 7.6380 20.9960 26.3636 42.2877 10.4590 11.8812
# 5 13.8014 15.5730 26.9391 10.4590 56.1593 4.3835
# 6 3.5105 4.4304 8.7747 11.8812 4.3835 41.3710
#
#
#
# Elastic Compliance Matrix: (Units=1/GPa)
#
#
# Indices 1 2 3 4 5 6 
#
# 1 0.023839 0.001192 -0.004876 -0.000814 -0.003660 -0.000495
# 2 0.001192 0.014322 -0.001622 -0.005897 -0.002440 0.000661
# 3 -0.004876 -0.001622 0.008651 -0.003203 -0.001895 -0.000127
# 4 -0.000814 -0.005897 -0.003203 0.031261 -0.001873 -0.007400
# 5 -0.003660 -0.002440 -0.001895 -0.001873 0.020694 -0.000681
# 6 -0.000495 0.000661 -0.000127 -0.007400 -0.000681 0.026367
#
#
# Mechanical properties :
#
#
# Convention : Reuss Voigt Hill
#
# Bulk Modulus (GPa) = 27.62436 48.25254 37.93845
# Shear Modulus (GPa) = 33.82673 42.74470 38.28572
#
# Velocity S-wave (km/s) = 3.53981 3.97916 3.76590
# Velocity P-wave (km/s) = 5.19036 6.24385 5.74132
#
# Compressibility (1/GPa) = 0.03619993
#
# Stress axis : x y z
#
# Youngs Moduli (GPa) = 41.94822 69.82123 115.59886
#
# Poissons Ratio (x) = -0.08324 0.56366
# Poissons Ratio (y) = -0.05001 0.18752
# Poissons Ratio (z) = 0.20454 0.11326
#
# Static dielectric constant tensor:
#      x y z
#    x 2.125180 0.015330 0.037840 
#    y 0.015330 2.150260 -0.032490 
#    z 0.037840 -0.032490 2.160800 
# 
# From -- ./inp_files/581167.got.cif
#   From: 2010.05.17/outbox.cif.g08.bks.cpg/sg2_291_cif.got.tgz:581167.got - 2010.06.03 11:33:40.
