data_PCOD9109785
_publ_section_title
;
Structure prediction by ZEFSAII (Michael W. Deem and Ramdas Pophale) SiO2 
 PCOD9109785
Probable space group: P -1
;
_chemical_formula_sum "Si O2"
_cell_formula_units_Z 16
_cell_length_a 6.332844
_cell_length_b 5.915599
_cell_length_c 21.692851
_cell_angle_alpha 124.924378
_cell_angle_beta 99.424540
_cell_angle_gamma 106.082201
_cell_volume 584.196218
_symmetry_space_group_name_H-M "P -1"
_symmetry_group_IT_number 2
_symmetry_cell_setting 'triclinic'
loop_
_space_group_symop_operation_xyz
x,y,z
-x,-y,-z
loop_
_atom_site_type_symbol
_atom_site_label
_atom_site_fract_x
_atom_site_fract_y
_atom_site_fract_z
Si Si1 0.792882 0.702698 0.477286
Si Si2 0.465784 0.215859 0.250789
Si Si3 0.605112 0.288560 0.612623
Si Si4 0.134296 0.812472 0.282726
Si Si5 0.040696 0.756914 0.628871
Si Si6 0.152681 0.258568 0.135800
Si Si7 0.805131 0.603306 0.028844
Si Si8 0.568765 0.719044 0.135507
O O1 0.565649 0.768241 0.464536
O O2 0.884322 0.695771 0.549039
O O3 0.774836 0.382287 0.397519
O O4 0.000000 0.000000 0.500000
O O5 0.532441 0.567751 0.327563
O O6 0.300919 0.154853 0.173579
O O7 0.293893 0.021581 0.267625
O O8 0.637943 0.058103 0.219353
O O9 0.688636 0.107945 0.637088
O O10 0.861515 0.533160 0.636625
O O11 0.066553 0.468956 0.204742
O O12 0.916968 0.897829 0.297894
O O13 0.355227 0.472798 0.129776
O O14 0.913942 0.949606 0.058702
O O15 0.777563 0.640908 0.107463
O O16 0.564700 0.333111 0.945164
O O17 0.000000 0.500000 0.000000
#
# Coordination Sequence:
#
# PCOD9109785 Si02
#       8
#     2   2   2   2   2   2   2   2
#     4  11  24  39  61  97 128 163 216 265 323 393
#     4   9  19  41  62  88 127 161 217 267 315 385
#     4  10  21  41  66  87 126 173 207 265 334 376
#     4   9  20  39  69  89 123 175 215 265 324 384
#     4  10  22  41  63  91 129 164 212 270 317 391
#     4  10  20  41  67  92 130 174 219 266 328 388
#     4  11  22  40  66  95 131 170 213 271 326 386
#     4  10  22  41  62  94 130 167 218 267 325 389
#
# _framework density 27.388058999999998
#
# number of rings (size 3 to 8) (size 9 to 14) (size 15 to 20)
#    0.000    2.000    1.250    1.500    0.000    6.500 
#   11.250    0.000    2.750    0.000    0.000    0.000 
#    0.000    0.000    0.000    0.000    0.000    0.000 
#
# Total GULP energy -89344.213417 kJ/mol
# GULP energy per Si atom -5584.013339 kJ/mol
# Density = 2.732572 g / cm^3
# Si number density = 27.388059 Si / 1000 Ang^3
#
#
#
# Elastic Constant Matrix: (Units=GPa)
#
#
# Indices 1 2 3 4 5 6 
#
# 1 99.4661 45.7754 6.9153 1.9301 -16.7721 -19.1898
# 2 45.7754 101.9805 13.8325 -17.1143 -23.8549 -4.7493
# 3 6.9153 13.8325 66.6217 -4.3782 -35.8480 -8.7659
# 4 1.9301 -17.1143 -4.3782 47.4313 -7.3060 -11.3458
# 5 -16.7721 -23.8549 -35.8480 -7.3060 58.0210 3.1050
# 6 -19.1898 -4.7493 -8.7659 -11.3458 3.1050 72.1440
#
#
#
# Elastic Compliance Matrix: (Units=1/GPa)
#
#
# Indices 1 2 3 4 5 6 
#
# 1 0.013652 -0.005986 0.001081 -0.001613 0.001788 0.003038
# 2 -0.005986 0.014866 0.001235 0.006722 0.005973 0.000337
# 3 0.001081 0.001235 0.024351 0.006034 0.016434 0.003569
# 4 -0.001613 0.006722 0.006034 0.026625 0.009135 0.004541
# 5 0.001788 0.005973 0.016434 0.009135 0.031354 0.002953
# 6 0.003038 0.000337 0.003569 0.004541 0.002953 0.015712
#
#
# Mechanical properties :
#
#
# Convention : Reuss Voigt Hill
#
# Bulk Modulus (GPa) = 21.96360 44.56832 33.26596
# Shear Modulus (GPa) = 33.54024 48.95561 41.24793
#
# Velocity S-wave (km/s) = 3.50327 4.23245 3.88500
# Velocity P-wave (km/s) = 4.93970 6.33980 5.68303
#
# Compressibility (1/GPa) = 0.04552987
#
# Stress axis : x y z
#
# Youngs Moduli (GPa) = 73.24894 67.26729 41.06678
#
# Poissons Ratio (x) = 0.40264 -0.04441
# Poissons Ratio (y) = 0.43844 -0.05071
# Poissons Ratio (z) = -0.07921 -0.08306
#
# Static dielectric constant tensor:
#      x y z
#    x 2.282560 -0.070310 -0.006870 
#    y -0.070310 2.097010 0.049560 
#    z -0.006870 0.049560 2.297300 
# 
# From -- ./inp_files/603438.got.cif
#   From: 2010.05.17/outbox.cif.g08.bks.cpg/sg2_302_cif.got.tgz:603438.got - 2010.06.03 11:33:40.
