data_PCOD9109248
_publ_section_title
;
Structure prediction by ZEFSAII (Michael W. Deem and Ramdas Pophale) SiO2 
 PCOD9109248
Probable space group: P -1
;
_chemical_formula_sum "Si O2"
_cell_formula_units_Z 15
_cell_length_a 6.884644
_cell_length_b 7.503717
_cell_length_c 20.534655
_cell_angle_alpha 126.334814
_cell_angle_beta 51.664993
_cell_angle_gamma 118.938781
_cell_volume 658.857422
_symmetry_space_group_name_H-M "P -1"
_symmetry_group_IT_number 2
_symmetry_cell_setting 'triclinic'
loop_
_space_group_symop_operation_xyz
x,y,z
-x,-y,-z
loop_
_atom_site_type_symbol
_atom_site_label
_atom_site_fract_x
_atom_site_fract_y
_atom_site_fract_z
Si Si1 0.169392 0.518460 0.694660
Si Si2 0.000000 0.500000 0.000000
Si Si3 0.859885 0.105609 0.838143
Si Si4 0.681957 0.086691 0.341692
Si Si5 0.856207 0.205426 0.585995
Si Si6 0.105103 0.202219 0.114049
Si Si7 0.384110 0.734645 0.472544
Si Si8 0.659949 0.809938 0.073328
O O1 0.286447 0.767271 0.698324
O O2 0.993556 0.568378 0.800593
O O3 0.403642 0.395239 0.625049
O O4 0.991653 0.377365 0.647453
O O5 0.960337 0.325937 0.907928
O O6 0.244686 0.387124 0.949639
O O7 0.618791 0.137620 0.853399
O O8 0.077317 0.034037 0.732586
O O9 0.797322 0.906998 0.864381
O O10 0.676999 0.271029 0.439886
O O11 0.425890 0.905591 0.357440
O O12 0.840943 0.316086 0.542471
O O13 0.000000 0.000000 0.500000
O O14 0.864524 0.027674 0.099147
O O15 0.300792 0.227260 0.020080
O O16 0.500000 0.000000 0.500000
#
# Coordination Sequence:
#
# PCOD9109248 Si02
#       8
#     2   1   2   2   2   2   2   2
#     4  11  22  42  66  93 128 167 218 270 325 375
#     4  10  22  38  58  96 126 162 212 262 318 388
#     4  10  21  40  62  92 130 166 215 266 327 383
#     4  10  23  42  62  95 128 165 221 269 309 397
#     4  11  23  42  62  89 128 171 212 265 325 374
#     4   9  22  39  64  93 121 167 223 264 312 398
#     4  10  21  40  61  90 128 163 214 264 314 388
#     4  10  20  41  64  89 133 165 209 271 324 379
#
# _framework density 22.766684000000001
#
# number of rings (size 3 to 8) (size 9 to 14) (size 15 to 20)
#    0.000    1.867    2.667    1.200    0.000    5.867 
#    7.200    1.333    0.000    0.000    0.000    0.000 
#    0.000    0.000    0.000    0.000    0.000    0.000 
#
# Total GULP energy -83524.949608 kJ/mol
# GULP energy per Si atom -5568.329974 kJ/mol
# Density = 2.271487 g / cm^3
# Si number density = 22.766684 Si / 1000 Ang^3
#
#
#
# Elastic Constant Matrix: (Units=GPa)
#
#
# Indices 1 2 3 4 5 6 
#
# 1 129.0879 23.7658 24.6542 2.0846 -32.5385 -10.9079
# 2 23.7658 45.1434 8.9066 -3.7575 -12.6523 3.8674
# 3 24.6542 8.9066 103.9284 20.1771 -30.5615 -7.9219
# 4 2.0846 -3.7575 20.1771 33.4901 -0.9707 -2.3634
# 5 -32.5385 -12.6523 -30.5615 -0.9707 52.6742 11.6206
# 6 -10.9079 3.8674 -7.9219 -2.3634 11.6206 23.4875
#
#
#
# Elastic Compliance Matrix: (Units=1/GPa)
#
#
# Indices 1 2 3 4 5 6 
#
# 1 0.009936 -0.004279 -0.000432 -0.000501 0.004176 0.003057
# 2 -0.004279 0.027188 -0.001130 0.003508 0.005308 -0.009118
# 3 -0.000432 -0.001130 0.013473 -0.007997 0.007083 0.000221
# 4 -0.000501 0.003508 -0.007997 0.035127 -0.003890 0.001952
# 5 0.004176 0.005308 0.007083 -0.003890 0.029411 -0.011489
# 6 0.003057 -0.009118 0.000221 0.001952 -0.011489 0.051452
#
#
# Mechanical properties :
#
#
# Convention : Reuss Voigt Hill
#
# Bulk Modulus (GPa) = 25.69700 43.64589 34.67144
# Shear Modulus (GPa) = 26.14498 36.65257 31.39877
#
# Velocity S-wave (km/s) = 3.39246 4.01674 3.71773
# Velocity P-wave (km/s) = 5.16301 6.38160 5.80437
#
# Compressibility (1/GPa) = 0.03891505
#
# Stress axis : x y z
#
# Youngs Moduli (GPa) = 100.64561 36.78102 74.22000
#
# Poissons Ratio (x) = 0.15738 0.03207
# Poissons Ratio (y) = 0.43064 0.08389
# Poissons Ratio (z) = 0.04348 0.04157
#
# Static dielectric constant tensor:
#      x y z
#    x 1.842560 -0.050850 0.007440 
#    y -0.050850 1.871850 -0.020120 
#    z 0.007440 -0.020120 1.906310 
# 
# From -- ./inp_files/582560.got.cif
#   From: 2010.05.17/outbox.cif.g08.bks.cpg/sg2_292_cif.got.tgz:582560.got - 2010.06.03 11:33:40.
