data_PCOD9109842
_publ_section_title
;
Structure prediction by ZEFSAII (Michael W. Deem and Ramdas Pophale) SiO2 
 PCOD9109842
Probable space group: P -1
;
_chemical_formula_sum "Si O2"
_cell_formula_units_Z 12
_cell_length_a 9.784417
_cell_length_b 12.584085
_cell_length_c 7.133727
_cell_angle_alpha 96.162045
_cell_angle_beta 70.923174
_cell_angle_gamma 143.088725
_cell_volume 479.855240
_symmetry_space_group_name_H-M "P -1"
_symmetry_group_IT_number 2
_symmetry_cell_setting 'triclinic'
loop_
_space_group_symop_operation_xyz
x,y,z
-x,-y,-z
loop_
_atom_site_type_symbol
_atom_site_label
_atom_site_fract_x
_atom_site_fract_y
_atom_site_fract_z
Si Si1 0.641624 0.196252 0.953578
Si Si2 0.978474 0.050985 0.211069
Si Si3 0.273901 0.075653 0.347798
Si Si4 0.760470 0.420321 0.666256
Si Si5 0.745556 0.592162 0.987762
Si Si6 0.893638 0.651653 0.333955
O O1 0.574943 0.217780 0.792808
O O2 0.924401 0.329614 0.832159
O O3 0.540441 0.199958 0.177770
O O4 0.500000 0.000000 0.000000
O O5 0.184325 0.120768 0.269136
O O6 0.031358 0.202436 0.154287
O O7 0.740198 0.903015 0.424399
O O8 0.000000 0.000000 0.000000
O O9 0.072200 0.857191 0.362509
O O10 0.789217 0.502741 0.863391
O O11 0.000000 0.500000 0.500000
O O12 0.738247 0.501998 0.539768
O O13 0.500000 0.500000 0.000000
O O14 0.737183 0.594388 0.215394
#
# Coordination Sequence:
#
# PCOD9109842 Si02
#       6
#     2   2   2   2   2   2
#     4   9  20  40  69  98 130 174 226 279 337 413
#     4  11  22  40  68  98 137 179 224 281 333 402
#     4  10  20  41  67  97 135 175 224 278 336 401
#     4  10  22  43  67  96 138 177 224 281 339 401
#     4  12  25  42  67 101 138 180 232 282 337 404
#     4  10  21  42  69  97 136 180 223 280 340 397
#
# _framework density 25.007541
#
# number of rings (size 3 to 8) (size 9 to 14) (size 15 to 20)
#    0.000    1.667    3.333    1.000    0.000    3.333 
#    0.000   10.833    0.000    0.000    0.000    0.000 
#    0.000    0.000    0.000    0.000    0.000    0.000 
#
# Total GULP energy -67036.623241 kJ/mol
# GULP energy per Si atom -5586.385270 kJ/mol
# Density = 2.495062 g / cm^3
# Si number density = 25.007541 Si / 1000 Ang^3
#
#
#
# Elastic Constant Matrix: (Units=GPa)
#
#
# Indices 1 2 3 4 5 6 
#
# 1 69.0840 22.3149 42.1956 2.6452 5.8594 -15.9210
# 2 22.3149 96.1427 44.7968 -19.8413 19.4764 -22.1661
# 3 42.1956 44.7968 195.8042 -15.2595 13.9080 -9.4586
# 4 2.6452 -19.8413 -15.2595 36.8669 -13.6059 12.3127
# 5 5.8594 19.4764 13.9080 -13.6059 72.6258 -7.1563
# 6 -15.9210 -22.1661 -9.4586 12.3127 -7.1563 35.5866
#
#
#
# Elastic Compliance Matrix: (Units=1/GPa)
#
#
# Indices 1 2 3 4 5 6 
#
# 1 0.019984 -0.002122 -0.003913 -0.007505 -0.000812 0.009012
# 2 -0.002122 0.014472 -0.002098 0.004508 -0.001915 0.005563
# 3 -0.003913 -0.002098 0.006530 0.002557 -0.000113 -0.002229
# 4 -0.007505 0.004508 0.002557 0.036753 0.004644 -0.011652
# 5 -0.000812 -0.001915 -0.000113 0.004644 0.015227 -0.000131
# 6 0.009012 0.005563 -0.002229 -0.011652 -0.000131 0.039010
#
#
# Mechanical properties :
#
#
# Convention : Reuss Voigt Hill
#
# Bulk Modulus (GPa) = 40.45133 64.40506 52.42820
# Shear Modulus (GPa) = 31.95294 45.79744 38.87519
#
# Velocity S-wave (km/s) = 3.57842 4.28406 3.94704
# Velocity P-wave (km/s) = 5.76924 7.09092 6.46395
#
# Compressibility (1/GPa) = 0.02472107
#
# Stress axis : x y z
#
# Youngs Moduli (GPa) = 50.04126 69.09987 153.14131
#
# Poissons Ratio (x) = 0.14660 0.59923
# Poissons Ratio (y) = 0.10616 0.32124
# Poissons Ratio (z) = 0.19581 0.14495
#
# Static dielectric constant tensor:
#      x y z
#    x 2.098840 0.040010 -0.002840 
#    y 0.040010 2.131270 0.017270 
#    z -0.002840 0.017270 1.966510 
# 
# From -- ./inp_files/73308.got.cif
#   From: 2010.05.17/outbox.cif.g08.bks.cpg/sg2_37_cif.got.tgz:73308.got - 2010.06.03 11:33:40.
