data_PCOD9109907
_publ_section_title
;
Structure prediction by ZEFSAII (Michael W. Deem and Ramdas Pophale) SiO2 
 PCOD9109907
Probable space group: P -1
;
_chemical_formula_sum "Si O2"
_cell_formula_units_Z 14
_cell_length_a 14.402509
_cell_length_b 18.903942
_cell_length_c 11.075939
_cell_angle_alpha 156.921540
_cell_angle_beta 42.557272
_cell_angle_gamma 146.614847
_cell_volume 643.455650
_symmetry_space_group_name_H-M "P -1"
_symmetry_group_IT_number 2
_symmetry_cell_setting 'triclinic'
loop_
_space_group_symop_operation_xyz
x,y,z
-x,-y,-z
loop_
_atom_site_type_symbol
_atom_site_label
_atom_site_fract_x
_atom_site_fract_y
_atom_site_fract_z
Si Si1 0.360848 0.053881 0.706135
Si Si2 0.032633 0.296957 0.018172
Si Si3 0.408710 0.485629 0.690137
Si Si4 0.263400 0.152052 0.512854
Si Si5 0.202536 0.664454 0.071163
Si Si6 0.531536 0.981827 0.801716
Si Si7 0.811296 0.210381 0.320806
O O1 0.249666 0.889696 0.446852
O O2 0.246314 0.969138 0.802571
O O3 0.500000 0.000000 0.500000
O O4 0.462795 0.319040 0.030357
O O5 0.180540 0.265967 0.824256
O O6 0.108577 0.551740 0.318275
O O7 0.886995 0.112147 0.777372
O O8 0.947042 0.244386 0.148921
O O9 0.500000 0.500000 0.500000
O O10 0.329441 0.257144 0.480610
O O11 0.272509 0.537511 0.870493
O O12 0.401960 0.170959 0.495593
O O13 0.320689 0.775172 0.012765
O O14 0.000000 0.500000 0.000000
O O15 0.360188 0.868795 0.711282
O O16 0.500000 0.000000 0.000000
#
# Coordination Sequence:
#
# PCOD9109907 Si02
#       7
#     2   2   2   2   2   2   2
#     4  10  20  41  68  90 123 172 227 249 324 396
#     4  10  23  38  61  96 126 171 206 269 324 387
#     4  11  22  43  67  95 127 175 218 265 329 395
#     4  11  24  39  63  96 138 160 213 271 334 377
#     4  11  26  43  69  95 131 174 224 270 326 389
#     4  12  24  42  66 100 131 170 220 272 325 390
#     4  11  21  42  68  92 125 175 222 260 319 399
#
# _framework density 21.757521000000001
#
# number of rings (size 3 to 8) (size 9 to 14) (size 15 to 20)
#    0.000    1.143    4.286    3.429    6.000    0.571 
#    0.000    0.714    0.000    0.000    0.000    0.000 
#    0.000    0.000    0.000    0.000    0.000    0.000 
#
# Total GULP energy -78231.170692 kJ/mol
# GULP energy per Si atom -5587.940764 kJ/mol
# Density = 2.170800 g / cm^3
# Si number density = 21.757521 Si / 1000 Ang^3
#
#
#
# Elastic Constant Matrix: (Units=GPa)
#
#
# Indices 1 2 3 4 5 6 
#
# 1 60.9069 35.9643 7.1268 4.2642 -2.1279 -6.2600
# 2 35.9643 114.7919 10.7070 5.6525 4.6481 2.2152
# 3 7.1268 10.7070 84.0377 12.1250 13.8837 14.5955
# 4 4.2642 5.6525 12.1250 43.4366 0.9276 -3.6421
# 5 -2.1279 4.6481 13.8837 0.9276 27.1154 3.6764
# 6 -6.2600 2.2152 14.5955 -3.6421 3.6764 23.1083
#
#
#
# Elastic Compliance Matrix: (Units=1/GPa)
#
#
# Indices 1 2 3 4 5 6 
#
# 1 0.021697 -0.006820 -0.002903 0.000157 0.003286 0.007867
# 2 -0.006820 0.011022 0.000154 -0.001000 -0.002086 -0.002827
# 3 -0.002903 0.000154 0.015756 -0.004865 -0.006739 -0.010447
# 4 0.000157 -0.001000 -0.004865 0.025065 0.000865 0.007024
# 5 0.003286 -0.002086 -0.006739 0.000865 0.041058 -0.001049
# 6 0.007867 -0.002827 -0.010447 0.007024 -0.001049 0.053549
#
#
# Mechanical properties :
#
#
# Convention : Reuss Voigt Hill
#
# Bulk Modulus (GPa) = 34.08603 40.81475 37.45039
# Shear Modulus (GPa) = 25.37241 32.46129 28.91685
#
# Velocity S-wave (km/s) = 3.41859 3.86678 3.64957
# Velocity P-wave (km/s) = 5.59309 6.22379 5.91685
#
# Compressibility (1/GPa) = 0.02933753
#
# Stress axis : x y z
#
# Youngs Moduli (GPa) = 46.08833 90.72819 63.46913
#
# Poissons Ratio (x) = 0.61874 0.18426
# Poissons Ratio (y) = 0.31431 -0.00977
# Poissons Ratio (z) = 0.13380 -0.01397
#
# Static dielectric constant tensor:
#      x y z
#    x 1.833790 -0.059490 0.004460 
#    y -0.059490 1.880360 -0.007020 
#    z 0.004460 -0.007020 1.796340 
# 
# From -- ./inp_files/204979.got.cif
#   From: 2010.05.17/outbox.cif.g08.bks.cpg/sg2_103_cif.got.tgz:204979.got - 2010.06.03 11:33:40.
