data_PCOD9109701
_publ_section_title
;
Structure prediction by ZEFSAII (Michael W. Deem and Ramdas Pophale) SiO2 
 PCOD9109701
Probable space group: P -1
;
_chemical_formula_sum "Si O2"
_cell_formula_units_Z 16
_cell_length_a 15.259079
_cell_length_b 8.047922
_cell_length_c 14.362695
_cell_angle_alpha 37.952908
_cell_angle_beta 132.090748
_cell_angle_gamma 105.573822
_cell_volume 661.500561
_symmetry_space_group_name_H-M "P -1"
_symmetry_group_IT_number 2
_symmetry_cell_setting 'triclinic'
loop_
_space_group_symop_operation_xyz
x,y,z
-x,-y,-z
loop_
_atom_site_type_symbol
_atom_site_label
_atom_site_fract_x
_atom_site_fract_y
_atom_site_fract_z
Si Si1 0.651819 0.251688 0.876725
Si Si2 0.494925 0.727068 0.064197
Si Si3 0.961457 0.618631 0.569675
Si Si4 0.405029 0.960233 0.376454
Si Si5 0.229695 0.005233 0.393776
Si Si6 0.711141 0.031317 0.349821
Si Si7 0.274132 0.348538 0.931729
Si Si8 0.961058 0.992712 0.228317
O O1 0.623574 0.275484 0.956996
O O2 0.504041 0.572733 0.592359
O O3 0.683349 0.914895 0.004514
O O4 0.796429 0.234974 0.970749
O O5 0.646968 0.387723 0.338106
O O6 0.437058 0.823010 0.875751
O O7 0.500000 0.000000 0.000000
O O8 0.950782 0.883822 0.373104
O O9 0.968905 0.339663 0.635935
O O10 0.834884 0.764513 0.488169
O O11 0.114472 0.461776 0.796170
O O12 0.262500 0.082156 0.281503
O O13 0.500000 0.000000 0.500000
O O14 0.374039 0.165140 0.171684
O O15 0.270940 0.110934 0.471283
O O16 0.069429 0.099711 0.249540
O O17 0.732231 0.328409 0.239672
#
# Coordination Sequence:
#
# PCOD9109701 Si02
#       8
#     2   2   2   2   2   2   2   2
#     4  10  22  42  67  90 126 173 214 264 324 385
#     4  11  22  36  59  94 131 165 208 271 323 371
#     4  10  21  36  68  99 130 165 206 269 326 382
#     4  11  26  46  63  89 133 178 216 264 324 383
#     4  11  24  39  62  96 128 166 216 268 312 383
#     4  12  22  38  65  99 128 164 216 268 319 379
#     4  11  22  40  68  96 125 168 219 261 324 385
#     4  10  20  41  66  98 128 165 213 264 328 378
#
# _framework density 24.187431
#
# number of rings (size 3 to 8) (size 9 to 14) (size 15 to 20)
#    0.000    1.250    2.500    4.125    1.750    1.000 
#    0.000    6.250    0.000    0.000    0.000    0.000 
#    0.000    0.000    0.000    0.000    0.000    0.000 
#
# Total GULP energy -89532.166643 kJ/mol
# GULP energy per Si atom -5595.760415 kJ/mol
# Density = 2.413238 g / cm^3
# Si number density = 24.187431 Si / 1000 Ang^3
#
#
#
# Elastic Constant Matrix: (Units=GPa)
#
#
# Indices 1 2 3 4 5 6 
#
# 1 98.7479 8.3370 33.6956 3.4714 12.1558 -20.6609
# 2 8.3370 73.3701 19.4602 6.4249 0.7070 -8.8888
# 3 33.6956 19.4602 49.1990 5.2440 2.8399 -9.4074
# 4 3.4714 6.4249 5.2440 38.1241 -1.7770 9.3761
# 5 12.1558 0.7070 2.8399 -1.7770 39.5181 4.5968
# 6 -20.6609 -8.8888 -9.4074 9.3761 4.5968 39.5809
#
#
#
# Elastic Compliance Matrix: (Units=1/GPa)
#
#
# Indices 1 2 3 4 5 6 
#
# 1 0.015421 0.001891 -0.009326 -0.002508 -0.005086 0.007442
# 2 0.001891 0.015860 -0.006468 -0.002941 -0.000978 0.003822
# 3 -0.009326 -0.006468 0.029736 -0.002432 0.000592 0.001254
# 4 -0.002508 -0.002941 -0.002432 0.029922 0.003512 -0.010043
# 5 -0.005086 -0.000978 0.000592 0.003512 0.027792 -0.006793
# 6 0.007442 0.003822 0.001254 -0.010043 -0.006793 0.033474
#
#
# Mechanical properties :
#
#
# Convention : Reuss Voigt Hill
#
# Bulk Modulus (GPa) = 30.10944 38.25583 34.18264
# Shear Modulus (GPa) = 26.16701 34.09956 30.13329
#
# Velocity S-wave (km/s) = 3.29271 3.75881 3.53345
# Velocity P-wave (km/s) = 5.18954 5.88973 5.55069
#
# Compressibility (1/GPa) = 0.03321217
#
# Stress axis : x y z
#
# Youngs Moduli (GPa) = 64.84838 63.05119 33.62950
#
# Poissons Ratio (x) = -0.11926 0.31361
# Poissons Ratio (y) = -0.12266 0.21752
# Poissons Ratio (z) = 0.60475 0.40782
#
# Static dielectric constant tensor:
#      x y z
#    x 1.973380 0.019200 -0.007590 
#    y 0.019200 1.926760 -0.024040 
#    z -0.007590 -0.024040 1.977480 
# 
# From -- ./inp_files/529294.got.cif
#   From: 2010.05.17/outbox.cif.g08.bks.cpg/sg2_265_cif.got.tgz:529294.got - 2010.06.03 11:33:40.
