data_PCOD9109384
_publ_section_title
;
Structure prediction by ZEFSAII (Michael W. Deem and Ramdas Pophale) SiO2 
 PCOD9109384
Probable space group: P -1
;
_chemical_formula_sum "Si O2"
_cell_formula_units_Z 16
_cell_length_a 9.357620
_cell_length_b 10.784119
_cell_length_c 9.466446
_cell_angle_alpha 93.875664
_cell_angle_beta 62.840006
_cell_angle_gamma 93.958765
_cell_volume 847.230095
_symmetry_space_group_name_H-M "P -1"
_symmetry_group_IT_number 2
_symmetry_cell_setting 'triclinic'
loop_
_space_group_symop_operation_xyz
x,y,z
-x,-y,-z
loop_
_atom_site_type_symbol
_atom_site_label
_atom_site_fract_x
_atom_site_fract_y
_atom_site_fract_z
Si Si1 0.553460 0.497014 0.812196
Si Si2 0.918737 0.110823 0.966659
Si Si3 0.334906 0.986334 0.157090
Si Si4 0.339000 0.237808 0.334831
Si Si5 0.333277 0.508188 0.665639
Si Si6 0.778435 0.760908 0.307726
Si Si7 0.304504 0.773404 0.690637
Si Si8 0.575098 0.215177 0.665763
O O1 0.661869 0.621410 0.722291
O O2 0.389685 0.513601 0.801105
O O3 0.606132 0.358476 0.723919
O O4 0.500000 0.500000 0.000000
O O5 0.803094 0.064990 0.888800
O O6 0.064199 0.192760 0.840321
O O7 0.814049 0.170480 0.141147
O O8 0.000000 0.000000 0.000000
O O9 0.372053 0.885558 0.253192
O O10 0.302147 0.125145 0.236293
O O11 0.500000 0.000000 0.000000
O O12 0.235006 0.203184 0.518999
O O13 0.521290 0.228456 0.311860
O O14 0.500000 0.500000 0.500000
O O15 0.226489 0.386775 0.685226
O O16 0.249678 0.631394 0.674457
O O17 0.614581 0.791566 0.297091
O O18 0.334562 0.821674 0.522783
#
# Coordination Sequence:
#
# PCOD9109384 Si02
#       8
#     2   2   2   2   2   2   2   2
#     4  10  18  32  62 100 125 148 204 271 312 356
#     4  12  28  43  59  89 138 168 211 264 322 373
#     4  12  24  40  64  93 121 165 228 261 305 376
#     4  10  20  38  67  92 122 168 213 259 310 382
#     4  10  16  38  66  96 119 160 214 256 309 395
#     4  10  21  40  66  95 126 164 206 263 326 373
#     4  10  20  40  66  92 124 168 209 263 311 383
#     4  10  21  39  70  95 117 164 221 260 309 386
#
# _framework density 18.885069999999999
#
# number of rings (size 3 to 8) (size 9 to 14) (size 15 to 20)
#    0.000    1.500    6.250    1.500    3.500    3.000 
#    0.000    0.000    2.750    1.500    0.000    0.000 
#    0.000    0.000    0.000    0.000    0.000    0.000 
#
# Total GULP energy -89077.133076 kJ/mol
# GULP energy per Si atom -5567.320817 kJ/mol
# Density = 1.884209 g / cm^3
# Si number density = 18.885070 Si / 1000 Ang^3
#
#
#
# Elastic Constant Matrix: (Units=GPa)
#
#
# Indices 1 2 3 4 5 6 
#
# 1 63.4370 38.2301 56.6733 -8.1593 8.8120 9.8547
# 2 38.2301 97.9349 55.4266 -8.1065 4.8633 17.5984
# 3 56.6733 55.4266 169.3551 -6.4233 11.2523 14.3373
# 4 -8.1593 -8.1065 -6.4233 33.7697 2.5540 6.7084
# 5 8.8120 4.8633 11.2523 2.5540 27.9790 -4.6981
# 6 9.8547 17.5984 14.3373 6.7084 -4.6981 19.2434
#
#
#
# Elastic Compliance Matrix: (Units=1/GPa)
#
#
# Indices 1 2 3 4 5 6 
#
# 1 0.027384 -0.004589 -0.006092 0.006822 -0.007598 -0.009521
# 2 -0.004589 0.016301 -0.002236 0.005314 -0.003247 -0.013537
# 3 -0.006092 -0.002236 0.008962 0.000216 -0.001651 -0.001990
# 4 0.006822 0.005314 0.000216 0.038254 -0.010761 -0.024477
# 5 -0.007598 -0.003247 -0.001651 -0.010761 0.044143 0.022619
# 6 -0.009521 -0.013537 -0.001990 -0.024477 0.022619 0.084759
#
#
# Mechanical properties :
#
#
# Convention : Reuss Voigt Hill
#
# Bulk Modulus (GPa) = 37.29628 70.15413 53.72520
# Shear Modulus (GPa) = 19.64060 28.22488 23.93274
#
# Velocity S-wave (km/s) = 3.22841 3.87015 3.56375
# Velocity P-wave (km/s) = 5.80421 7.56302 6.74122
#
# Compressibility (1/GPa) = 0.02681232
#
# Stress axis : x y z
#
# Youngs Moduli (GPa) = 36.51791 61.34466 111.58571
#
# Poissons Ratio (x) = 0.28149 0.67982
# Poissons Ratio (y) = 0.16757 0.24953
# Poissons Ratio (z) = 0.22248 0.13718
#
# Static dielectric constant tensor:
#      x y z
#    x 1.625630 0.008430 0.040160 
#    y 0.008430 1.714700 0.078480 
#    z 0.040160 0.078480 1.349350 
# 
# From -- ./inp_files/187378.got.cif
#   From: 2010.05.17/outbox.cif.g08.bks.cpg/sg2_94_cif.got.tgz:187378.got - 2010.06.03 11:33:40.
