data_PCOD9109239
_publ_section_title
;
Structure prediction by ZEFSAII (Michael W. Deem and Ramdas Pophale) SiO2 
 PCOD9109239
Probable space group: P -1
;
_chemical_formula_sum "Si O2"
_cell_formula_units_Z 16
_cell_length_a 13.309291
_cell_length_b 8.920038
_cell_length_c 13.942119
_cell_angle_alpha 29.443392
_cell_angle_beta 109.773358
_cell_angle_gamma 115.152695
_cell_volume 734.597824
_symmetry_space_group_name_H-M "P -1"
_symmetry_group_IT_number 2
_symmetry_cell_setting 'triclinic'
loop_
_space_group_symop_operation_xyz
x,y,z
-x,-y,-z
loop_
_atom_site_type_symbol
_atom_site_label
_atom_site_fract_x
_atom_site_fract_y
_atom_site_fract_z
Si Si1 0.978330 0.583454 0.628994
Si Si2 0.618497 0.740718 0.887828
Si Si3 0.967361 0.262891 0.212394
Si Si4 0.261442 0.728443 0.803773
Si Si5 0.422098 0.414153 0.428631
Si Si6 0.816714 0.632842 0.218959
Si Si7 0.248881 0.810315 0.167293
Si Si8 0.586770 0.257727 0.448366
O O1 0.848679 0.392757 0.682094
O O2 0.992741 0.614345 0.734019
O O3 0.060882 0.409928 0.701466
O O4 0.003235 0.938924 0.397111
O O5 0.669234 0.887287 0.922709
O O6 0.610905 0.045253 0.659732
O O7 0.500000 0.500000 0.000000
O O8 0.689574 0.525205 0.984048
O O9 0.833338 0.170868 0.226694
O O10 0.000000 0.500000 0.000000
O O11 0.205214 0.526297 0.805672
O O12 0.355711 0.040055 0.626014
O O13 0.500000 0.500000 0.500000
O O14 0.327643 0.595146 0.282278
O O15 0.512658 0.480100 0.336384
O O16 0.707362 0.432510 0.350292
O O17 0.815556 0.998127 0.027357
O O18 0.500000 0.000000 0.500000
#
# Coordination Sequence:
#
# PCOD9109239 Si02
#       8
#     2   2   2   2   2   2   2   2
#     4  10  22  43  69  94 139 175 219 284 340 398
#     4  11  21  40  66  90 124 178 215 264 336 410
#     4  10  22  40  67 100 131 174 225 273 339 407
#     4  10  20  41  64  88 128 174 214 263 337 400
#     4  12  22  40  66  94 133 169 216 284 339 390
#     4  10  23  41  65  94 128 177 216 270 336 403
#     4  11  22  43  67  92 132 173 217 274 350 389
#     4  12  23  39  65  96 127 169 234 270 326 412
#
# _framework density 21.780626000000002
#
# number of rings (size 3 to 8) (size 9 to 14) (size 15 to 20)
#    0.000    1.250    5.000    1.125    1.750    0.500 
#    4.500    0.625    0.000    0.000    0.000    0.000 
#    0.000    0.000    0.000    0.000    0.000    0.000 
#
# Total GULP energy -89137.575543 kJ/mol
# GULP energy per Si atom -5571.098471 kJ/mol
# Density = 2.173105 g / cm^3
# Si number density = 21.780626 Si / 1000 Ang^3
#
#
#
# Elastic Constant Matrix: (Units=GPa)
#
#
# Indices 1 2 3 4 5 6 
#
# 1 183.7937 6.1607 53.9554 -2.0607 22.9180 -9.3653
# 2 6.1607 18.3938 -6.1769 -5.0687 0.8088 3.6445
# 3 53.9554 -6.1769 114.3399 0.9824 12.9834 -8.3732
# 4 -2.0607 -5.0687 0.9824 25.2751 -2.0591 -4.7949
# 5 22.9180 0.8088 12.9834 -2.0591 48.2004 -8.0903
# 6 -9.3653 3.6445 -8.3732 -4.7949 -8.0903 23.0778
#
#
#
# Elastic Compliance Matrix: (Units=1/GPa)
#
#
# Indices 1 2 3 4 5 6 
#
# 1 0.006789 -0.003475 -0.003046 0.000085 -0.002097 0.001481
# 2 -0.003475 0.061481 0.004462 0.010258 -0.001466 -0.007883
# 3 -0.003046 0.004462 0.010675 0.000436 -0.001216 0.001597
# 4 0.000085 0.010258 0.000436 0.043496 0.002981 0.008655
# 5 -0.002097 -0.001466 -0.001216 0.002981 0.023534 0.007809
# 6 0.001481 -0.007883 0.001597 0.008655 0.007809 0.050293
#
#
# Mechanical properties :
#
#
# Convention : Reuss Voigt Hill
#
# Bulk Modulus (GPa) = 13.36368 47.15623 30.25995
# Shear Modulus (GPa) = 22.18977 36.81654 29.50316
#
# Velocity S-wave (km/s) = 3.19530 4.11583 3.68443
# Velocity P-wave (km/s) = 4.44547 6.65464 5.65891
#
# Compressibility (1/GPa) = 0.07482971
#
# Stress axis : x y z
#
# Youngs Moduli (GPa) = 147.28857 16.26511 93.67392
#
# Poissons Ratio (x) = 0.05651 0.28530
# Poissons Ratio (y) = 0.51176 -0.41798
# Poissons Ratio (z) = 0.44859 -0.07258
#
# Static dielectric constant tensor:
#      x y z
#    x 1.918760 0.060600 0.073810 
#    y 0.060600 1.917430 0.059260 
#    z 0.073810 0.059260 1.860780 
# 
# From -- ./inp_files/514831.got.cif
#   From: 2010.05.17/outbox.cif.g08.bks.cpg/sg2_258_cif.got.tgz:514831.got - 2010.06.03 11:33:40.
