data_PCOD9109150
_publ_section_title
;
Structure prediction by ZEFSAII (Michael W. Deem and Ramdas Pophale) SiO2 
 PCOD9109150
Probable space group: P -1
;
_chemical_formula_sum "Si O2"
_cell_formula_units_Z 14
_cell_length_a 13.568145
_cell_length_b 16.729274
_cell_length_c 10.593604
_cell_angle_alpha 42.832568
_cell_angle_beta 31.475801
_cell_angle_gamma 28.965723
_cell_volume 607.252280
_symmetry_space_group_name_H-M "P -1"
_symmetry_group_IT_number 2
_symmetry_cell_setting 'triclinic'
loop_
_space_group_symop_operation_xyz
x,y,z
-x,-y,-z
loop_
_atom_site_type_symbol
_atom_site_label
_atom_site_fract_x
_atom_site_fract_y
_atom_site_fract_z
Si Si1 0.845588 0.476913 0.354570
Si Si2 0.089069 0.528779 0.243778
Si Si3 0.620027 0.388948 0.120390
Si Si4 0.222978 0.922448 0.624610
Si Si5 0.579943 0.215115 0.694230
Si Si6 0.640825 0.201640 0.924779
Si Si7 0.599255 0.901684 0.817655
O O1 0.608027 0.508656 0.642459
O O2 0.699665 0.603593 0.250220
O O3 0.933194 0.541718 0.281215
O O4 0.100771 0.282360 0.284904
O O5 0.000000 0.500000 0.500000
O O6 0.108674 0.660851 0.083736
O O7 0.397946 0.366440 0.068637
O O8 0.669753 0.228785 0.232129
O O9 0.500000 0.500000 0.000000
O O10 0.227808 0.863223 0.545468
O O11 0.394414 0.964658 0.373930
O O12 0.930774 0.085271 0.797327
O O13 0.659694 0.235606 0.717450
O O14 0.544247 0.093285 0.910068
O O15 0.547880 0.106510 0.122630
#
# Coordination Sequence:
#
# PCOD9109150 Si02
#       7
#     2   2   2   2   2   2   2
#     4  10  20  41  63  91 125 160 213 250 301 359
#     4  11  22  42  67  84 121 166 211 263 292 361
#     4  11  24  41  64  87 116 165 216 253 305 363
#     4  11  21  40  60  92 128 162 196 258 312 366
#     4   9  20  37  63  95 127 165 197 248 305 370
#     4   9  22  39  61  94 127 155 208 245 315 364
#     4   9  20  36  61  90 128 160 197 249 304 367
#
# _framework density 23.054667999999999
#
# number of rings (size 3 to 8) (size 9 to 14) (size 15 to 20)
#    0.857    1.143    1.429    2.143    0.000    2.286 
#    5.143    7.143    0.000    0.000    0.000    0.000 
#    0.000    0.000    0.000    0.000    0.000    0.000 
#
# Total GULP energy -78096.254748 kJ/mol
# GULP energy per Si atom -5578.303911 kJ/mol
# Density = 2.300219 g / cm^3
# Si number density = 23.054668 Si / 1000 Ang^3
#
#
#
# Elastic Constant Matrix: (Units=GPa)
#
#
# Indices 1 2 3 4 5 6 
#
# 1 46.0801 4.8893 7.2914 -17.6303 -2.4578 -3.5516
# 2 4.8893 59.3569 23.3130 -18.6588 3.0352 -12.1066
# 3 7.2914 23.3130 102.7851 -26.6134 -13.0688 -7.3831
# 4 -17.6303 -18.6588 -26.6134 48.2284 -1.8483 -0.4013
# 5 -2.4578 3.0352 -13.0688 -1.8483 23.6542 -2.6836
# 6 -3.5516 -12.1066 -7.3831 -0.4013 -2.6836 21.6559
#
#
#
# Elastic Compliance Matrix: (Units=1/GPa)
#
#
# Indices 1 2 3 4 5 6 
#
# 1 0.026501 0.001904 0.001890 0.011726 0.005255 0.006924
# 2 0.001904 0.022842 -0.002630 0.008099 -0.002185 0.012064
# 3 0.001890 -0.002630 0.013681 0.007617 0.009231 0.004789
# 4 0.011726 0.008099 0.007617 0.032759 0.008157 0.010665
# 5 0.005255 -0.002185 0.009231 0.008157 0.049874 0.009119
# 6 0.006924 0.012064 0.004789 0.010665 0.009119 0.057017
#
#
# Mechanical properties :
#
#
# Convention : Reuss Voigt Hill
#
# Bulk Modulus (GPa) = 15.30185 31.02329 23.16257
# Shear Modulus (GPa) = 22.50939 30.22292 26.36616
#
# Velocity S-wave (km/s) = 3.12805 3.62460 3.38544
# Velocity P-wave (km/s) = 4.43823 5.56799 5.03490
#
# Compressibility (1/GPa) = 0.06535159
#
# Stress axis : x y z
#
# Youngs Moduli (GPa) = 37.73504 43.77989 73.09235
#
# Poissons Ratio (x) = -0.08338 -0.13813
# Poissons Ratio (y) = -0.07186 0.19224
# Poissons Ratio (z) = -0.07131 0.11515
#
# Static dielectric constant tensor:
#      x y z
#    x 1.919580 0.066740 -0.026860 
#    y 0.066740 1.925100 -0.023740 
#    z -0.026860 -0.023740 1.873560 
# 
# From -- ./inp_files/456367.got.cif
#   From: 2010.05.17/outbox.cif.g08.bks.cpg/sg2_229_cif.got.tgz:456367.got - 2010.06.03 11:33:40.
