data_PCOD9109104
_publ_section_title
;
Structure prediction by ZEFSAII (Michael W. Deem and Ramdas Pophale) SiO2 
 PCOD9109104
Probable space group: P -1
;
_chemical_formula_sum "Si O2"
_cell_formula_units_Z 10
_cell_length_a 13.683489
_cell_length_b 9.701133
_cell_length_c 9.822659
_cell_angle_alpha 133.412575
_cell_angle_beta 44.462643
_cell_angle_gamma 148.288279
_cell_volume 468.584621
_symmetry_space_group_name_H-M "P -1"
_symmetry_group_IT_number 2
_symmetry_cell_setting 'triclinic'
loop_
_space_group_symop_operation_xyz
x,y,z
-x,-y,-z
loop_
_atom_site_type_symbol
_atom_site_label
_atom_site_fract_x
_atom_site_fract_y
_atom_site_fract_z
Si Si1 0.636604 0.941674 0.214959
Si Si2 0.938165 0.727390 0.262109
Si Si3 0.669014 0.123026 0.023795
Si Si4 0.773271 0.452444 0.516230
Si Si5 0.924098 0.888935 0.848530
O O1 0.460688 0.750625 0.365612
O O2 0.796316 0.250947 0.321335
O O3 0.728303 0.830466 0.006939
O O4 0.565257 0.969431 0.165025
O O5 0.841600 0.646416 0.452307
O O6 0.164143 0.877357 0.167803
O O7 0.808060 0.438334 0.124184
O O8 0.942009 0.894434 0.258356
O O9 0.500000 0.000000 0.000000
O O10 0.875865 0.631432 0.671150
O O11 0.000000 0.000000 0.000000
#
# Coordination Sequence:
#
# PCOD9109104 Si02
#       5
#     2   2   2   2   2
#     4   9  21  40  61  87 117 159 197 242 302 351
#     4   9  20  39  57  89 119 155 201 242 297 352
#     4   9  18  36  64  86 118 158 197 246 297 352
#     4  10  20  41  63  82 122 154 196 253 292 347
#     4  11  23  38  60  88 123 158 193 244 301 353
#
# _framework density 21.340862999999999
#
# number of rings (size 3 to 8) (size 9 to 14) (size 15 to 20)
#    0.000    2.400    0.000    2.400    2.800    0.800 
#   10.800    1.000    0.000    0.000    0.000    0.000 
#    0.000    0.000    0.000    0.000    0.000    0.000 
#
# Total GULP energy -55704.142329 kJ/mol
# GULP energy per Si atom -5570.414233 kJ/mol
# Density = 2.129229 g / cm^3
# Si number density = 21.340863 Si / 1000 Ang^3
#
#
#
# Elastic Constant Matrix: (Units=GPa)
#
#
# Indices 1 2 3 4 5 6 
#
# 1 108.0346 41.3070 30.9544 7.8458 34.5231 17.4272
# 2 41.3070 80.7738 39.5402 -21.6958 23.2510 -6.7460
# 3 30.9544 39.5402 85.8327 2.1679 32.8517 -3.3810
# 4 7.8458 -21.6958 2.1679 42.4157 2.8037 13.2082
# 5 34.5231 23.2510 32.8517 2.8037 30.4222 1.9495
# 6 17.4272 -6.7460 -3.3810 13.2082 1.9495 22.2957
#
#
#
# Elastic Compliance Matrix: (Units=1/GPa)
#
#
# Indices 1 2 3 4 5 6 
#
# 1 0.020003 -0.008263 0.003246 -0.002293 -0.018740 -0.014646
# 2 -0.008263 0.025324 -0.007486 0.013434 -0.003473 0.005332
# 3 0.003246 -0.007486 0.022726 -0.005277 -0.022255 0.003716
# 4 -0.002293 0.013434 -0.005277 0.036460 -0.004290 -0.016167
# 5 -0.018740 -0.003473 -0.022255 -0.004290 0.080854 0.005694
# 6 -0.014646 0.005332 0.003716 -0.016167 0.005694 0.067556
#
#
# Mechanical properties :
#
#
# Convention : Reuss Voigt Hill
#
# Bulk Modulus (GPa) = 23.23024 55.36046 39.29535
# Shear Modulus (GPa) = 17.10704 29.88268 23.49486
#
# Velocity S-wave (km/s) = 2.83434 3.74606 3.32163
# Velocity P-wave (km/s) = 4.64976 6.68640 5.75883
#
# Compressibility (1/GPa) = 0.04304734
#
# Stress axis : x y z
#
# Youngs Moduli (GPa) = 49.99203 39.48839 44.00266
#
# Poissons Ratio (x) = 0.32631 -0.14284
# Poissons Ratio (y) = 0.41311 0.32939
# Poissons Ratio (z) = -0.16229 0.29559
#
# Static dielectric constant tensor:
#      x y z
#    x 1.774280 -0.024750 -0.010830 
#    y -0.024750 1.807320 0.027570 
#    z -0.010830 0.027570 1.840420 
# 
# From -- ./inp_files/16244.got.cif
#   From: 2010.05.17/outbox.cif.g08.bks.cpg/sg2_9_cif.got.tgz:16244.got - 2010.06.03 11:33:40.
