data_PCOD9109326
_publ_section_title
;
Structure prediction by ZEFSAII (Michael W. Deem and Ramdas Pophale) SiO2 
 PCOD9109326
Probable space group: P -1
;
_chemical_formula_sum "Si O2"
_cell_formula_units_Z 16
_cell_length_a 19.799653
_cell_length_b 8.670130
_cell_length_c 20.193552
_cell_angle_alpha 126.326560
_cell_angle_beta 21.314046
_cell_angle_gamma 136.877192
_cell_volume 806.019306
_symmetry_space_group_name_H-M "P -1"
_symmetry_group_IT_number 2
_symmetry_cell_setting 'triclinic'
loop_
_space_group_symop_operation_xyz
x,y,z
-x,-y,-z
loop_
_atom_site_type_symbol
_atom_site_label
_atom_site_fract_x
_atom_site_fract_y
_atom_site_fract_z
Si Si1 0.105718 0.095588 0.198164
Si Si2 0.408865 0.154203 0.382950
Si Si3 0.920942 0.586575 0.034733
Si Si4 0.558033 0.013549 0.079883
Si Si5 0.955627 0.543830 0.844367
Si Si6 0.811860 0.879640 0.026721
Si Si7 0.694641 0.272350 0.543571
Si Si8 0.904487 0.461927 0.652334
O O1 0.147471 0.346459 0.238049
O O2 0.292213 0.078484 0.059484
O O3 0.126062 0.072216 0.095422
O O4 0.836224 0.890741 0.413224
O O5 0.462459 0.057518 0.245012
O O6 0.374220 0.982905 0.431615
O O7 0.639116 0.424195 0.251843
O O8 0.989144 0.532176 0.888835
O O9 0.000000 0.500000 0.000000
O O10 0.953510 0.132994 0.999517
O O11 0.331444 0.807665 0.193940
O O12 0.743190 0.276039 0.946183
O O13 0.182335 0.656697 0.621546
O O14 0.876454 0.712661 0.951649
O O15 0.537366 0.748680 0.250411
O O16 0.889568 0.465431 0.466950
O O17 0.000000 0.500000 0.500000
#
# Coordination Sequence:
#
# PCOD9109326 Si02
#       8
#     2   2   2   2   2   2   2   2
#     4  11  21  39  70  94 128 172 212 269 321 371
#     4  10  20  41  64  96 130 162 220 269 306 384
#     4  11  23  43  71  95 125 173 218 266 320 386
#     4  11  22  41  66  96 131 169 219 263 313 385
#     4  11  26  43  61  97 135 168 211 271 322 379
#     4  12  22  43  66  93 135 174 210 265 332 373
#     4  11  22  42  63  94 137 167 214 267 319 374
#     4  11  20  40  71  96 127 169 220 265 316 383
#
# _framework density 19.850643000000002
#
# number of rings (size 3 to 8) (size 9 to 14) (size 15 to 20)
#    0.000    1.000    7.500    1.500    0.000    3.500 
#    0.000    0.625    0.000    0.000    0.000    0.000 
#    0.000    0.000    0.000    0.000    0.000    0.000 
#
# Total GULP energy -89433.751702 kJ/mol
# GULP energy per Si atom -5589.609481 kJ/mol
# Density = 1.980546 g / cm^3
# Si number density = 19.850643 Si / 1000 Ang^3
#
#
#
# Elastic Constant Matrix: (Units=GPa)
#
#
# Indices 1 2 3 4 5 6 
#
# 1 64.1065 18.6669 45.8178 -4.2254 -4.6345 17.7551
# 2 18.6669 74.6447 34.3714 -12.6776 -16.7910 25.2731
# 3 45.8178 34.3714 162.1944 -1.6672 -5.1913 14.7345
# 4 -4.2254 -12.6776 -1.6672 24.0843 -0.9152 -3.4600
# 5 -4.6345 -16.7910 -5.1913 -0.9152 36.5729 -4.8943
# 6 17.7551 25.2731 14.7345 -3.4600 -4.8943 27.1894
#
#
#
# Elastic Compliance Matrix: (Units=1/GPa)
#
#
# Indices 1 2 3 4 5 6 
#
# 1 0.023015 0.002201 -0.005678 0.002936 0.001405 -0.013371
# 2 0.002201 0.025108 -0.003751 0.010842 0.008901 -0.019761
# 3 -0.005678 -0.003751 0.008306 -0.002112 -0.001015 0.002241
# 4 0.002936 0.010842 -0.002112 0.047268 0.005724 -0.003805
# 5 0.001405 0.008901 -0.001015 0.005724 0.031301 -0.002278
# 6 -0.013371 -0.019761 0.002241 -0.003805 -0.002278 0.061770
#
#
# Mechanical properties :
#
#
# Convention : Reuss Voigt Hill
#
# Bulk Modulus (GPa) = 23.82489 55.40641 39.61565
# Shear Modulus (GPa) = 22.20107 31.04195 26.62151
#
# Velocity S-wave (km/s) = 3.34789 3.95875 3.66606
# Velocity P-wave (km/s) = 5.19351 6.99055 6.15794
#
# Compressibility (1/GPa) = 0.04197292
#
# Stress axis : x y z
#
# Youngs Moduli (GPa) = 43.45066 39.82835 120.38869
#
# Poissons Ratio (x) = -0.08766 0.68355
# Poissons Ratio (y) = -0.09563 0.45157
# Poissons Ratio (z) = 0.24671 0.14939
#
# Static dielectric constant tensor:
#      x y z
#    x 1.698730 0.002730 0.005690 
#    y 0.002730 1.701210 -0.022630 
#    z 0.005690 -0.022630 1.689210 
# 
# From -- ./inp_files/601167.got.cif
#   From: 2010.05.17/outbox.cif.g08.bks.cpg/sg2_301_cif.got.tgz:601167.got - 2010.06.03 11:33:40.
