data_PCOD9109448
_publ_section_title
;
Structure prediction by ZEFSAII (Michael W. Deem and Ramdas Pophale) SiO2 
 PCOD9109448
Probable space group: P -1
;
_chemical_formula_sum "Si O2"
_cell_formula_units_Z 16
_cell_length_a 7.370923
_cell_length_b 13.903454
_cell_length_c 11.451053
_cell_angle_alpha 60.795534
_cell_angle_beta 104.524041
_cell_angle_gamma 134.143560
_cell_volume 727.603686
_symmetry_space_group_name_H-M "P -1"
_symmetry_group_IT_number 2
_symmetry_cell_setting 'triclinic'
loop_
_space_group_symop_operation_xyz
x,y,z
-x,-y,-z
loop_
_atom_site_type_symbol
_atom_site_label
_atom_site_fract_x
_atom_site_fract_y
_atom_site_fract_z
Si Si1 0.674047 0.600154 0.855341
Si Si2 0.046873 0.650501 0.044941
Si Si3 0.328557 0.138146 0.735554
Si Si4 0.235096 0.079489 0.165430
Si Si5 0.473169 0.311189 0.889138
Si Si6 0.245523 0.857048 0.176985
Si Si7 0.781909 0.326307 0.532094
Si Si8 0.623655 0.307516 0.263321
O O1 0.587279 0.477529 0.818146
O O2 0.599499 0.691194 0.748792
O O3 0.500000 0.500000 0.000000
O O4 0.953000 0.683562 0.899945
O O5 0.842049 0.470908 0.143217
O O6 0.305502 0.687742 0.046093
O O7 0.087982 0.741633 0.112966
O O8 0.376448 0.240888 0.788788
O O9 0.464550 0.075496 0.830009
O O10 0.506802 0.246320 0.592906
O O11 0.026404 0.014674 0.749083
O O12 0.477770 0.165489 0.239114
O O13 0.229233 0.978572 0.129776
O O14 0.270417 0.204476 0.020959
O O15 0.151192 0.759589 0.338737
O O16 0.742203 0.304946 0.400622
O O17 0.000000 0.500000 0.500000
#
# Coordination Sequence:
#
# PCOD9109448 Si02
#       8
#     2   2   2   2   2   2   2   2
#     4  10  21  35  59  99 124 158 209 267 306 373
#     4  10  20  41  65  92 125 162 216 264 302 379
#     4   9  24  41  61  94 130 163 213 256 307 387
#     4  12  24  38  63  97 132 168 197 260 329 377
#     4  11  21  39  63  92 132 162 208 263 315 370
#     4   9  23  42  66  92 125 165 216 257 305 380
#     4  10  20  47  69  83 126 170 212 265 301 365
#     4  11  23  40  65  92 127 168 209 257 320 363
#
# _framework density 21.989992999999998
#
# number of rings (size 3 to 8) (size 9 to 14) (size 15 to 20)
#    0.750    1.000    3.750    0.750    3.500    5.000 
#    0.000    3.750    0.000    0.000    0.000    0.000 
#    0.000    0.000    0.000    0.000    0.000    0.000 
#
# Total GULP energy -89314.337084 kJ/mol
# GULP energy per Si atom -5582.146068 kJ/mol
# Density = 2.193994 g / cm^3
# Si number density = 21.989993 Si / 1000 Ang^3
#
#
#
# Elastic Constant Matrix: (Units=GPa)
#
#
# Indices 1 2 3 4 5 6 
#
# 1 60.7804 32.2857 -2.5912 -6.5101 -4.2388 6.6401
# 2 32.2857 119.2582 10.0150 7.3674 -5.6468 8.7798
# 3 -2.5912 10.0150 42.8264 2.0183 -4.9209 9.4172
# 4 -6.5101 7.3674 2.0183 25.2404 4.5098 -3.1465
# 5 -4.2388 -5.6468 -4.9209 4.5098 22.6803 -5.1966
# 6 6.6401 8.7798 9.4172 -3.1465 -5.1966 34.5407
#
#
#
# Elastic Compliance Matrix: (Units=1/GPa)
#
#
# Indices 1 2 3 4 5 6 
#
# 1 0.020840 -0.006048 0.003074 0.006362 0.001208 -0.002546
# 2 -0.006048 0.010680 -0.002173 -0.004965 0.001782 -0.001144
# 3 0.003074 -0.002173 0.026157 -0.002327 0.004640 -0.006684
# 4 0.006362 -0.004965 -0.002327 0.044877 -0.008684 0.003455
# 5 0.001208 0.001782 0.004640 -0.008684 0.048539 0.004561
# 6 -0.002546 -0.001144 -0.006684 0.003455 0.004561 0.032555
#
#
# Mechanical properties :
#
#
# Convention : Reuss Voigt Hill
#
# Bulk Modulus (GPa) = 21.10494 33.58711 27.34602
# Shear Modulus (GPa) = 23.83925 28.70266 26.27096
#
# Velocity S-wave (km/s) = 3.29613 3.61676 3.46016
# Velocity P-wave (km/s) = 4.90962 5.72261 5.33163
#
# Compressibility (1/GPa) = 0.04738228
#
# Stress axis : x y z
#
# Youngs Moduli (GPa) = 47.98390 93.62927 38.23093
#
# Poissons Ratio (x) = 0.56631 -0.11753
# Poissons Ratio (y) = 0.29023 0.08309
# Poissons Ratio (z) = -0.14751 0.20349
#
# Static dielectric constant tensor:
#      x y z
#    x 1.885210 0.041700 -0.010830 
#    y 0.041700 1.856810 -0.005970 
#    z -0.010830 -0.005970 1.802820 
# 
# From -- ./inp_files/395777.got.cif
#   From: 2010.05.17/outbox.cif.g08.bks.cpg/sg2_198_cif.got.tgz:395777.got - 2010.06.03 11:33:40.
