data_PCOD9109002
_publ_section_title
;
Structure prediction by ZEFSAII (Michael W. Deem and Ramdas Pophale) SiO2 
 PCOD9109002
Probable space group: P -1
;
_chemical_formula_sum "Si O2"
_cell_formula_units_Z 14
_cell_length_a 6.210322
_cell_length_b 11.166217
_cell_length_c 9.980354
_cell_angle_alpha 88.664172
_cell_angle_beta 110.672982
_cell_angle_gamma 99.329128
_cell_volume 638.536113
_symmetry_space_group_name_H-M "P -1"
_symmetry_group_IT_number 2
_symmetry_cell_setting 'triclinic'
loop_
_space_group_symop_operation_xyz
x,y,z
-x,-y,-z
loop_
_atom_site_type_symbol
_atom_site_label
_atom_site_fract_x
_atom_site_fract_y
_atom_site_fract_z
Si Si1 0.131428 0.354424 0.071827
Si Si2 0.128385 0.487012 0.810663
Si Si3 0.417030 0.701529 0.721662
Si Si4 0.991234 0.176618 0.395407
Si Si5 0.765070 0.037141 0.607249
Si Si6 0.790524 0.266008 0.778131
Si Si7 0.558449 0.641402 0.472092
O O1 0.326503 0.277710 0.159424
O O2 0.058215 0.431146 0.177597
O O3 0.236525 0.447907 0.974936
O O4 0.897751 0.285529 0.950006
O O5 0.298985 0.566151 0.745162
O O6 0.983231 0.359678 0.733120
O O7 0.439374 0.704643 0.566600
O O8 0.240732 0.790105 0.723646
O O9 0.172094 0.298988 0.461802
O O10 0.912666 0.111377 0.519329
O O11 0.119981 0.083009 0.344090
O O12 0.770069 0.128929 0.729358
O O13 0.500000 0.000000 0.500000
O O14 0.554455 0.317608 0.690415
O O15 0.500000 0.500000 0.500000
#
# Coordination Sequence:
#
# PCOD9109002 Si02
#       7
#     2   2   2   2   2   2   2
#     4   9  21  40  58  92 130 167 206 253 318 384
#     4   9  21  38  62  91 128 170 203 252 318 378
#     4  12  21  39  61  91 131 167 199 261 324 371
#     4  11  24  39  63  91 128 167 209 260 321 362
#     4  11  22  44  63  90 124 172 216 261 307 367
#     4  10  20  41  61  91 123 163 211 258 305 372
#     4  12  25  37  63 100 129 159 207 265 319 379
#
# _framework density 21.925152000000001
#
# number of rings (size 3 to 8) (size 9 to 14) (size 15 to 20)
#    0.857    0.571    2.857    3.000    2.000    1.143 
#    2.571    0.714    0.000    6.000    0.000    0.000 
#    0.000    0.000    0.000    0.000    0.000    0.000 
#
# Total GULP energy -78132.179770 kJ/mol
# GULP energy per Si atom -5580.869984 kJ/mol
# Density = 2.187525 g / cm^3
# Si number density = 21.925152 Si / 1000 Ang^3
#
#
#
# Elastic Constant Matrix: (Units=GPa)
#
#
# Indices 1 2 3 4 5 6 
#
# 1 80.1269 39.8930 41.9369 -0.1496 24.6958 -14.3256
# 2 39.8930 111.2560 34.2316 12.5540 19.4564 -14.5014
# 3 41.9369 34.2316 82.4080 2.8674 35.0073 -10.3674
# 4 -0.1496 12.5540 2.8674 35.2201 -3.4948 0.8642
# 5 24.6958 19.4564 35.0073 -3.4948 39.8919 -20.6337
# 6 -14.3256 -14.5014 -10.3674 0.8642 -20.6337 51.3872
#
#
#
# Elastic Compliance Matrix: (Units=1/GPa)
#
#
# Indices 1 2 3 4 5 6 
#
# 1 0.019335 -0.004372 -0.006572 0.001829 -0.003107 0.001552
# 2 -0.004372 0.012021 -0.001999 -0.004279 -0.001041 0.001424
# 3 -0.006572 -0.001999 0.023682 -0.002966 -0.018606 -0.005039
# 4 0.001829 -0.004279 -0.002966 0.030812 0.006713 0.000881
# 5 -0.003107 -0.001041 -0.018606 0.006713 0.052776 0.016165
# 6 0.001552 0.001424 -0.005039 0.000881 0.016165 0.025754
#
#
# Mechanical properties :
#
#
# Convention : Reuss Voigt Hill
#
# Bulk Modulus (GPa) = 34.29996 56.21266 45.25631
# Shear Modulus (GPa) = 25.00224 35.81513 30.40868
#
# Velocity S-wave (km/s) = 3.38056 4.04606 3.72819
# Velocity P-wave (km/s) = 5.56019 6.89359 6.26248
#
# Compressibility (1/GPa) = 0.02915455
#
# Stress axis : x y z
#
# Youngs Moduli (GPa) = 51.71998 83.18593 42.22550
#
# Poissons Ratio (x) = 0.36365 0.27750
# Poissons Ratio (y) = 0.22609 0.08439
# Poissons Ratio (z) = 0.33990 0.16625
#
# Static dielectric constant tensor:
#      x y z
#    x 1.826600 -0.013850 0.021810 
#    y -0.013850 1.824060 -0.019260 
#    z 0.021810 -0.019260 1.807720 
# 
# From -- ./inp_files/362143.got.cif
#   From: 2010.05.17/outbox.cif.g08.bks.cpg/sg2_182_cif.got.tgz:362143.got - 2010.06.03 11:33:40.
