data_PCOD9109815
_publ_section_title
;
Structure prediction by ZEFSAII (Michael W. Deem and Ramdas Pophale) SiO2 
 PCOD9109815
Probable space group: P -1
;
_chemical_formula_sum "Si O2"
_cell_formula_units_Z 12
_cell_length_a 13.205682
_cell_length_b 7.076270
_cell_length_c 13.319793
_cell_angle_alpha 108.748814
_cell_angle_beta 148.223242
_cell_angle_gamma 87.966016
_cell_volume 545.603056
_symmetry_space_group_name_H-M "P -1"
_symmetry_group_IT_number 2
_symmetry_cell_setting 'triclinic'
loop_
_space_group_symop_operation_xyz
x,y,z
-x,-y,-z
loop_
_atom_site_type_symbol
_atom_site_label
_atom_site_fract_x
_atom_site_fract_y
_atom_site_fract_z
Si Si1 0.967826 0.156156 0.418451
Si Si2 0.399854 0.536518 0.080782
Si Si3 0.758439 0.135901 0.726758
Si Si4 0.987706 0.513524 0.824605
Si Si5 0.830203 0.790269 0.610413
Si Si6 0.361573 0.675424 0.860376
O O1 0.742238 0.169113 0.236620
O O2 0.011426 0.102654 0.333006
O O3 0.161281 0.415187 0.642275
O O4 0.000000 0.000000 0.500000
O O5 0.583664 0.677725 0.341390
O O6 0.453524 0.340979 0.052729
O O7 0.160654 0.451674 0.908095
O O8 0.428834 0.699134 0.037639
O O9 0.816005 0.310420 0.712696
O O10 0.500000 0.000000 0.500000
O O11 0.851767 0.968113 0.743596
O O12 0.875006 0.279467 0.948006
O O13 0.877707 0.597286 0.663032
#
# Coordination Sequence:
#
# PCOD9109815 Si02
#       6
#     2   2   2   2   2   2
#     4  10  21  37  65  98 133 177 221 269 330 396
#     4  10  20  41  67  94 132 183 218 266 339 392
#     4  11  25  46  69  99 131 172 233 282 337 401
#     4  11  24  46  70  95 139 177 217 287 340 387
#     4  11  23  42  68  98 134 176 226 276 332 406
#     4   9  20  39  60  91 140 173 219 272 320 402
#
# _framework density 21.994012000000001
#
# number of rings (size 3 to 8) (size 9 to 14) (size 15 to 20)
#    0.000    1.667    3.333    0.500    2.333    0.667 
#    3.000   12.500    0.000    0.000    0.000    0.000 
#    0.000    0.000    0.000    0.000    0.000    0.000 
#
# Total GULP energy -67168.044404 kJ/mol
# GULP energy per Si atom -5597.337034 kJ/mol
# Density = 2.194395 g / cm^3
# Si number density = 21.994012 Si / 1000 Ang^3
#
#
#
# Elastic Constant Matrix: (Units=GPa)
#
#
# Indices 1 2 3 4 5 6 
#
# 1 127.2427 49.1615 52.5713 -18.0004 14.8775 -5.1496
# 2 49.1615 128.7146 54.5790 -33.4909 10.7748 -8.2065
# 3 52.5713 54.5790 85.2450 -17.6975 18.6378 0.1750
# 4 -18.0004 -33.4909 -17.6975 40.0177 -2.5311 1.6756
# 5 14.8775 10.7748 18.6378 -2.5311 27.0780 -4.0994
# 6 -5.1496 -8.2065 0.1750 1.6756 -4.0994 31.8276
#
#
#
# Elastic Compliance Matrix: (Units=1/GPa)
#
#
# Indices 1 2 3 4 5 6 
#
# 1 0.010996 -0.001432 -0.005263 0.001273 -0.001553 0.001172
# 2 -0.001432 0.012923 -0.006060 0.007431 0.000944 0.002864
# 3 -0.005263 -0.006060 0.021331 0.001535 -0.009823 -0.003877
# 4 0.001273 0.007431 0.001535 0.032346 -0.001659 0.000197
# 5 -0.001553 0.000944 -0.009823 -0.001659 0.044910 0.005918
# 6 0.001172 0.002864 -0.003877 0.000197 0.005918 0.033120
#
#
# Mechanical properties :
#
#
# Convention : Reuss Voigt Hill
#
# Bulk Modulus (GPa) = 50.66202 72.64731 61.65467
# Shear Modulus (GPa) = 26.63592 32.11068 29.37330
#
# Velocity S-wave (km/s) = 3.48379 3.82511 3.65843
# Velocity P-wave (km/s) = 6.26633 7.25333 6.77782
#
# Compressibility (1/GPa) = 0.01973865
#
# Stress axis : x y z
#
# Youngs Moduli (GPa) = 90.94409 77.38161 46.87996
#
# Poissons Ratio (x) = 0.11084 0.24672
# Poissons Ratio (y) = 0.13026 0.28411
# Poissons Ratio (z) = 0.47862 0.46896
#
# Static dielectric constant tensor:
#      x y z
#    x 1.792260 -0.017760 0.005650 
#    y -0.017760 1.811210 0.044050 
#    z 0.005650 0.044050 1.825420 
# 
# From -- ./inp_files/525894.got.cif
#   From: 2010.05.17/outbox.cif.g08.bks.cpg/sg2_263_cif.got.tgz:525894.got - 2010.06.03 11:33:40.
