data_PCOD9109465
_publ_section_title
;
Structure prediction by ZEFSAII (Michael W. Deem and Ramdas Pophale) SiO2 
 PCOD9109465
Probable space group: P -1
;
_chemical_formula_sum "Si O2"
_cell_formula_units_Z 15
_cell_length_a 11.612622
_cell_length_b 11.962808
_cell_length_c 7.588336
_cell_angle_alpha 80.360465
_cell_angle_beta 33.328065
_cell_angle_gamma 87.054372
_cell_volume 563.339544
_symmetry_space_group_name_H-M "P -1"
_symmetry_group_IT_number 2
_symmetry_cell_setting 'triclinic'
loop_
_space_group_symop_operation_xyz
x,y,z
-x,-y,-z
loop_
_atom_site_type_symbol
_atom_site_label
_atom_site_fract_x
_atom_site_fract_y
_atom_site_fract_z
Si Si1 0.233230 0.380074 0.729569
Si Si2 0.461913 0.365116 0.122307
Si Si3 0.386959 0.758833 0.360101
Si Si4 0.500000 0.000000 0.000000
Si Si5 0.132382 0.173443 0.125656
Si Si6 0.983392 0.266468 0.642025
Si Si7 0.842574 0.424765 0.016090
Si Si8 0.302766 0.954461 0.889400
O O1 0.442516 0.361301 0.361961
O O2 0.251087 0.458545 0.861309
O O3 0.111622 0.255062 0.967748
O O4 0.086954 0.442887 0.772137
O O5 0.225302 0.297483 0.391169
O O6 0.500000 0.500000 0.000000
O O7 0.606510 0.307371 0.817841
O O8 0.272465 0.670437 0.674511
O O9 0.627005 0.788537 0.121174
O O10 0.350072 0.888211 0.329520
O O11 0.411011 0.945489 0.942434
O O12 0.998355 0.212223 0.446080
O O13 0.133502 0.042197 0.109104
O O14 0.876758 0.378322 0.788636
O O15 0.833748 0.165057 0.963589
O O16 0.500000 0.000000 0.500000
#
# Coordination Sequence:
#
# PCOD9109465 Si02
#       8
#     2   2   2   1   2   2   2   2
#     4  10  22  39  64  93 131 178 225 278 336 403
#     4  10  20  41  65  93 134 178 220 279 338 401
#     4  10  21  41  64  92 132 171 227 274 337 411
#     4  10  24  40  68  96 132 174 216 280 348 390
#     4  10  23  41  63  97 131 172 223 281 339 404
#     4  10  22  41  65  95 136 176 218 283 336 404
#     4  10  21  41  62  93 133 173 227 274 336 408
#     4  11  24  46  70 102 138 176 233 285 342 416
#
# _framework density 26.626926999999998
#
# number of rings (size 3 to 8) (size 9 to 14) (size 15 to 20)
#    0.000    1.867    1.333    2.000    3.733    1.067 
#    0.000    1.333    0.000    0.000    0.000    0.000 
#    0.000    0.000    0.000    0.000    0.000    0.000 
#
# Total GULP energy -83544.913443 kJ/mol
# GULP energy per Si atom -5569.660896 kJ/mol
# Density = 2.656632 g / cm^3
# Si number density = 26.626927 Si / 1000 Ang^3
#
#
#
# Elastic Constant Matrix: (Units=GPa)
#
#
# Indices 1 2 3 4 5 6 
#
# 1 57.7189 10.7180 13.5104 8.6548 3.8746 13.0670
# 2 10.7180 133.2691 29.2726 1.9853 15.0449 30.8775
# 3 13.5104 29.2726 125.8365 -8.8145 13.3593 5.0337
# 4 8.6548 1.9853 -8.8145 64.7254 2.2338 0.4544
# 5 3.8746 15.0449 13.3593 2.2338 48.5945 -2.2671
# 6 13.0670 30.8775 5.0337 0.4544 -2.2671 33.6688
#
#
#
# Elastic Compliance Matrix: (Units=1/GPa)
#
#
# Indices 1 2 3 4 5 6 
#
# 1 0.020089 0.001039 -0.002089 -0.002887 -0.001613 -0.008507
# 2 0.001039 0.010517 -0.001848 -0.000530 -0.003272 -0.009985
# 3 -0.002089 -0.001848 0.008854 0.001594 -0.001720 0.001045
# 4 -0.002887 -0.000530 0.001594 0.016087 -0.000732 0.001102
# 5 -0.001613 -0.003272 -0.001720 -0.000732 0.022479 0.005408
# 6 -0.008507 -0.009985 0.001045 0.001102 0.005408 0.042353
#
#
# Mechanical properties :
#
#
# Convention : Reuss Voigt Hill
#
# Bulk Modulus (GPa) = 29.70663 47.09185 38.39924
# Shear Modulus (GPa) = 36.39146 46.95262 41.67204
#
# Velocity S-wave (km/s) = 3.70092 4.20378 3.96034
# Velocity P-wave (km/s) = 5.42617 6.42546 5.94684
#
# Compressibility (1/GPa) = 0.03366251
#
# Stress axis : x y z
#
# Youngs Moduli (GPa) = 49.77968 95.08570 112.94951
#
# Poissons Ratio (x) = -0.09884 0.23598
# Poissons Ratio (y) = -0.05175 0.20878
# Poissons Ratio (z) = 0.10400 0.17576
#
# Static dielectric constant tensor:
#      x y z
#    x 2.170450 -0.010650 -0.058990 
#    y -0.010650 2.100590 0.024840 
#    z -0.058990 0.024840 2.175600 
# 
# From -- ./inp_files/178496.got.cif
#   From: 2010.05.17/outbox.cif.g08.bks.cpg/sg2_90_cif.got.tgz:178496.got - 2010.06.03 11:33:40.
