data_PCOD9109206
_publ_section_title
;
Structure prediction by ZEFSAII (Michael W. Deem and Ramdas Pophale) SiO2 
 PCOD9109206
Probable space group: P -1
;
_chemical_formula_sum "Si O2"
_cell_formula_units_Z 16
_cell_length_a 7.673908
_cell_length_b 19.878863
_cell_length_c 16.739244
_cell_angle_alpha 21.817485
_cell_angle_beta 50.201595
_cell_angle_gamma 59.703924
_cell_volume 692.167603
_symmetry_space_group_name_H-M "P -1"
_symmetry_group_IT_number 2
_symmetry_cell_setting 'triclinic'
loop_
_space_group_symop_operation_xyz
x,y,z
-x,-y,-z
loop_
_atom_site_type_symbol
_atom_site_label
_atom_site_fract_x
_atom_site_fract_y
_atom_site_fract_z
Si Si1 0.036794 0.166287 0.061540
Si Si2 0.491990 0.327326 0.864162
Si Si3 0.666624 0.463316 0.924760
Si Si4 0.126819 0.786188 0.415516
Si Si5 0.830200 0.264233 0.234101
Si Si6 0.515903 0.122498 0.235474
Si Si7 0.262709 0.556777 0.492524
Si Si8 0.700320 0.412873 0.266270
O O1 0.748288 0.070918 0.256608
O O2 0.136407 0.004674 0.173085
O O3 0.227358 0.245373 0.990849
O O4 0.059081 0.359087 0.791566
O O5 0.699005 0.374568 0.684972
O O6 0.489478 0.516495 0.705501
O O7 0.528804 0.171079 0.085137
O O8 0.807079 0.350696 0.059519
O O9 0.526381 0.316371 0.063034
O O10 0.500000 0.500000 0.000000
O O11 0.852764 0.655532 0.627859
O O12 0.257294 0.719077 0.378058
O O13 0.208069 0.715788 0.554213
O O14 0.666898 0.304315 0.310518
O O15 0.732912 0.040100 0.498133
O O16 0.099357 0.386908 0.038698
O O17 0.500000 0.500000 0.500000
#
# Coordination Sequence:
#
# PCOD9109206 Si02
#       8
#     2   2   2   2   2   2   2   2
#     4  11  23  43  69  98 138 176 223 280 333 404
#     4  11  24  42  69  95 137 178 224 281 339 393
#     4  11  22  39  62  93 136 180 215 280 339 395
#     4  11  21  41  70  96 137 179 224 278 339 400
#     4  10  22  37  63  95 135 176 222 271 341 400
#     4  12  24  43  67 101 136 176 227 276 341 407
#     4  10  21  44  67  99 134 181 225 280 342 391
#     4  10  20  41  63  99 138 173 224 283 327 408
#
# _framework density 23.115788999999999
#
# number of rings (size 3 to 8) (size 9 to 14) (size 15 to 20)
#    0.000    1.250    3.750    3.375    0.000    4.000 
#    2.250    0.625    0.000    0.000    0.000    0.000 
#    0.000    0.000    0.000    0.000    0.000    0.000 
#
# Total GULP energy -89276.526770 kJ/mol
# GULP energy per Si atom -5579.782923 kJ/mol
# Density = 2.306318 g / cm^3
# Si number density = 23.115789 Si / 1000 Ang^3
#
#
#
# Elastic Constant Matrix: (Units=GPa)
#
#
# Indices 1 2 3 4 5 6 
#
# 1 81.9330 18.3030 14.9415 -1.0435 3.0543 9.8102
# 2 18.3030 130.0451 13.8297 -9.5905 4.4689 10.8992
# 3 14.9415 13.8297 62.4080 -15.9645 1.9487 20.5656
# 4 -1.0435 -9.5905 -15.9645 32.7762 -0.3437 4.3828
# 5 3.0543 4.4689 1.9487 -0.3437 23.3228 3.4236
# 6 9.8102 10.8992 20.5656 4.3828 3.4236 32.4962
#
#
#
# Elastic Compliance Matrix: (Units=1/GPa)
#
#
# Indices 1 2 3 4 5 6 
#
# 1 0.013221 -0.001496 -0.002526 -0.001038 -0.001008 -0.001645
# 2 -0.001496 0.008354 0.000162 0.002831 -0.000976 -0.002732
# 3 -0.002526 0.000162 0.026484 0.015313 0.000987 -0.018221
# 4 -0.001038 0.002831 0.015313 0.040914 0.001263 -0.015978
# 5 -0.001008 -0.000976 0.000987 0.001263 0.043833 -0.004782
# 6 -0.001645 -0.002732 -0.018221 -0.015978 -0.004782 0.046376
#
#
# Mechanical properties :
#
#
# Convention : Reuss Voigt Hill
#
# Bulk Modulus (GPa) = 24.79035 40.94828 32.86931
# Shear Modulus (GPa) = 24.95644 32.87317 28.91480
#
# Velocity S-wave (km/s) = 3.28933 3.77518 3.54060
# Velocity P-wave (km/s) = 5.01737 6.06263 5.56460
#
# Compressibility (1/GPa) = 0.04033827
#
# Stress axis : x y z
#
# Youngs Moduli (GPa) = 75.63592 119.69953 37.75933
#
# Poissons Ratio (x) = 0.17910 0.09537
# Poissons Ratio (y) = 0.11317 -0.00610
# Poissons Ratio (z) = 0.19104 -0.01935
#
# Static dielectric constant tensor:
#      x y z
#    x 2.004080 -0.049850 0.010290 
#    y -0.049850 1.946620 0.011480 
#    z 0.010290 0.011480 1.906040 
# 
# From -- ./inp_files/562520.got.cif
#   From: 2010.05.17/outbox.cif.g08.bks.cpg/sg2_282_cif.got.tgz:562520.got - 2010.06.03 11:33:40.
