data_PCOD9109221
_publ_section_title
;
Structure prediction by ZEFSAII (Michael W. Deem and Ramdas Pophale) SiO2 
 PCOD9109221
Probable space group: P -1
;
_chemical_formula_sum "Si O2"
_cell_formula_units_Z 12
_cell_length_a 7.434625
_cell_length_b 7.654745
_cell_length_c 11.690920
_cell_angle_alpha 122.156681
_cell_angle_beta 80.654685
_cell_angle_gamma 125.603798
_cell_volume 447.337414
_symmetry_space_group_name_H-M "P -1"
_symmetry_group_IT_number 2
_symmetry_cell_setting 'triclinic'
loop_
_space_group_symop_operation_xyz
x,y,z
-x,-y,-z
loop_
_atom_site_type_symbol
_atom_site_label
_atom_site_fract_x
_atom_site_fract_y
_atom_site_fract_z
Si Si1 0.335481 0.216519 0.056927
Si Si2 0.128707 0.707396 0.793072
Si Si3 0.162102 0.411138 0.943316
Si Si4 0.142582 0.002647 0.667229
Si Si5 0.286433 0.497695 0.546822
Si Si6 0.656829 0.393749 0.668874
O O1 0.210628 0.914458 0.956058
O O2 0.772147 0.696372 0.994674
O O3 0.410067 0.653519 0.963050
O O4 0.322258 0.344619 0.217166
O O5 0.289795 0.633178 0.708187
O O6 0.870727 0.452077 0.738916
O O7 0.133476 0.858498 0.732943
O O8 0.084856 0.196410 0.779862
O O9 0.000000 0.500000 0.000000
O O10 0.400915 0.171862 0.653447
O O11 0.946253 0.786587 0.530650
O O12 0.500000 0.500000 0.500000
O O13 0.290022 0.632108 0.475571
#
# Coordination Sequence:
#
# PCOD9109221 Si02
#       6
#     2   2   2   2   2   2
#     4   9  19  37  61  94 119 158 203 249 304 361
#     4  10  21  39  64  86 122 160 195 250 309 355
#     4   9  18  34  61  93 126 156 196 253 308 357
#     4   9  20  39  62  87 116 160 202 246 302 361
#     4  11  25  40  57  89 126 161 200 251 304 359
#     4  10  20  41  64  86 120 155 210 245 297 371
#
# _framework density 26.825389999999999
#
# number of rings (size 3 to 8) (size 9 to 14) (size 15 to 20)
#    0.000    2.333    0.000    3.500    2.333    3.333 
#    6.000    0.833    0.000    0.000    0.000    0.000 
#    0.000    0.000    0.000    0.000    0.000    0.000 
#
# Total GULP energy -67139.176174 kJ/mol
# GULP energy per Si atom -5594.931348 kJ/mol
# Density = 2.676433 g / cm^3
# Si number density = 26.825390 Si / 1000 Ang^3
#
#
#
# Elastic Constant Matrix: (Units=GPa)
#
#
# Indices 1 2 3 4 5 6 
#
# 1 173.7586 53.4118 65.2404 12.6370 -45.4544 27.3542
# 2 53.4118 108.7917 42.0519 12.0123 -1.8773 22.2014
# 3 65.2404 42.0519 133.6003 8.6926 -28.9408 16.1413
# 4 12.6370 12.0123 8.6926 31.4407 8.5386 8.6872
# 5 -45.4544 -1.8773 -28.9408 8.5386 38.2261 -11.4583
# 6 27.3542 22.2014 16.1413 8.6872 -11.4583 63.4488
#
#
#
# Elastic Compliance Matrix: (Units=1/GPa)
#
#
# Indices 1 2 3 4 5 6 
#
# 1 0.011757 -0.004560 -0.000667 -0.006940 0.014903 0.000338
# 2 -0.004560 0.013213 -0.003459 0.001061 -0.008675 -0.003489
# 3 -0.000667 -0.003459 0.010874 -0.003907 0.008376 0.000779
# 4 -0.006940 0.001061 -0.003907 0.043213 -0.022731 -0.006407
# 5 0.014903 -0.008675 0.008376 -0.022731 0.057251 0.007931
# 6 0.000338 -0.003489 0.000779 -0.006407 0.007931 0.018947
#
#
# Mechanical properties :
#
#
# Convention : Reuss Voigt Hill
#
# Bulk Modulus (GPa) = 54.13493 81.95097 68.04295
# Shear Modulus (GPa) = 27.96662 43.65290 35.80976
#
# Velocity S-wave (km/s) = 3.23235 4.03835 3.65762
# Velocity P-wave (km/s) = 5.84423 7.23606 6.57706
#
# Compressibility (1/GPa) = 0.01847236
#
# Stress axis : x y z
#
# Youngs Moduli (GPa) = 85.05314 75.68428 91.96393
#
# Poissons Ratio (x) = 0.34512 0.06135
# Poissons Ratio (y) = 0.38784 0.31808
# Poissons Ratio (z) = 0.05674 0.26177
#
# Static dielectric constant tensor:
#      x y z
#    x 2.182240 -0.064680 0.043260 
#    y -0.064680 2.132600 -0.035010 
#    z 0.043260 -0.035010 2.124300 
# 
# From -- ./inp_files/494076.got.cif
#   From: 2010.05.17/outbox.cif.g08.bks.cpg/sg2_248_cif.got.tgz:494076.got - 2010.06.03 11:33:40.
