data_PCOD9109298
_publ_section_title
;
Structure prediction by ZEFSAII (Michael W. Deem and Ramdas Pophale) SiO2 
 PCOD9109298
Probable space group: P -1
;
_chemical_formula_sum "Si O2"
_cell_formula_units_Z 15
_cell_length_a 9.280923
_cell_length_b 9.704796
_cell_length_c 9.541249
_cell_angle_alpha 88.532043
_cell_angle_beta 129.381335
_cell_angle_gamma 110.344696
_cell_volume 599.847533
_symmetry_space_group_name_H-M "P -1"
_symmetry_group_IT_number 2
_symmetry_cell_setting 'triclinic'
loop_
_space_group_symop_operation_xyz
x,y,z
-x,-y,-z
loop_
_atom_site_type_symbol
_atom_site_label
_atom_site_fract_x
_atom_site_fract_y
_atom_site_fract_z
Si Si1 0.046729 0.356127 0.514844
Si Si2 0.704133 0.084003 0.452147
Si Si3 0.250845 0.842637 0.205461
Si Si4 0.322728 0.602507 0.110099
Si Si5 0.332415 0.246917 0.873432
Si Si6 0.660855 0.663153 0.536926
Si Si7 0.806004 0.756951 0.914475
Si Si8 0.000000 0.000000 0.500000
O O1 0.832830 0.208361 0.411258
O O2 0.000000 0.500000 0.500000
O O3 0.201762 0.338548 0.728156
O O4 0.149580 0.346046 0.430723
O O5 0.721598 0.170144 0.609254
O O6 0.465505 0.976077 0.284164
O O7 0.852417 0.996434 0.545277
O O8 0.193084 0.689869 0.081242
O O9 0.045898 0.866291 0.066602
O O10 0.430329 0.657621 0.025693
O O11 0.520395 0.685769 0.331928
O O12 0.231113 0.421870 0.079309
O O13 0.311744 0.221202 0.025816
O O14 0.210109 0.088673 0.721408
O O15 0.500000 0.500000 0.500000
O O16 0.721099 0.764096 0.709398
#
# Coordination Sequence:
#
# PCOD9109298 Si02
#       8
#     2   2   2   2   2   2   2   1
#     4  10  21  38  62  92 125 165 211 259 323 378
#     4  10  22  37  65  94 122 169 215 259 315 383
#     4  11  21  37  64  98 123 161 220 264 314 371
#     4  10  21  37  62  91 130 166 209 266 321 377
#     4  10  20  37  63  94 119 169 220 260 312 376
#     4   9  22  39  59  91 129 169 204 254 328 379
#     4  11  21  37  61  97 129 160 219 270 310 372
#     4  10  16  38  62  86 122 160 214 254 312 370
#
# _framework density 25.006354999999999
#
# number of rings (size 3 to 8) (size 9 to 14) (size 15 to 20)
#    0.000    1.867    4.000    0.800    3.733    1.067 
#    0.000    0.667    0.000   20.000    0.000    0.000 
#    0.000    0.000    0.000    0.000    0.000    0.000 
#
# Total GULP energy -83543.908592 kJ/mol
# GULP energy per Si atom -5569.593906 kJ/mol
# Density = 2.494944 g / cm^3
# Si number density = 25.006355 Si / 1000 Ang^3
#
#
#
# Elastic Constant Matrix: (Units=GPa)
#
#
# Indices 1 2 3 4 5 6 
#
# 1 176.2782 40.7557 38.5360 -1.4142 -16.9224 38.8891
# 2 40.7557 74.2180 14.7122 9.7431 -1.3456 12.2027
# 3 38.5360 14.7122 78.1995 12.5195 -23.5945 12.9789
# 4 -1.4142 9.7431 12.5195 28.6949 8.7181 2.4535
# 5 -16.9224 -1.3456 -23.5945 8.7181 39.2096 9.7818
# 6 38.8891 12.2027 12.9789 2.4535 9.7818 49.4361
#
#
#
# Elastic Compliance Matrix: (Units=1/GPa)
#
#
# Indices 1 2 3 4 5 6 
#
# 1 0.008623 -0.003526 -0.001681 0.001748 0.003773 -0.006305
# 2 -0.003526 0.016369 -0.000077 -0.005772 0.000543 -0.001067
# 3 -0.001681 -0.000077 0.022698 -0.014817 0.018087 -0.007461
# 4 0.001748 -0.005772 -0.014817 0.049167 -0.020687 0.005593
# 5 0.003773 0.000543 0.018087 -0.020687 0.046639 -0.016052
# 6 -0.006305 -0.001067 -0.007461 0.005593 -0.016052 0.030309
#
#
# Mechanical properties :
#
#
# Convention : Reuss Voigt Hill
#
# Bulk Modulus (GPa) = 26.93833 57.41151 42.17492
# Shear Modulus (GPa) = 25.41350 39.11424 32.26387
#
# Velocity S-wave (km/s) = 3.19138 3.95925 3.59587
# Velocity P-wave (km/s) = 4.93719 6.62642 5.84317
#
# Compressibility (1/GPa) = 0.03712183
#
# Stress axis : x y z
#
# Youngs Moduli (GPa) = 115.97257 61.09292 44.05639
#
# Poissons Ratio (x) = 0.21544 0.07405
# Poissons Ratio (y) = 0.40896 0.00338
# Poissons Ratio (z) = 0.19493 0.00468
#
# Static dielectric constant tensor:
#      x y z
#    x 2.122300 -0.174080 -0.033900 
#    y -0.174080 1.895930 0.049880 
#    z -0.033900 0.049880 1.925350 
# 
# From -- ./inp_files/180775.got.cif
#   From: 2010.05.17/outbox.cif.g08.bks.cpg/sg2_91_cif.got.tgz:180775.got - 2010.06.03 11:33:40.
