data_PCOD9109418
_publ_section_title
;
Structure prediction by ZEFSAII (Michael W. Deem and Ramdas Pophale) SiO2 
 PCOD9109418
Probable space group: P -1
;
_chemical_formula_sum "Si O2"
_cell_formula_units_Z 16
_cell_length_a 12.283956
_cell_length_b 8.884756
_cell_length_c 15.103693
_cell_angle_alpha 105.793572
_cell_angle_beta 148.349402
_cell_angle_gamma 84.406774
_cell_volume 802.384526
_symmetry_space_group_name_H-M "P -1"
_symmetry_group_IT_number 2
_symmetry_cell_setting 'triclinic'
loop_
_space_group_symop_operation_xyz
x,y,z
-x,-y,-z
loop_
_atom_site_type_symbol
_atom_site_label
_atom_site_fract_x
_atom_site_fract_y
_atom_site_fract_z
Si Si1 0.935928 0.166231 0.496172
Si Si2 0.104586 0.653492 0.842157
Si Si3 0.590496 0.535689 0.467863
Si Si4 0.586540 0.194948 0.397143
Si Si5 0.632456 0.189705 0.627510
Si Si6 0.637000 0.187666 0.130515
Si Si7 0.828811 0.100506 0.910255
Si Si8 0.685554 0.615307 0.090118
O O1 0.752280 0.150555 0.439220
O O2 0.825396 0.212617 0.338426
O O3 0.142385 0.288778 0.703238
O O4 0.000000 0.000000 0.500000
O O5 0.238880 0.744691 0.864590
O O6 0.198545 0.499346 0.902089
O O7 0.847635 0.590177 0.640489
O O8 0.132173 0.776681 0.962129
O O9 0.500000 0.500000 0.500000
O O10 0.518948 0.356538 0.346256
O O11 0.501652 0.690007 0.407501
O O12 0.691503 0.235226 0.574085
O O13 0.390135 0.037936 0.246394
O O14 0.818026 0.194240 0.826513
O O15 0.500000 0.000000 0.500000
O O16 0.448238 0.276337 0.034696
O O17 0.500000 0.000000 0.000000
O O18 0.000000 0.000000 0.000000
O O19 0.500000 0.500000 0.000000
#
# Coordination Sequence:
#
# PCOD9109418 Si02
#       8
#     2   2   2   2   2   2   2   2
#     4  12  24  42  71  96 131 182 220 271 340 393
#     4  11  23  43  66  94 134 171 209 278 338 379
#     4  10  20  41  65  90 129 164 211 271 316 392
#     4  10  22  42  63  94 127 168 221 268 328 399
#     4   9  20  39  63  92 126 162 216 264 317 397
#     4  11  24  44  67 102 136 172 229 278 324 404
#     4  11  23  41  65  92 128 172 217 271 333 390
#     4  10  24  45  65  97 138 166 228 282 324 401
#
# _framework density 19.940563000000001
#
# number of rings (size 3 to 8) (size 9 to 14) (size 15 to 20)
#    0.000    1.500    2.500    3.000    1.750    6.000 
#    2.250    5.625    0.000    0.000    0.000    0.000 
#    0.000    0.000    0.000    0.000    0.000    0.000 
#
# Total GULP energy -89173.360878 kJ/mol
# GULP energy per Si atom -5573.335055 kJ/mol
# Density = 1.989518 g / cm^3
# Si number density = 19.940563 Si / 1000 Ang^3
#
#
#
# Elastic Constant Matrix: (Units=GPa)
#
#
# Indices 1 2 3 4 5 6 
#
# 1 87.1176 29.0353 7.0339 -12.8103 -5.2125 -22.6180
# 2 29.0353 128.2092 20.4017 -21.1092 -4.6411 -35.3026
# 3 7.0339 20.4017 61.1521 -11.0190 -9.7727 -5.4453
# 4 -12.8103 -21.1092 -11.0190 46.6899 -1.1219 9.6833
# 5 -5.2125 -4.6411 -9.7727 -1.1219 33.4668 2.6600
# 6 -22.6180 -35.3026 -5.4453 9.6833 2.6600 42.8121
#
#
#
# Elastic Compliance Matrix: (Units=1/GPa)
#
#
# Indices 1 2 3 4 5 6 
#
# 1 0.013756 -0.001114 -0.000067 0.002097 0.001580 0.005768
# 2 -0.001114 0.010924 -0.002371 0.002513 0.000134 0.007541
# 3 -0.000067 -0.002371 0.018569 0.003577 0.005264 -0.000764
# 4 0.002097 0.002513 0.003577 0.024467 0.002704 -0.002067
# 5 0.001580 0.000134 0.005264 0.002704 0.031850 -0.000976
# 6 0.005768 0.007541 -0.000764 -0.002067 -0.000976 0.033055
#
#
# Mechanical properties :
#
#
# Convention : Reuss Voigt Hill
#
# Bulk Modulus (GPa) = 27.66532 43.26894 35.46713
# Shear Modulus (GPa) = 32.94392 39.26097 36.10244
#
# Velocity S-wave (km/s) = 4.06902 4.44204 4.25962
# Velocity P-wave (km/s) = 5.99833 6.93217 6.48209
#
# Compressibility (1/GPa) = 0.03614634
#
# Stress axis : x y z
#
# Youngs Moduli (GPa) = 72.69701 91.53765 53.85320
#
# Poissons Ratio (x) = 0.10198 0.00359
# Poissons Ratio (y) = 0.08099 0.12767
# Poissons Ratio (z) = 0.00484 0.21701
#
# Static dielectric constant tensor:
#      x y z
#    x 1.665060 -0.009270 -0.014860 
#    y -0.009270 1.758070 -0.012520 
#    z -0.014860 -0.012520 1.682740 
# 
# From -- ./inp_files/382004.got.cif
#   From: 2010.05.17/outbox.cif.g08.bks.cpg/sg2_192_cif.got.tgz:382004.got - 2010.06.03 11:33:40.
