data_PCOD9109443
_publ_section_title
;
Structure prediction by ZEFSAII (Michael W. Deem and Ramdas Pophale) SiO2 
 PCOD9109443
Probable space group: P -1
;
_chemical_formula_sum "Si O2"
_cell_formula_units_Z 16
_cell_length_a 9.391123
_cell_length_b 7.039414
_cell_length_c 17.559111
_cell_angle_alpha 57.781340
_cell_angle_beta 116.966423
_cell_angle_gamma 127.093842
_cell_volume 768.225251
_symmetry_space_group_name_H-M "P -1"
_symmetry_group_IT_number 2
_symmetry_cell_setting 'triclinic'
loop_
_space_group_symop_operation_xyz
x,y,z
-x,-y,-z
loop_
_atom_site_type_symbol
_atom_site_label
_atom_site_fract_x
_atom_site_fract_y
_atom_site_fract_z
Si Si1 0.682157 0.466385 0.126889
Si Si2 0.459459 0.055053 0.562318
Si Si3 0.069937 0.812314 0.091685
Si Si4 0.589327 0.923986 0.968988
Si Si5 0.196625 0.743506 0.290740
Si Si6 0.217739 0.275335 0.423832
Si Si7 0.205419 0.527303 0.678964
Si Si8 0.074185 0.294365 0.552903
O O1 0.546576 0.205499 0.107493
O O2 0.688040 0.450777 0.222547
O O3 0.883978 0.557522 0.121316
O O4 0.632901 0.694143 0.050985
O O5 0.283349 0.818832 0.607910
O O6 0.500000 0.000000 0.500000
O O7 0.630770 0.108236 0.644710
O O8 0.403119 0.271052 0.486251
O O9 0.174266 0.890175 0.181638
O O10 0.222907 0.834436 0.064919
O O11 0.000000 0.000000 0.000000
O O12 0.500000 0.000000 0.000000
O O13 0.220467 0.498122 0.325069
O O14 0.005453 0.627485 0.313996
O O15 0.152380 0.312030 0.483906
O O16 0.079161 0.999463 0.414345
O O17 0.217701 0.376579 0.639832
O O18 0.000000 0.500000 0.500000
#
# Coordination Sequence:
#
# PCOD9109443 Si02
#       8
#     2   2   2   2   2   2   2   2
#     4   9  21  40  64  90 122 162 206 258 318 380
#     4  12  24  39  62  92 133 175 214 265 323 378
#     4   9  20  41  67  90 126 168 206 263 325 382
#     4  10  20  41  65  92 123 157 203 263 325 380
#     4  11  22  39  64  95 126 166 220 262 318 387
#     4  11  22  38  60  92 129 175 211 270 314 374
#     4  11  21  41  64  89 123 172 215 257 314 381
#     4  11  19  39  65  88 128 171 218 259 317 379
#
# _framework density 20.827224000000001
#
# number of rings (size 3 to 8) (size 9 to 14) (size 15 to 20)
#    0.000    1.500    2.500    3.375    0.000    0.500 
#   11.250    0.000    5.500    0.000    0.000    0.000 
#    0.000    0.000    0.000    0.000    0.000    0.000 
#
# Total GULP energy -89193.020450 kJ/mol
# GULP energy per Si atom -5574.563778 kJ/mol
# Density = 2.077982 g / cm^3
# Si number density = 20.827224 Si / 1000 Ang^3
#
#
#
# Elastic Constant Matrix: (Units=GPa)
#
#
# Indices 1 2 3 4 5 6 
#
# 1 94.2782 23.6971 6.9396 7.7135 -3.0449 -6.5218
# 2 23.6971 100.3436 27.4947 19.3499 5.5125 -7.4749
# 3 6.9396 27.4947 110.1103 24.6305 7.8101 -4.0412
# 4 7.7135 19.3499 24.6305 29.3761 10.1398 -1.7883
# 5 -3.0449 5.5125 7.8101 10.1398 25.5515 3.7698
# 6 -6.5218 -7.4749 -4.0412 -1.7883 3.7698 30.2681
#
#
#
# Elastic Compliance Matrix: (Units=1/GPa)
#
#
# Indices 1 2 3 4 5 6 
#
# 1 0.011571 -0.002357 0.000298 -0.002538 0.002585 0.001479
# 2 -0.002357 0.012246 -0.001476 -0.005946 -0.000410 0.002019
# 3 0.000298 -0.001476 0.011384 -0.008686 0.000221 0.000679
# 4 -0.002538 -0.005946 -0.008686 0.052005 -0.017305 0.002053
# 5 0.002585 -0.000410 0.000221 -0.017305 0.047281 -0.006426
# 6 0.001479 0.002019 0.000679 0.002053 -0.006426 0.034868
#
#
# Mechanical properties :
#
#
# Convention : Reuss Voigt Hill
#
# Bulk Modulus (GPa) = 35.54821 46.77721 41.16271
# Shear Modulus (GPa) = 26.91052 33.47919 30.19486
#
# Velocity S-wave (km/s) = 3.59846 4.01368 3.81173
# Velocity P-wave (km/s) = 5.86263 6.63234 6.25932
#
# Compressibility (1/GPa) = 0.02813082
#
# Stress axis : x y z
#
# Youngs Moduli (GPa) = 86.42461 81.65772 87.84454
#
# Poissons Ratio (x) = 0.19243 -0.02616
# Poissons Ratio (y) = 0.20367 0.12968
# Poissons Ratio (z) = -0.02574 0.12055
#
# Static dielectric constant tensor:
#      x y z
#    x 1.779270 0.042960 0.011230 
#    y 0.042960 1.779700 -0.002290 
#    z 0.011230 -0.002290 1.805110 
# 
# From -- ./inp_files/553275.got.cif
#   From: 2010.05.17/outbox.cif.g08.bks.cpg/sg2_277_cif.got.tgz:553275.got - 2010.06.03 11:33:40.
