data_PCOD9109508
_publ_section_title
;
Structure prediction by ZEFSAII (Michael W. Deem and Ramdas Pophale) SiO2 
 PCOD9109508
Probable space group: P -1
;
_chemical_formula_sum "Si O2"
_cell_formula_units_Z 16
_cell_length_a 19.580248
_cell_length_b 17.094157
_cell_length_c 12.166443
_cell_angle_alpha 30.633690
_cell_angle_beta 150.537027
_cell_angle_gamma 157.418694
_cell_volume 733.880475
_symmetry_space_group_name_H-M "P -1"
_symmetry_group_IT_number 2
_symmetry_cell_setting 'triclinic'
loop_
_space_group_symop_operation_xyz
x,y,z
-x,-y,-z
loop_
_atom_site_type_symbol
_atom_site_label
_atom_site_fract_x
_atom_site_fract_y
_atom_site_fract_z
Si Si1 0.118816 0.083373 0.951209
Si Si2 0.722007 0.471486 0.383069
Si Si3 0.784081 0.403323 0.307745
Si Si4 0.771016 0.959414 0.509035
Si Si5 0.015501 0.350411 0.260722
Si Si6 0.799912 0.748723 0.520033
Si Si7 0.658080 0.995712 0.539540
Si Si8 0.376284 0.466322 0.233401
O O1 0.271868 0.339286 0.849568
O O2 0.965808 0.005410 0.737678
O O3 0.217746 0.995727 0.202494
O O4 0.000000 0.000000 0.000000
O O5 0.739364 0.416473 0.352971
O O6 0.896372 0.564711 0.596531
O O7 0.536597 0.249982 0.441723
O O8 0.651542 0.166312 0.358534
O O9 0.000000 0.500000 0.500000
O O10 0.743523 0.520823 0.033917
O O11 0.615164 0.707188 0.580138
O O12 0.748442 0.036649 0.496523
O O13 0.811337 0.106314 0.288854
O O14 0.153164 0.346116 0.388278
O O15 0.000000 0.500000 0.000000
O O16 0.602148 0.688776 0.285681
O O17 0.735159 0.624032 0.696713
O O18 0.000000 0.000000 0.500000
#
# Coordination Sequence:
#
# PCOD9109508 Si02
#       8
#     2   2   2   2   2   2   2   2
#     4   9  18  36  63  88 128 174 213 263 336 420
#     4  11  24  42  62  99 132 180 227 279 359 424
#     4  12  25  43  68 102 144 180 228 297 361 411
#     4  10  20  41  65  97 133 182 228 274 352 417
#     4  11  25  44  71  99 137 184 236 295 351 414
#     4  11  25  49  74 104 139 191 244 289 345 420
#     4  11  22  38  62 101 137 172 221 285 346 418
#     4  11  25  46  74 105 142 189 239 287 352 428
#
# _framework density 21.801915000000001
#
# number of rings (size 3 to 8) (size 9 to 14) (size 15 to 20)
#    0.000    1.250    1.250    6.000    3.500    3.000 
#    2.250    1.250    0.000    0.000    0.000    0.000 
#    0.000    0.000    0.000    0.000    0.000    0.000 
#
# Total GULP energy -89319.886622 kJ/mol
# GULP energy per Si atom -5582.492914 kJ/mol
# Density = 2.175229 g / cm^3
# Si number density = 21.801915 Si / 1000 Ang^3
#
#
#
# Elastic Constant Matrix: (Units=GPa)
#
#
# Indices 1 2 3 4 5 6 
#
# 1 109.7185 26.3462 39.2411 -8.9495 -16.8215 -2.6276
# 2 26.3462 129.1712 39.0744 -14.0728 -1.2679 15.0385
# 3 39.2411 39.0744 114.8514 -25.4259 -14.3855 10.0715
# 4 -8.9495 -14.0728 -25.4259 35.0170 -2.2199 5.6157
# 5 -16.8215 -1.2679 -14.3855 -2.2199 20.4231 -1.4087
# 6 -2.6276 15.0385 10.0715 5.6157 -1.4087 36.0866
#
#
#
# Elastic Compliance Matrix: (Units=1/GPa)
#
#
# Indices 1 2 3 4 5 6 
#
# 1 0.011785 -0.001801 -0.002495 0.000583 0.008075 0.002530
# 2 -0.001801 0.009410 -0.002014 0.002344 -0.002335 -0.003947
# 3 -0.002495 -0.002014 0.013859 0.009854 0.008348 -0.004418
# 4 0.000583 0.002344 0.009854 0.039006 0.011163 -0.009319
# 5 0.008075 -0.002335 0.008348 0.011163 0.062560 -0.000064
# 6 0.002530 -0.003947 -0.004418 -0.009319 -0.000064 0.032221
#
#
# Mechanical properties :
#
#
# Convention : Reuss Voigt Hill
#
# Bulk Modulus (GPa) = 44.57301 62.56274 53.56788
# Shear Modulus (GPa) = 26.46372 34.91062 30.68717
#
# Velocity S-wave (km/s) = 3.48778 4.00592 3.75580
# Velocity P-wave (km/s) = 6.05875 7.08201 6.59027
#
# Compressibility (1/GPa) = 0.02243510
#
# Stress axis : x y z
#
# Youngs Moduli (GPa) = 84.85160 106.26993 72.15516
#
# Poissons Ratio (x) = 0.19136 0.18006
# Poissons Ratio (y) = 0.15279 0.14529
# Poissons Ratio (z) = 0.21174 0.21398
#
# Static dielectric constant tensor:
#      x y z
#    x 1.866660 0.012670 0.004900 
#    y 0.012670 1.936680 0.014390 
#    z 0.004900 0.014390 1.787830 
# 
# From -- ./inp_files/472360.got.cif
#   From: 2010.05.17/outbox.cif.g08.bks.cpg/sg2_237_cif.got.tgz:472360.got - 2010.06.03 11:33:40.
