data_PCOD9109748
_publ_section_title
;
Structure prediction by ZEFSAII (Michael W. Deem and Ramdas Pophale) SiO2 
 PCOD9109748
Probable space group: P -1
;
_chemical_formula_sum "Si O2"
_cell_formula_units_Z 14
_cell_length_a 15.169897
_cell_length_b 21.339941
_cell_length_c 8.822600
_cell_angle_alpha 146.331602
_cell_angle_beta 36.400679
_cell_angle_gamma 155.911779
_cell_volume 633.275602
_symmetry_space_group_name_H-M "P -1"
_symmetry_group_IT_number 2
_symmetry_cell_setting 'triclinic'
loop_
_space_group_symop_operation_xyz
x,y,z
-x,-y,-z
loop_
_atom_site_type_symbol
_atom_site_label
_atom_site_fract_x
_atom_site_fract_y
_atom_site_fract_z
Si Si1 0.503521 0.814499 0.883076
Si Si2 0.813949 0.809304 0.330201
Si Si3 0.893845 0.430107 0.271151
Si Si4 0.581753 0.273975 0.831180
Si Si5 0.478187 0.511019 0.726339
Si Si6 0.625487 0.114188 0.208011
Si Si7 0.739457 0.594564 0.791044
O O1 0.601405 0.772356 0.552935
O O2 0.252162 0.687685 0.912634
O O3 0.517405 0.788701 0.988017
O O4 0.649130 0.008221 0.046018
O O5 0.743249 0.672265 0.271571
O O6 0.878194 0.778217 0.028196
O O7 0.000000 0.000000 0.500000
O O8 0.816183 0.300896 0.250881
O O9 0.829101 0.525218 0.579671
O O10 0.156139 0.574796 0.192947
O O11 0.520914 0.136397 0.526748
O O12 0.522467 0.355029 0.987314
O O13 0.500000 0.500000 0.500000
O O14 0.688982 0.573428 0.641795
O O15 0.500000 0.000000 0.000000
O O16 0.500000 0.500000 0.000000
#
# Coordination Sequence:
#
# PCOD9109748 Si02
#       7
#     2   2   2   2   2   2   2
#     4  11  23  43  62  94 134 166 202 274 325 364
#     4  11  24  40  67  91 126 170 220 257 319 380
#     4  11  22  42  67  97 122 170 220 258 309 385
#     4  12  24  40  68  98 128 168 216 259 319 383
#     4  11  22  43  67  94 125 169 211 264 318 376
#     4  10  24  39  62  92 131 167 208 257 315 373
#     4  10  20  41  67  88 128 170 212 262 310 375
#
# _framework density 22.107278000000001
#
# number of rings (size 3 to 8) (size 9 to 14) (size 15 to 20)
#    0.000    1.143    4.286    3.000    6.000    0.000 
#    0.000    0.714    0.000    0.000    0.000    0.000 
#    0.000    0.000    0.000    0.000    0.000    0.000 
#
# Total GULP energy -78037.960212 kJ/mol
# GULP energy per Si atom -5574.140015 kJ/mol
# Density = 2.205696 g / cm^3
# Si number density = 22.107278 Si / 1000 Ang^3
#
#
#
# Elastic Constant Matrix: (Units=GPa)
#
#
# Indices 1 2 3 4 5 6 
#
# 1 76.6936 40.6722 26.4121 16.7778 -4.2316 -13.4113
# 2 40.6722 55.4025 24.5403 19.1050 -7.7483 -8.4195
# 3 26.4121 24.5403 129.2556 36.0047 -10.0707 -15.8471
# 4 16.7778 19.1050 36.0047 31.7034 -5.7423 -6.0464
# 5 -4.2316 -7.7483 -10.0707 -5.7423 55.4850 5.2387
# 6 -13.4113 -8.4195 -15.8471 -6.0464 5.2387 36.9408
#
#
#
# Elastic Compliance Matrix: (Units=1/GPa)
#
#
# Indices 1 2 3 4 5 6 
#
# 1 0.022270 -0.015090 -0.000984 -0.000967 -0.001086 0.004219
# 2 -0.015090 0.033498 0.000268 -0.012091 0.002328 -0.000038
# 3 -0.000984 0.000268 0.011679 -0.012303 0.000561 0.002621
# 4 -0.000967 -0.012091 -0.012303 0.053624 0.001538 0.000175
# 5 -0.001086 0.002328 0.000561 0.001538 0.018717 -0.002025
# 6 0.004219 -0.000038 0.002621 0.000175 -0.002025 0.030034
#
#
# Mechanical properties :
#
#
# Convention : Reuss Voigt Hill
#
# Bulk Modulus (GPa) = 27.90513 49.40009 38.65261
# Shear Modulus (GPa) = 23.43254 36.14096 29.78675
#
# Velocity S-wave (km/s) = 3.25921 4.04765 3.67464
# Velocity P-wave (km/s) = 5.17816 6.65122 5.96037
#
# Compressibility (1/GPa) = 0.03583571
#
# Stress axis : x y z
#
# Youngs Moduli (GPa) = 44.90399 29.85225 85.62580
#
# Poissons Ratio (x) = 0.45048 0.08422
# Poissons Ratio (y) = 0.67762 -0.02298
# Poissons Ratio (z) = 0.04417 -0.00801
#
# Static dielectric constant tensor:
#      x y z
#    x 1.929250 0.037160 0.040840 
#    y 0.037160 1.858770 0.004060 
#    z 0.040840 0.004060 1.912410 
# 
# From -- ./inp_files/319139.got.cif
#   From: 2010.05.17/outbox.cif.g08.bks.cpg/sg2_160_cif.got.tgz:319139.got - 2010.06.03 11:33:40.
