data_PCOD9109722
_publ_section_title
;
Structure prediction by ZEFSAII (Michael W. Deem and Ramdas Pophale) SiO2 
 PCOD9109722
Probable space group: P -1
;
_chemical_formula_sum "Si O2"
_cell_formula_units_Z 16
_cell_length_a 12.923631
_cell_length_b 12.369312
_cell_length_c 7.911367
_cell_angle_alpha 131.270546
_cell_angle_beta 86.422588
_cell_angle_gamma 58.303004
_cell_volume 621.742403
_symmetry_space_group_name_H-M "P -1"
_symmetry_group_IT_number 2
_symmetry_cell_setting 'triclinic'
loop_
_space_group_symop_operation_xyz
x,y,z
-x,-y,-z
loop_
_atom_site_type_symbol
_atom_site_label
_atom_site_fract_x
_atom_site_fract_y
_atom_site_fract_z
Si Si1 0.984464 0.442952 0.129960
Si Si2 0.281605 0.605705 0.697264
Si Si3 0.792465 0.043505 0.354663
Si Si4 0.297081 0.250252 0.931185
Si Si5 0.624098 0.162265 0.161386
Si Si6 0.648022 0.891593 0.610708
Si Si7 0.855419 0.082821 0.703992
Si Si8 0.864839 0.295462 0.513331
O O1 0.800768 0.641006 0.400229
O O2 0.050626 0.213338 0.893415
O O3 0.124332 0.380251 0.151548
O O4 0.000000 0.500000 0.000000
O O5 0.436153 0.351773 0.394910
O O6 0.329251 0.722110 0.768310
O O7 0.147378 0.687479 0.670589
O O8 0.230002 0.689371 0.977073
O O9 0.696421 0.065753 0.241188
O O10 0.736271 0.122103 0.635127
O O11 0.812482 0.186492 0.441757
O O12 0.326474 0.145311 0.635527
O O13 0.460182 0.054283 0.813431
O O14 0.257717 0.462787 0.144362
O O15 0.667787 0.012499 0.849095
O O16 0.000000 0.000000 0.500000
O O17 0.956662 0.881054 0.618248
#
# Coordination Sequence:
#
# PCOD9109722 Si02
#       8
#     2   2   2   2   2   2   2   2
#     4  10  22  41  65  97 130 187 233 273 345 419
#     4  10  21  38  66  96 136 179 229 286 352 422
#     4  10  23  42  63  98 138 174 232 287 349 406
#     4  10  21  39  70 101 127 182 239 276 344 421
#     4  10  22  40  63  99 135 184 226 283 357 411
#     4  10  21  40  66  94 138 181 229 283 335 425
#     4  10  21  37  61  96 133 178 225 288 345 406
#     4  10  20  41  67 101 136 170 229 295 347 402
#
# _framework density 25.734131000000001
#
# number of rings (size 3 to 8) (size 9 to 14) (size 15 to 20)
#    0.000    2.000    1.250    1.875    5.250    1.000 
#    0.000   10.625    2.750    0.000    0.000    0.000 
#    0.000    0.000    0.000    0.000    0.000    0.000 
#
# Total GULP energy -89205.636435 kJ/mol
# GULP energy per Si atom -5575.352277 kJ/mol
# Density = 2.567556 g / cm^3
# Si number density = 25.734131 Si / 1000 Ang^3
#
#
#
# Elastic Constant Matrix: (Units=GPa)
#
#
# Indices 1 2 3 4 5 6 
#
# 1 107.0222 41.2784 33.8125 7.4730 10.2241 -25.5742
# 2 41.2784 90.8127 38.2028 -7.7718 28.4420 -28.6943
# 3 33.8125 38.2028 157.4751 -0.5393 31.9600 -3.7966
# 4 7.4730 -7.7718 -0.5393 49.5506 -9.9468 8.4590
# 5 10.2241 28.4420 31.9600 -9.9468 42.5982 -1.0675
# 6 -25.5742 -28.6943 -3.7966 8.4590 -1.0675 35.6180
#
#
#
# Elastic Compliance Matrix: (Units=1/GPa)
#
#
# Indices 1 2 3 4 5 6 
#
# 1 0.013271 -0.002915 -0.001849 -0.003943 -0.000575 0.007902
# 2 -0.002915 0.021563 -0.001752 -0.001228 -0.012294 0.015015
# 3 -0.001849 -0.001752 0.008058 -0.000507 -0.004598 -0.001898
# 4 -0.003943 -0.001228 -0.000507 0.023653 0.007438 -0.009270
# 5 -0.000575 -0.012294 -0.004598 0.007438 0.036720 -0.011473
# 6 0.007902 0.015015 -0.001898 -0.009270 -0.011473 0.047502
#
#
# Mechanical properties :
#
#
# Convention : Reuss Voigt Hill
#
# Bulk Modulus (GPa) = 33.48970 64.65527 49.07248
# Shear Modulus (GPa) = 28.77643 41.68780 35.23212
#
# Velocity S-wave (km/s) = 3.34761 4.02922 3.70412
# Velocity P-wave (km/s) = 5.28999 6.84288 6.11592
#
# Compressibility (1/GPa) = 0.02985993
#
# Stress axis : x y z
#
# Youngs Moduli (GPa) = 75.35294 46.37468 124.10099
#
# Poissons Ratio (x) = 0.13518 0.22942
# Poissons Ratio (y) = 0.21966 0.21749
# Poissons Ratio (z) = 0.13930 0.08127
#
# Static dielectric constant tensor:
#      x y z
#    x 2.134850 0.049950 0.036450 
#    y 0.049950 2.177430 -0.079560 
#    z 0.036450 -0.079560 2.056550 
# 
# From -- ./inp_files/316099.got.cif
#   From: 2010.05.17/outbox.cif.g08.bks.cpg/sg2_159_cif.got.tgz:316099.got - 2010.06.03 11:33:40.
