data_PCOD9109497
_publ_section_title
;
Structure prediction by ZEFSAII (Michael W. Deem and Ramdas Pophale) SiO2 
 PCOD9109497
Probable space group: P -1
;
_chemical_formula_sum "Si O2"
_cell_formula_units_Z 14
_cell_length_a 9.123334
_cell_length_b 12.426254
_cell_length_c 13.885166
_cell_angle_alpha 30.530267
_cell_angle_beta 60.336490
_cell_angle_gamma 49.776251
_cell_volume 602.876442
_symmetry_space_group_name_H-M "P -1"
_symmetry_group_IT_number 2
_symmetry_cell_setting 'triclinic'
loop_
_space_group_symop_operation_xyz
x,y,z
-x,-y,-z
loop_
_atom_site_type_symbol
_atom_site_label
_atom_site_fract_x
_atom_site_fract_y
_atom_site_fract_z
Si Si1 0.039225 0.983416 0.115297
Si Si2 0.299293 0.196634 0.857149
Si Si3 0.625689 0.509970 0.665641
Si Si4 0.681753 0.925318 0.282319
Si Si5 0.555664 0.563087 0.032743
Si Si6 0.027567 0.733013 0.796648
Si Si7 0.207753 0.722668 0.545833
O O1 0.226785 0.716460 0.272055
O O2 0.848862 0.985204 0.215171
O O3 0.115971 0.168304 0.974984
O O4 0.000000 0.000000 0.000000
O O5 0.311556 0.134769 0.787280
O O6 0.252334 0.474437 0.668450
O O7 0.500000 0.000000 0.000000
O O8 0.706388 0.694068 0.510150
O O9 0.588866 0.416874 0.850191
O O10 0.417274 0.654352 0.572533
O O11 0.473874 0.167168 0.176491
O O12 0.764921 0.355775 0.154577
O O13 0.500000 0.500000 0.000000
O O14 0.060737 0.748829 0.659615
O O15 0.880587 0.002594 0.677569
O O16 0.000000 0.500000 0.000000
#
# Coordination Sequence:
#
# PCOD9109497 Si02
#       7
#     2   2   2   2   2   2   2
#     4  10  20  41  65  95 138 175 210 270 341 391
#     4  11  20  41  68  97 136 174 218 277 331 398
#     4  11  21  44  68  95 136 169 226 275 332 406
#     4  11  24  42  67  98 135 179 215 277 341 392
#     4  11  24  45  67  93 131 177 223 278 335 390
#     4  10  22  45  65  94 133 175 223 274 325 395
#     4  10  22  40  70  99 130 175 222 272 333 394
#
# _framework density 23.222004999999999
#
# number of rings (size 3 to 8) (size 9 to 14) (size 15 to 20)
#    0.000    1.429    4.286    2.143    0.000    2.286 
#   10.286    0.000    0.000    0.000    0.000    0.000 
#    0.000    0.000    0.000    0.000    0.000    0.000 
#
# Total GULP energy -78207.847481 kJ/mol
# GULP energy per Si atom -5586.274820 kJ/mol
# Density = 2.316915 g / cm^3
# Si number density = 23.222005 Si / 1000 Ang^3
#
#
#
# Elastic Constant Matrix: (Units=GPa)
#
#
# Indices 1 2 3 4 5 6 
#
# 1 86.1058 27.8451 38.3743 -10.2954 -19.8845 -4.6563
# 2 27.8451 60.3396 33.5877 -39.7888 6.9564 5.1286
# 3 38.3743 33.5877 140.7003 -36.6008 -16.6292 -4.6992
# 4 -10.2954 -39.7888 -36.6008 44.1812 -1.4359 -2.0939
# 5 -19.8845 6.9564 -16.6292 -1.4359 35.9934 -6.1113
# 6 -4.6563 5.1286 -4.6992 -2.0939 -6.1113 32.2776
#
#
#
# Elastic Compliance Matrix: (Units=1/GPa)
#
#
# Indices 1 2 3 4 5 6 
#
# 1 0.021960 -0.021274 -0.002809 -0.015474 0.015705 0.008109
# 2 -0.021274 0.064436 0.000625 0.052117 -0.024290 -0.014434
# 3 -0.002809 0.000625 0.010597 0.008928 0.003982 0.002371
# 4 -0.015474 0.052117 0.008928 0.072617 -0.012775 -0.006921
# 5 0.015705 -0.024290 0.003982 -0.012775 0.044926 0.014382
# 6 0.008109 -0.014434 0.002371 -0.006921 0.014382 0.037064
#
#
# Mechanical properties :
#
#
# Convention : Reuss Voigt Hill
#
# Bulk Modulus (GPa) = 19.96984 54.08444 37.02714
# Shear Modulus (GPa) = 15.86248 34.97968 25.42108
#
# Velocity S-wave (km/s) = 2.61641 3.88534 3.31221
# Velocity P-wave (km/s) = 4.21257 6.59307 5.53237
#
# Compressibility (1/GPa) = 0.05007551
#
# Stress axis : x y z
#
# Youngs Moduli (GPa) = 45.53637 15.51920 94.36848
#
# Poissons Ratio (x) = 0.33016 0.26511
# Poissons Ratio (y) = 0.96876 -0.05894
# Poissons Ratio (z) = 0.12792 -0.00969
#
# Static dielectric constant tensor:
#      x y z
#    x 1.903620 -0.034990 -0.012680 
#    y -0.034990 1.915940 0.035080 
#    z -0.012680 0.035080 1.970460 
# 
# From -- ./inp_files/271724.got.cif
#   From: 2010.05.17/outbox.cif.g08.bks.cpg/sg2_136_cif.got.tgz:271724.got - 2010.06.03 11:33:40.
