data_PCOD9109682
_publ_section_title
;
Structure prediction by ZEFSAII (Michael W. Deem and Ramdas Pophale) SiO2 
 PCOD9109682
Probable space group: P -1
;
_chemical_formula_sum "Si O2"
_cell_formula_units_Z 16
_cell_length_a 14.861922
_cell_length_b 11.141446
_cell_length_c 14.502243
_cell_angle_alpha 32.566497
_cell_angle_beta 37.477252
_cell_angle_gamma 59.101267
_cell_volume 692.436505
_symmetry_space_group_name_H-M "P -1"
_symmetry_group_IT_number 2
_symmetry_cell_setting 'triclinic'
loop_
_space_group_symop_operation_xyz
x,y,z
-x,-y,-z
loop_
_atom_site_type_symbol
_atom_site_label
_atom_site_fract_x
_atom_site_fract_y
_atom_site_fract_z
Si Si1 0.141153 0.273565 0.488743
Si Si2 0.655726 0.914817 0.676505
Si Si3 0.321946 0.935651 0.233441
Si Si4 0.998488 0.528406 0.137489
Si Si5 0.803632 0.510666 0.139887
Si Si6 0.237490 0.077342 0.025241
Si Si7 0.320226 0.841956 0.951263
Si Si8 0.165689 0.015548 0.808395
O O1 0.226937 0.192181 0.390571
O O2 0.168037 0.556369 0.268624
O O3 0.219656 0.237863 0.544562
O O4 0.943519 0.073421 0.779305
O O5 0.648393 0.904030 0.800772
O O6 0.716947 0.209669 0.410611
O O7 0.477016 0.786769 0.853665
O O8 0.218806 0.972969 0.210664
O O9 0.186962 0.651198 0.556879
O O10 0.500000 0.000000 0.000000
O O11 0.955875 0.625742 0.014626
O O12 0.110970 0.405771 0.084707
O O13 0.106435 0.756200 0.968287
O O14 0.693024 0.628727 0.196453
O O15 0.348183 0.000828 0.919808
O O16 0.291306 0.004673 0.789779
O O17 0.000000 0.000000 0.000000
#
# Coordination Sequence:
#
# PCOD9109682 Si02
#       8
#     2   2   2   2   2   2   2   2
#     4  12  25  47  74 101 142 187 243 292 342 426
#     4  11  25  49  67 103 145 183 234 292 362 416
#     4  11  24  41  68  98 140 179 223 296 363 411
#     4  10  20  41  66  96 133 172 233 284 343 414
#     4  10  20  42  71  94 135 176 226 299 342 412
#     4  12  23  44  69 104 132 182 240 287 356 418
#     4  12  27  45  68 105 148 188 234 291 354 423
#     4  12  24  42  72 105 135 195 238 285 351 417
#
# _framework density 23.106812999999999
#
# number of rings (size 3 to 8) (size 9 to 14) (size 15 to 20)
#    0.000    0.750    5.000    3.000    1.750    4.000 
#    4.500    0.000    0.000    0.000    0.000    0.000 
#    0.000    0.000    0.000    0.000    0.000    0.000 
#
# Total GULP energy -89192.231604 kJ/mol
# GULP energy per Si atom -5574.514475 kJ/mol
# Density = 2.305422 g / cm^3
# Si number density = 23.106813 Si / 1000 Ang^3
#
#
#
# Elastic Constant Matrix: (Units=GPa)
#
#
# Indices 1 2 3 4 5 6 
#
# 1 82.6378 -3.1151 -4.6462 8.6815 23.5491 12.4370
# 2 -3.1151 129.1933 18.0302 7.4833 12.9234 15.6388
# 3 -4.6462 18.0302 57.3573 -1.9576 6.7301 5.8731
# 4 8.6815 7.4833 -1.9576 34.9452 2.4134 3.9353
# 5 23.5491 12.9234 6.7301 2.4134 32.1472 5.8255
# 6 12.4370 15.6388 5.8731 3.9353 5.8255 26.4578
#
#
#
# Elastic Compliance Matrix: (Units=1/GPa)
#
#
# Indices 1 2 3 4 5 6 
#
# 1 0.017319 0.002309 0.002772 -0.002989 -0.012725 -0.006875
# 2 0.002309 0.009144 -0.001777 -0.001800 -0.003962 -0.004956
# 3 0.002772 -0.001777 0.019208 0.001513 -0.004783 -0.003689
# 4 -0.002989 -0.001800 0.001513 0.030057 0.000795 -0.002513
# 5 -0.012725 -0.003962 -0.004783 0.000795 0.042999 -0.000200
# 6 -0.006875 -0.004956 -0.003689 -0.002513 -0.000200 0.045194
#
#
# Mechanical properties :
#
#
# Convention : Reuss Voigt Hill
#
# Bulk Modulus (GPa) = 19.12758 32.19179 25.65969
# Shear Modulus (GPa) = 28.61405 35.97134 32.29270
#
# Velocity S-wave (km/s) = 3.52282 3.94984 3.74242
# Velocity P-wave (km/s) = 4.98426 5.89607 5.45923
#
# Compressibility (1/GPa) = 0.05228052
#
# Stress axis : x y z
#
# Youngs Moduli (GPa) = 57.74087 109.35572 52.06118
#
# Poissons Ratio (x) = -0.25249 -0.14432
# Poissons Ratio (y) = -0.13332 0.09249
# Poissons Ratio (z) = -0.16007 0.19427
#
# Static dielectric constant tensor:
#      x y z
#    x 1.922740 -0.099190 0.007530 
#    y -0.099190 2.013990 0.016350 
#    z 0.007530 0.016350 1.936590 
# 
# From -- ./inp_files/532245.got.cif
#   From: 2010.05.17/outbox.cif.g08.bks.cpg/sg2_267_cif.got.tgz:532245.got - 2010.06.03 11:33:40.
