data_PCOD9109582
_publ_section_title
;
Structure prediction by ZEFSAII (Michael W. Deem and Ramdas Pophale) SiO2 
 PCOD9109582
Probable space group: P -1
;
_chemical_formula_sum "Si O2"
_cell_formula_units_Z 16
_cell_length_a 11.440403
_cell_length_b 9.245412
_cell_length_c 8.835897
_cell_angle_alpha 49.906606
_cell_angle_beta 98.288639
_cell_angle_gamma 89.262861
_cell_volume 700.552577
_symmetry_space_group_name_H-M "P -1"
_symmetry_group_IT_number 2
_symmetry_cell_setting 'triclinic'
loop_
_space_group_symop_operation_xyz
x,y,z
-x,-y,-z
loop_
_atom_site_type_symbol
_atom_site_label
_atom_site_fract_x
_atom_site_fract_y
_atom_site_fract_z
Si Si1 0.742058 0.856126 0.374294
Si Si2 0.901335 0.925188 0.634813
Si Si3 0.520835 0.540753 0.300534
Si Si4 0.803634 0.579987 0.965502
Si Si5 0.234771 0.313907 0.799889
Si Si6 0.740431 0.264542 0.950554
Si Si7 0.130842 0.943718 0.136475
Si Si8 0.563082 0.787731 0.622008
O O1 0.801343 0.908033 0.504933
O O2 0.807697 0.700582 0.373105
O O3 0.623618 0.790658 0.464689
O O4 0.734136 0.053567 0.151881
O O5 0.904612 0.712202 0.850871
O O6 0.878759 0.064773 0.679790
O O7 0.000000 0.000000 0.500000
O O8 0.500000 0.500000 0.500000
O O9 0.627573 0.661929 0.212114
O O10 0.394677 0.644299 0.151215
O O11 0.536958 0.350589 0.327286
O O12 0.806372 0.392680 0.989799
O O13 0.669998 0.699800 0.817329
O O14 0.813133 0.540691 0.173510
O O15 0.207709 0.115896 0.002560
O O16 0.805531 0.239285 0.817595
O O17 0.000000 0.000000 0.000000
O O18 0.500000 0.000000 0.500000
#
# Coordination Sequence:
#
# PCOD9109582 Si02
#       8
#     2   2   2   2   2   2   2   2
#     4  10  21  37  58  91 123 168 206 257 315 379
#     4  10  20  41  66  90 123 164 208 267 321 380
#     4  11  23  39  62  93 134 170 216 269 313 377
#     4   9  22  40  60  89 126 163 211 263 310 381
#     4  10  21  39  62  91 129 170 214 256 320 376
#     4  10  23  41  64  95 129 167 218 261 321 380
#     4  10  22  44  71  95 126 170 213 264 324 389
#     4  10  22  36  57  85 125 165 212 255 315 374
#
# _framework density 22.839113999999999
#
# number of rings (size 3 to 8) (size 9 to 14) (size 15 to 20)
#    0.000    2.000    1.250    1.500    3.500    7.000 
#    0.000    6.250    0.000    0.000    0.000    0.000 
#    0.000    0.000    0.000    0.000    0.000    0.000 
#
# Total GULP energy -89155.868158 kJ/mol
# GULP energy per Si atom -5572.241760 kJ/mol
# Density = 2.278713 g / cm^3
# Si number density = 22.839114 Si / 1000 Ang^3
#
#
#
# Elastic Constant Matrix: (Units=GPa)
#
#
# Indices 1 2 3 4 5 6 
#
# 1 68.3844 28.5661 20.2053 -4.8877 -20.0811 17.3875
# 2 28.5661 143.2632 34.3000 30.1936 -4.3858 14.2400
# 3 20.2053 34.3000 66.8153 22.3848 -20.5609 -0.0951
# 4 -4.8877 30.1936 22.3848 45.1471 -4.3445 -9.8182
# 5 -20.0811 -4.3858 -20.5609 -4.3445 30.9886 6.7737
# 6 17.3875 14.2400 -0.0951 -9.8182 6.7737 21.4742
#
#
#
# Elastic Compliance Matrix: (Units=1/GPa)
#
#
# Indices 1 2 3 4 5 6 
#
# 1 0.032262 -0.002400 -0.000314 0.000757 0.027659 -0.032911
# 2 -0.002400 0.010522 -0.002218 -0.008124 -0.000818 -0.008501
# 3 -0.000314 -0.002218 0.024956 -0.011187 0.016315 -0.008426
# 4 0.000757 -0.008124 -0.011187 0.037769 -0.008156 0.024566
# 5 0.027659 -0.000818 0.016315 -0.008156 0.070173 -0.047645
# 6 -0.032911 -0.008501 -0.008426 0.024566 -0.047645 0.105076
#
#
# Mechanical properties :
#
#
# Convention : Reuss Voigt Hill
#
# Bulk Modulus (GPa) = 17.27756 49.40063 33.33909
# Shear Modulus (GPa) = 16.13350 32.54808 24.34079
#
# Velocity S-wave (km/s) = 2.66070 3.77915 3.26812
# Velocity P-wave (km/s) = 4.12558 6.38118 5.37307
#
# Compressibility (1/GPa) = 0.05787855
#
# Stress axis : x y z
#
# Youngs Moduli (GPa) = 30.99574 95.04143 40.06982
#
# Poissons Ratio (x) = 0.22805 0.01257
# Poissons Ratio (y) = 0.07437 0.08887
# Poissons Ratio (z) = 0.00972 0.21078
#
# Static dielectric constant tensor:
#      x y z
#    x 1.931890 0.065490 -0.076110 
#    y 0.065490 2.025990 -0.015420 
#    z -0.076110 -0.015420 1.917750 
# 
# From -- ./inp_files/215997.got.cif
#   From: 2010.05.17/outbox.cif.g08.bks.cpg/sg2_108_cif.got.tgz:215997.got - 2010.06.03 11:33:40.
