data_PCOD9109640
_publ_section_title
;
Structure prediction by ZEFSAII (Michael W. Deem and Ramdas Pophale) SiO2 
 PCOD9109640
Probable space group: P -1
;
_chemical_formula_sum "Si O2"
_cell_formula_units_Z 16
_cell_length_a 11.621632
_cell_length_b 9.964101
_cell_length_c 9.453376
_cell_angle_alpha 134.535772
_cell_angle_beta 88.173498
_cell_angle_gamma 115.270061
_cell_volume 641.998128
_symmetry_space_group_name_H-M "P -1"
_symmetry_group_IT_number 2
_symmetry_cell_setting 'triclinic'
loop_
_space_group_symop_operation_xyz
x,y,z
-x,-y,-z
loop_
_atom_site_type_symbol
_atom_site_label
_atom_site_fract_x
_atom_site_fract_y
_atom_site_fract_z
Si Si1 0.360207 0.095990 0.662494
Si Si2 0.874944 0.161462 0.003651
Si Si3 0.745666 0.606369 0.228754
Si Si4 0.117885 0.467561 0.409388
Si Si5 0.954563 0.916452 0.651681
Si Si6 0.652491 0.236245 0.169220
Si Si7 0.245225 0.184012 0.982824
Si Si8 0.681164 0.350628 0.755548
O O1 0.311057 0.238645 0.689623
O O2 0.354393 0.157265 0.872289
O O3 0.517292 0.205487 0.689338
O O4 0.282414 0.824739 0.432362
O O5 0.765346 0.227378 0.062218
O O6 0.036541 0.358344 0.183007
O O7 0.812019 0.971139 0.991202
O O8 0.884783 0.053707 0.780403
O O9 0.902001 0.771847 0.405653
O O10 0.653451 0.435920 0.235290
O O11 0.744932 0.473008 0.993333
O O12 0.101046 0.263396 0.350200
O O13 0.268777 0.679566 0.618729
O O14 0.000000 0.500000 0.500000
O O15 0.116964 0.070599 0.792428
O O16 0.500000 0.000000 0.000000
O O17 0.293415 0.443874 0.196053
#
# Coordination Sequence:
#
# PCOD9109640 Si02
#       8
#     2   2   2   2   2   2   2   2
#     4  10  23  43  67  88 122 169 214 264 320 371
#     4  10  21  39  64  92 137 169 207 260 317 389
#     4  10  22  42  64  86 136 159 201 273 324 361
#     4   8  16  36  54  81 125 169 201 245 302 367
#     4  10  21  39  61  94 127 167 203 260 327 378
#     4  10  22  36  62  97 127 171 210 257 327 382
#     4  10  20  41  66  94 122 165 218 261 303 379
#     4  10  23  43  66  92 118 169 218 263 314 380
#
# _framework density 24.922191000000002
#
# number of rings (size 3 to 8) (size 9 to 14) (size 15 to 20)
#    0.000    2.250    0.000    3.000    5.250    2.000 
#   22.500    3.750    2.750    0.000    0.000    0.000 
#    0.000    0.000    0.000    0.000    0.000    0.000 
#
# Total GULP energy -89320.397842 kJ/mol
# GULP energy per Si atom -5582.524865 kJ/mol
# Density = 2.486547 g / cm^3
# Si number density = 24.922191 Si / 1000 Ang^3
#
#
#
# Elastic Constant Matrix: (Units=GPa)
#
#
# Indices 1 2 3 4 5 6 
#
# 1 90.7058 23.2920 43.4240 6.1888 -10.3112 -0.2402
# 2 23.2920 99.8757 39.8733 24.1398 5.3586 -9.5791
# 3 43.4240 39.8733 133.2544 20.6292 0.0189 -16.1051
# 4 6.1888 24.1398 20.6292 42.2078 1.3119 6.0725
# 5 -10.3112 5.3586 0.0189 1.3119 53.5598 11.2466
# 6 -0.2402 -9.5791 -16.1051 6.0725 11.2466 32.4578
#
#
#
# Elastic Compliance Matrix: (Units=1/GPa)
#
#
# Indices 1 2 3 4 5 6 
#
# 1 0.014296 -0.002665 -0.004820 0.002364 0.003991 -0.004897
# 2 -0.002665 0.013707 -0.001373 -0.007516 -0.002909 0.005758
# 3 -0.004820 -0.001373 0.011031 -0.004792 -0.002073 0.006647
# 4 0.002364 -0.007516 -0.004792 0.031547 0.002844 -0.011465
# 5 0.003991 -0.002909 -0.002073 0.002844 0.021745 -0.009924
# 6 -0.004897 0.005758 0.006647 -0.011465 -0.009924 0.041354
#
#
# Mechanical properties :
#
#
# Convention : Reuss Voigt Hill
#
# Bulk Modulus (GPa) = 46.90773 59.66827 53.28800
# Shear Modulus (GPa) = 31.54525 40.12820 35.83673
#
# Velocity S-wave (km/s) = 3.56160 4.01701 3.79614
# Velocity P-wave (km/s) = 5.98129 6.74603 6.37514
#
# Compressibility (1/GPa) = 0.02131845
#
# Stress axis : x y z
#
# Youngs Moduli (GPa) = 69.95102 72.95536 90.65031
#
# Poissons Ratio (x) = 0.19443 0.43690
# Poissons Ratio (y) = 0.18642 0.12448
# Poissons Ratio (z) = 0.33714 0.10018
#
# Static dielectric constant tensor:
#      x y z
#    x 2.162870 0.053180 -0.163080 
#    y 0.053180 2.103530 0.008110 
#    z -0.163080 0.008110 2.118170 
# 
# From -- ./inp_files/424522.got.cif
#   From: 2010.05.17/outbox.cif.g08.bks.cpg/sg2_213_cif.got.tgz:424522.got - 2010.06.03 11:33:40.
