data_PCOD9109914
_publ_section_title
;
Structure prediction by ZEFSAII (Michael W. Deem and Ramdas Pophale) SiO2 
 PCOD9109914
Probable space group: P -1
;
_chemical_formula_sum "Si O2"
_cell_formula_units_Z 16
_cell_length_a 9.717280
_cell_length_b 13.110139
_cell_length_c 9.112439
_cell_angle_alpha 103.247944
_cell_angle_beta 131.357379
_cell_angle_gamma 87.078276
_cell_volume 840.115019
_symmetry_space_group_name_H-M "P -1"
_symmetry_group_IT_number 2
_symmetry_cell_setting 'triclinic'
loop_
_space_group_symop_operation_xyz
x,y,z
-x,-y,-z
loop_
_atom_site_type_symbol
_atom_site_label
_atom_site_fract_x
_atom_site_fract_y
_atom_site_fract_z
Si Si1 0.417377 0.677139 0.942066
Si Si2 0.427134 0.088484 0.575116
Si Si3 0.973732 0.917804 0.587911
Si Si4 0.738370 0.528173 0.421659
Si Si5 0.856020 0.683402 0.306837
Si Si6 0.903553 0.425975 0.780386
Si Si7 0.579574 0.326216 0.720565
Si Si8 0.373661 0.909311 0.970823
O O1 0.335544 0.577864 0.755130
O O2 0.381501 0.788560 0.884778
O O3 0.638352 0.679299 0.116402
O O4 0.342667 0.666971 0.054289
O O5 0.208609 0.065937 0.444464
O O6 0.476410 0.207448 0.588335
O O7 0.500000 0.000000 0.500000
O O8 0.536647 0.088254 0.805178
O O9 0.934161 0.800592 0.452141
O O10 0.161501 0.928362 0.817310
O O11 0.000000 0.000000 0.500000
O O12 0.866542 0.604491 0.425888
O O13 0.833234 0.497088 0.626028
O O14 0.567019 0.590715 0.360378
O O15 0.960586 0.644094 0.228519
O O16 0.734209 0.354395 0.716815
O O17 0.000000 0.500000 0.000000
O O18 0.500000 0.000000 0.000000
#
# Coordination Sequence:
#
# PCOD9109914 Si02
#       8
#     2   2   2   2   2   2   2   2
#     4  10  20  41  68  91 125 173 212 266 325 385
#     4  11  25  45  67  97 135 167 214 282 333 382
#     4  12  23  43  73  96 127 172 226 268 324 398
#     4  11  21  40  65  88 126 176 215 257 329 385
#     4  11  22  41  66  96 125 167 219 270 316 390
#     4  12  25  37  59  97 133 168 217 265 317 390
#     4  10  22  43  60  90 135 163 208 275 330 378
#     4  11  22  42  69  99 130 170 223 270 322 388
#
# _framework density 19.045010999999999
#
# number of rings (size 3 to 8) (size 9 to 14) (size 15 to 20)
#    0.000    1.000    5.000    4.500    1.750    3.500 
#    0.000    1.250    0.000    0.000    0.000    0.000 
#    0.000    0.000    0.000    0.000    0.000    0.000 
#
# Total GULP energy -89449.704490 kJ/mol
# GULP energy per Si atom -5590.606531 kJ/mol
# Density = 1.900166 g / cm^3
# Si number density = 19.045011 Si / 1000 Ang^3
#
#
#
# Elastic Constant Matrix: (Units=GPa)
#
#
# Indices 1 2 3 4 5 6 
#
# 1 165.6302 65.0795 38.7245 3.1692 9.6869 1.7919
# 2 65.0795 149.2737 46.3646 9.1226 1.1926 5.8187
# 3 38.7245 46.3646 90.0283 -1.4465 13.9855 0.5044
# 4 3.1692 9.1226 -1.4465 32.8644 -6.0907 0.1288
# 5 9.6869 1.1926 13.9855 -6.0907 26.8126 2.3877
# 6 1.7919 5.8187 0.5044 0.1288 2.3877 33.0567
#
#
#
# Elastic Compliance Matrix: (Units=1/GPa)
#
#
# Indices 1 2 3 4 5 6 
#
# 1 0.007621 -0.002817 -0.001534 -0.000380 -0.001936 0.000247
# 2 -0.002817 0.009334 -0.003985 -0.002052 0.002357 -0.001592
# 3 -0.001534 -0.003985 0.014912 0.000609 -0.007003 0.001061
# 4 -0.000380 -0.002052 0.000609 0.032415 0.007300 -0.000281
# 5 -0.001936 0.002357 -0.007003 0.007300 0.043502 -0.003374
# 6 0.000247 -0.001592 0.001061 -0.000281 -0.003374 0.030746
#
#
# Mechanical properties :
#
#
# Convention : Reuss Voigt Hill
#
# Bulk Modulus (GPa) = 65.81768 78.36325 72.09046
# Shear Modulus (GPa) = 31.19804 35.53097 33.36451
#
# Velocity S-wave (km/s) = 4.05176 4.32398 4.19008
# Velocity P-wave (km/s) = 7.51818 8.13417 7.83224
#
# Compressibility (1/GPa) = 0.01519349
#
# Stress axis : x y z
#
# Youngs Moduli (GPa) = 131.21830 107.13884 67.06204
#
# Poissons Ratio (x) = 0.30181 0.10287
# Poissons Ratio (y) = 0.36964 0.26727
# Poissons Ratio (z) = 0.20129 0.42699
#
# Static dielectric constant tensor:
#      x y z
#    x 1.663950 0.000740 0.012080 
#    y 0.000740 1.666770 -0.006860 
#    z 0.012080 -0.006860 1.642130 
# 
# From -- ./inp_files/188942.got.cif
#   From: 2010.05.17/outbox.cif.g08.bks.cpg/sg2_95_cif.got.tgz:188942.got - 2010.06.03 11:33:40.
