data_PCOD9109345
_publ_section_title
;
Structure prediction by ZEFSAII (Michael W. Deem and Ramdas Pophale) SiO2 
 PCOD9109345
Probable space group: P -1
;
_chemical_formula_sum "Si O2"
_cell_formula_units_Z 16
_cell_length_a 10.733364
_cell_length_b 20.563920
_cell_length_c 21.059241
_cell_angle_alpha 22.638545
_cell_angle_beta 31.534247
_cell_angle_gamma 23.165565
_cell_volume 703.618522
_symmetry_space_group_name_H-M "P -1"
_symmetry_group_IT_number 2
_symmetry_cell_setting 'triclinic'
loop_
_space_group_symop_operation_xyz
x,y,z
-x,-y,-z
loop_
_atom_site_type_symbol
_atom_site_label
_atom_site_fract_x
_atom_site_fract_y
_atom_site_fract_z
Si Si1 0.247151 0.979999 0.242397
Si Si2 0.201183 0.765801 0.044649
Si Si3 0.430498 0.363473 0.489372
Si Si4 0.096618 0.564428 0.960553
Si Si5 0.862364 0.879431 0.453742
Si Si6 0.183474 0.522522 0.739277
Si Si7 0.165719 0.172334 0.725737
Si Si8 0.796032 0.050849 0.851007
O O1 0.169277 0.171705 0.147993
O O2 0.524757 0.735379 0.370637
O O3 0.297551 0.995547 0.132663
O O4 0.932293 0.010136 0.349779
O O5 0.551206 0.526800 0.114147
O O6 0.987472 0.792046 0.170331
O O7 0.252418 0.944937 0.870098
O O8 0.016637 0.838792 0.992587
O O9 0.710918 0.368812 0.360384
O O10 0.423732 0.200808 0.594447
O O11 0.111643 0.614289 0.388018
O O12 0.000000 0.500000 0.000000
O O13 0.081295 0.456007 0.127868
O O14 0.063710 0.640990 0.616244
O O15 0.007319 0.878359 0.325646
O O16 0.500000 0.000000 0.500000
O O17 0.497470 0.264383 0.825559
#
# Coordination Sequence:
#
# PCOD9109345 Si02
#       8
#     2   2   2   2   2   2   2   2
#     4   9  24  42  65  97 135 166 230 261 338 395
#     4  11  23  42  66  96 131 180 215 277 331 394
#     4  10  20  41  64  98 126 172 219 283 314 397
#     4  12  26  44  65  96 137 181 221 275 333 392
#     4   9  20  43  66  96 136 173 215 276 332 396
#     4  11  22  41  67  97 134 173 222 270 336 392
#     4  10  22  40  68  94 135 167 234 267 330 390
#     4  10  22  41  68  96 132 171 221 271 329 398
#
# _framework density 22.739595000000001
#
# number of rings (size 3 to 8) (size 9 to 14) (size 15 to 20)
#    0.750    1.000    1.250    2.625    3.500    1.000 
#    2.250   13.750    0.000    0.000    0.000    0.000 
#    0.000    0.000    0.000    0.000    0.000    0.000 
#
# Total GULP energy -89277.938433 kJ/mol
# GULP energy per Si atom -5579.871152 kJ/mol
# Density = 2.268784 g / cm^3
# Si number density = 22.739595 Si / 1000 Ang^3
#
#
#
# Elastic Constant Matrix: (Units=GPa)
#
#
# Indices 1 2 3 4 5 6 
#
# 1 80.1455 -0.7014 23.4631 -12.4744 14.6952 -3.4127
# 2 -0.7014 48.5012 15.3077 1.8821 7.1741 -5.1768
# 3 23.4631 15.3077 71.7177 -10.2970 8.4913 0.4547
# 4 -12.4744 1.8821 -10.2970 26.5032 -9.8399 2.1966
# 5 14.6952 7.1741 8.4913 -9.8399 51.7412 -3.6189
# 6 -3.4127 -5.1768 0.4547 2.1966 -3.6189 34.0465
#
#
#
# Elastic Compliance Matrix: (Units=1/GPa)
#
#
# Indices 1 2 3 4 5 6 
#
# 1 0.015013 0.002039 -0.004431 0.003990 -0.002970 0.001301
# 2 0.002039 0.023643 -0.005993 -0.004661 -0.003494 0.003809
# 3 -0.004431 -0.005993 0.017435 0.005312 0.000104 -0.001920
# 4 0.003990 -0.004661 0.005312 0.044807 0.006986 -0.002528
# 5 -0.002970 -0.003494 0.000104 0.006986 0.022041 0.001062
# 6 0.001301 0.003809 -0.001920 -0.002528 0.001062 0.030383
#
#
# Mechanical properties :
#
#
# Convention : Reuss Voigt Hill
#
# Bulk Modulus (GPa) = 25.43164 30.72258 28.07711
# Shear Modulus (GPa) = 27.29281 33.27785 30.28533
#
# Velocity S-wave (km/s) = 3.46820 3.82963 3.65339
# Velocity P-wave (km/s) = 5.21977 5.75280 5.49275
#
# Compressibility (1/GPa) = 0.03932110
#
# Stress axis : x y z
#
# Youngs Moduli (GPa) = 66.60826 42.29544 57.35659
#
# Poissons Ratio (x) = -0.08623 0.25413
# Poissons Ratio (y) = -0.13580 0.34375
# Poissons Ratio (z) = 0.29512 0.25348
#
# Static dielectric constant tensor:
#      x y z
#    x 1.875030 -0.020660 -0.018110 
#    y -0.020660 1.789870 0.013920 
#    z -0.018110 0.013920 1.905250 
# 
# From -- ./inp_files/610972.got.cif
#   From: 2010.05.17/outbox.cif.g08.bks.cpg/sg2_306_cif.got.tgz:610972.got - 2010.06.03 11:33:40.
