data_PCOD9109644
_publ_section_title
;
Structure prediction by ZEFSAII (Michael W. Deem and Ramdas Pophale) SiO2 
 PCOD9109644
Probable space group: P -1
;
_chemical_formula_sum "Si O2"
_cell_formula_units_Z 15
_cell_length_a 15.687106
_cell_length_b 8.471607
_cell_length_c 7.501306
_cell_angle_alpha 53.937959
_cell_angle_beta 91.109372
_cell_angle_gamma 60.596408
_cell_volume 631.173248
_symmetry_space_group_name_H-M "P -1"
_symmetry_group_IT_number 2
_symmetry_cell_setting 'triclinic'
loop_
_space_group_symop_operation_xyz
x,y,z
-x,-y,-z
loop_
_atom_site_type_symbol
_atom_site_label
_atom_site_fract_x
_atom_site_fract_y
_atom_site_fract_z
Si Si1 0.600832 0.466016 0.114177
Si Si2 0.921227 0.547322 0.620960
Si Si3 0.238073 0.794479 0.203212
Si Si4 0.709682 0.701169 0.330469
Si Si5 0.334652 0.206360 0.133369
Si Si6 0.000000 0.000000 0.000000
Si Si7 0.435048 0.800609 0.145144
Si Si8 0.793512 0.941355 0.601928
O O1 0.552908 0.564524 0.248147
O O2 0.710603 0.187297 0.317595
O O3 0.500000 0.500000 0.000000
O O4 0.622020 0.645802 0.906665
O O5 0.803797 0.693953 0.425449
O O6 0.906355 0.730828 0.650783
O O7 0.000000 0.500000 0.500000
O O8 0.956081 0.282527 0.858123
O O9 0.285085 0.515323 0.437686
O O10 0.124782 0.915254 0.018050
O O11 0.337544 0.782641 0.140275
O O12 0.200592 0.956415 0.277350
O O13 0.729536 0.657685 0.145830
O O14 0.597855 0.980672 0.140593
O O15 0.260837 0.192671 0.273840
O O16 0.423274 0.921570 0.255657
#
# Coordination Sequence:
#
# PCOD9109644 Si02
#       8
#     2   2   2   2   2   1   2   2
#     4  12  24  38  63  98 127 169 212 258 313 372
#     4  11  24  42  66  91 124 165 212 267 323 379
#     4  10  20  41  66  94 129 167 212 261 314 375
#     4   9  19  40  61  88 126 171 202 253 319 368
#     4   9  22  40  61  88 129 168 207 253 309 375
#     4  10  24  42  66  96 122 166 214 258 326 378
#     4   9  20  37  63  89 129 168 208 253 304 377
#     4  11  24  42  65  94 130 164 210 269 313 373
#
# _framework density 23.765264999999999
#
# number of rings (size 3 to 8) (size 9 to 14) (size 15 to 20)
#    0.800    1.067    1.333    2.000    0.000    7.467 
#    0.000    1.333    0.000    0.000    0.000    0.000 
#    0.000    0.000    0.000    0.000    0.000    0.000 
#
# Total GULP energy -83512.627064 kJ/mol
# GULP energy per Si atom -5567.508471 kJ/mol
# Density = 2.371117 g / cm^3
# Si number density = 23.765265 Si / 1000 Ang^3
#
#
#
# Elastic Constant Matrix: (Units=GPa)
#
#
# Indices 1 2 3 4 5 6 
#
# 1 110.4946 12.1384 15.0276 -1.9853 -26.0246 2.3122
# 2 12.1384 95.5807 25.6049 -18.3186 -18.4795 -18.2751
# 3 15.0276 25.6049 54.0239 -29.9504 -11.6889 1.2204
# 4 -1.9853 -18.3186 -29.9504 34.3916 7.6110 1.3112
# 5 -26.0246 -18.4795 -11.6889 7.6110 37.6010 -3.2633
# 6 2.3122 -18.2751 1.2204 1.3112 -3.2633 33.3952
#
#
#
# Elastic Compliance Matrix: (Units=1/GPa)
#
#
# Indices 1 2 3 4 5 6 
#
# 1 0.011287 0.000406 -0.004168 -0.004478 0.007668 0.000518
# 2 0.000406 0.015098 -0.004983 0.001936 0.006540 0.008979
# 3 -0.004168 -0.004983 0.039957 0.032064 0.000151 -0.005143
# 4 -0.004478 0.001936 0.032064 0.058823 -0.004307 -0.002533
# 5 0.007668 0.006540 0.000151 -0.004307 0.036624 0.006790
# 6 0.000518 0.008979 -0.005143 -0.002533 0.006790 0.035773
#
#
# Mechanical properties :
#
#
# Convention : Reuss Voigt Hill
#
# Bulk Modulus (GPa) = 20.46986 40.62677 30.54831
# Shear Modulus (GPa) = 21.61367 34.89944 28.25655
#
# Velocity S-wave (km/s) = 3.01900 3.83627 3.45191
# Velocity P-wave (km/s) = 4.55901 6.06257 5.36373
#
# Compressibility (1/GPa) = 0.04885231
#
# Stress axis : x y z
#
# Youngs Moduli (GPa) = 88.59750 66.23400 25.02715
#
# Poissons Ratio (x) = -0.02691 0.10430
# Poissons Ratio (y) = -0.03600 0.12472
# Poissons Ratio (z) = 0.36923 0.33007
#
# Static dielectric constant tensor:
#      x y z
#    x 1.894450 0.030350 0.000660 
#    y 0.030350 2.029900 0.014800 
#    z 0.000660 0.014800 1.889020 
# 
# From -- ./inp_files/294098.got.cif
#   From: 2010.05.17/outbox.cif.g08.bks.cpg/sg2_148_cif.got.tgz:294098.got - 2010.06.03 11:33:40.
