data_PCOD9109416
_publ_section_title
;
Structure prediction by ZEFSAII (Michael W. Deem and Ramdas Pophale) SiO2 
 PCOD9109416
Probable space group: P -1
;
_chemical_formula_sum "Si O2"
_cell_formula_units_Z 13
_cell_length_a 14.083852
_cell_length_b 7.615381
_cell_length_c 7.635825
_cell_angle_alpha 127.808084
_cell_angle_beta 51.530103
_cell_angle_gamma 100.141857
_cell_volume 477.885415
_symmetry_space_group_name_H-M "P -1"
_symmetry_group_IT_number 2
_symmetry_cell_setting 'triclinic'
loop_
_space_group_symop_operation_xyz
x,y,z
-x,-y,-z
loop_
_atom_site_type_symbol
_atom_site_label
_atom_site_fract_x
_atom_site_fract_y
_atom_site_fract_z
Si Si1 0.370992 0.438626 0.067983
Si Si2 0.612951 0.683019 0.630341
Si Si3 0.000000 0.500000 0.500000
Si Si4 0.669458 0.137524 0.838506
Si Si5 0.788925 0.178347 0.056070
Si Si6 0.018823 0.285474 0.979572
Si Si7 0.741419 0.849642 0.168704
O O1 0.290447 0.689859 0.230707
O O2 0.375371 0.247605 0.793984
O O3 0.500000 0.500000 0.000000
O O4 0.348025 0.341261 0.223377
O O5 0.463540 0.704540 0.812321
O O6 0.716462 0.456918 0.286222
O O7 0.621502 0.927943 0.697092
O O8 0.960553 0.394972 0.298423
O O9 0.850077 0.654175 0.809159
O O10 0.776436 0.053873 0.814286
O O11 0.936822 0.129028 0.907024
O O12 0.719335 0.092413 0.240828
O O13 0.000000 0.500000 0.000000
O O14 0.168863 0.157356 0.769253
#
# Coordination Sequence:
#
# PCOD9109416 Si02
#       7
#     2   2   1   2   2   2   2
#     4  10  20  41  65  90 127 173 216 268 327 391
#     4  10  22  42  62  93 132 174 215 273 333 390
#     4   8  22  40  66  84 136 174 214 270 336 386
#     4  10  22  40  64  91 131 174 222 265 329 402
#     4  12  22  40  67  95 129 175 214 281 332 396
#     4  10  22  41  64  95 132 171 228 271 328 408
#     4  10  21  41  62  95 134 170 219 274 335 394
#
# _framework density 27.203173
#
# number of rings (size 3 to 8) (size 9 to 14) (size 15 to 20)
#    0.923    0.923    1.538    2.769    0.000    0.000 
#    5.538    2.308    0.000    0.000    0.000    0.000 
#    0.000    0.000    0.000    0.000    0.000    0.000 
#
# Total GULP energy -72392.152293 kJ/mol
# GULP energy per Si atom -5568.627099 kJ/mol
# Density = 2.714126 g / cm^3
# Si number density = 27.203173 Si / 1000 Ang^3
#
#
#
# Elastic Constant Matrix: (Units=GPa)
#
#
# Indices 1 2 3 4 5 6 
#
# 1 190.6903 32.8068 -3.5419 -0.1425 34.9972 14.3790
# 2 32.8068 133.5258 -15.8862 24.8870 7.3739 9.6153
# 3 -3.5419 -15.8862 54.9765 5.4281 -13.8983 14.2348
# 4 -0.1425 24.8870 5.4281 27.9012 1.8618 -0.8999
# 5 34.9972 7.3739 -13.8983 1.8618 40.1974 1.0660
# 6 14.3790 9.6153 14.2348 -0.8999 1.0660 35.9389
#
#
#
# Elastic Compliance Matrix: (Units=1/GPa)
#
#
# Indices 1 2 3 4 5 6 
#
# 1 0.006767 -0.001843 -0.001530 0.002343 -0.006155 -0.001367
# 2 -0.001843 0.010998 0.006048 -0.011311 0.002334 -0.004953
# 3 -0.001530 0.006048 0.026770 -0.011695 0.010343 -0.012209
# 4 0.002343 -0.011311 -0.011695 0.048913 -0.006489 0.008138
# 5 -0.006155 0.002334 0.010343 -0.006489 0.033775 -0.003423
# 6 -0.001367 -0.004953 -0.012209 0.008138 -0.003423 0.034838
#
#
# Mechanical properties :
#
#
# Convention : Reuss Voigt Hill
#
# Bulk Modulus (GPa) = 20.04583 45.10553 32.57568
# Shear Modulus (GPa) = 28.84540 45.19511 37.02025
#
# Velocity S-wave (km/s) = 3.25986 4.08044 3.69301
# Velocity P-wave (km/s) = 4.64261 6.23032 5.49413
#
# Compressibility (1/GPa) = 0.04988570
#
# Stress axis : x y z
#
# Youngs Moduli (GPa) = 147.77159 90.92864 37.35589
#
# Poissons Ratio (x) = 0.16758 0.05715
# Poissons Ratio (y) = 0.27234 -0.22594
# Poissons Ratio (z) = 0.22606 -0.54998
#
# Static dielectric constant tensor:
#      x y z
#    x 2.253740 0.004220 0.036010 
#    y 0.004220 2.265260 -0.066350 
#    z 0.036010 -0.066350 2.167940 
# 
# From -- ./inp_files/291151.got.cif
#   From: 2010.05.17/outbox.cif.g08.bks.cpg/sg2_146_cif.got.tgz:291151.got - 2010.06.03 11:33:40.
