data_PCOD9109331
_publ_section_title
;
Structure prediction by ZEFSAII (Michael W. Deem and Ramdas Pophale) SiO2 
 PCOD9109331
Probable space group: P -1
;
_chemical_formula_sum "Si O2"
_cell_formula_units_Z 16
_cell_length_a 18.900433
_cell_length_b 16.433005
_cell_length_c 10.535204
_cell_angle_alpha 132.465091
_cell_angle_beta 143.454532
_cell_angle_gamma 20.670245
_cell_volume 640.568715
_symmetry_space_group_name_H-M "P -1"
_symmetry_group_IT_number 2
_symmetry_cell_setting 'triclinic'
loop_
_space_group_symop_operation_xyz
x,y,z
-x,-y,-z
loop_
_atom_site_type_symbol
_atom_site_label
_atom_site_fract_x
_atom_site_fract_y
_atom_site_fract_z
Si Si1 0.302790 0.249466 0.289791
Si Si2 0.023038 0.014641 0.904080
Si Si3 0.307945 0.502232 0.191392
Si Si4 0.454717 0.293792 0.744837
Si Si5 0.320694 0.253615 0.044641
Si Si6 0.759451 0.952766 0.038910
Si Si7 0.086323 0.758130 0.553876
Si Si8 0.467229 0.538081 0.674202
O O1 0.456098 0.176667 0.550055
O O2 0.384084 0.241385 0.267109
O O3 0.342504 0.088129 0.148876
O O4 0.988978 0.523374 0.155944
O O5 0.972072 0.950114 0.679004
O O6 0.304467 0.831503 0.089640
O O7 0.783800 0.304318 0.851181
O O8 0.000000 0.000000 0.000000
O O9 0.347828 0.335546 0.078439
O O10 0.407335 0.487612 0.444256
O O11 0.596632 0.293720 0.301379
O O12 0.986748 0.768486 0.060239
O O13 0.195343 0.575029 0.616331
O O14 0.515612 0.224069 0.906898
O O15 0.500000 0.000000 0.000000
O O16 0.921524 0.843501 0.288538
O O17 0.340247 0.611510 0.699314
#
# Coordination Sequence:
#
# PCOD9109331 Si02
#       8
#     2   2   2   2   2   2   2   2
#     4  10  22  43  67  98 142 178 237 294 341 421
#     4  12  26  44  67 102 140 188 233 285 361 420
#     4   9  19  38  64  99 137 178 234 288 343 420
#     4  12  23  44  71 102 142 188 229 289 356 415
#     4  10  21  41  68 101 136 186 236 288 357 409
#     4  10  22  44  74 101 137 189 237 286 352 417
#     4  11  25  45  70 104 140 182 240 289 349 427
#     4  10  20  41  64  96 137 182 226 289 348 413
#
# _framework density 24.977803000000002
#
# number of rings (size 3 to 8) (size 9 to 14) (size 15 to 20)
#    0.000    1.500    2.500    3.750    0.000    2.500 
#    2.250    0.000    0.000    2.250    0.000    0.000 
#    0.000    0.000    0.000    0.000    0.000    0.000 
#
# Total GULP energy -89130.749861 kJ/mol
# GULP energy per Si atom -5570.671866 kJ/mol
# Density = 2.492095 g / cm^3
# Si number density = 24.977803 Si / 1000 Ang^3
#
#
#
# Elastic Constant Matrix: (Units=GPa)
#
#
# Indices 1 2 3 4 5 6 
#
# 1 116.2417 28.3732 48.9058 9.3884 -21.2762 21.3777
# 2 28.3732 88.4742 46.1404 11.6788 -21.2990 26.8819
# 3 48.9058 46.1404 148.3581 21.4920 -26.8714 6.4024
# 4 9.3884 11.6788 21.4920 26.3938 6.3490 -8.5962
# 5 -21.2762 -21.2990 -26.8714 6.3490 41.6088 7.8959
# 6 21.3777 26.8819 6.4024 -8.5962 7.8959 17.9080
#
#
#
# Elastic Compliance Matrix: (Units=1/GPa)
#
#
# Indices 1 2 3 4 5 6 
#
# 1 0.006481 -0.009391 -0.003373 0.012409 -0.008873 0.017435
# 2 -0.009391 -0.001409 -0.004823 0.023751 -0.018860 0.034767
# 3 -0.003373 -0.004823 0.009948 -0.003475 0.001762 0.005265
# 4 0.012409 0.023751 -0.003475 -0.001308 0.028285 -0.062323
# 5 -0.008873 -0.018860 0.001762 0.028285 -0.003466 0.053379
# 6 0.017435 0.034767 0.005265 -0.062323 0.053379 -0.072495
#
#
# Mechanical properties :
#
#
# Convention : Reuss Voigt Hill
#
# Bulk Modulus (GPa) = -49.61688 66.65697 8.52005
# Shear Modulus (GPa) = -147.96343 32.49243 -57.73550
#
# Velocity S-wave (km/s) = -7.70497 3.61065 -4.81299
# Velocity P-wave (km/s) = 9.95304 6.64280 5.24100
#
# Compressibility (1/GPa) = -0.02015443
#
# Stress axis : x y z
#
# Youngs Moduli (GPa) = 154.28734 -709.62391 100.52554
#
# Poissons Ratio (x) = -6.66402 0.33909
# Poissons Ratio (y) = 1.44890 0.48484
# Poissons Ratio (z) = 0.52044 -3.42256
#
# Static dielectric constant tensor:
#      x y z
#    x 2.123840 0.166270 -0.013490 
#    y 0.166270 2.416060 -0.044920 
#    z -0.013490 -0.044920 1.945590 
# 
# From -- ./inp_files/472437.got.cif
#   From: 2010.05.17/outbox.cif.g08.bks.cpg/sg2_237_cif.got.tgz:472437.got - 2010.06.03 11:33:40.
