data_PCOD9109168
_publ_section_title
;
Structure prediction by ZEFSAII (Michael W. Deem and Ramdas Pophale) SiO2 
 PCOD9109168
Probable space group: P -1
;
_chemical_formula_sum "Si O2"
_cell_formula_units_Z 14
_cell_length_a 11.485335
_cell_length_b 8.356356
_cell_length_c 14.359318
_cell_angle_alpha 142.391662
_cell_angle_beta 129.852028
_cell_angle_gamma 59.594067
_cell_volume 645.654208
_symmetry_space_group_name_H-M "P -1"
_symmetry_group_IT_number 2
_symmetry_cell_setting 'triclinic'
loop_
_space_group_symop_operation_xyz
x,y,z
-x,-y,-z
loop_
_atom_site_type_symbol
_atom_site_label
_atom_site_fract_x
_atom_site_fract_y
_atom_site_fract_z
Si Si1 0.849326 0.321721 0.218432
Si Si2 0.356192 0.954299 0.341486
Si Si3 0.210069 0.522090 0.953062
Si Si4 0.113083 0.227532 0.430345
Si Si5 0.328738 0.464060 0.431355
Si Si6 0.913242 0.808802 0.943977
Si Si7 0.127977 0.943507 0.619836
O O1 0.801068 0.416704 0.135475
O O2 0.793849 0.536357 0.363601
O O3 0.029732 0.321742 0.336600
O O4 0.827681 0.008646 0.061481
O O5 0.500000 0.000000 0.500000
O O6 0.214042 0.977429 0.348649
O O7 0.337968 0.215511 0.390647
O O8 0.338632 0.696709 0.149973
O O9 0.051261 0.627851 0.963324
O O10 0.213170 0.210734 0.815063
O O11 0.975833 0.148901 0.390683
O O12 0.500000 0.500000 0.500000
O O13 0.213470 0.369571 0.249071
O O14 0.251579 0.727250 0.553702
O O15 0.000000 0.000000 0.000000
O O16 0.000000 0.000000 0.500000
#
# Coordination Sequence:
#
# PCOD9109168 Si02
#       7
#     2   2   2   2   2   2   2
#     4  10  18  36  70  99 124 178 241 285 336 410
#     4  12  27  47  67 101 147 192 241 291 363 422
#     4  11  21  42  71 100 135 187 245 286 341 436
#     4  11  22  39  70 105 139 178 236 300 342 420
#     4  12  26  46  71 105 148 184 228 302 368 413
#     4  10  16  37  71  96 127 178 241 273 334 427
#     4  12  24  42  72 109 143 177 240 296 356 421
#
# _framework density 21.683433000000001
#
# number of rings (size 3 to 8) (size 9 to 14) (size 15 to 20)
#    0.000    0.857    7.143    3.429    2.000    0.571 
#    5.143    2.143    0.000    0.000    0.000    0.000 
#    0.000    0.000    0.000    0.000    0.000    0.000 
#
# Total GULP energy -78036.392795 kJ/mol
# GULP energy per Si atom -5574.028057 kJ/mol
# Density = 2.163408 g / cm^3
# Si number density = 21.683433 Si / 1000 Ang^3
#
#
#
# Elastic Constant Matrix: (Units=GPa)
#
#
# Indices 1 2 3 4 5 6 
#
# 1 78.6543 19.1219 43.9711 4.5807 3.6142 -11.5693
# 2 19.1219 63.3611 67.2417 14.6811 1.7758 -7.4559
# 3 43.9711 67.2417 222.0172 14.6621 -15.2186 -12.5652
# 4 4.5807 14.6811 14.6621 50.5836 -8.1416 -5.0262
# 5 3.6142 1.7758 -15.2186 -8.1416 33.4369 -1.9430
# 6 -11.5693 -7.4559 -12.5652 -5.0262 -1.9430 16.0317
#
#
#
# Elastic Compliance Matrix: (Units=1/GPa)
#
#
# Indices 1 2 3 4 5 6 
#
# 1 0.015722 -0.001079 -0.002455 0.000105 -0.002230 0.008682
# 2 -0.001079 0.025942 -0.007499 -0.005935 -0.005955 0.002825
# 3 -0.002455 -0.007499 0.007586 0.001075 0.004469 0.001564
# 4 0.000105 -0.005935 0.001075 0.022862 0.006717 0.006140
# 5 -0.002230 -0.005955 0.004469 0.006717 0.034448 0.005405
# 6 0.008682 0.002825 0.001564 0.006140 0.005405 0.073762
#
#
# Mechanical properties :
#
#
# Convention : Reuss Voigt Hill
#
# Bulk Modulus (GPa) = 36.78984 69.41133 53.10059
# Shear Modulus (GPa) = 23.64622 35.59030 29.61826
#
# Velocity S-wave (km/s) = 3.30589 4.05576 3.69987
# Velocity P-wave (km/s) = 5.61921 7.34935 6.54173
#
# Compressibility (1/GPa) = 0.02718142
#
# Stress axis : x y z
#
# Youngs Moduli (GPa) = 63.60388 38.54789 131.82766
#
# Poissons Ratio (x) = 0.04161 0.32368
# Poissons Ratio (y) = 0.06865 0.98864
# Poissons Ratio (z) = 0.15617 0.28909
#
# Static dielectric constant tensor:
#      x y z
#    x 1.880650 0.046810 -0.060440 
#    y 0.046810 1.891670 0.020830 
#    z -0.060440 0.020830 1.858300 
# 
# From -- ./inp_files/513864.got.cif
#   From: 2010.05.17/outbox.cif.g08.bks.cpg/sg2_257_cif.got.tgz:513864.got - 2010.06.03 11:33:40.
