data_PCOD9109840
_publ_section_title
;
Structure prediction by ZEFSAII (Michael W. Deem and Ramdas Pophale) SiO2 
 PCOD9109840
Probable space group: P -1
;
_chemical_formula_sum "Si O2"
_cell_formula_units_Z 15
_cell_length_a 18.562099
_cell_length_b 7.041521
_cell_length_c 9.979655
_cell_angle_alpha 84.093934
_cell_angle_beta 54.090283
_cell_angle_gamma 126.883713
_cell_volume 601.639887
_symmetry_space_group_name_H-M "P -1"
_symmetry_group_IT_number 2
_symmetry_cell_setting 'triclinic'
loop_
_space_group_symop_operation_xyz
x,y,z
-x,-y,-z
loop_
_atom_site_type_symbol
_atom_site_label
_atom_site_fract_x
_atom_site_fract_y
_atom_site_fract_z
Si Si1 0.875454 0.148440 0.448193
Si Si2 0.330122 0.109397 0.689025
Si Si3 0.375628 0.689522 0.294722
Si Si4 0.579558 0.813703 0.706235
Si Si5 0.251378 0.316740 0.174740
Si Si6 0.879255 0.935791 0.198638
Si Si7 0.279457 0.776929 0.029839
Si Si8 0.000000 0.500000 0.500000
O O1 0.693747 0.858422 0.639787
O O2 0.960851 0.486280 0.376905
O O3 0.884676 0.067476 0.597190
O O4 0.942059 0.157941 0.247462
O O5 0.500000 0.500000 0.500000
O O6 0.198872 0.040822 0.812610
O O7 0.356589 0.050444 0.522722
O O8 0.289809 0.894720 0.866288
O O9 0.394414 0.948219 0.258898
O O10 0.300426 0.493033 0.251783
O O11 0.264387 0.433014 0.555227
O O12 0.546495 0.912562 0.123235
O O13 0.395411 0.456525 0.942848
O O14 0.223808 0.455655 0.106224
O O15 0.000000 0.000000 0.000000
O O16 0.164089 0.684360 0.257703
#
# Coordination Sequence:
#
# PCOD9109840 Si02
#       8
#     2   2   2   2   2   2   2   1
#     4  10  23  41  65  97 133 177 226 276 343 401
#     4  11  24  43  65 100 138 176 228 276 336 402
#     4  10  20  41  67  97 133 170 233 276 337 401
#     4  10  21  39  69  93 127 180 222 276 339 402
#     4  10  21  39  68  96 128 172 227 281 337 399
#     4  10  23  45  72  97 135 183 228 278 337 409
#     4  11  24  41  62  97 138 177 221 284 332 402
#     4  12  26  42  64  98 140 172 220 284 344 396
#
# _framework density 24.931857000000001
#
# number of rings (size 3 to 8) (size 9 to 14) (size 15 to 20)
#    0.000    1.600    1.333    3.600    1.867    6.933 
#    4.800    2.667    0.000    0.000    0.000    2.800 
#    0.000    0.000    0.000    0.000    0.000    0.000 
#
# Total GULP energy -83733.715596 kJ/mol
# GULP energy per Si atom -5582.247706 kJ/mol
# Density = 2.487511 g / cm^3
# Si number density = 24.931857 Si / 1000 Ang^3
#
#
#
# Elastic Constant Matrix: (Units=GPa)
#
#
# Indices 1 2 3 4 5 6 
#
# 1 156.7138 44.1872 95.2707 12.6680 9.9433 3.9688
# 2 44.1872 95.3055 50.1109 15.1575 -8.2186 1.3370
# 3 95.2707 50.1109 192.1278 18.7441 -22.0749 2.8166
# 4 12.6680 15.1575 18.7441 46.5406 -3.8536 -2.2952
# 5 9.9433 -8.2186 -22.0749 -3.8536 60.2627 -1.6476
# 6 3.9688 1.3370 2.8166 -2.2952 -1.6476 24.3732
#
#
#
# Elastic Compliance Matrix: (Units=1/GPa)
#
#
# Indices 1 2 3 4 5 6 
#
# 1 0.010362 -0.002490 -0.004876 -0.000432 -0.003898 -0.001292
# 2 -0.002490 0.013138 -0.001758 -0.002793 0.001372 -0.000282
# 3 -0.004876 -0.001758 0.008623 -0.001271 0.003643 0.000020
# 4 -0.000432 -0.002793 -0.001271 0.023219 0.000781 0.002610
# 5 -0.003898 0.001372 0.003643 0.000781 0.018849 0.001486
# 6 -0.001292 -0.000282 0.000020 0.002610 0.001486 0.041598
#
#
# Mechanical properties :
#
#
# Convention : Reuss Voigt Hill
#
# Bulk Modulus (GPa) = 72.06295 91.47606 81.76950
# Shear Modulus (GPa) = 36.05889 43.20719 39.63304
#
# Velocity S-wave (km/s) = 3.80715 4.16746 3.99137
# Velocity P-wave (km/s) = 6.94928 7.74126 7.35594
#
# Compressibility (1/GPa) = 0.01387676
#
# Stress axis : x y z
#
# Youngs Moduli (GPa) = 96.50468 76.11685 115.96620
#
# Poissons Ratio (x) = 0.18953 0.56541
# Poissons Ratio (y) = 0.24030 0.20381
# Poissons Ratio (z) = 0.47052 0.13378
#
# Static dielectric constant tensor:
#      x y z
#    x 2.074700 -0.067850 0.050960 
#    y -0.067850 2.492110 -0.165580 
#    z 0.050960 -0.165580 1.990970 
# 
# From -- ./inp_files/328854.got.cif
#   From: 2010.05.17/outbox.cif.g08.bks.cpg/sg2_165_cif.got.tgz:328854.got - 2010.06.03 11:33:40.
