data_PCOD9109735
_publ_section_title
;
Structure prediction by ZEFSAII (Michael W. Deem and Ramdas Pophale) SiO2 
 PCOD9109735
Probable space group: P -1
;
_chemical_formula_sum "Si O2"
_cell_formula_units_Z 12
_cell_length_a 8.771036
_cell_length_b 15.137548
_cell_length_c 9.784780
_cell_angle_alpha 45.516149
_cell_angle_beta 144.866228
_cell_angle_gamma 140.775365
_cell_volume 464.656529
_symmetry_space_group_name_H-M "P -1"
_symmetry_group_IT_number 2
_symmetry_cell_setting 'triclinic'
loop_
_space_group_symop_operation_xyz
x,y,z
-x,-y,-z
loop_
_atom_site_type_symbol
_atom_site_label
_atom_site_fract_x
_atom_site_fract_y
_atom_site_fract_z
Si Si1 0.986162 0.578391 0.541858
Si Si2 0.443231 0.026261 0.276906
Si Si3 0.957666 0.918824 0.417198
Si Si4 0.707954 0.346392 0.817418
Si Si5 0.533757 0.698380 0.019294
Si Si6 0.212487 0.879822 0.008660
O O1 0.787759 0.471218 0.634523
O O2 0.000000 0.500000 0.500000
O O3 0.322963 0.655782 0.775171
O O4 0.800152 0.658895 0.274912
O O5 0.307171 0.130572 0.042748
O O6 0.787946 0.124020 0.369150
O O7 0.500000 0.000000 0.500000
O O8 0.320338 0.891560 0.231293
O O9 0.636664 0.779589 0.324174
O O10 0.000000 0.000000 0.500000
O O11 0.002617 0.050220 0.213054
O O12 0.896711 0.268063 0.987316
O O13 0.691650 0.371855 0.938726
O O14 0.500000 0.000000 0.000000
#
# Coordination Sequence:
#
# PCOD9109735 Si02
#       6
#     2   2   2   2   2   2
#     4  12  30  50  77 107 148 194 248 309 370 421
#     4  12  26  42  70 109 147 184 238 306 372 425
#     4  11  20  40  70 102 146 190 237 290 362 442
#     4  11  23  47  75 107 142 196 250 293 360 446
#     4  12  26  51  74 108 146 197 249 299 358 451
#     4  10  20  41  67 105 137 181 237 288 369 423
#
# _framework density 25.825527999999998
#
# number of rings (size 3 to 8) (size 9 to 14) (size 15 to 20)
#    0.000    0.667    6.667    2.500    2.333    4.667 
#    0.000    0.000    0.000    0.000    0.000    0.000 
#    0.000    0.000    0.000    0.000    0.000    0.000 
#
# Total GULP energy -67040.803088 kJ/mol
# GULP energy per Si atom -5586.733591 kJ/mol
# Density = 2.576675 g / cm^3
# Si number density = 25.825528 Si / 1000 Ang^3
#
#
#
# Elastic Constant Matrix: (Units=GPa)
#
#
# Indices 1 2 3 4 5 6 
#
# 1 120.7316 34.5624 65.4222 -5.4781 -23.2199 -26.0926
# 2 34.5624 49.0090 50.0349 3.7087 5.0226 -14.1876
# 3 65.4222 50.0349 171.7213 -2.9316 0.8192 -35.7723
# 4 -5.4781 3.7087 -2.9316 55.0503 -21.9173 -8.3421
# 5 -23.2199 5.0226 0.8192 -21.9173 49.6190 4.1244
# 6 -26.0926 -14.1876 -35.7723 -8.3421 4.1244 46.3967
#
#
#
# Elastic Compliance Matrix: (Units=1/GPa)
#
#
# Indices 1 2 3 4 5 6 
#
# 1 0.015470 -0.008923 -0.002287 0.007049 0.010920 0.004505
# 2 -0.008923 0.035707 -0.007098 -0.008167 -0.011277 -0.000038
# 3 -0.002287 -0.007098 0.009674 0.001294 -0.000294 0.004261
# 4 0.007049 -0.008167 0.001294 0.026469 0.015308 0.005863
# 5 0.010920 -0.011277 -0.000294 0.015308 0.032982 0.002286
# 6 0.004505 -0.000038 0.004261 0.005863 0.002286 0.028211
#
#
# Mechanical properties :
#
#
# Convention : Reuss Voigt Hill
#
# Bulk Modulus (GPa) = 41.26433 71.27789 56.27111
# Shear Modulus (GPa) = 25.87886 42.97604 34.42745
#
# Velocity S-wave (km/s) = 3.16898 4.08375 3.65510
# Velocity P-wave (km/s) = 5.42242 7.06369 6.29676
#
# Compressibility (1/GPa) = 0.02423401
#
# Stress axis : x y z
#
# Youngs Moduli (GPa) = 64.63978 28.00599 103.37002
#
# Poissons Ratio (x) = 0.24991 0.23642
# Poissons Ratio (y) = 0.57681 0.73371
# Poissons Ratio (z) = 0.14784 0.19878
#
# Static dielectric constant tensor:
#      x y z
#    x 2.101890 -0.040930 0.076110 
#    y -0.040930 2.066330 -0.031620 
#    z 0.076110 -0.031620 2.372050 
# 
# From -- ./inp_files/29233.got.cif
#   From: 2010.05.17/outbox.cif.g08.bks.cpg/sg2_15_cif.got.tgz:29233.got - 2010.06.03 11:33:40.
