data_PCOD9109031
_publ_section_title
;
Structure prediction by ZEFSAII (Michael W. Deem and Ramdas Pophale) SiO2 
 PCOD9109031
Probable space group: P -1
;
_chemical_formula_sum "Si O2"
_cell_formula_units_Z 16
_cell_length_a 5.335745
_cell_length_b 8.372383
_cell_length_c 17.846485
_cell_angle_alpha 74.702901
_cell_angle_beta 74.689844
_cell_angle_gamma 60.384567
_cell_volume 659.998144
_symmetry_space_group_name_H-M "P -1"
_symmetry_group_IT_number 2
_symmetry_cell_setting 'triclinic'
loop_
_space_group_symop_operation_xyz
x,y,z
-x,-y,-z
loop_
_atom_site_type_symbol
_atom_site_label
_atom_site_fract_x
_atom_site_fract_y
_atom_site_fract_z
Si Si1 0.394003 0.286414 0.318150
Si Si2 0.277702 0.937154 0.341615
Si Si3 0.840304 0.095342 0.810957
Si Si4 0.396792 0.373512 0.138123
Si Si5 0.749861 0.988264 0.427104
Si Si6 0.728416 0.843033 0.949204
Si Si7 0.119546 0.307147 0.681987
Si Si8 0.747299 0.599051 0.106243
O O1 0.484831 0.309420 0.224532
O O2 0.124742 0.483831 0.334919
O O3 0.324568 0.113024 0.337059
O O4 0.640251 0.194843 0.373530
O O5 0.147250 0.986408 0.262187
O O6 0.547871 0.734876 0.327951
O O7 0.086719 0.924247 0.426677
O O8 0.514108 0.242257 0.844556
O O9 0.025430 0.208754 0.768722
O O10 0.922628 0.927578 0.883826
O O11 0.436330 0.215255 0.094467
O O12 0.577004 0.490539 0.096611
O O13 0.038371 0.486577 0.146702
O O14 0.821073 0.824082 0.379686
O O15 0.500000 0.000000 0.500000
O O16 0.862418 0.680683 0.019452
O O17 0.500000 0.000000 0.000000
#
# Coordination Sequence:
#
# PCOD9109031 Si02
#       8
#     2   2   2   2   2   2   2   2
#     4  11  23  40  72 101 136 192 233 297 362 427
#     4  10  22  41  67  98 135 183 232 292 355 429
#     4  10  20  41  61  95 139 180 240 295 354 430
#     4  12  24  44  68  99 142 180 255 296 357 442
#     4  10  25  46  68 104 145 178 228 294 364 441
#     4  10  23  44  64  97 138 193 230 304 373 413
#     4  10  22  41  67 102 135 185 240 292 353 429
#     4  11  25  42  67  99 138 190 238 314 359 422
#
# _framework density 24.242491999999999
#
# number of rings (size 3 to 8) (size 9 to 14) (size 15 to 20)
#    0.000    1.500    2.500    1.500    1.750    5.500 
#    2.250    5.000    0.000    0.000    0.000    0.000 
#    0.000    0.000    0.000    0.000    0.000    0.000 
#
# Total GULP energy -89147.676868 kJ/mol
# GULP energy per Si atom -5571.729804 kJ/mol
# Density = 2.418732 g / cm^3
# Si number density = 24.242492 Si / 1000 Ang^3
#
#
#
# Elastic Constant Matrix: (Units=GPa)
#
#
# Indices 1 2 3 4 5 6 
#
# 1 64.0570 18.5097 21.4234 3.4303 -23.4069 -11.6124
# 2 18.5097 131.3983 49.0851 22.3684 -13.5515 -5.4036
# 3 21.4234 49.0851 107.6019 29.0627 -22.5656 -20.8138
# 4 3.4303 22.3684 29.0627 32.3476 -8.2331 1.5661
# 5 -23.4069 -13.5515 -22.5656 -8.2331 31.1830 8.9015
# 6 -11.6124 -5.4036 -20.8138 1.5661 8.9015 28.7460
#
#
#
# Elastic Compliance Matrix: (Units=1/GPa)
#
#
# Indices 1 2 3 4 5 6 
#
# 1 0.022420 -0.001723 -0.000650 0.003187 0.015514 0.003285
# 2 -0.001723 0.009636 -0.003363 -0.003442 -0.000137 -0.001090
# 3 -0.000650 -0.003363 0.017416 -0.012746 0.004109 0.011137
# 4 0.003187 -0.003442 -0.012746 0.047104 0.008001 -0.013632
# 5 0.015514 -0.000137 0.004109 0.008001 0.050717 -0.006924
# 6 0.003285 -0.001090 0.011137 -0.013632 -0.006924 0.046860
#
#
# Mechanical properties :
#
#
# Convention : Reuss Voigt Hill
#
# Bulk Modulus (GPa) = 26.31503 53.45485 39.88494
# Shear Modulus (GPa) = 22.90510 32.72460 27.81485
#
# Velocity S-wave (km/s) = 3.07715 3.67807 3.39094
# Velocity P-wave (km/s) = 4.84805 6.33526 5.64088
#
# Compressibility (1/GPa) = 0.03800109
#
# Stress axis : x y z
#
# Youngs Moduli (GPa) = 44.60300 103.77450 57.41987
#
# Poissons Ratio (x) = 0.17880 0.03731
# Poissons Ratio (y) = 0.07685 0.19308
# Poissons Ratio (z) = 0.02898 0.34895
#
# Static dielectric constant tensor:
#      x y z
#    x 2.481260 -0.072830 0.042290 
#    y -0.072830 1.978870 -0.029270 
#    z 0.042290 -0.029270 1.973270 
# 
# From -- ./inp_files/582387.got.cif
#   From: 2010.05.17/outbox.cif.g08.bks.cpg/sg2_292_cif.got.tgz:582387.got - 2010.06.03 11:33:40.
