data_PCOD9109679
_publ_section_title
;
Structure prediction by ZEFSAII (Michael W. Deem and Ramdas Pophale) SiO2 
 PCOD9109679
Probable space group: P -1
;
_chemical_formula_sum "Si O2"
_cell_formula_units_Z 12
_cell_length_a 12.614572
_cell_length_b 9.141723
_cell_length_c 7.796058
_cell_angle_alpha 109.954562
_cell_angle_beta 107.275597
_cell_angle_gamma 130.352902
_cell_volume 444.861692
_symmetry_space_group_name_H-M "P -1"
_symmetry_group_IT_number 2
_symmetry_cell_setting 'triclinic'
loop_
_space_group_symop_operation_xyz
x,y,z
-x,-y,-z
loop_
_atom_site_type_symbol
_atom_site_label
_atom_site_fract_x
_atom_site_fract_y
_atom_site_fract_z
Si Si1 0.706827 0.211055 0.352448
Si Si2 0.761630 0.783621 0.609900
Si Si3 0.149897 0.704461 0.892502
Si Si4 0.780362 0.669983 0.962343
Si Si5 0.595669 0.765147 0.985870
Si Si6 0.550640 0.869270 0.567194
O O1 0.765317 0.313220 0.221700
O O2 0.568056 0.178032 0.356641
O O3 0.915263 0.442513 0.645845
O O4 0.616004 0.930090 0.194042
O O5 0.781683 0.726482 0.783578
O O6 0.624834 0.518013 0.312999
O O7 0.627587 0.781565 0.557860
O O8 0.988155 0.086157 0.779201
O O9 0.247130 0.980340 0.977935
O O10 0.234647 0.795644 0.160859
O O11 0.687282 0.702372 0.042725
O O12 0.625776 0.345747 0.745367
#
# Coordination Sequence:
#
# PCOD9109679 Si02
#       6
#     2   2   2   2   2   2
#     4   9  18  23  30  35  42  46  54  61  66  72
#     4  10  17  23  30  35  41  49  53  59  67  71
#     4   9  16  23  29  36  40  48  53  58  69  69
#     4  10  17  23  30  34  43  47  55  59  64  74
#     4   9  16  26  28  36  40  49  54  59  66  72
#     4  11  16  24  29  37  41  46  54  61  66  72
#
# _framework density 26.974675999999999
#
# number of rings (size 3 to 8) (size 9 to 14) (size 15 to 20)
#    1.000    1.333    3.333    2.500    2.333    1.333 
#    0.000    0.000    0.000    0.000    0.000    0.000 
#    0.000    0.000    0.000    0.000    0.000    0.000 
#
# Total GULP energy -66871.878311 kJ/mol
# GULP energy per Si atom -5572.656526 kJ/mol
# Density = 2.691328 g / cm^3
# Si number density = 26.974676 Si / 1000 Ang^3
#
#
#
# Elastic Constant Matrix: (Units=GPa)
#
#
# Indices 1 2 3 4 5 6 
#
# 1 132.7465 23.6438 96.2687 27.2724 7.3093 -8.1718
# 2 23.6438 52.5888 54.5541 -28.7662 -14.6626 7.5719
# 3 96.2687 54.5541 272.6025 83.2221 15.6933 -2.2957
# 4 27.2724 -28.7662 83.2221 -33.6077 -8.6069 10.0073
# 5 7.3093 -14.6626 15.6933 -8.6069 32.7464 8.9807
# 6 -8.1718 7.5719 -2.2957 10.0073 8.9807 39.5888
#
#
#
# Elastic Compliance Matrix: (Units=1/GPa)
#
#
# Indices 1 2 3 4 5 6 
#
# 1 0.010372 -0.000932 -0.003697 0.001023 -0.001278 0.002136
# 2 -0.000932 0.013420 0.000851 -0.011098 0.003057 -0.000598
# 3 -0.003697 0.000851 0.003491 0.004029 0.001141 -0.002001
# 4 0.001023 -0.011098 0.004029 -0.005026 -0.010132 0.006137
# 5 -0.001278 0.003057 0.001141 -0.010132 0.030384 -0.005114
# 6 0.002136 -0.000598 -0.002001 0.006137 -0.005114 0.025308
#
#
# Mechanical properties :
#
#
# Convention : Reuss Voigt Hill
#
# Bulk Modulus (GPa) = 50.69508 89.65231 70.17369
# Shear Modulus (GPa) = 54.29987 26.64357 40.47172
#
# Velocity S-wave (km/s) = 4.49151 3.14622 3.87765
# Velocity P-wave (km/s) = 6.76259 6.81954 6.79112
#
# Compressibility (1/GPa) = 0.01972578
#
# Stress axis : x y z
#
# Youngs Moduli (GPa) = 96.41348 74.51566 286.43643
#
# Poissons Ratio (x) = 0.06946 1.05897
# Poissons Ratio (y) = 0.08988 -0.24363
# Poissons Ratio (z) = 0.35645 -0.06338
#
# Static dielectric constant tensor:
#      x y z
#    x 2.014770 -0.003140 -0.027420 
#    y -0.003140 2.415260 -0.072950 
#    z -0.027420 -0.072950 2.132520 
# 
# From -- ./inp_files/422270.got.cif
#   From: 2010.05.17/outbox.cif.g08.bks.cpg/sg2_212_cif.got.tgz:422270.got - 2010.06.03 11:33:40.
