data_PCOD9109314
_publ_section_title
;
Structure prediction by ZEFSAII (Michael W. Deem and Ramdas Pophale) SiO2 
 PCOD9109314
Probable space group: P -1
;
_chemical_formula_sum "Si O2"
_cell_formula_units_Z 14
_cell_length_a 11.184627
_cell_length_b 8.797217
_cell_length_c 9.783400
_cell_angle_alpha 132.588112
_cell_angle_beta 95.835446
_cell_angle_gamma 69.497199
_cell_volume 650.913575
_symmetry_space_group_name_H-M "P -1"
_symmetry_group_IT_number 2
_symmetry_cell_setting 'triclinic'
loop_
_space_group_symop_operation_xyz
x,y,z
-x,-y,-z
loop_
_atom_site_type_symbol
_atom_site_label
_atom_site_fract_x
_atom_site_fract_y
_atom_site_fract_z
Si Si1 0.139147 0.808698 0.921344
Si Si2 0.524364 0.753149 0.793106
Si Si3 0.849684 0.030250 0.503366
Si Si4 0.592271 0.655716 0.036379
Si Si5 0.135020 0.423295 0.888267
Si Si6 0.709907 0.348590 0.428066
Si Si7 0.676522 0.170808 0.840294
O O1 0.128228 0.630462 0.919921
O O2 0.194234 0.693447 0.714174
O O3 0.237866 0.910248 0.063527
O O4 0.000000 0.000000 0.000000
O O5 0.645194 0.609112 0.623164
O O6 0.401687 0.735258 0.690438
O O7 0.555913 0.613457 0.853266
O O8 0.500000 0.000000 0.000000
O O9 0.851056 0.786976 0.329069
O O10 0.779548 0.198890 0.474985
O O11 0.769939 0.108694 0.682514
O O12 0.000000 0.000000 0.500000
O O13 0.733811 0.668803 0.059620
O O14 0.461785 0.858471 0.198769
O O15 0.622761 0.440931 0.004583
O O16 0.000000 0.500000 0.000000
#
# Coordination Sequence:
#
# PCOD9109314 Si02
#       7
#     2   2   2   2   2   2   2
#     4  11  23  45  67  99 141 176 227 289 348 417
#     4  11  23  40  69 102 141 176 226 291 351 416
#     4  12  24  44  68  99 138 182 234 279 340 426
#     4  10  20  41  64  94 130 170 226 278 336 407
#     4  11  25  42  70  96 132 185 231 283 349 417
#     4  11  24  43  69 102 139 183 226 287 360 401
#     4  10  21  39  69  92 130 179 216 278 340 400
#
# _framework density 21.508230999999999
#
# number of rings (size 3 to 8) (size 9 to 14) (size 15 to 20)
#    0.000    1.143    2.857    4.286    0.000    1.714 
#    0.000    1.429    0.000    0.000    0.000    0.000 
#    0.000    0.000    0.000    0.000    0.000    0.000 
#
# Total GULP energy -78084.581104 kJ/mol
# GULP energy per Si atom -5577.470079 kJ/mol
# Density = 2.145928 g / cm^3
# Si number density = 21.508231 Si / 1000 Ang^3
#
#
#
# Elastic Constant Matrix: (Units=GPa)
#
#
# Indices 1 2 3 4 5 6 
#
# 1 135.4373 46.2749 67.5779 -1.6201 -33.5310 -42.6004
# 2 46.2749 103.1503 51.0122 -2.6551 -9.0936 -30.7732
# 3 67.5779 51.0122 145.2751 0.8329 -35.8091 -13.9850
# 4 -1.6201 -2.6551 0.8329 39.9085 6.2124 0.7352
# 5 -33.5310 -9.0936 -35.8091 6.2124 53.5521 -5.0377
# 6 -42.6004 -30.7732 -13.9850 0.7352 -5.0377 42.5689
#
#
#
# Elastic Compliance Matrix: (Units=1/GPa)
#
#
# Indices 1 2 3 4 5 6 
#
# 1 0.017098 0.000250 -0.003956 -0.001055 0.009840 0.017174
# 2 0.000250 0.014536 -0.004156 0.000790 0.000644 0.009456
# 3 -0.003956 -0.004156 0.010890 -0.001229 0.003969 -0.002895
# 4 -0.001055 0.000790 -0.001229 0.025831 -0.004521 -0.001870
# 5 0.009840 0.000644 0.003969 -0.004521 0.029552 0.015192
# 6 0.017174 0.009456 -0.002895 -0.001870 0.015192 0.048393
#
#
# Mechanical properties :
#
#
# Convention : Reuss Voigt Hill
#
# Bulk Modulus (GPa) = 37.31479 79.28807 58.30143
# Shear Modulus (GPa) = 29.24731 41.80576 35.52653
#
# Velocity S-wave (km/s) = 3.69157 4.41354 4.06860
# Velocity P-wave (km/s) = 5.96297 7.93199 7.01689
#
# Compressibility (1/GPa) = 0.02679903
#
# Stress axis : x y z
#
# Youngs Moduli (GPa) = 58.48763 68.79631 91.82787
#
# Poissons Ratio (x) = -0.01722 0.36330
# Poissons Ratio (y) = -0.01464 0.38165
# Poissons Ratio (z) = 0.23139 0.28593
#
# Static dielectric constant tensor:
#      x y z
#    x 1.806200 -0.008350 0.126250 
#    y -0.008350 1.792960 0.019100 
#    z 0.126250 0.019100 1.712680 
# 
# From -- ./inp_files/246035.got.cif
#   From: 2010.05.17/outbox.cif.g08.bks.cpg/sg2_124_cif.got.tgz:246035.got - 2010.06.03 11:33:40.
