data_PCOD9109102
_publ_section_title
;
Structure prediction by ZEFSAII (Michael W. Deem and Ramdas Pophale) SiO2 
 PCOD9109102
Probable space group: P -1
;
_chemical_formula_sum "Si O2"
_cell_formula_units_Z 14
_cell_length_a 11.611135
_cell_length_b 9.415747
_cell_length_c 5.537916
_cell_angle_alpha 104.510797
_cell_angle_beta 77.652663
_cell_angle_gamma 77.677988
_cell_volume 549.284385
_symmetry_space_group_name_H-M "P -1"
_symmetry_group_IT_number 2
_symmetry_cell_setting 'triclinic'
loop_
_space_group_symop_operation_xyz
x,y,z
-x,-y,-z
loop_
_atom_site_type_symbol
_atom_site_label
_atom_site_fract_x
_atom_site_fract_y
_atom_site_fract_z
Si Si1 0.769809 0.820759 0.221486
Si Si2 0.417676 0.217958 0.058463
Si Si3 0.119535 0.670343 0.422268
Si Si4 0.077078 0.067994 0.178761
Si Si5 0.639275 0.468151 0.514903
Si Si6 0.321933 0.951702 0.244923
Si Si7 0.851270 0.489268 0.165083
O O1 0.856438 0.828610 0.962383
O O2 0.727493 0.982400 0.443790
O O3 0.645032 0.792270 0.171639
O O4 0.837035 0.668916 0.270314
O O5 0.361884 0.379901 0.272429
O O6 0.377050 0.090538 0.181175
O O7 0.561689 0.187257 0.929545
O O8 0.263815 0.662755 0.419536
O O9 0.106626 0.580621 0.145701
O O10 0.088828 0.591866 0.650372
O O11 0.017773 0.834516 0.541954
O O12 0.197727 0.943440 0.168501
O O13 0.000000 0.000000 0.000000
O O14 0.500000 0.500000 0.500000
O O15 0.716640 0.464433 0.236830
#
# Coordination Sequence:
#
# PCOD9109102 Si02
#       7
#     2   2   2   2   2   2   2
#     4  11  21  44  68 100 133 180 231 295 339 416
#     4  10  20  41  63 102 134 171 234 274 350 407
#     4  10  24  46  68 101 139 178 234 284 345 412
#     4  11  28  46  64  96 139 182 238 279 353 414
#     4  10  22  40  68 101 141 177 224 285 346 406
#     4  10  22  39  70  90 134 184 222 284 337 413
#     4  10  22  44  71 102 135 177 233 285 347 406
#
# _framework density 25.487705999999999
#
# number of rings (size 3 to 8) (size 9 to 14) (size 15 to 20)
#    0.857    0.857    2.857    0.429    6.000    2.286 
#    2.571    0.000    0.000    0.000    0.000    0.000 
#    0.000    0.000    0.000    0.000    0.000    0.000 
#
# Total GULP energy -78126.907074 kJ/mol
# GULP energy per Si atom -5580.493362 kJ/mol
# Density = 2.542970 g / cm^3
# Si number density = 25.487706 Si / 1000 Ang^3
#
#
#
# Elastic Constant Matrix: (Units=GPa)
#
#
# Indices 1 2 3 4 5 6 
#
# 1 152.9476 11.4777 32.1918 2.4456 -28.3066 -22.4562
# 2 11.4777 40.7804 13.8747 3.4373 -12.3323 -15.3844
# 3 32.1918 13.8747 143.2549 11.9903 -10.9600 -15.4735
# 4 2.4456 3.4373 11.9903 34.5109 -3.2009 -3.6540
# 5 -28.3066 -12.3323 -10.9600 -3.2009 50.5949 7.2998
# 6 -22.4562 -15.3844 -15.4735 -3.6540 7.2998 28.1902
#
#
#
# Elastic Compliance Matrix: (Units=1/GPa)
#
#
# Indices 1 2 3 4 5 6 
#
# 1 0.008228 0.001362 -0.001114 0.000640 0.003904 0.005759
# 2 0.001362 0.032691 -0.001160 -0.000627 0.006038 0.016644
# 3 -0.001114 -0.001160 0.007813 -0.002238 0.000299 0.002401
# 4 0.000640 -0.000627 -0.002238 0.030155 0.001264 0.002520
# 5 0.003904 0.006038 0.000299 0.001264 0.023471 0.000655
# 6 0.005759 0.016644 0.002401 0.002520 0.000655 0.050619
#
#
# Mechanical properties :
#
#
# Convention : Reuss Voigt Hill
#
# Bulk Modulus (GPa) = 21.31832 50.23013 35.77423
# Shear Modulus (GPa) = 29.33662 41.28846 35.31254
#
# Velocity S-wave (km/s) = 3.39634 4.02921 3.72623
# Velocity P-wave (km/s) = 4.87467 6.43400 5.70784
#
# Compressibility (1/GPa) = 0.04690801
#
# Stress axis : x y z
#
# Youngs Moduli (GPa) = 121.53388 30.58978 127.99717
#
# Poissons Ratio (x) = -0.04167 0.14257
# Poissons Ratio (y) = -0.16555 0.14849
# Poissons Ratio (z) = 0.13537 0.03549
#
# Static dielectric constant tensor:
#      x y z
#    x 2.116470 -0.041940 -0.038270 
#    y -0.041940 2.080400 -0.058100 
#    z -0.038270 -0.058100 1.965720 
# 
# From -- ./inp_files/67790.got.cif
#   From: 2010.05.17/outbox.cif.g08.bks.cpg/sg2_34_cif.got.tgz:67790.got - 2010.06.03 11:33:40.
