data_PCOD9109195
_publ_section_title
;
Structure prediction by ZEFSAII (Michael W. Deem and Ramdas Pophale) SiO2 
 PCOD9109195
Probable space group: P -1
;
_chemical_formula_sum "Si O2"
_cell_formula_units_Z 16
_cell_length_a 22.323429
_cell_length_b 11.788649
_cell_length_c 11.390007
_cell_angle_alpha 139.709188
_cell_angle_beta 150.187812
_cell_angle_gamma 28.268261
_cell_volume 705.745477
_symmetry_space_group_name_H-M "P -1"
_symmetry_group_IT_number 2
_symmetry_cell_setting 'triclinic'
loop_
_space_group_symop_operation_xyz
x,y,z
-x,-y,-z
loop_
_atom_site_type_symbol
_atom_site_label
_atom_site_fract_x
_atom_site_fract_y
_atom_site_fract_z
Si Si1 0.236795 0.268163 0.734991
Si Si2 0.779991 0.087880 0.438994
Si Si3 0.437529 0.167904 0.790113
Si Si4 0.080103 0.953720 0.974399
Si Si5 0.644260 0.976366 0.670659
Si Si6 0.570020 0.443863 0.838648
Si Si7 0.798521 0.841186 0.065988
Si Si8 0.997324 0.584968 0.758608
O O1 0.398827 0.159835 0.853104
O O2 0.164791 0.458780 0.867284
O O3 0.108752 0.402820 0.513736
O O4 0.236339 0.073885 0.637817
O O5 0.946987 0.012747 0.703866
O O6 0.606612 0.360358 0.370654
O O7 0.800404 0.021459 0.283258
O O8 0.327826 0.162715 0.510527
O O9 0.624844 0.935658 0.893326
O O10 0.420197 0.396340 0.931673
O O11 0.084462 0.157956 0.133548
O O12 0.000000 0.000000 0.000000
O O13 0.264405 0.702218 0.072499
O O14 0.783277 0.855354 0.911929
O O15 0.500000 0.000000 0.500000
O O16 0.582114 0.236401 0.747886
O O17 0.946481 0.587398 0.173544
#
# Coordination Sequence:
#
# PCOD9109195 Si02
#       8
#     2   2   2   2   2   2   2   2
#     4  10  20  41  63  96 134 176 211 269 341 403
#     4  10  24  42  68  98 139 177 218 274 338 402
#     4  10  22  40  69  96 131 174 222 276 335 398
#     4  12  24  41  64 103 140 176 213 277 336 400
#     4  10  23  45  70  97 130 178 231 283 334 387
#     4  11  26  45  68 102 135 177 230 273 336 402
#     4   9  22  42  65  93 121 179 224 272 336 389
#     4  10  21  37  63  90 133 173 213 270 333 397
#
# _framework density 22.671063
#
# number of rings (size 3 to 8) (size 9 to 14) (size 15 to 20)
#    0.000    1.750    1.250    1.500    7.000   10.500 
#    0.000    3.125    0.000    0.000    0.000    0.000 
#    0.000    0.000    0.000    0.000    0.000    0.000 
#
# Total GULP energy -89254.570335 kJ/mol
# GULP energy per Si atom -5578.410646 kJ/mol
# Density = 2.261946 g / cm^3
# Si number density = 22.671063 Si / 1000 Ang^3
#
#
#
# Elastic Constant Matrix: (Units=GPa)
#
#
# Indices 1 2 3 4 5 6 
#
# 1 67.2281 26.2372 22.5538 2.6989 -7.0574 -0.2671
# 2 26.2372 133.2270 12.4635 -1.4090 -7.2609 7.6484
# 3 22.5538 12.4635 81.8137 7.6193 -12.6214 5.6505
# 4 2.6989 -1.4090 7.6193 35.3587 5.9621 4.9726
# 5 -7.0574 -7.2609 -12.6214 5.9621 42.4938 -0.8850
# 6 -0.2671 7.6484 5.6505 4.9726 -0.8850 38.3707
#
#
#
# Elastic Compliance Matrix: (Units=1/GPa)
#
#
# Indices 1 2 3 4 5 6 
#
# 1 0.017688 -0.003116 -0.004208 -0.001006 0.001328 0.001525
# 2 -0.003116 0.008287 -0.000249 0.000748 0.000684 -0.001718
# 3 -0.004208 -0.000249 0.014446 -0.003247 0.003972 -0.001595
# 4 -0.001006 0.000748 -0.003247 0.030521 -0.005364 -0.003757
# 5 0.001328 0.000684 0.003972 -0.005364 0.025815 0.000579
# 6 0.001525 -0.001718 -0.001595 -0.003757 0.000579 0.027150
#
#
# Mechanical properties :
#
#
# Convention : Reuss Voigt Hill
#
# Bulk Modulus (GPa) = 39.56414 44.97531 42.26972
# Shear Modulus (GPa) = 33.90358 37.97893 35.94126
#
# Velocity S-wave (km/s) = 3.87131 4.09738 3.98595
# Velocity P-wave (km/s) = 6.12144 6.50123 6.31419
#
# Compressibility (1/GPa) = 0.02527541
#
# Stress axis : x y z
#
# Youngs Moduli (GPa) = 56.53445 120.67593 69.22238
#
# Poissons Ratio (x) = 0.37597 0.29131
# Poissons Ratio (y) = 0.17614 0.01724
# Poissons Ratio (z) = 0.23791 0.03005
#
# Static dielectric constant tensor:
#      x y z
#    x 2.124840 0.074430 0.373940 
#    y 0.074430 1.956250 0.189440 
#    z 0.373940 0.189440 2.491420 
# 
# From -- ./inp_files/474881.got.cif
#   From: 2010.05.17/outbox.cif.g08.bks.cpg/sg2_238_cif.got.tgz:474881.got - 2010.06.03 11:33:40.
