data_PCOD9109555
_publ_section_title
;
Structure prediction by ZEFSAII (Michael W. Deem and Ramdas Pophale) SiO2 
 PCOD9109555
Probable space group: P -1
;
_chemical_formula_sum "Si O2"
_cell_formula_units_Z 16
_cell_length_a 11.808974
_cell_length_b 11.098478
_cell_length_c 14.972109
_cell_angle_alpha 150.407382
_cell_angle_beta 61.839841
_cell_angle_gamma 130.317942
_cell_volume 717.097711
_symmetry_space_group_name_H-M "P -1"
_symmetry_group_IT_number 2
_symmetry_cell_setting 'triclinic'
loop_
_space_group_symop_operation_xyz
x,y,z
-x,-y,-z
loop_
_atom_site_type_symbol
_atom_site_label
_atom_site_fract_x
_atom_site_fract_y
_atom_site_fract_z
Si Si1 0.383974 0.340996 0.136061
Si Si2 0.753940 0.361274 0.704909
Si Si3 0.645722 0.310918 0.352897
Si Si4 0.974145 0.608725 0.175061
Si Si5 0.898940 0.268271 0.161835
Si Si6 0.551566 0.305227 0.901948
Si Si7 0.780597 0.884496 0.458381
Si Si8 0.468952 0.346021 0.298103
O O1 0.355503 0.598138 0.294617
O O2 0.534344 0.387014 0.062062
O O3 0.384913 0.233415 0.164500
O O4 0.226519 0.062013 0.977183
O O5 0.750189 0.064378 0.512852
O O6 0.932354 0.608493 0.785727
O O7 0.697428 0.373135 0.834517
O O8 0.816823 0.420641 0.333226
O O9 0.530240 0.186529 0.230422
O O10 0.635067 0.577787 0.558229
O O11 0.569244 0.044685 0.279663
O O12 0.916338 0.351519 0.104229
O O13 0.116315 0.883805 0.352478
O O14 0.857949 0.718971 0.284645
O O15 0.000000 0.500000 0.000000
O O16 0.500000 0.500000 0.000000
O O17 0.621311 0.648465 0.409093
#
# Coordination Sequence:
#
# PCOD9109555 Si02
#       8
#     2   2   2   2   2   2   2   2
#     4  10  23  39  63  93 123 165 223 260 311 391
#     4  10  20  41  66  87 126 171 209 263 325 374
#     4  10  21  39  60  87 125 164 201 259 329 374
#     4  10  22  40  66  95 132 164 213 261 325 389
#     4  10  21  40  62  90 122 165 211 264 324 373
#     4   9  19  38  62  89 121 165 208 259 315 376
#     4  10  21  40  62  95 128 170 207 264 324 370
#     4  11  22  38  63  88 127 167 209 264 322 371
#
# _framework density 22.312159999999999
#
# number of rings (size 3 to 8) (size 9 to 14) (size 15 to 20)
#    0.000    2.000    2.500    0.375    0.000    6.500 
#    0.000    0.625    5.500    0.000    0.000    0.000 
#    0.000    0.000    0.000    0.000    0.000    0.000 
#
# Total GULP energy -89110.052520 kJ/mol
# GULP energy per Si atom -5569.378282 kJ/mol
# Density = 2.226138 g / cm^3
# Si number density = 22.312160 Si / 1000 Ang^3
#
#
#
# Elastic Constant Matrix: (Units=GPa)
#
#
# Indices 1 2 3 4 5 6 
#
# 1 56.4134 1.5101 26.5543 -13.1763 -16.1735 19.1244
# 2 1.5101 56.7491 6.8221 -0.9356 5.8011 21.3372
# 3 26.5543 6.8221 59.7400 -16.3290 -14.2208 4.6956
# 4 -13.1763 -0.9356 -16.3290 36.6904 4.8812 -13.5165
# 5 -16.1735 5.8011 -14.2208 4.8812 25.9496 -2.3458
# 6 19.1244 21.3372 4.6956 -13.5165 -2.3458 39.2817
#
#
#
# Elastic Compliance Matrix: (Units=1/GPa)
#
#
# Indices 1 2 3 4 5 6 
#
# 1 0.031250 0.005618 -0.010916 -0.001094 0.010936 -0.016684
# 2 0.005618 0.025949 -0.007414 -0.006571 -0.006809 -0.018611
# 3 -0.010916 -0.007414 0.026436 0.010317 0.008325 0.010229
# 4 -0.001094 -0.006571 0.010317 0.036922 0.000908 0.015627
# 5 0.010936 -0.006809 0.008325 0.000908 0.051335 0.000757
# 6 -0.016684 -0.018611 0.010229 0.015627 0.000757 0.047889
#
#
# Mechanical properties :
#
#
# Convention : Reuss Voigt Hill
#
# Bulk Modulus (GPa) = 17.17952 26.96394 22.07173
# Shear Modulus (GPa) = 18.89572 29.58540 24.24056
#
# Velocity S-wave (km/s) = 2.91328 3.64535 3.29968
# Velocity P-wave (km/s) = 4.36263 5.46161 4.94276
#
# Compressibility (1/GPa) = 0.05820886
#
# Stress axis : x y z
#
# Youngs Moduli (GPa) = 31.99960 38.53759 37.82737
#
# Poissons Ratio (x) = -0.21650 0.41294
# Poissons Ratio (y) = -0.17977 0.28047
# Poissons Ratio (z) = 0.34932 0.28574
#
# Static dielectric constant tensor:
#      x y z
#    x 1.945400 -0.080000 0.067390 
#    y -0.080000 1.885290 -0.072480 
#    z 0.067390 -0.072480 1.972870 
# 
# From -- ./inp_files/519375.got.cif
#   From: 2010.05.17/outbox.cif.g08.bks.cpg/sg2_260_cif.got.tgz:519375.got - 2010.06.03 11:33:40.
