data_PCOD9109129
_publ_section_title
;
Structure prediction by ZEFSAII (Michael W. Deem and Ramdas Pophale) SiO2 
 PCOD9109129
Probable space group: P -1
;
_chemical_formula_sum "Si O2"
_cell_formula_units_Z 16
_cell_length_a 11.096605
_cell_length_b 14.108051
_cell_length_c 9.169418
_cell_angle_alpha 91.674044
_cell_angle_beta 39.917192
_cell_angle_gamma 112.779673
_cell_volume 757.326214
_symmetry_space_group_name_H-M "P -1"
_symmetry_group_IT_number 2
_symmetry_cell_setting 'triclinic'
loop_
_space_group_symop_operation_xyz
x,y,z
-x,-y,-z
loop_
_atom_site_type_symbol
_atom_site_label
_atom_site_fract_x
_atom_site_fract_y
_atom_site_fract_z
Si Si1 0.501217 0.368934 0.140851
Si Si2 0.314357 0.837657 0.237828
Si Si3 0.503053 0.991568 0.324516
Si Si4 0.960488 0.731420 0.301269
Si Si5 0.975139 0.046996 0.869251
Si Si6 0.760885 0.404845 0.639428
Si Si7 0.969817 0.459887 0.862693
Si Si8 0.644201 0.890545 0.698935
O O1 0.290679 0.363368 0.404958
O O2 0.415661 0.235650 0.228704
O O3 0.564644 0.401340 0.913696
O O4 0.738911 0.440641 0.011153
O O5 0.278935 0.718120 0.308322
O O6 0.119870 0.803956 0.296176
O O7 0.304383 0.896132 0.397526
O O8 0.559941 0.914944 0.928659
O O9 0.523715 0.105556 0.258389
O O10 0.500000 0.000000 0.500000
O O11 0.706157 0.979199 0.096590
O O12 0.950711 0.819674 0.205485
O O13 0.045374 0.657745 0.149807
O O14 0.112668 0.037996 0.607457
O O15 0.000000 0.000000 0.000000
O O16 0.000000 0.500000 0.500000
O O17 0.810185 0.443545 0.429725
O O18 0.000000 0.500000 0.000000
#
# Coordination Sequence:
#
# PCOD9109129 Si02
#       8
#     2   2   2   2   2   2   2   2
#     4   9  20  39  65  92 124 164 212 269 309 378
#     4  11  22  41  67  95 120 178 217 265 326 380
#     4  12  24  40  63  91 136 169 211 269 327 389
#     4  11  22  41  69  91 129 171 223 259 318 391
#     4  11  23  41  64  95 131 173 211 270 320 381
#     4   9  18  41  63  90 124 157 218 268 314 372
#     4  11  22  41  68  93 131 169 206 268 330 382
#     4  10  20  41  63  88 127 168 218 258 314 381
#
# _framework density 21.126958999999999
#
# number of rings (size 3 to 8) (size 9 to 14) (size 15 to 20)
#    0.000    1.500    6.250    0.375    0.000    3.500 
#    4.500    0.000    0.000    0.000    0.000    0.000 
#    0.000    0.000    0.000    0.000    0.000    0.000 
#
# Total GULP energy -89103.739892 kJ/mol
# GULP energy per Si atom -5568.983743 kJ/mol
# Density = 2.107887 g / cm^3
# Si number density = 21.126959 Si / 1000 Ang^3
#
#
#
# Elastic Constant Matrix: (Units=GPa)
#
#
# Indices 1 2 3 4 5 6 
#
# 1 85.8261 31.0815 68.9926 13.7370 17.9772 2.7436
# 2 31.0815 75.0988 50.2690 8.3634 13.9486 0.5993
# 3 68.9926 50.2690 139.9011 9.9050 22.2598 13.6945
# 4 13.7370 8.3634 9.9050 28.8719 -6.1881 9.5971
# 5 17.9772 13.9486 22.2598 -6.1881 47.0221 3.4987
# 6 2.7436 0.5993 13.6945 9.5971 3.4987 31.0476
#
#
#
# Elastic Compliance Matrix: (Units=1/GPa)
#
#
# Indices 1 2 3 4 5 6 
#
# 1 0.022375 -0.000544 -0.009826 -0.010372 -0.005568 0.006201
# 2 -0.000544 0.018745 -0.005949 -0.005345 -0.003565 0.004364
# 3 -0.009826 -0.005949 0.014592 0.003445 -0.000452 -0.006467
# 4 -0.010372 -0.005345 0.003445 0.047912 0.011461 -0.016601
# 5 -0.005568 -0.003565 -0.000452 0.011461 0.026605 -0.005780
# 6 0.006201 0.004364 -0.006467 -0.016601 -0.005780 0.040212
#
#
# Mechanical properties :
#
#
# Convention : Reuss Voigt Hill
#
# Bulk Modulus (GPa) = 43.33531 66.83468 55.08500
# Shear Modulus (GPa) = 23.72252 31.42050 27.57151
#
# Velocity S-wave (km/s) = 3.35454 3.86064 3.61645
# Velocity P-wave (km/s) = 5.96324 7.18165 6.60062
#
# Compressibility (1/GPa) = 0.02307587
#
# Stress axis : x y z
#
# Youngs Moduli (GPa) = 44.69269 53.34621 68.53013
#
# Poissons Ratio (x) = 0.02900 0.67335
# Poissons Ratio (y) = 0.02430 0.40769
# Poissons Ratio (z) = 0.43913 0.31736
#
# Static dielectric constant tensor:
#      x y z
#    x 3.097480 -0.921850 -0.209420 
#    y -0.921850 2.406260 0.114910 
#    z -0.209420 0.114910 1.907560 
# 
# From -- ./inp_files/273068.got.cif
#   From: 2010.05.17/outbox.cif.g08.bks.cpg/sg2_137_cif.got.tgz:273068.got - 2010.06.03 11:33:40.
