data_PCOD9109180
_publ_section_title
;
Structure prediction by ZEFSAII (Michael W. Deem and Ramdas Pophale) SiO2 
 PCOD9109180
Probable space group: P -1
;
_chemical_formula_sum "Si O2"
_cell_formula_units_Z 16
_cell_length_a 7.520318
_cell_length_b 17.239999
_cell_length_c 8.300561
_cell_angle_alpha 98.218685
_cell_angle_beta 125.204197
_cell_angle_gamma 114.359215
_cell_volume 688.345228
_symmetry_space_group_name_H-M "P -1"
_symmetry_group_IT_number 2
_symmetry_cell_setting 'triclinic'
loop_
_space_group_symop_operation_xyz
x,y,z
-x,-y,-z
loop_
_atom_site_type_symbol
_atom_site_label
_atom_site_fract_x
_atom_site_fract_y
_atom_site_fract_z
Si Si1 0.188269 0.563277 0.264276
Si Si2 0.805890 0.038540 0.145079
Si Si3 0.414140 0.080968 0.325252
Si Si4 0.313484 0.236599 0.335421
Si Si5 0.350690 0.263647 0.985314
Si Si6 0.790463 0.606030 0.217927
Si Si7 0.888098 0.055224 0.559997
Si Si8 0.001532 0.583557 0.621213
O O1 0.494870 0.662509 0.435521
O O2 0.026051 0.601833 0.267201
O O3 0.176682 0.481669 0.339595
O O4 0.000000 0.500000 0.000000
O O5 0.885120 0.026721 0.362497
O O6 0.020997 0.152994 0.238167
O O7 0.500000 0.000000 0.000000
O O8 0.763252 0.976326 0.944992
O O9 0.458612 0.183242 0.386251
O O10 0.687682 0.088975 0.461130
O O11 0.255326 0.023210 0.390310
O O12 0.295913 0.260200 0.147494
O O13 0.679237 0.328420 0.150013
O O14 0.238915 0.315540 0.851125
O O15 0.184188 0.152794 0.798779
O O16 0.864745 0.618480 0.448877
O O17 0.500000 0.500000 0.000000
O O18 0.000000 0.500000 0.500000
#
# Coordination Sequence:
#
# PCOD9109180 Si02
#       8
#     2   2   2   2   2   2   2   2
#     4  11  24  43  65 101 141 173 226 285 335 400
#     4  10  23  43  64  98 136 172 229 288 335 407
#     4  10  22  45  67  96 137 177 225 290 339 407
#     4  12  23  42  70  97 136 182 227 280 346 405
#     4  12  22  39  71  98 128 182 232 268 345 411
#     4  11  20  40  70  90 128 182 223 273 335 404
#     4  10  23  40  69  97 134 179 225 278 351 410
#     4  10  20  41  63  94 132 168 226 274 323 399
#
# _framework density 23.244152
#
# number of rings (size 3 to 8) (size 9 to 14) (size 15 to 20)
#    0.000    1.250    6.250    1.125    1.750    0.500 
#    0.000    3.750    0.000    0.000    0.000    0.000 
#    0.000    0.000    0.000    0.000    0.000    0.000 
#
# Total GULP energy -89422.231913 kJ/mol
# GULP energy per Si atom -5588.889495 kJ/mol
# Density = 2.319125 g / cm^3
# Si number density = 23.244152 Si / 1000 Ang^3
#
#
#
# Elastic Constant Matrix: (Units=GPa)
#
#
# Indices 1 2 3 4 5 6 
#
# 1 74.1247 22.4095 25.7618 5.2135 -5.8365 10.3809
# 2 22.4095 170.6895 91.5441 -13.4614 -4.2206 17.8227
# 3 25.7618 91.5441 171.2153 8.7008 -3.3375 12.3420
# 4 5.2135 -13.4614 8.7008 61.7864 -1.2690 13.0300
# 5 -5.8365 -4.2206 -3.3375 -1.2690 33.1669 2.3048
# 6 10.3809 17.8227 12.3420 13.0300 2.3048 19.7688
#
#
#
# Elastic Compliance Matrix: (Units=1/GPa)
#
#
# Indices 1 2 3 4 5 6 
#
# 1 0.015386 -0.000255 -0.001601 0.000527 0.003059 -0.007554
# 2 -0.000255 0.009808 -0.004765 0.004771 0.001536 -0.009057
# 3 -0.001601 -0.004765 0.008651 -0.002410 -0.000204 0.001348
# 4 0.000527 0.004771 -0.002410 0.021230 0.002476 -0.017355
# 5 0.003059 0.001536 -0.000204 0.002476 0.031526 -0.008171
# 6 -0.007554 -0.009057 0.001348 -0.017355 -0.008171 0.074267
#
#
# Mechanical properties :
#
#
# Convention : Reuss Voigt Hill
#
# Bulk Modulus (GPa) = 48.54098 77.27337 62.90718
# Shear Modulus (GPa) = 27.62772 41.36535 34.49654
#
# Velocity S-wave (km/s) = 3.45133 4.22311 3.85658
# Velocity P-wave (km/s) = 6.06718 7.55619 6.85225
#
# Compressibility (1/GPa) = 0.02060115
#
# Stress axis : x y z
#
# Youngs Moduli (GPa) = 64.99360 101.96168 115.59883
#
# Poissons Ratio (x) = 0.02603 0.18510
# Poissons Ratio (y) = 0.01659 0.55084
# Poissons Ratio (z) = 0.10407 0.48586
#
# Static dielectric constant tensor:
#      x y z
#    x 1.895000 -0.017410 -0.007520 
#    y -0.017410 1.901340 -0.024630 
#    z -0.007520 -0.024630 1.806790 
# 
# From -- ./inp_files/215236.got.cif
#   From: 2010.05.17/outbox.cif.g08.bks.cpg/sg2_108_cif.got.tgz:215236.got - 2010.06.03 11:33:40.
