data_PCOD9109827
_publ_section_title
;
Structure prediction by ZEFSAII (Michael W. Deem and Ramdas Pophale) SiO2 
 PCOD9109827
Probable space group: P -1
;
_chemical_formula_sum "Si O2"
_cell_formula_units_Z 16
_cell_length_a 15.944489
_cell_length_b 24.774381
_cell_length_c 7.453629
_cell_angle_alpha 119.331244
_cell_angle_beta 64.224372
_cell_angle_gamma 162.994136
_cell_volume 744.180121
_symmetry_space_group_name_H-M "P -1"
_symmetry_group_IT_number 2
_symmetry_cell_setting 'triclinic'
loop_
_space_group_symop_operation_xyz
x,y,z
-x,-y,-z
loop_
_atom_site_type_symbol
_atom_site_label
_atom_site_fract_x
_atom_site_fract_y
_atom_site_fract_z
Si Si1 0.848617 0.230278 0.055292
Si Si2 0.401190 0.591144 0.945685
Si Si3 0.464822 0.287732 0.577497
Si Si4 0.046894 0.823251 0.933140
Si Si5 0.033016 0.125108 0.619967
Si Si6 0.274149 0.732784 0.965997
Si Si7 0.851344 0.488805 0.250187
Si Si8 0.232628 0.292551 0.337392
O O1 0.966803 0.258216 0.142391
O O2 0.079620 0.358309 0.889975
O O3 0.849024 0.304779 0.147111
O O4 0.500000 0.000000 0.000000
O O5 0.479056 0.667693 0.191849
O O6 0.373380 0.626378 0.877818
O O7 0.635943 0.688059 0.833185
O O8 0.755861 0.461345 0.476015
O O9 0.293910 0.240424 0.588827
O O10 0.255241 0.096372 0.431302
O O11 0.915844 0.761394 0.767307
O O12 0.384889 0.051137 0.995636
O O13 0.917725 0.786212 0.148374
O O14 0.029102 0.147171 0.456756
O O15 0.154798 0.687677 0.189161
O O16 0.172540 0.598869 0.835460
O O17 0.500000 0.500000 0.500000
#
# Coordination Sequence:
#
# PCOD9109827 Si02
#       8
#     2   2   2   2   2   2   2   2
#     4   9  21  41  67  91 123 179 226 263 318 378
#     4  11  23  40  67  98 133 172 215 270 337 390
#     4  11  23  39  66  97 134 174 210 271 329 403
#     4  11  22  43  69  92 139 176 214 271 335 383
#     4  11  24  40  63 100 136 169 217 265 332 401
#     4   9  20  41  68  96 127 179 217 276 321 382
#     4  10  20  41  67  95 137 164 217 273 326 388
#     4  12  27  41  65 100 135 173 220 269 326 404
#
# _framework density 21.500170000000001
#
# number of rings (size 3 to 8) (size 9 to 14) (size 15 to 20)
#    0.000    1.500    3.750    0.750    3.500    1.500 
#    0.000   10.625    0.000   12.750    0.000    0.000 
#    0.000    0.000    0.000    0.000    0.000    0.000 
#
# Total GULP energy -89232.222098 kJ/mol
# GULP energy per Si atom -5577.013881 kJ/mol
# Density = 2.145123 g / cm^3
# Si number density = 21.500170 Si / 1000 Ang^3
#
#
#
# Elastic Constant Matrix: (Units=GPa)
#
#
# Indices 1 2 3 4 5 6 
#
# 1 185.0370 22.8172 57.3566 2.3501 37.3254 -1.5134
# 2 22.8172 28.6890 3.3366 -12.4179 -3.3728 1.0635
# 3 57.3566 3.3366 115.6852 -6.1545 11.2272 2.8996
# 4 2.3501 -12.4179 -6.1545 26.9606 1.7780 0.3941
# 5 37.3254 -3.3728 11.2272 1.7780 37.4119 -2.0420
# 6 -1.5134 1.0635 2.8996 0.3941 -2.0420 29.2306
#
#
#
# Elastic Compliance Matrix: (Units=1/GPa)
#
#
# Indices 1 2 3 4 5 6 
#
# 1 0.010122 -0.011546 -0.004125 -0.006523 -0.009549 0.000774
# 2 -0.011546 0.057144 0.004242 0.027411 0.013959 -0.002492
# 3 -0.004125 0.004242 0.010761 0.004727 0.000966 -0.001432
# 4 -0.006523 0.027411 0.004727 0.051065 0.005017 -0.002142
# 5 -0.009549 0.013959 0.000966 0.005017 0.037065 0.001424
# 6 0.000774 -0.002492 -0.001432 -0.002142 0.001424 0.034612
#
#
# Mechanical properties :
#
#
# Convention : Reuss Voigt Hill
#
# Bulk Modulus (GPa) = 18.12600 55.15909 36.64254
# Shear Modulus (GPa) = 20.65984 35.11402 27.88693
#
# Velocity S-wave (km/s) = 3.10323 4.04567 3.60537
# Velocity P-wave (km/s) = 4.61400 6.89450 5.86613
#
# Compressibility (1/GPa) = 0.05516937
#
# Stress axis : x y z
#
# Youngs Moduli (GPa) = 98.79213 17.49964 92.93065
#
# Poissons Ratio (x) = 0.20205 0.38337
# Poissons Ratio (y) = 1.14063 -0.39424
# Poissons Ratio (z) = 0.40755 -0.07424
#
# Static dielectric constant tensor:
#      x y z
#    x 1.778650 -0.012520 -0.005220 
#    y -0.012520 1.821600 -0.001220 
#    z -0.005220 -0.001220 1.803370 
# 
# From -- ./inp_files/81590.got.cif
#   From: 2010.05.17/outbox.cif.g08.bks.cpg/sg2_41_cif.got.tgz:81590.got - 2010.06.03 11:33:40.
