data_PCOD9109805
_publ_section_title
;
Structure prediction by ZEFSAII (Michael W. Deem and Ramdas Pophale) SiO2 
 PCOD9109805
Probable space group: P -1
;
_chemical_formula_sum "Si O2"
_cell_formula_units_Z 10
_cell_length_a 12.589312
_cell_length_b 10.508057
_cell_length_c 7.206187
_cell_angle_alpha 66.352238
_cell_angle_beta 50.390474
_cell_angle_gamma 37.548453
_cell_volume 436.387832
_symmetry_space_group_name_H-M "P -1"
_symmetry_group_IT_number 2
_symmetry_cell_setting 'triclinic'
loop_
_space_group_symop_operation_xyz
x,y,z
-x,-y,-z
loop_
_atom_site_type_symbol
_atom_site_label
_atom_site_fract_x
_atom_site_fract_y
_atom_site_fract_z
Si Si1 0.770060 0.671797 0.750951
Si Si2 0.445809 0.683691 0.054464
Si Si3 0.044468 0.085951 0.051407
Si Si4 0.618948 0.017099 0.486447
Si Si5 0.657335 0.568271 0.254596
O O1 0.000000 0.500000 0.500000
O O2 0.669792 0.900092 0.692037
O O3 0.616268 0.675032 0.823565
O O4 0.766960 0.616521 0.996532
O O5 0.490617 0.635030 0.251606
O O6 0.500000 0.500000 0.000000
O O7 0.211352 0.908044 0.123844
O O8 0.164640 0.108742 0.781284
O O9 0.000000 0.000000 0.000000
O O10 0.837669 0.316638 0.232206
O O11 0.478789 0.261391 0.530659
O O12 0.500000 0.000000 0.500000
#
# Coordination Sequence:
#
# PCOD9109805 Si02
#       5
#     2   2   2   2   2
#     4  10  20  41  67  93 132 170 211 271 324 379
#     4  10  21  43  66  91 133 171 210 271 322 384
#     4  12  23  43  68  95 132 171 218 269 320 385
#     4  12  23  43  65  95 131 173 219 270 314 384
#     4  10  24  41  68  94 133 169 217 263 330 378
#
# _framework density 22.915396999999999
#
# number of rings (size 3 to 8) (size 9 to 14) (size 15 to 20)
#    1.200    0.000    6.000    0.600    0.000    1.600 
#    3.600    1.000    0.000    0.000    0.000    0.000 
#    0.000    0.000    0.000    0.000    0.000    0.000 
#
# Total GULP energy -55864.515446 kJ/mol
# GULP energy per Si atom -5586.451545 kJ/mol
# Density = 2.286324 g / cm^3
# Si number density = 22.915397 Si / 1000 Ang^3
#
#
#
# Elastic Constant Matrix: (Units=GPa)
#
#
# Indices 1 2 3 4 5 6 
#
# 1 104.9114 39.8163 6.9306 20.8218 -14.3946 -0.0973
# 2 39.8163 170.4527 19.2667 37.3042 -5.9623 -14.2196
# 3 6.9306 19.2667 70.9040 11.7372 -19.0542 -1.1290
# 4 20.8218 37.3042 11.7372 40.7066 6.5205 -0.3062
# 5 -14.3946 -5.9623 -19.0542 6.5205 33.4152 0.6425
# 6 -0.0973 -14.2196 -1.1290 -0.3062 0.6425 44.1211
#
#
#
# Elastic Compliance Matrix: (Units=1/GPa)
#
#
# Indices 1 2 3 4 5 6 
#
# 1 0.012368 -0.001401 0.002429 -0.007003 0.007840 -0.000525
# 2 -0.001401 0.007995 -0.000363 -0.006790 0.001893 0.002490
# 3 0.002429 -0.000363 0.019006 -0.008549 0.013485 0.000119
# 4 -0.007003 -0.006790 -0.008549 0.039509 -0.016776 -0.001904
# 5 0.007840 0.001893 0.013485 -0.016776 0.044601 0.000207
# 6 -0.000525 0.002490 0.000119 -0.001904 0.000207 0.023453
#
#
# Mechanical properties :
#
#
# Convention : Reuss Voigt Hill
#
# Bulk Modulus (GPa) = 24.56990 53.14392 38.85691
# Shear Modulus (GPa) = 31.41363 42.33221 36.87292
#
# Velocity S-wave (km/s) = 3.70652 4.30272 4.01570
# Velocity P-wave (km/s) = 5.39101 6.92287 6.20440
#
# Compressibility (1/GPa) = 0.04070021
#
# Stress axis : x y z
#
# Youngs Moduli (GPa) = 80.85361 125.08023 52.61550
#
# Poissons Ratio (x) = 0.17518 -0.12782
# Poissons Ratio (y) = 0.11324 0.01911
# Poissons Ratio (z) = -0.19643 0.04542
#
# Static dielectric constant tensor:
#      x y z
#    x 1.423320 0.103990 0.119790 
#    y 0.103990 1.842110 -0.107660 
#    z 0.119790 -0.107660 1.829220 
# 
# From -- ./inp_files/22500.got.cif
#   From: 2010.05.17/outbox.cif.g08.bks.cpg/sg2_12_cif.got.tgz:22500.got - 2010.06.03 11:33:40.
