data_PCOD9109548
_publ_section_title
;
Structure prediction by ZEFSAII (Michael W. Deem and Ramdas Pophale) SiO2 
 PCOD9109548
Probable space group: P -1
;
_chemical_formula_sum "Si O2"
_cell_formula_units_Z 16
_cell_length_a 14.256901
_cell_length_b 12.570557
_cell_length_c 8.937634
_cell_angle_alpha 129.561560
_cell_angle_beta 89.767308
_cell_angle_gamma 52.982204
_cell_volume 766.076101
_symmetry_space_group_name_H-M "P -1"
_symmetry_group_IT_number 2
_symmetry_cell_setting 'triclinic'
loop_
_space_group_symop_operation_xyz
x,y,z
-x,-y,-z
loop_
_atom_site_type_symbol
_atom_site_label
_atom_site_fract_x
_atom_site_fract_y
_atom_site_fract_z
Si Si1 0.998718 0.151874 0.058222
Si Si2 0.793879 0.963926 0.542441
Si Si3 0.958271 0.024656 0.692810
Si Si4 0.798202 0.439624 0.570812
Si Si5 0.757806 0.971307 0.213673
Si Si6 0.128700 0.447436 0.074896
Si Si7 0.651264 0.844581 0.458708
Si Si8 0.460164 0.174534 0.265341
O O1 0.160401 0.024915 0.900836
O O2 0.920400 0.205332 0.948139
O O3 0.913566 0.346137 0.351386
O O4 0.000000 0.000000 0.000000
O O5 0.742418 0.055880 0.454837
O O6 0.684954 0.967595 0.602962
O O7 0.824683 0.064905 0.730662
O O8 0.962739 0.703323 0.301513
O O9 0.113641 0.783937 0.545857
O O10 0.000000 0.000000 0.500000
O O11 0.780559 0.574385 0.818511
O O12 0.641875 0.602741 0.631753
O O13 0.604747 0.084460 0.251907
O O14 0.867746 0.714056 0.014695
O O15 0.214598 0.354415 0.833298
O O16 0.631291 0.782785 0.554906
O O17 0.500000 0.000000 0.500000
O O18 0.500000 0.000000 0.000000
#
# Coordination Sequence:
#
# PCOD9109548 Si02
#       8
#     2   2   2   2   2   2   2   2
#     4  10  23  40  62  93 119 162 214 259 306 350
#     4  10  21  36  65  94 118 159 214 264 295 360
#     4  10  20  41  66  86 117 162 219 262 296 350
#     4  10  23  39  60  97 126 161 202 260 322 365
#     4  11  20  38  62  88 129 164 200 252 315 369
#     4  10  21  38  58  96 121 157 211 252 310 373
#     4  11  20  36  59  88 129 163 200 237 312 389
#     4  12  24  39  58  94 139 165 189 248 325 391
#
# _framework density 20.885653999999999
#
# number of rings (size 3 to 8) (size 9 to 14) (size 15 to 20)
#    0.000    1.500    5.000    1.500    3.500    3.500 
#    0.000    2.500    0.000    2.250    0.000    0.000 
#    0.000    0.000    0.000    0.000    0.000    0.000 
#
# Total GULP energy -89208.525302 kJ/mol
# GULP energy per Si atom -5575.532831 kJ/mol
# Density = 2.083812 g / cm^3
# Si number density = 20.885654 Si / 1000 Ang^3
#
#
#
# Elastic Constant Matrix: (Units=GPa)
#
#
# Indices 1 2 3 4 5 6 
#
# 1 110.1762 27.8160 23.6519 -8.0876 -21.3231 -7.0703
# 2 27.8160 122.7106 17.5133 -9.4810 -11.5200 -13.0359
# 3 23.6519 17.5133 56.5903 -28.6917 -1.0395 3.3658
# 4 -8.0876 -9.4810 -28.6917 28.6672 -3.7742 -4.7088
# 5 -21.3231 -11.5200 -1.0395 -3.7742 28.2440 -4.0072
# 6 -7.0703 -13.0359 3.3658 -4.7088 -4.0072 34.0297
#
#
#
# Elastic Compliance Matrix: (Units=1/GPa)
#
#
# Indices 1 2 3 4 5 6 
#
# 1 0.012426 -0.000798 -0.004881 0.000244 0.009463 0.003907
# 2 -0.000798 0.009642 -0.001363 0.002920 0.004320 0.004575
# 3 -0.004881 -0.001363 0.039392 0.037912 0.002287 0.000083
# 4 0.000244 0.002920 0.037912 0.077388 0.014507 0.009836
# 5 0.009463 0.004320 0.002287 0.014507 0.047901 0.011043
# 6 0.003907 0.004575 0.000083 0.009836 0.011043 0.034604
#
#
# Mechanical properties :
#
#
# Convention : Reuss Voigt Hill
#
# Bulk Modulus (GPa) = 21.10815 47.49327 34.30071
# Shear Modulus (GPa) = 19.90234 32.88791 26.39513
#
# Velocity S-wave (km/s) = 3.09029 3.97251 3.55884
# Velocity P-wave (km/s) = 4.78138 6.62043 5.77459
#
# Compressibility (1/GPa) = 0.04737507
#
# Stress axis : x y z
#
# Youngs Moduli (GPa) = 80.47858 103.71570 25.38617
#
# Poissons Ratio (x) = 0.08274 0.12392
# Poissons Ratio (y) = 0.06420 0.03460
# Poissons Ratio (z) = 0.39285 0.14134
#
# Static dielectric constant tensor:
#      x y z
#    x 1.794290 0.009210 0.049700 
#    y 0.009210 1.814470 -0.037540 
#    z 0.049700 -0.037540 1.845940 
# 
# From -- ./inp_files/315895.got.cif
#   From: 2010.05.17/outbox.cif.g08.bks.cpg/sg2_158_cif.got.tgz:315895.got - 2010.06.03 11:33:40.
