data_PCOD9109372
_publ_section_title
;
Structure prediction by ZEFSAII (Michael W. Deem and Ramdas Pophale) SiO2 
 PCOD9109372
Probable space group: P -1
;
_chemical_formula_sum "Si O2"
_cell_formula_units_Z 16
_cell_length_a 20.883149
_cell_length_b 20.611055
_cell_length_c 8.976865
_cell_angle_alpha 41.152182
_cell_angle_beta 139.739016
_cell_angle_gamma 160.084738
_cell_volume 839.458069
_symmetry_space_group_name_H-M "P -1"
_symmetry_group_IT_number 2
_symmetry_cell_setting 'triclinic'
loop_
_space_group_symop_operation_xyz
x,y,z
-x,-y,-z
loop_
_atom_site_type_symbol
_atom_site_label
_atom_site_fract_x
_atom_site_fract_y
_atom_site_fract_z
Si Si1 0.483625 0.879584 0.106154
Si Si2 0.952567 0.176731 0.026186
Si Si3 0.723662 0.816668 0.064125
Si Si4 0.550889 0.939216 0.768061
Si Si5 0.738992 0.474058 0.549567
Si Si6 0.678086 0.855743 0.586813
Si Si7 0.673415 0.426787 0.167565
Si Si8 0.041081 0.177610 0.506263
O O1 0.285882 0.651074 0.192645
O O2 0.643702 0.943946 0.353877
O O3 0.500000 0.000000 0.000000
O O4 0.512632 0.906919 0.933314
O O5 0.030515 0.213778 0.262032
O O6 0.130776 0.368882 0.913942
O O7 0.856038 0.998189 0.089486
O O8 0.775179 0.101981 0.856666
O O9 0.802040 0.773793 0.285076
O O10 0.743414 0.876921 0.828007
O O11 0.499208 0.639833 0.016964
O O12 0.500000 0.000000 0.500000
O O13 0.419164 0.743529 0.792465
O O14 0.544798 0.368085 0.439986
O O15 0.717904 0.437997 0.398981
O O16 0.912763 0.693291 0.522475
O O17 0.832155 0.955320 0.566312
#
# Coordination Sequence:
#
# PCOD9109372 Si02
#       8
#     2   2   2   2   2   2   2   2
#     4  10  20  41  65  87 116 155 196 251 307 349
#     4  11  23  39  60  89 128 156 202 247 298 368
#     4  10  23  38  61  90 122 169 198 247 300 348
#     4  11  23  41  66  88 120 160 197 253 311 355
#     4   9  21  38  60  88 120 157 202 251 291 353
#     4   9  21  39  60  87 120 155 206 250 293 353
#     4  10  22  41  60  89 127 158 204 245 295 363
#     4  12  21  38  62  90 125 160 206 246 299 355
#
# _framework density 19.059915
#
# number of rings (size 3 to 8) (size 9 to 14) (size 15 to 20)
#    0.750    1.000    1.250    3.000    1.750    4.000 
#    0.000    0.625    0.000    0.000    0.000    0.000 
#    0.000    0.000    0.000    0.000    0.000    0.000 
#
# Total GULP energy -89206.895545 kJ/mol
# GULP energy per Si atom -5575.430972 kJ/mol
# Density = 1.901653 g / cm^3
# Si number density = 19.059915 Si / 1000 Ang^3
#
#
#
# Elastic Constant Matrix: (Units=GPa)
#
#
# Indices 1 2 3 4 5 6 
#
# 1 52.0085 32.3940 66.2050 -35.5698 2.4115 33.6426
# 2 32.3940 76.2982 46.7104 -17.4958 -9.2405 20.6833
# 3 66.2050 46.7104 129.1834 4.3223 4.3284 1.3725
# 4 -35.5698 -17.4958 4.3223 -2.1767 8.7714 5.5687
# 5 2.4115 -9.2405 4.3284 8.7714 31.0941 -13.1811
# 6 33.6426 20.6833 1.3725 5.5687 -13.1811 14.3409
#
#
#
# Elastic Compliance Matrix: (Units=1/GPa)
#
#
# Indices 1 2 3 4 5 6 
#
# 1 0.007565 -0.008474 -0.000418 -0.018987 0.005095 0.006572
# 2 -0.008474 0.019408 -0.002842 -0.000998 0.006460 -0.001514
# 3 -0.000418 -0.002842 0.008977 0.008320 -0.006536 -0.005018
# 4 -0.018987 -0.000998 0.008320 0.028731 0.010385 0.043574
# 5 0.005095 0.006460 -0.006536 0.010385 0.034740 0.007254
# 6 0.006572 -0.001514 -0.005018 0.043574 0.007254 0.046724
#
#
# Mechanical properties :
#
#
# Convention : Reuss Voigt Hill
#
# Bulk Modulus (GPa) = 80.11808 60.90099 70.50953
# Shear Modulus (GPa) = 28.77333 16.13038 22.45185
#
# Velocity S-wave (km/s) = 3.88960 2.91228 3.43587
# Velocity P-wave (km/s) = 7.89292 6.58257 7.26734
#
# Compressibility (1/GPa) = 0.01248158
#
# Stress axis : x y z
#
# Youngs Moduli (GPa) = 132.19274 51.52541 111.40189
#
# Poissons Ratio (x) = 0.43664 0.04656
# Poissons Ratio (y) = 1.12024 0.31655
# Poissons Ratio (z) = 0.05525 0.14641
#
# Static dielectric constant tensor:
#      x y z
#    x 1.650630 0.018150 0.000040 
#    y 0.018150 1.674490 0.017400 
#    z 0.000040 0.017400 1.649780 
# 
# From -- ./inp_files/349453.got.cif
#   From: 2010.05.17/outbox.cif.g08.bks.cpg/sg2_175_cif.got.tgz:349453.got - 2010.06.03 11:33:40.
