data_PCOD9109156
_publ_section_title
;
Structure prediction by ZEFSAII (Michael W. Deem and Ramdas Pophale) SiO2 
 PCOD9109156
Probable space group: P -1
;
_chemical_formula_sum "Si O2"
_cell_formula_units_Z 12
_cell_length_a 6.806940
_cell_length_b 7.559012
_cell_length_c 14.028733
_cell_angle_alpha 52.403519
_cell_angle_beta 70.444872
_cell_angle_gamma 53.890329
_cell_volume 461.705707
_symmetry_space_group_name_H-M "P -1"
_symmetry_group_IT_number 2
_symmetry_cell_setting 'triclinic'
loop_
_space_group_symop_operation_xyz
x,y,z
-x,-y,-z
loop_
_atom_site_type_symbol
_atom_site_label
_atom_site_fract_x
_atom_site_fract_y
_atom_site_fract_z
Si Si1 0.670653 0.689352 0.565277
Si Si2 0.803351 0.364014 0.470157
Si Si3 0.994623 0.798063 0.698562
Si Si4 0.696784 0.059688 0.058114
Si Si5 0.813786 0.410259 0.819723
Si Si6 0.164981 0.194938 0.090182
O O1 0.640995 0.580934 0.503925
O O2 0.661710 0.521189 0.710872
O O3 0.939406 0.648459 0.548938
O O4 0.500000 0.000000 0.500000
O O5 0.784484 0.369882 0.355852
O O6 0.850730 0.084031 0.584620
O O7 0.857899 0.637383 0.771943
O O8 0.997276 0.852858 0.791961
O O9 0.438676 0.099222 0.112531
O O10 0.692805 0.326106 0.949265
O O11 0.917236 0.845430 0.156605
O O12 0.777640 0.935006 0.979977
O O13 0.000000 0.500000 0.000000
#
# Coordination Sequence:
#
# PCOD9109156 Si02
#       6
#     2   2   2   2   2   2
#     4  10  21  42  67  96 127 174 226 276 337 391
#     4   9  21  42  61  92 131 172 222 271 328 401
#     4  10  20  41  63  91 135 172 216 273 328 401
#     4  10  23  42  64  94 137 178 219 280 327 400
#     4  10  21  43  63  97 134 172 224 271 338 394
#     4  11  22  41  63  96 128 176 229 268 338 392
#
# _framework density 25.990580999999999
#
# number of rings (size 3 to 8) (size 9 to 14) (size 15 to 20)
#    0.000    2.000    1.667    1.000    0.000    2.000 
#   21.000    4.167    0.000    0.000    0.000    0.000 
#    0.000    0.000    0.000    0.000    0.000    0.000 
#
# Total GULP energy -67015.011360 kJ/mol
# GULP energy per Si atom -5584.584280 kJ/mol
# Density = 2.593142 g / cm^3
# Si number density = 25.990581 Si / 1000 Ang^3
#
#
#
# Elastic Constant Matrix: (Units=GPa)
#
#
# Indices 1 2 3 4 5 6 
#
# 1 67.9070 42.8417 23.9288 -6.7826 17.6080 4.2245
# 2 42.8417 171.1570 75.8571 34.2440 6.7256 12.9382
# 3 23.9288 75.8571 150.3992 11.1214 14.5766 3.6220
# 4 -6.7826 34.2440 11.1214 47.1077 6.3838 -6.4159
# 5 17.6080 6.7256 14.5766 6.3838 36.6926 -8.7532
# 6 4.2245 12.9382 3.6220 -6.4159 -8.7532 45.3446
#
#
#
# Elastic Compliance Matrix: (Units=1/GPa)
#
#
# Indices 1 2 3 4 5 6 
#
# 1 0.023638 -0.007691 0.000553 0.010387 -0.012183 -0.000934
# 2 -0.007691 0.011601 -0.004271 -0.009486 0.004250 -0.002774
# 3 0.000553 -0.004271 0.008920 0.001529 -0.003283 0.000037
# 4 0.010387 -0.009486 0.001529 0.030970 -0.008187 0.004418
# 5 -0.012183 0.004250 -0.003283 -0.008187 0.036498 0.006072
# 6 -0.000934 -0.002774 0.000037 0.004418 0.006072 0.024726
#
#
# Mechanical properties :
#
#
# Convention : Reuss Voigt Hill
#
# Bulk Modulus (GPa) = 46.85781 74.96871 60.91326
# Shear Modulus (GPa) = 30.06902 42.28468 36.17685
#
# Velocity S-wave (km/s) = 3.40504 4.03789 3.73489
# Velocity P-wave (km/s) = 5.79025 7.11664 6.48743
#
# Compressibility (1/GPa) = 0.02134116
#
# Stress axis : x y z
#
# Youngs Moduli (GPa) = 42.30515 86.19664 112.11351
#
# Poissons Ratio (x) = 0.66292 -0.06205
# Poissons Ratio (y) = 0.32536 0.47888
# Poissons Ratio (z) = -0.02341 0.36818
#
# Static dielectric constant tensor:
#      x y z
#    x 2.199730 0.023660 -0.025610 
#    y 0.023660 2.101250 0.154050 
#    z -0.025610 0.154050 2.204670 
# 
# From -- ./inp_files/488929.got.cif
#   From: 2010.05.17/outbox.cif.g08.bks.cpg/sg2_245_cif.got.tgz:488929.got - 2010.06.03 11:33:40.
