data_PCOD9109881
_publ_section_title
;
Structure prediction by ZEFSAII (Michael W. Deem and Ramdas Pophale) SiO2 
 PCOD9109881
Probable space group: P -1
;
_chemical_formula_sum "Si O2"
_cell_formula_units_Z 12
_cell_length_a 13.734954
_cell_length_b 6.923863
_cell_length_c 18.215541
_cell_angle_alpha 78.961282
_cell_angle_beta 20.088964
_cell_angle_gamma 87.328070
_cell_volume 536.471234
_symmetry_space_group_name_H-M "P -1"
_symmetry_group_IT_number 2
_symmetry_cell_setting 'triclinic'
loop_
_space_group_symop_operation_xyz
x,y,z
-x,-y,-z
loop_
_atom_site_type_symbol
_atom_site_label
_atom_site_fract_x
_atom_site_fract_y
_atom_site_fract_z
Si Si1 0.576920 0.561947 0.727222
Si Si2 0.384425 0.262001 0.747213
Si Si3 0.673548 0.811123 0.966752
Si Si4 0.335267 0.950150 0.542460
Si Si5 0.154004 0.978386 0.316898
Si Si6 0.197577 0.778100 0.917538
O O1 0.535529 0.425437 0.840373
O O2 0.298723 0.645394 0.913981
O O3 0.903299 0.758741 0.477619
O O4 0.787952 0.840501 0.799201
O O5 0.536704 0.407774 0.697386
O O6 0.606938 0.240160 0.527553
O O7 0.218708 0.013055 0.909942
O O8 0.126815 0.326482 0.886198
O O9 0.472325 0.952582 0.107242
O O10 0.976222 0.894885 0.797081
O O11 0.500000 0.000000 0.500000
O O12 0.526652 0.156077 0.342242
O O13 0.000000 0.000000 0.500000
#
# Coordination Sequence:
#
# PCOD9109881 Si02
#       6
#     2   2   2   2   2   2
#     4  12  23  44  73 102 141 184 244 290 351 425
#     4   9  21  39  71  99 149 193 224 287 356 410
#     4  11  26  46  73 108 134 187 243 285 358 428
#     4  10  20  41  68 101 144 179 230 285 346 421
#     4  11  27  51  74  98 146 187 235 306 351 410
#     4   9  20  41  67  98 146 186 221 295 348 403
#
# _framework density 22.368393999999999
#
# number of rings (size 3 to 8) (size 9 to 14) (size 15 to 20)
#    1.000    0.667    1.667    2.000    4.667    0.667 
#    6.000    3.333    0.000    0.000    0.000    0.000 
#    0.000    0.000    0.000    0.000    0.000    0.000 
#
# Total GULP energy -67014.197693 kJ/mol
# GULP energy per Si atom -5584.516474 kJ/mol
# Density = 2.231748 g / cm^3
# Si number density = 22.368394 Si / 1000 Ang^3
#
#
#
# Elastic Constant Matrix: (Units=GPa)
#
#
# Indices 1 2 3 4 5 6 
#
# 1 75.2029 37.4519 35.6038 16.5421 -8.7937 5.4726
# 2 37.4519 64.0502 10.4304 5.4202 -3.8165 0.7218
# 3 35.6038 10.4304 84.8611 14.1152 -6.0998 7.2090
# 4 16.5421 5.4202 14.1152 28.8705 -1.2882 -1.8819
# 5 -8.7937 -3.8165 -6.0998 -1.2882 31.1393 -5.0318
# 6 5.4726 0.7218 7.2090 -1.8819 -5.0318 44.9593
#
#
#
# Elastic Compliance Matrix: (Units=1/GPa)
#
#
# Indices 1 2 3 4 5 6 
#
# 1 0.025579 -0.012802 -0.007322 -0.008623 0.003590 -0.001693
# 2 -0.012802 0.022547 0.002159 0.002097 -0.000194 0.000916
# 3 -0.007322 0.002159 0.015427 -0.003828 0.000788 -0.001689
# 4 -0.008623 0.002097 -0.003828 0.041239 -0.000692 0.003278
# 5 0.003590 -0.000194 0.000788 -0.000692 0.033744 0.003188
# 6 -0.001693 0.000916 -0.001689 0.003278 0.003188 0.023199
#
#
# Mechanical properties :
#
#
# Convention : Reuss Voigt Hill
#
# Bulk Modulus (GPa) = 36.20027 43.45406 39.82716
# Shear Modulus (GPa) = 24.16942 30.36903 27.26923
#
# Velocity S-wave (km/s) = 3.29069 3.68866 3.49534
# Velocity P-wave (km/s) = 5.53687 6.13273 5.84240
#
# Compressibility (1/GPa) = 0.02762410
#
# Stress axis : x y z
#
# Youngs Moduli (GPa) = 39.09446 44.35129 64.81977
#
# Poissons Ratio (x) = 0.56777 0.47462
# Poissons Ratio (y) = 0.50047 -0.13995
# Poissons Ratio (z) = 0.28626 -0.09576
#
# Static dielectric constant tensor:
#      x y z
#    x 1.852380 -0.027520 0.018370 
#    y -0.027520 1.867150 -0.001440 
#    z 0.018370 -0.001440 1.819390 
# 
# From -- ./inp_files/289932.got.cif
#   From: 2010.05.17/outbox.cif.g08.bks.cpg/sg2_145_cif.got.tgz:289932.got - 2010.06.03 11:33:40.
