data_PCOD9109902
_publ_section_title
;
Structure prediction by ZEFSAII (Michael W. Deem and Ramdas Pophale) SiO2 
 PCOD9109902
Probable space group: P -1
;
_chemical_formula_sum "Si O2"
_cell_formula_units_Z 16
_cell_length_a 8.712137
_cell_length_b 9.025131
_cell_length_c 11.202132
_cell_angle_alpha 49.648649
_cell_angle_beta 84.024154
_cell_angle_gamma 89.655514
_cell_volume 665.408410
_symmetry_space_group_name_H-M "P -1"
_symmetry_group_IT_number 2
_symmetry_cell_setting 'triclinic'
loop_
_space_group_symop_operation_xyz
x,y,z
-x,-y,-z
loop_
_atom_site_type_symbol
_atom_site_label
_atom_site_fract_x
_atom_site_fract_y
_atom_site_fract_z
Si Si1 0.311648 0.775019 0.393542
Si Si2 0.835893 0.600904 0.450843
Si Si3 0.869692 0.058809 0.178170
Si Si4 0.738999 0.066156 0.944138
Si Si5 0.545625 0.740625 0.027599
Si Si6 0.355528 0.347440 0.317529
Si Si7 0.107893 0.099199 0.336760
Si Si8 0.464743 0.911684 0.708607
O O1 0.270405 0.550674 0.543025
O O2 0.214445 0.923695 0.394728
O O3 0.481822 0.871498 0.357652
O O4 0.262835 0.809782 0.241687
O O5 0.869539 0.823804 0.293332
O O6 0.732216 0.619935 0.568531
O O7 0.000000 0.500000 0.500000
O O8 0.865935 0.118868 0.007948
O O9 0.718896 0.111266 0.240314
O O10 0.014414 0.135283 0.205781
O O11 0.700952 0.841737 0.022256
O O12 0.588008 0.120630 0.998864
O O13 0.474583 0.531915 0.183544
O O14 0.544943 0.767612 0.871746
O O15 0.206356 0.290579 0.275383
O O16 0.461966 0.167382 0.378212
O O17 0.000000 0.000000 0.500000
#
# Coordination Sequence:
#
# PCOD9109902 Si02
#       8
#     2   2   2   2   2   2   2   2
#     4  10  20  41  68  89 122 172 211 244 328 377
#     4  12  23  40  62  93 122 167 216 255 305 374
#     4  11  23  40  63  93 135 155 211 270 309 357
#     4   9  19  37  64  97 125 157 202 275 311 362
#     4   9  17  37  64  92 129 158 203 254 329 370
#     4  11  21  38  68  86 122 175 210 241 315 389
#     4  11  22  42  58  86 129 178 206 247 315 381
#     4   9  22  39  63  98 125 161 203 268 315 373
#
# _framework density 24.045383999999999
#
# number of rings (size 3 to 8) (size 9 to 14) (size 15 to 20)
#    0.000    1.750    3.750    1.125    0.000    1.500 
#    0.000    3.750    0.000    0.000    0.000    0.000 
#    0.000    0.000    0.000    0.000    0.000    0.000 
#
# Total GULP energy -89235.520575 kJ/mol
# GULP energy per Si atom -5577.220036 kJ/mol
# Density = 2.399066 g / cm^3
# Si number density = 24.045384 Si / 1000 Ang^3
#
#
#
# Elastic Constant Matrix: (Units=GPa)
#
#
# Indices 1 2 3 4 5 6 
#
# 1 70.8772 33.8273 13.6706 2.9261 -4.2524 -5.4167
# 2 33.8273 91.3354 27.6248 4.2914 6.8242 1.2660
# 3 13.6706 27.6248 54.2250 5.4120 5.1225 10.6371
# 4 2.9261 4.2914 5.4120 17.3262 -0.0988 -10.9657
# 5 -4.2524 6.8242 5.1225 -0.0988 27.0912 7.9559
# 6 -5.4167 1.2660 10.6371 -10.9657 7.9559 50.1577
#
#
#
# Elastic Compliance Matrix: (Units=1/GPa)
#
#
# Indices 1 2 3 4 5 6 
#
# 1 0.017945 -0.006374 -0.002115 0.000486 0.004242 0.001981
# 2 -0.006374 0.015423 -0.005973 -0.000444 -0.003970 0.000722
# 3 -0.002115 -0.005973 0.024650 -0.010553 -0.001354 -0.007397
# 4 0.000486 -0.000444 -0.010553 0.072868 -0.003047 0.018716
# 5 0.004242 -0.003970 -0.001354 -0.003047 0.040665 -0.006271
# 6 0.001981 0.000722 -0.007397 0.018716 -0.006271 0.026788
#
#
# Mechanical properties :
#
#
# Convention : Reuss Voigt Hill
#
# Bulk Modulus (GPa) = 34.36977 40.74256 37.55616
# Shear Modulus (GPa) = 21.10072 28.33600 24.71836
#
# Velocity S-wave (km/s) = 2.96554 3.43656 3.20970
# Velocity P-wave (km/s) = 5.10398 5.72079 5.42117
#
# Compressibility (1/GPa) = 0.02909534
#
# Stress axis : x y z
#
# Youngs Moduli (GPa) = 55.72724 64.83752 40.56814
#
# Poissons Ratio (x) = 0.41325 0.08579
# Poissons Ratio (y) = 0.35519 0.24230
# Poissons Ratio (z) = 0.11785 0.38726
#
# Static dielectric constant tensor:
#      x y z
#    x 2.004620 0.024950 -0.012310 
#    y 0.024950 1.931750 0.045020 
#    z -0.012310 0.045020 2.036980 
# 
# From -- ./inp_files/381041.got.cif
#   From: 2010.05.17/outbox.cif.g08.bks.cpg/sg2_191_cif.got.tgz:381041.got - 2010.06.03 11:33:40.
