data_PCOD9109858
_publ_section_title
;
Structure prediction by ZEFSAII (Michael W. Deem and Ramdas Pophale) SiO2 
 PCOD9109858
Probable space group: P -1
;
_chemical_formula_sum "Si O2"
_cell_formula_units_Z 16
_cell_length_a 7.400004
_cell_length_b 9.100693
_cell_length_c 10.683258
_cell_angle_alpha 81.495262
_cell_angle_beta 122.083988
_cell_angle_gamma 88.039680
_cell_volume 597.395312
_symmetry_space_group_name_H-M "P -1"
_symmetry_group_IT_number 2
_symmetry_cell_setting 'triclinic'
loop_
_space_group_symop_operation_xyz
x,y,z
-x,-y,-z
loop_
_atom_site_type_symbol
_atom_site_label
_atom_site_fract_x
_atom_site_fract_y
_atom_site_fract_z
Si Si1 0.324801 0.551020 0.824183
Si Si2 0.046385 0.166573 0.212427
Si Si3 0.465702 0.156917 0.187462
Si Si4 0.950899 0.426700 0.622696
Si Si5 0.130530 0.631456 0.065931
Si Si6 0.534912 0.582225 0.363028
Si Si7 0.118724 0.146263 0.860268
Si Si8 0.635807 0.898973 0.454888
O O1 0.390379 0.707760 0.777937
O O2 0.377297 0.427624 0.747546
O O3 0.077281 0.522311 0.753279
O O4 0.500000 0.500000 0.000000
O O5 0.261484 0.186762 0.205977
O O6 0.133906 0.154474 0.388420
O O7 0.960617 0.010716 0.172206
O O8 0.849631 0.285180 0.070603
O O9 0.609862 0.007674 0.310907
O O10 0.354858 0.139697 0.012377
O O11 0.690490 0.458955 0.514099
O O12 0.000000 0.500000 0.500000
O O13 0.045207 0.254862 0.702661
O O14 0.303507 0.553703 0.236096
O O15 0.026661 0.768877 0.094750
O O16 0.000000 0.500000 0.000000
O O17 0.544868 0.746746 0.401686
O O18 0.500000 0.000000 0.500000
#
# Coordination Sequence:
#
# PCOD9109858 Si02
#       8
#     2   2   2   2   2   2   2   2
#     4  11  23  45  72  95 132 186 237 281 331 401
#     4  10  22  38  65 100 133 177 214 275 360 408
#     4  10  20  41  67  98 134 174 228 282 339 406
#     4  10  25  43  67  98 137 181 236 274 335 393
#     4  11  23  39  64 103 135 167 223 285 349 411
#     4  11  24  43  67  98 142 169 234 281 336 410
#     4  11  21  41  69  95 137 178 221 278 346 414
#     4  10  22  41  67  99 139 174 211 278 357 408
#
# _framework density 26.782935999999999
#
# number of rings (size 3 to 8) (size 9 to 14) (size 15 to 20)
#    0.000    1.500    1.250    5.250    5.250    0.500 
#    2.250    1.250    2.750    0.000    0.000    0.000 
#    0.000    0.000    0.000    0.000    0.000    0.000 
#
# Total GULP energy -89319.955097 kJ/mol
# GULP energy per Si atom -5582.497194 kJ/mol
# Density = 2.672198 g / cm^3
# Si number density = 26.782936 Si / 1000 Ang^3
#
#
#
# Elastic Constant Matrix: (Units=GPa)
#
#
# Indices 1 2 3 4 5 6 
#
# 1 57.6423 35.6938 54.0940 -2.3946 25.1599 24.8533
# 2 35.6938 201.8522 86.7324 -1.0655 10.3690 44.6857
# 3 54.0940 86.7324 265.7473 -16.3350 24.6138 13.5180
# 4 -2.3946 -1.0655 -16.3350 69.7274 9.7036 -3.2715
# 5 25.1599 10.3690 24.6138 9.7036 43.5347 5.7368
# 6 24.8533 44.6857 13.5180 -3.2715 5.7368 40.8170
#
#
#
# Elastic Compliance Matrix: (Units=1/GPa)
#
#
# Indices 1 2 3 4 5 6 
#
# 1 0.037576 0.000824 -0.005288 0.001466 -0.016670 -0.019570
# 2 0.000824 0.007583 -0.002304 -0.000816 0.000275 -0.008145
# 3 -0.005288 -0.002304 0.005495 0.001308 -0.000330 0.004074
# 4 0.001466 -0.000816 0.001308 0.015458 -0.005037 0.001515
# 5 -0.016670 0.000275 -0.000330 -0.005037 0.033204 0.004888
# 6 -0.019570 -0.008145 0.004074 0.001515 0.004888 0.043418
#
#
# Mechanical properties :
#
#
# Convention : Reuss Voigt Hill
#
# Bulk Modulus (GPa) = 26.94111 97.58690 62.26400
# Shear Modulus (GPa) = 29.64861 54.06393 41.85627
#
# Velocity S-wave (km/s) = 3.33076 4.49775 3.95751
# Velocity P-wave (km/s) = 4.98727 7.96796 6.64685
#
# Compressibility (1/GPa) = 0.03711800
#
# Stress axis : x y z
#
# Youngs Moduli (GPa) = 26.61285 131.87504 181.98112
#
# Poissons Ratio (x) = -0.10868 0.96232
# Poissons Ratio (y) = -0.02193 0.41928
# Poissons Ratio (z) = 0.14073 0.30384
#
# Static dielectric constant tensor:
#      x y z
#    x 3.396170 -0.113420 0.993390 
#    y -0.113420 2.058000 0.055340 
#    z 0.993390 0.055340 2.853620 
# 
# From -- ./inp_files/382111.got.cif
#   From: 2010.05.17/outbox.cif.g08.bks.cpg/sg2_192_cif.got.tgz:382111.got - 2010.06.03 11:33:40.
