data_PCOD9109808
_publ_section_title
;
Structure prediction by ZEFSAII (Michael W. Deem and Ramdas Pophale) SiO2 
 PCOD9109808
Probable space group: P -1
;
_chemical_formula_sum "Si O2"
_cell_formula_units_Z 12
_cell_length_a 9.674213
_cell_length_b 11.120568
_cell_length_c 12.133782
_cell_angle_alpha 41.492573
_cell_angle_beta 39.166922
_cell_angle_gamma 62.227273
_cell_volume 525.272896
_symmetry_space_group_name_H-M "P -1"
_symmetry_group_IT_number 2
_symmetry_cell_setting 'triclinic'
loop_
_space_group_symop_operation_xyz
x,y,z
-x,-y,-z
loop_
_atom_site_type_symbol
_atom_site_label
_atom_site_fract_x
_atom_site_fract_y
_atom_site_fract_z
Si Si1 0.756425 0.074477 0.828988
Si Si2 0.609437 0.305644 0.371490
Si Si3 0.867094 0.692075 0.966527
Si Si4 0.229610 0.939714 0.923419
Si Si5 0.511732 0.303472 0.183727
Si Si6 0.898446 0.807509 0.630567
O O1 0.904995 0.223732 0.548110
O O2 0.500000 0.000000 0.000000
O O3 0.838848 0.884514 0.901041
O O4 0.779707 0.144742 0.890356
O O5 0.677584 0.507550 0.253304
O O6 0.443728 0.128550 0.657468
O O7 0.488788 0.303295 0.328852
O O8 0.867106 0.294958 0.195949
O O9 0.820884 0.672433 0.875155
O O10 0.281606 0.783251 0.917054
O O11 0.000000 0.000000 0.000000
O O12 0.295901 0.169202 0.346817
O O13 0.500000 0.500000 0.000000
O O14 0.000000 0.000000 0.500000
#
# Coordination Sequence:
#
# PCOD9109808 Si02
#       6
#     2   2   2   2   2   2
#     4  11  22  38  64  97 135 164 214 272 334 381
#     4  11  23  42  69  92 133 174 224 267 321 405
#     4  10  21  41  67  97 125 178 225 261 324 397
#     4  12  25  43  64  98 137 172 212 276 343 380
#     4  12  24  44  70  96 128 176 231 264 317 400
#     4  10  20  41  67  94 127 176 222 262 318 399
#
# _framework density 22.845268000000001
#
# number of rings (size 3 to 8) (size 9 to 14) (size 15 to 20)
#    0.000    1.000    1.667    7.500    0.000    0.667 
#    3.000    1.667    0.000    0.000    0.000    0.000 
#    0.000    0.000    0.000    0.000    0.000    0.000 
#
# Total GULP energy -66970.743921 kJ/mol
# GULP energy per Si atom -5580.895327 kJ/mol
# Density = 2.279327 g / cm^3
# Si number density = 22.845268 Si / 1000 Ang^3
#
#
#
# Elastic Constant Matrix: (Units=GPa)
#
#
# Indices 1 2 3 4 5 6 
#
# 1 97.1644 -19.4858 -8.6171 12.7882 -14.6754 -2.7246
# 2 -19.4858 50.9814 15.8024 -8.3497 -10.6571 -8.5308
# 3 -8.6171 15.8024 79.0808 -3.3371 -5.7201 6.1632
# 4 12.7882 -8.3497 -3.3371 30.0138 2.7332 -2.8059
# 5 -14.6754 -10.6571 -5.7201 2.7332 36.4758 11.7903
# 6 -2.7246 -8.5308 6.1632 -2.8059 11.7903 35.3956
#
#
#
# Elastic Compliance Matrix: (Units=1/GPa)
#
#
# Indices 1 2 3 4 5 6 
#
# 1 0.013228 0.005522 0.000744 -0.004779 0.007637 -0.000703
# 2 0.005522 0.026183 -0.004362 0.004312 0.007095 0.005473
# 3 0.000744 -0.004362 0.014111 -0.000619 0.002707 -0.004402
# 4 -0.004779 0.004312 -0.000619 0.037490 -0.005359 0.005536
# 5 0.007637 0.007095 0.002707 -0.005359 0.036908 -0.010892
# 6 -0.000703 0.005473 -0.004402 0.005536 -0.010892 0.034351
#
#
# Mechanical properties :
#
#
# Convention : Reuss Voigt Hill
#
# Bulk Modulus (GPa) = 17.44354 22.51395 19.97874
# Shear Modulus (GPa) = 28.15755 36.34551 32.25153
#
# Velocity S-wave (km/s) = 3.51455 3.99299 3.76139
# Velocity P-wave (km/s) = 4.91137 5.57987 5.25626
#
# Compressibility (1/GPa) = 0.05732783
#
# Stress axis : x y z
#
# Youngs Moduli (GPa) = 75.59835 38.19335 70.86866
#
# Poissons Ratio (x) = -0.21089 -0.05270
# Poissons Ratio (y) = -0.41742 0.30911
# Poissons Ratio (z) = -0.05622 0.16659
#
# Static dielectric constant tensor:
#      x y z
#    x 1.866670 -0.029170 0.005870 
#    y -0.029170 1.894020 -0.076700 
#    z 0.005870 -0.076700 1.984030 
# 
# From -- ./inp_files/158979.got.cif
#   From: 2010.05.17/outbox.cif.g08.bks.cpg/sg2_80_cif.got.tgz:158979.got - 2010.06.03 11:33:40.
