data_PCOD9109778
_publ_section_title
;
Structure prediction by ZEFSAII (Michael W. Deem and Ramdas Pophale) SiO2 
 PCOD9109778
Probable space group: P -1
;
_chemical_formula_sum "Si O2"
_cell_formula_units_Z 16
_cell_length_a 7.411303
_cell_length_b 11.770868
_cell_length_c 10.817233
_cell_angle_alpha 54.716458
_cell_angle_beta 62.334943
_cell_angle_gamma 66.760940
_cell_volume 671.750315
_symmetry_space_group_name_H-M "P -1"
_symmetry_group_IT_number 2
_symmetry_cell_setting 'triclinic'
loop_
_space_group_symop_operation_xyz
x,y,z
-x,-y,-z
loop_
_atom_site_type_symbol
_atom_site_label
_atom_site_fract_x
_atom_site_fract_y
_atom_site_fract_z
Si Si1 0.254439 0.686055 0.077023
Si Si2 0.016580 0.078671 0.641803
Si Si3 0.206919 0.824974 0.598033
Si Si4 0.464759 0.452030 0.326659
Si Si5 0.142275 0.307564 0.626847
Si Si6 0.616949 0.693487 0.224273
Si Si7 0.316600 0.916316 0.075514
Si Si8 0.010024 0.339260 0.056217
O O1 0.426442 0.554948 0.154062
O O2 0.301753 0.844599 0.991206
O O3 0.055170 0.672181 0.233830
O O4 0.177756 0.669816 0.973213
O O5 0.855178 0.125502 0.552024
O O6 0.897942 0.018280 0.833024
O O7 0.103510 0.209679 0.588555
O O8 0.195411 0.962852 0.599661
O O9 0.408613 0.705940 0.627597
O O10 0.019371 0.753107 0.757462
O O11 0.242877 0.437133 0.463589
O O12 0.603390 0.528728 0.327450
O O13 0.315587 0.241036 0.713343
O O14 0.388491 0.768810 0.218029
O O15 0.778987 0.711822 0.053761
O O16 0.500000 0.000000 0.000000
O O17 0.000000 0.500000 0.000000
#
# Coordination Sequence:
#
# PCOD9109778 Si02
#       8
#     2   2   2   2   2   2   2   2
#     4   9  23  39  61  99 119 158 216 252 316 373
#     4  10  24  43  63  91 123 170 214 245 316 369
#     4  11  24  42  61  87 130 171 206 251 305 383
#     4  11  21  37  61  94 127 159 201 264 313 364
#     4  10  21  38  64  87 123 159 208 264 306 361
#     4  10  21  38  62  94 119 158 214 254 316 364
#     4  10  20  41  67  92 123 159 209 268 306 360
#     4  11  22  41  63  89 131 166 200 251 318 373
#
# _framework density 23.818373000000001
#
# number of rings (size 3 to 8) (size 9 to 14) (size 15 to 20)
#    0.000    1.750    1.250    2.250    1.750    4.000 
#    0.000    6.250    0.000    0.000    0.000    0.000 
#    0.000    0.000    0.000    0.000    0.000    0.000 
#
# Total GULP energy -89269.975320 kJ/mol
# GULP energy per Si atom -5579.373457 kJ/mol
# Density = 2.376416 g / cm^3
# Si number density = 23.818373 Si / 1000 Ang^3
#
#
#
# Elastic Constant Matrix: (Units=GPa)
#
#
# Indices 1 2 3 4 5 6 
#
# 1 87.3727 31.0491 -6.0184 0.2243 2.9234 13.9150
# 2 31.0491 99.2965 11.4250 8.6687 15.4327 7.6525
# 3 -6.0184 11.4250 56.6070 2.4152 -19.2619 6.9516
# 4 0.2243 8.6687 2.4152 26.9734 1.7939 -1.5003
# 5 2.9234 15.4327 -19.2619 1.7939 36.6417 -5.5172
# 6 13.9150 7.6525 6.9516 -1.5003 -5.5172 41.3077
#
#
#
# Elastic Compliance Matrix: (Units=1/GPa)
#
#
# Indices 1 2 3 4 5 6 
#
# 1 0.014025 -0.004912 0.003721 0.000750 0.002250 -0.004113
# 2 -0.004912 0.014046 -0.006024 -0.003423 -0.008707 -0.001221
# 3 0.003721 -0.006024 0.024713 -0.001433 0.014948 -0.002352
# 4 0.000750 -0.003423 -0.001433 0.038465 -0.000970 0.001890
# 5 0.002250 -0.008707 0.014948 -0.000970 0.039218 0.003542
# 6 -0.004113 -0.001221 -0.002352 0.001890 0.003542 0.026758
#
#
# Mechanical properties :
#
#
# Convention : Reuss Voigt Hill
#
# Bulk Modulus (GPa) = 26.07218 35.13196 30.60207
# Shear Modulus (GPa) = 27.10923 34.77260 30.94091
#
# Velocity S-wave (km/s) = 3.37733 3.82502 3.60812
# Velocity P-wave (km/s) = 5.11649 5.85574 5.49855
#
# Compressibility (1/GPa) = 0.03835506
#
# Stress axis : x y z
#
# Youngs Moduli (GPa) = 71.30202 71.19479 40.46390
#
# Poissons Ratio (x) = 0.34969 -0.15057
# Poissons Ratio (y) = 0.35022 0.24375
# Poissons Ratio (z) = -0.26532 0.42887
#
# Static dielectric constant tensor:
#      x y z
#    x 1.932800 -0.007380 0.030700 
#    y -0.007380 2.001780 -0.005010 
#    z 0.030700 -0.005010 1.944650 
# 
# From -- ./inp_files/388989.got.cif
#   From: 2010.05.17/outbox.cif.g08.bks.cpg/sg2_195_cif.got.tgz:388989.got - 2010.06.03 11:33:40.
