data_PCOD9109592
_publ_section_title
;
Structure prediction by ZEFSAII (Michael W. Deem and Ramdas Pophale) SiO2 
 PCOD9109592
Probable space group: P -1
;
_chemical_formula_sum "Si O2"
_cell_formula_units_Z 16
_cell_length_a 15.349160
_cell_length_b 21.760428
_cell_length_c 8.416664
_cell_angle_alpha 59.939415
_cell_angle_beta 69.951644
_cell_angle_gamma 19.333172
_cell_volume 718.029897
_symmetry_space_group_name_H-M "P -1"
_symmetry_group_IT_number 2
_symmetry_cell_setting 'triclinic'
loop_
_space_group_symop_operation_xyz
x,y,z
-x,-y,-z
loop_
_atom_site_type_symbol
_atom_site_label
_atom_site_fract_x
_atom_site_fract_y
_atom_site_fract_z
Si Si1 0.097657 0.287347 0.037461
Si Si2 0.538785 0.455829 0.843973
Si Si3 0.965242 0.943271 0.553069
Si Si4 0.719621 0.917053 0.125754
Si Si5 0.203489 0.983530 0.100484
Si Si6 0.757855 0.871605 0.511739
Si Si7 0.660080 0.223849 0.912666
Si Si8 0.483203 0.794385 0.744336
O O1 0.417356 0.091925 0.091681
O O2 0.058324 0.281586 0.245764
O O3 0.102966 0.232016 0.952037
O O4 0.834420 0.533657 0.852472
O O5 0.498787 0.403937 0.873494
O O6 0.281491 0.687178 0.619887
O O7 0.500000 0.500000 0.000000
O O8 0.882957 0.222944 0.900959
O O9 0.895397 0.946852 0.745244
O O10 0.690300 0.126569 0.377251
O O11 0.000000 0.000000 0.500000
O O12 0.879867 0.785699 0.365225
O O13 0.631996 0.063076 0.976437
O O14 0.364492 0.789318 0.232492
O O15 0.626829 0.045408 0.396425
O O16 0.500000 0.000000 0.500000
O O17 0.606702 0.185705 0.072119
O O18 0.000000 0.000000 0.000000
#
# Coordination Sequence:
#
# PCOD9109592 Si02
#       8
#     2   2   2   2   2   2   2   2
#     4  10  25  44  70 100 141 180 233 292 348 416
#     4   9  20  37  64  89 129 176 219 282 338 403
#     4  11  24  41  63 101 134 184 239 281 346 433
#     4  10  21  45  70 100 135 180 234 287 350 418
#     4  10  20  41  66  90 134 170 228 286 348 404
#     4  10  23  46  69 101 137 181 237 288 348 425
#     4  10  21  40  62  96 131 171 222 281 337 407
#     4  12  24  43  69  98 140 185 231 284 360 411
#
# _framework density 22.283194999999999
#
# number of rings (size 3 to 8) (size 9 to 14) (size 15 to 20)
#    0.000    1.750    1.250    3.000    7.000    2.000 
#    2.250   15.625    0.000    0.000    0.000    0.000 
#    0.000    0.000    0.000    0.000    0.000    0.000 
#
# Total GULP energy -89082.081981 kJ/mol
# GULP energy per Si atom -5567.630124 kJ/mol
# Density = 2.223248 g / cm^3
# Si number density = 22.283195 Si / 1000 Ang^3
#
#
#
# Elastic Constant Matrix: (Units=GPa)
#
#
# Indices 1 2 3 4 5 6 
#
# 1 109.1397 26.4070 27.5733 4.6872 -16.4668 25.2588
# 2 26.4070 50.8110 23.8095 -0.2591 6.0936 17.2440
# 3 27.5733 23.8095 83.6176 -5.9823 8.0542 9.8425
# 4 4.6872 -0.2591 -5.9823 27.9508 2.7207 -1.3042
# 5 -16.4668 6.0936 8.0542 2.7207 39.1454 1.3831
# 6 25.2588 17.2440 9.8425 -1.3042 1.3831 30.8285
#
#
#
# Elastic Compliance Matrix: (Units=1/GPa)
#
#
# Indices 1 2 3 4 5 6 
#
# 1 0.014553 -0.003659 -0.003774 -0.004502 0.008107 -0.009227
# 2 -0.003659 0.028248 -0.005136 -0.000301 -0.004471 -0.010975
# 3 -0.003774 -0.005136 0.015213 0.004326 -0.004271 0.001483
# 4 -0.004502 -0.000301 0.004326 0.038197 -0.005545 0.004340
# 5 0.008107 -0.004471 -0.004271 -0.005545 0.031072 -0.004406
# 6 -0.009227 -0.010975 0.001483 0.004340 -0.004406 0.046044
#
#
# Mechanical properties :
#
#
# Convention : Reuss Voigt Hill
#
# Bulk Modulus (GPa) = 30.41700 44.34978 37.38339
# Shear Modulus (GPa) = 23.87498 30.63683 27.25591
#
# Velocity S-wave (km/s) = 3.27683 3.71197 3.50116
# Velocity P-wave (km/s) = 5.29118 6.19012 5.75822
#
# Compressibility (1/GPa) = 0.03287635
#
# Stress axis : x y z
#
# Youngs Moduli (GPa) = 68.71348 35.40020 65.73535
#
# Poissons Ratio (x) = 0.12953 0.24809
# Poissons Ratio (y) = 0.25142 0.33761
# Poissons Ratio (z) = 0.25933 0.18181
#
# Static dielectric constant tensor:
#      x y z
#    x 1.734520 -0.053490 0.231230 
#    y -0.053490 1.738580 0.284950 
#    z 0.231230 0.284950 1.712880 
# 
# From -- ./inp_files/319298.got.cif
#   From: 2010.05.17/outbox.cif.g08.bks.cpg/sg2_160_cif.got.tgz:319298.got - 2010.06.03 11:33:40.
