data_PCOD9109444
_publ_section_title
;
Structure prediction by ZEFSAII (Michael W. Deem and Ramdas Pophale) SiO2 
 PCOD9109444
Probable space group: P -1
;
_chemical_formula_sum "Si O2"
_cell_formula_units_Z 16
_cell_length_a 20.687538
_cell_length_b 8.891531
_cell_length_c 12.336806
_cell_angle_alpha 105.811216
_cell_angle_beta 20.159663
_cell_angle_gamma 107.976504
_cell_volume 742.869438
_symmetry_space_group_name_H-M "P -1"
_symmetry_group_IT_number 2
_symmetry_cell_setting 'triclinic'
loop_
_space_group_symop_operation_xyz
x,y,z
-x,-y,-z
loop_
_atom_site_type_symbol
_atom_site_label
_atom_site_fract_x
_atom_site_fract_y
_atom_site_fract_z
Si Si1 0.474493 0.095244 0.167288
Si Si2 0.669940 0.287218 0.071519
Si Si3 0.833623 0.082710 0.228847
Si Si4 0.632871 0.891477 0.328192
Si Si5 0.692240 0.713028 0.692317
Si Si6 0.034536 0.170963 0.538098
Si Si7 0.663215 0.371711 0.602398
Si Si8 0.669898 0.632610 0.045031
O O1 0.656394 0.186569 0.960764
O O2 0.350472 0.223515 0.345718
O O3 0.357394 0.983422 0.416548
O O4 0.500000 0.000000 0.000000
O O5 0.480709 0.223972 0.425030
O O6 0.689042 0.469030 0.042097
O O7 0.837470 0.236175 0.868518
O O8 0.825671 0.267941 0.295126
O O9 0.794975 0.013059 0.156215
O O10 0.000000 0.000000 0.000000
O O11 0.692692 0.774974 0.122365
O O12 0.500000 0.000000 0.500000
O O13 0.850136 0.829379 0.531946
O O14 0.748539 0.541700 0.550420
O O15 0.495984 0.693492 0.067530
O O16 0.168645 0.306285 0.284636
O O17 0.000000 0.000000 0.500000
O O18 0.530556 0.383120 0.707320
#
# Coordination Sequence:
#
# PCOD9109444 Si02
#       8
#     2   2   2   2   2   2   2   2
#     4  11  21  38  65  90 124 163 210 257 314 376
#     4  11  24  40  61  96 126 162 216 259 314 377
#     4  11  25  40  61  95 128 162 214 263 311 375
#     4  11  23  41  66  87 127 176 206 254 318 377
#     4  10  21  39  66  92 122 167 201 261 320 368
#     4  11  24  39  63  99 128 157 213 267 312 370
#     4  10  20  41  65  92 124 162 213 254 318 379
#     4  11  22  42  66  88 127 171 212 259 312 379
#
# _framework density 21.538104000000001
#
# number of rings (size 3 to 8) (size 9 to 14) (size 15 to 20)
#    0.000    1.250    3.750    2.250    3.500    4.000 
#    0.000    0.625    0.000    0.000    0.000    0.000 
#    0.000    0.000    0.000    0.000    0.000    0.000 
#
# Total GULP energy -89314.655611 kJ/mol
# GULP energy per Si atom -5582.165976 kJ/mol
# Density = 2.148908 g / cm^3
# Si number density = 21.538104 Si / 1000 Ang^3
#
#
#
# Elastic Constant Matrix: (Units=GPa)
#
#
# Indices 1 2 3 4 5 6 
#
# 1 70.2338 8.9272 -13.6123 3.5507 -7.1506 16.2859
# 2 8.9272 106.2320 11.0883 19.6134 -4.5352 6.0782
# 3 -13.6123 11.0883 26.4116 12.4661 1.0955 8.0892
# 4 3.5507 19.6134 12.4661 32.2180 -5.8295 8.0738
# 5 -7.1506 -4.5352 1.0955 -5.8295 33.7661 1.1993
# 6 16.2859 6.0782 8.0892 8.0738 1.1993 45.1951
#
#
#
# Elastic Compliance Matrix: (Units=1/GPa)
#
#
# Indices 1 2 3 4 5 6 
#
# 1 0.020252 -0.001901 0.016005 -0.004404 0.003081 -0.009202
# 2 -0.001901 0.010857 -0.003287 -0.005275 0.000225 0.000750
# 3 0.016005 -0.003287 0.061181 -0.020689 -0.002164 -0.012522
# 4 -0.004404 -0.005275 -0.020689 0.044503 0.006789 -0.002131
# 5 0.003081 0.000225 -0.002164 0.006789 0.031640 -0.002805
# 6 -0.009202 0.000750 -0.012522 -0.002131 -0.002805 0.028038
#
#
# Mechanical properties :
#
#
# Convention : Reuss Voigt Hill
#
# Bulk Modulus (GPa) = 8.77791 23.96488 16.37139
# Shear Modulus (GPa) = 23.49500 35.33412 29.41456
#
# Velocity S-wave (km/s) = 3.30640 4.05475 3.69955
# Velocity P-wave (km/s) = 4.31981 5.75085 5.08591
#
# Compressibility (1/GPa) = 0.11392230
#
# Stress axis : x y z
#
# Youngs Moduli (GPa) = 49.37847 92.10742 16.34497
#
# Poissons Ratio (x) = 0.17513 -0.26160
# Poissons Ratio (y) = 0.09389 0.05373
# Poissons Ratio (z) = -0.79029 0.30276
#
# Static dielectric constant tensor:
#      x y z
#    x 1.795610 -0.010760 0.024720 
#    y -0.010760 1.840950 -0.010680 
#    z 0.024720 -0.010680 1.818950 
# 
# From -- ./inp_files/209489.got.cif
#   From: 2010.05.17/outbox.cif.g08.bks.cpg/sg2_105_cif.got.tgz:209489.got - 2010.06.03 11:33:40.
