data_PCOD9109598
_publ_section_title
;
Structure prediction by ZEFSAII (Michael W. Deem and Ramdas Pophale) SiO2 
 PCOD9109598
Probable space group: P -1
;
_chemical_formula_sum "Si O2"
_cell_formula_units_Z 16
_cell_length_a 11.812074
_cell_length_b 8.083953
_cell_length_c 9.713396
_cell_angle_alpha 72.888746
_cell_angle_beta 127.776460
_cell_angle_gamma 89.637442
_cell_volume 678.958626
_symmetry_space_group_name_H-M "P -1"
_symmetry_group_IT_number 2
_symmetry_cell_setting 'triclinic'
loop_
_space_group_symop_operation_xyz
x,y,z
-x,-y,-z
loop_
_atom_site_type_symbol
_atom_site_label
_atom_site_fract_x
_atom_site_fract_y
_atom_site_fract_z
Si Si1 0.833595 0.682117 0.459253
Si Si2 0.282881 0.827641 0.041909
Si Si3 0.166965 0.257295 0.882118
Si Si4 0.288968 0.655922 0.548464
Si Si5 0.900952 0.197666 0.853621
Si Si6 0.581871 0.737437 0.733483
Si Si7 0.425615 0.143028 0.607730
Si Si8 0.112296 0.804109 0.652591
O O1 0.839445 0.686310 0.295949
O O2 0.761740 0.520913 0.483837
O O3 0.715844 0.845781 0.402908
O O4 0.997263 0.683587 0.629868
O O5 0.182075 0.733190 0.085068
O O6 0.450148 0.788580 0.230029
O O7 0.236556 0.798715 0.860359
O O8 0.224004 0.041385 0.969129
O O9 0.011587 0.293927 0.836364
O O10 0.280500 0.324078 0.047407
O O11 0.232930 0.800207 0.351033
O O12 0.463007 0.623189 0.697420
O O13 0.197681 0.736064 0.594048
O O14 0.000000 0.000000 0.000000
O O15 0.616217 0.750891 0.593619
O O16 0.498670 0.938742 0.669785
O O17 0.000000 0.000000 0.500000
#
# Coordination Sequence:
#
# PCOD9109598 Si02
#       8
#     2   2   2   2   2   2   2   2
#     4  12  26  42  63  98 139 169 209 269 335 385
#     4  10  21  40  67  96 123 166 225 274 309 374
#     4  10  22  39  65  99 129 167 213 272 317 384
#     4  12  25  44  65  94 137 172 209 271 329 390
#     4  10  20  41  66  91 126 165 217 268 315 372
#     4  10  23  42  69  94 124 176 224 264 315 378
#     4  10  23  42  66  97 128 167 226 271 311 384
#     4  12  23  42  68  97 124 173 220 268 320 383
#
# _framework density 23.565501999999999
#
# number of rings (size 3 to 8) (size 9 to 14) (size 15 to 20)
#    0.000    1.250    3.750    1.875    5.250    2.000 
#    0.000    0.625    0.000    0.000    0.000    0.000 
#    0.000    0.000    0.000    0.000    0.000    0.000 
#
# Total GULP energy -89478.877001 kJ/mol
# GULP energy per Si atom -5592.429813 kJ/mol
# Density = 2.351187 g / cm^3
# Si number density = 23.565502 Si / 1000 Ang^3
#
#
#
# Elastic Constant Matrix: (Units=GPa)
#
#
# Indices 1 2 3 4 5 6 
#
# 1 79.2072 11.6903 12.4506 -0.6636 -1.5840 8.3344
# 2 11.6903 63.3395 19.3378 12.4280 0.9691 10.3104
# 3 12.4506 19.3378 119.1351 24.2461 7.2194 4.2865
# 4 -0.6636 12.4280 24.2461 22.1740 2.3255 2.2034
# 5 -1.5840 0.9691 7.2194 2.3255 32.1286 15.0597
# 6 8.3344 10.3104 4.2865 2.2034 15.0597 28.9999
#
#
#
# Elastic Compliance Matrix: (Units=1/GPa)
#
#
# Indices 1 2 3 4 5 6 
#
# 1 0.013830 -0.001947 -0.001909 0.003747 0.003222 -0.004958
# 2 -0.001947 0.019470 -0.000968 -0.009564 0.003702 -0.007415
# 3 -0.001909 -0.000968 0.011221 -0.011669 -0.002377 0.001355
# 4 0.003747 -0.009564 -0.011669 0.063487 -0.001502 0.000004
# 5 0.003222 0.003702 -0.002377 -0.001502 0.043152 -0.024186
# 6 -0.004958 -0.007415 0.001355 0.000004 -0.024186 0.050903
#
#
# Mechanical properties :
#
#
# Convention : Reuss Voigt Hill
#
# Bulk Modulus (GPa) = 28.67589 38.73770 33.70680
# Shear Modulus (GPa) = 22.38793 31.20736 26.79764
#
# Velocity S-wave (km/s) = 3.08560 3.64302 3.37583
# Velocity P-wave (km/s) = 4.98894 5.84546 5.43410
#
# Compressibility (1/GPa) = 0.03487250
#
# Stress axis : x y z
#
# Youngs Moduli (GPa) = 72.30599 51.36163 89.12201
#
# Poissons Ratio (x) = 0.10001 0.17011
# Poissons Ratio (y) = 0.14080 0.08627
# Poissons Ratio (z) = 0.13802 0.04972
#
# Static dielectric constant tensor:
#      x y z
#    x 1.837590 0.048640 -0.025050 
#    y 0.048640 1.963910 -0.044970 
#    z -0.025050 -0.044970 1.877120 
# 
# From -- ./inp_files/243703.got.cif
#   From: 2010.05.17/outbox.cif.g08.bks.cpg/sg2_122_cif.got.tgz:243703.got - 2010.06.03 11:33:40.
