data_PCOD9109762
_publ_section_title
;
Structure prediction by ZEFSAII (Michael W. Deem and Ramdas Pophale) SiO2 
 PCOD9109762
Probable space group: P -1
;
_chemical_formula_sum "Si O2"
_cell_formula_units_Z 14
_cell_length_a 13.487292
_cell_length_b 6.830572
_cell_length_c 9.369853
_cell_angle_alpha 113.518517
_cell_angle_beta 132.665773
_cell_angle_gamma 78.219716
_cell_volume 579.186870
_symmetry_space_group_name_H-M "P -1"
_symmetry_group_IT_number 2
_symmetry_cell_setting 'triclinic'
loop_
_space_group_symop_operation_xyz
x,y,z
-x,-y,-z
loop_
_atom_site_type_symbol
_atom_site_label
_atom_site_fract_x
_atom_site_fract_y
_atom_site_fract_z
Si Si1 0.087023 0.331484 0.615343
Si Si2 0.915302 0.443123 0.042097
Si Si3 0.004904 0.946058 0.793417
Si Si4 0.312130 0.034963 0.123014
Si Si5 0.279329 0.893447 0.351544
Si Si6 0.549382 0.164977 0.223376
Si Si7 0.355379 0.589016 0.865136
O O1 0.077486 0.363827 0.782654
O O2 0.029046 0.116691 0.420641
O O3 0.240459 0.403294 0.739334
O O4 0.000000 0.500000 0.500000
O O5 0.976114 0.259560 0.145812
O O6 0.764372 0.347968 0.819255
O O7 0.000000 0.500000 0.000000
O O8 0.869879 0.037487 0.742108
O O9 0.154270 0.068287 0.979634
O O10 0.347014 0.021418 0.320322
O O11 0.409530 0.204341 0.177516
O O12 0.329047 0.800601 0.996033
O O13 0.365003 0.916061 0.585582
O O14 0.642746 0.344416 0.280490
O O15 0.500000 0.000000 0.000000
O O16 0.500000 0.500000 0.000000
#
# Coordination Sequence:
#
# PCOD9109762 Si02
#       7
#     2   2   2   2   2   2   2
#     4  10  20  41  67  90 129 165 206 268 319 363
#     4  10  21  38  64  97 131 161 206 266 323 368
#     4  10  22  40  70  97 128 168 208 260 326 381
#     4  10  20  45  63  95 132 163 209 268 317 373
#     4  11  22  43  68  95 128 170 212 266 323 373
#     4  10  25  41  63  91 126 170 216 261 307 387
#     4  11  23  43  64  87 129 170 216 255 319 377
#
# _framework density 24.171818999999999
#
# number of rings (size 3 to 8) (size 9 to 14) (size 15 to 20)
#    0.000    1.714    4.286    2.143    8.000    0.000 
#    5.143    4.286    0.000    0.000    0.000    0.000 
#    0.000    0.000    0.000    0.000    0.000    0.000 
#
# Total GULP energy -78192.675742 kJ/mol
# GULP energy per Si atom -5585.191124 kJ/mol
# Density = 2.411680 g / cm^3
# Si number density = 24.171819 Si / 1000 Ang^3
#
#
#
# Elastic Constant Matrix: (Units=GPa)
#
#
# Indices 1 2 3 4 5 6 
#
# 1 178.1030 19.0317 68.7460 -29.5160 -22.1087 16.8558
# 2 19.0317 46.3786 24.0072 -17.4017 -11.7389 2.1122
# 3 68.7460 24.0072 163.8358 -13.9447 -27.9928 1.4054
# 4 -29.5160 -17.4017 -13.9447 29.0277 -0.7610 -4.9792
# 5 -22.1087 -11.7389 -27.9928 -0.7610 58.7850 -15.7386
# 6 16.8558 2.1122 1.4054 -4.9792 -15.7386 36.0452
#
#
#
# Elastic Compliance Matrix: (Units=1/GPa)
#
#
# Indices 1 2 3 4 5 6 
#
# 1 0.008141 0.001361 -0.002686 0.007494 0.001604 -0.002046
# 2 0.001361 0.031158 -0.002334 0.019684 0.006761 0.003300
# 3 -0.002686 -0.002334 0.008092 0.000254 0.003032 0.002436
# 4 0.007494 0.019684 0.000254 0.055467 0.009501 0.007142
# 5 0.001604 0.006761 0.003032 0.009501 0.023264 0.010206
# 6 -0.002046 0.003300 0.002436 0.007142 0.010206 0.033854
#
#
# Mechanical properties :
#
#
# Convention : Reuss Voigt Hill
#
# Bulk Modulus (GPa) = 24.95543 67.98744 46.47144
# Shear Modulus (GPa) = 27.67749 43.20709 35.44229
#
# Velocity S-wave (km/s) = 3.38750 4.23247 3.83334
# Velocity P-wave (km/s) = 5.06427 7.21615 6.23377
#
# Compressibility (1/GPa) = 0.04007143
#
# Stress axis : x y z
#
# Youngs Moduli (GPa) = 122.83886 32.09405 123.58530
#
# Poissons Ratio (x) = -0.04367 0.33193
# Poissons Ratio (y) = -0.16714 0.28850
# Poissons Ratio (z) = 0.32993 0.07492
#
# Static dielectric constant tensor:
#      x y z
#    x 1.918090 -0.019770 -0.028800 
#    y -0.019770 2.087950 0.071850 
#    z -0.028800 0.071850 1.932740 
# 
# From -- ./inp_files/240765.got.cif
#   From: 2010.05.17/outbox.cif.g08.bks.cpg/sg2_121_cif.got.tgz:240765.got - 2010.06.03 11:33:40.
