data_PCOD9109665
_publ_section_title
;
Structure prediction by ZEFSAII (Michael W. Deem and Ramdas Pophale) SiO2 
 PCOD9109665
Probable space group: P -1
;
_chemical_formula_sum "Si O2"
_cell_formula_units_Z 8
_cell_length_a 8.044571
_cell_length_b 17.704591
_cell_length_c 17.704569
_cell_angle_alpha 164.112696
_cell_angle_beta 24.666503
_cell_angle_gamma 155.333443
_cell_volume 274.456928
_symmetry_space_group_name_H-M "P -1"
_symmetry_group_IT_number 2
_symmetry_cell_setting 'triclinic'
loop_
_space_group_symop_operation_xyz
x,y,z
-x,-y,-z
loop_
_atom_site_type_symbol
_atom_site_label
_atom_site_fract_x
_atom_site_fract_y
_atom_site_fract_z
Si Si1 0.441265 0.686295 0.917003
Si Si2 0.635904 0.186293 0.417002
Si Si3 0.864092 0.917002 0.686295
Si Si4 0.058737 0.417003 0.186295
O O1 0.358374 0.347463 0.638873
O O2 0.894702 0.750006 0.750005
O O3 0.475970 0.847460 0.138878
O O4 0.193077 0.860768 0.139229
O O5 0.693074 0.360770 0.639233
O O6 0.024025 0.638878 0.347462
O O7 0.394698 0.749996 0.749996
O O8 0.141625 0.138873 0.847463
#
# Coordination Sequence:
#
# PCOD9109665 Si02
#       4
#     2   2   2   2
#     4  10  17  23  29  35  41  47  53  59  65  71
#     4  10  17  23  29  35  41  47  53  59  65  71
#     4  10  17  23  29  35  41  47  53  59  65  71
#     4  10  17  23  29  35  41  47  53  59  65  71
#
# _framework density 29.148474
#
# number of rings (size 3 to 8) (size 9 to 14) (size 15 to 20)
#    0.000    2.000    0.000   12.000    0.000    0.000 
#    0.000    0.000    0.000    0.000    0.000    0.000 
#    0.000    0.000    0.000    0.000    0.000    0.000 
#
# Total GULP energy -44633.934509 kJ/mol
# GULP energy per Si atom -5579.241814 kJ/mol
# Density = 2.908213 g / cm^3
# Si number density = 29.148474 Si / 1000 Ang^3
#
#
#
# Elastic Constant Matrix: (Units=GPa)
#
#
# Indices 1 2 3 4 5 6 
#
# 1 -101.6187 221.7366 59.3704 -45.9756 -35.5809 135.0675
# 2 221.7366 -83.2738 19.8137 15.9717 54.1492 -127.5386
# 3 59.3704 19.8137 272.6768 84.8253 -26.3340 21.9439
# 4 -45.9756 15.9717 84.8253 -3.8371 22.0234 54.1391
# 5 -35.5809 54.1492 -26.3340 22.0234 22.0280 5.9674
# 6 135.0675 -127.5386 21.9439 54.1391 5.9674 0.9255
#
#
#
# Elastic Compliance Matrix: (Units=1/GPa)
#
#
# Indices 1 2 3 4 5 6 
#
# 1 0.004325 0.003376 -0.000898 -0.002420 -0.001154 0.004382
# 2 0.003376 0.002325 0.000927 -0.003862 0.005153 -0.001641
# 3 -0.000898 0.000927 0.002434 0.003923 -0.003938 -0.002969
# 4 -0.002420 -0.003862 0.003923 -0.006431 0.015438 0.004672
# 5 -0.001154 0.005153 -0.003938 0.015438 0.010601 0.000451
# 6 0.004382 -0.001641 -0.002969 0.004672 0.000451 0.009006
#
#
# Mechanical properties :
#
#
# Convention : Reuss Voigt Hill
#
# Bulk Modulus (GPa) = 62.92048 76.62507 69.77278
# Shear Modulus (GPa) = 240.99762 -10.38580 115.30591
#
# Velocity S-wave (km/s) = 9.10268 -1.88966 6.29635
# Velocity P-wave (km/s) = 11.49398 4.64584 8.76628
#
# Compressibility (1/GPa) = 0.01589308
#
# Stress axis : x y z
#
# Youngs Moduli (GPa) = 231.22155 430.16773 410.88331
#
# Poissons Ratio (x) = -1.45226 0.36906
# Poissons Ratio (y) = -0.78061 -0.38091
# Poissons Ratio (z) = 0.20768 -0.39879
#
# Static dielectric constant tensor:
#      x y z
#    x 2.493250 0.102010 -0.026880 
#    y 0.102010 2.348350 -0.083890 
#    z -0.026880 -0.083890 2.052160 
# 
# From -- ./inp_files/622770.got.cif
#   From: 2010.05.17/outbox.cif.g08.bks.cpg/sg2_312_cif.got.tgz:622770.got - 2010.06.03 11:33:40.
