data_PCOD9109141
_publ_section_title
;
Structure prediction by ZEFSAII (Michael W. Deem and Ramdas Pophale) SiO2 
 PCOD9109141
Probable space group: P -1
;
_chemical_formula_sum "Si O2"
_cell_formula_units_Z 15
_cell_length_a 14.060117
_cell_length_b 13.276983
_cell_length_c 8.221188
_cell_angle_alpha 100.804132
_cell_angle_beta 122.421828
_cell_angle_gamma 34.691086
_cell_volume 626.435893
_symmetry_space_group_name_H-M "P -1"
_symmetry_group_IT_number 2
_symmetry_cell_setting 'triclinic'
loop_
_space_group_symop_operation_xyz
x,y,z
-x,-y,-z
loop_
_atom_site_type_symbol
_atom_site_label
_atom_site_fract_x
_atom_site_fract_y
_atom_site_fract_z
Si Si1 0.712833 0.031420 0.457608
Si Si2 0.012211 0.619688 0.162312
Si Si3 0.611914 0.011809 0.683343
Si Si4 0.531266 0.708994 0.125441
Si Si5 0.016240 0.149241 0.641728
Si Si6 0.592614 0.357381 0.396749
Si Si7 0.272826 0.331088 0.001197
Si Si8 0.500000 0.500000 0.000000
O O1 0.741933 0.966887 0.643936
O O2 0.941688 0.866847 0.515347
O O3 0.596315 0.235733 0.411589
O O4 0.538504 0.094862 0.217208
O O5 0.909060 0.614609 0.184360
O O6 0.788386 0.830376 0.920495
O O7 0.182326 0.443540 0.127377
O O8 0.088402 0.663552 0.328180
O O9 0.453825 0.221109 0.691389
O O10 0.500000 0.000000 0.500000
O O11 0.268776 0.928849 0.881070
O O12 0.701730 0.612944 0.110555
O O13 0.542803 0.581220 0.143500
O O14 0.146902 0.814763 0.454286
O O15 0.500000 0.500000 0.500000
O O16 0.468672 0.474452 0.147387
#
# Coordination Sequence:
#
# PCOD9109141 Si02
#       8
#     2   2   2   2   2   2   2   1
#     4  11  22  41  64  91 129 173 213 279 331 389
#     4  10  22  39  65  95 128 172 221 273 335 402
#     4  11  23  41  65  98 132 172 230 273 332 405
#     4  10  24  42  67  94 133 179 220 276 337 396
#     4  10  23  42  66  95 127 177 221 264 344 397
#     4  12  25  45  69  96 137 178 223 282 337 398
#     4  10  20  41  63  89 129 171 215 273 335 389
#     4  12  24  44  70 100 132 176 228 276 330 408
#
# _framework density 23.944987000000001
#
# number of rings (size 3 to 8) (size 9 to 14) (size 15 to 20)
#    0.000    1.333    4.000    2.000    1.867    2.667 
#    2.400    2.667    0.000    0.000    0.000    0.000 
#    0.000    0.000    0.000    0.000    0.000    0.000 
#
# Total GULP energy -83634.598239 kJ/mol
# GULP energy per Si atom -5575.639883 kJ/mol
# Density = 2.389049 g / cm^3
# Si number density = 23.944987 Si / 1000 Ang^3
#
#
#
# Elastic Constant Matrix: (Units=GPa)
#
#
# Indices 1 2 3 4 5 6 
#
# 1 167.2505 33.7560 15.3188 7.0810 2.1700 15.5386
# 2 33.7560 73.4015 22.2336 18.0621 -0.0966 7.0986
# 3 15.3188 22.2336 57.0409 25.6497 3.2979 8.8088
# 4 7.0810 18.0621 25.6497 34.0293 -1.2930 1.5318
# 5 2.1700 -0.0966 3.2979 -1.2930 32.0915 0.3039
# 6 15.5386 7.0986 8.8088 1.5318 0.3039 40.5008
#
#
#
# Elastic Compliance Matrix: (Units=1/GPa)
#
#
# Indices 1 2 3 4 5 6 
#
# 1 0.006784 -0.002898 -0.000694 0.000725 -0.000348 -0.001969
# 2 -0.002898 0.017548 -0.003065 -0.006341 0.000318 -0.001060
# 3 -0.000694 -0.003065 0.028770 -0.019843 -0.003674 -0.004676
# 4 0.000725 -0.006341 -0.019843 0.047555 0.003856 0.003321
# 5 -0.000348 0.000318 -0.003674 0.003856 0.031714 0.000493
# 6 -0.001969 -0.001060 -0.004676 0.003321 0.000493 0.026520
#
#
# Mechanical properties :
#
#
# Convention : Reuss Voigt Hill
#
# Bulk Modulus (GPa) = 25.13360 48.92330 37.02845
# Shear Modulus (GPa) = 26.95882 36.41664 31.68773
#
# Velocity S-wave (km/s) = 3.35903 3.90403 3.64174
# Velocity P-wave (km/s) = 5.05602 6.38732 5.76026
#
# Compressibility (1/GPa) = 0.03978737
#
# Stress axis : x y z
#
# Youngs Moduli (GPa) = 147.39904 56.98591 34.75864
#
# Poissons Ratio (x) = 0.16516 0.02413
# Poissons Ratio (y) = 0.42719 0.10653
# Poissons Ratio (z) = 0.10234 0.17466
#
# Static dielectric constant tensor:
#      x y z
#    x 1.858840 -0.010470 0.034140 
#    y -0.010470 1.986320 -0.019120 
#    z 0.034140 -0.019120 1.936610 
# 
# From -- ./inp_files/301190.got.cif
#   From: 2010.05.17/outbox.cif.g08.bks.cpg/sg2_151_cif.got.tgz:301190.got - 2010.06.03 11:33:40.
