data_PCOD9109927
_publ_section_title
;
Structure prediction by ZEFSAII (Michael W. Deem and Ramdas Pophale) SiO2 
 PCOD9109927
Probable space group: P -1
;
_chemical_formula_sum "Si O2"
_cell_formula_units_Z 16
_cell_length_a 7.849720
_cell_length_b 5.683650
_cell_length_c 22.224359
_cell_angle_alpha 79.031519
_cell_angle_beta 129.469531
_cell_angle_gamma 116.810208
_cell_volume 676.427303
_symmetry_space_group_name_H-M "P -1"
_symmetry_group_IT_number 2
_symmetry_cell_setting 'triclinic'
loop_
_space_group_symop_operation_xyz
x,y,z
-x,-y,-z
loop_
_atom_site_type_symbol
_atom_site_label
_atom_site_fract_x
_atom_site_fract_y
_atom_site_fract_z
Si Si1 0.997472 0.382497 0.872163
Si Si2 0.201288 0.302275 0.519020
Si Si3 0.518171 0.489755 0.313478
Si Si4 0.646329 0.089478 0.091585
Si Si5 0.762218 0.152963 0.718047
Si Si6 0.664254 0.259172 0.564175
Si Si7 0.541155 0.333517 0.832591
Si Si8 0.746835 0.740388 0.959522
O O1 0.076123 0.694993 0.864924
O O2 0.979488 0.246252 0.810909
O O3 0.733550 0.236482 0.851434
O O4 0.204584 0.393230 0.963725
O O5 0.269701 0.438315 0.592950
O O6 0.449772 0.305146 0.547503
O O7 0.166141 0.495857 0.452386
O O8 0.000000 0.000000 0.500000
O O9 0.371075 0.660182 0.297043
O O10 0.584111 0.595634 0.255034
O O11 0.385006 0.167961 0.296095
O O12 0.495648 0.224407 0.085728
O O13 0.623752 0.863504 0.144181
O O14 0.500000 0.000000 0.000000
O O15 0.810644 0.212288 0.655079
O O16 0.500000 0.000000 0.500000
O O17 0.716350 0.585085 0.898820
O O18 0.000000 0.000000 0.000000
#
# Coordination Sequence:
#
# PCOD9109927 Si02
#       8
#     2   2   2   2   2   2   2   2
#     4  11  23  42  64  92 124 168 219 269 325 391
#     4  10  22  40  68 100 134 176 222 270 330 400
#     4  10  22  42  66  97 135 172 218 273 329 393
#     4  12  25  41  61  93 125 165 222 272 325 389
#     4  10  22  42  67  97 130 177 218 270 333 392
#     4  10  20  41  68  92 137 175 218 272 331 394
#     4  11  24  42  64  87 128 169 214 269 330 384
#     4  12  22  40  65  87 123 170 211 267 326 384
#
# _framework density 23.653687000000001
#
# number of rings (size 3 to 8) (size 9 to 14) (size 15 to 20)
#    0.000    1.250    3.750    2.250    1.750    2.500 
#    0.000    1.250    0.000    0.000    0.000    0.000 
#    0.000    0.000    0.000    0.000    0.000    0.000 
#
# Total GULP energy -89275.534344 kJ/mol
# GULP energy per Si atom -5579.720896 kJ/mol
# Density = 2.359985 g / cm^3
# Si number density = 23.653687 Si / 1000 Ang^3
#
#
#
# Elastic Constant Matrix: (Units=GPa)
#
#
# Indices 1 2 3 4 5 6 
#
# 1 81.9690 37.5916 43.1768 -15.7176 -0.6017 7.5334
# 2 37.5916 162.7453 61.6364 -2.8375 -32.6492 30.6758
# 3 43.1768 61.6364 177.0750 -1.1014 -74.9541 12.0133
# 4 -15.7176 -2.8375 -1.1014 43.9213 6.2395 -8.8125
# 5 -0.6017 -32.6492 -74.9541 6.2395 22.7381 -7.1434
# 6 7.5334 30.6758 12.0133 -8.8125 -7.1434 41.3826
#
#
#
# Elastic Compliance Matrix: (Units=1/GPa)
#
#
# Indices 1 2 3 4 5 6 
#
# 1 0.009510 -0.000697 0.006196 0.000837 0.019618 0.000551
# 2 -0.000697 0.007926 -0.004751 -0.000096 -0.005974 -0.005421
# 3 0.006196 -0.004751 -0.005992 0.005828 -0.027828 0.000570
# 4 0.000837 -0.000096 0.005828 0.022219 0.014726 0.005500
# 5 0.019618 -0.005974 -0.027828 0.014726 -0.059276 0.001839
# 6 0.000551 -0.005421 0.000570 0.005500 0.001839 0.029406
#
#
# Mechanical properties :
#
#
# Convention : Reuss Voigt Hill
#
# Bulk Modulus (GPa) = 77.27439 78.51100 77.89269
# Shear Modulus (GPa) = 756.38897 40.23404 398.31151
#
# Velocity S-wave (km/s) = 17.90169 4.12875 12.99071
# Velocity P-wave (km/s) = 21.44840 7.48282 16.06279
#
# Compressibility (1/GPa) = 0.01294090
#
# Stress axis : x y z
#
# Youngs Moduli (GPa) = 105.15630 126.15979 -166.89692
#
# Poissons Ratio (x) = 0.08790 1.03401
# Poissons Ratio (y) = 0.07327 -0.79285
# Poissons Ratio (z) = -0.65150 0.59933
#
# Static dielectric constant tensor:
#      x y z
#    x 1.923750 -0.092630 0.008660 
#    y -0.092630 2.023400 -0.117810 
#    z 0.008660 -0.117810 1.924460 
# 
# From -- ./inp_files/123015.got.cif
#   From: 2010.05.17/outbox.cif.g08.bks.cpg/sg2_62_cif.got.tgz:123015.got - 2010.06.03 11:33:40.
