data_PCOD9109381
_publ_section_title
;
Structure prediction by ZEFSAII (Michael W. Deem and Ramdas Pophale) SiO2 
 PCOD9109381
Probable space group: P -1
;
_chemical_formula_sum "Si O2"
_cell_formula_units_Z 16
_cell_length_a 17.462370
_cell_length_b 14.093634
_cell_length_c 6.317542
_cell_angle_alpha 69.009207
_cell_angle_beta 97.058834
_cell_angle_gamma 147.883822
_cell_volume 718.892294
_symmetry_space_group_name_H-M "P -1"
_symmetry_group_IT_number 2
_symmetry_cell_setting 'triclinic'
loop_
_space_group_symop_operation_xyz
x,y,z
-x,-y,-z
loop_
_atom_site_type_symbol
_atom_site_label
_atom_site_fract_x
_atom_site_fract_y
_atom_site_fract_z
Si Si1 0.448497 0.296345 0.703863
Si Si2 0.696936 0.279152 0.764878
Si Si3 0.995128 0.875261 0.413031
Si Si4 0.759628 0.770924 0.464482
Si Si5 0.661672 0.019588 0.813305
Si Si6 0.813798 0.537549 0.971307
Si Si7 0.454865 0.735625 0.593531
Si Si8 0.998379 0.316889 0.699029
O O1 0.602096 0.529207 0.646687
O O2 0.302054 0.203566 0.709500
O O3 0.485968 0.295793 0.483176
O O4 0.413283 0.160731 0.946453
O O5 0.636963 0.097152 0.863048
O O6 0.718362 0.347429 0.951931
O O7 0.602242 0.250022 0.612791
O O8 0.867741 0.478554 0.557911
O O9 0.884555 0.841729 0.332982
O O10 0.896274 0.707711 0.701348
O O11 0.022060 0.819919 0.293289
O O12 0.151325 0.092446 0.402813
O O13 0.842223 0.200624 0.721207
O O14 0.587238 0.935369 0.623425
O O15 0.693467 0.453143 0.156949
O O16 0.940178 0.625583 0.087860
#
# Coordination Sequence:
#
# PCOD9109381 Si02
#       8
#     2   2   2   2   2   2   2   2
#     4  11  24  41  59  89 127 159 201 254 303 357
#     4  10  23  41  64  91 124 162 203 248 299 363
#     4  10  20  41  65  88 121 159 203 252 302 358
#     4  10  21  41  63  85 123 162 199 257 305 348
#     4  12  24  40  63  93 125 163 202 247 307 363
#     4  10  21  41  65  91 121 163 204 245 303 365
#     4  11  23  41  63  90 126 162 202 250 300 363
#     4  10  22  40  64  95 124 156 201 253 302 362
#
# _framework density 22.256464000000001
#
# number of rings (size 3 to 8) (size 9 to 14) (size 15 to 20)
#    0.000    1.500    0.000    6.000    0.000    5.500 
#    0.000   25.000    0.000    0.000    0.000    0.000 
#    0.000    0.000    0.000    0.000    0.000    0.000 
#
# Total GULP energy -89582.871118 kJ/mol
# GULP energy per Si atom -5598.929445 kJ/mol
# Density = 2.220581 g / cm^3
# Si number density = 22.256464 Si / 1000 Ang^3
#
#
#
# Elastic Constant Matrix: (Units=GPa)
#
#
# Indices 1 2 3 4 5 6 
#
# 1 103.3459 48.6732 20.9342 2.2255 3.1161 -0.7050
# 2 48.6732 137.8813 24.2845 14.6656 0.6127 -3.6305
# 3 20.9342 24.2845 58.1112 4.0706 -9.2311 -4.3196
# 4 2.2255 14.6656 4.0706 29.0427 -5.3644 1.7273
# 5 3.1161 0.6127 -9.2311 -5.3644 13.6152 -5.0238
# 6 -0.7050 -3.6305 -4.3196 1.7273 -5.0238 49.1414
#
#
#
# Elastic Compliance Matrix: (Units=1/GPa)
#
#
# Indices 1 2 3 4 5 6 
#
# 1 0.012370 -0.003745 -0.003870 0.000540 -0.005448 -0.001015
# 2 -0.003745 0.009604 -0.002835 -0.004788 -0.003296 0.000238
# 3 -0.003870 -0.002835 0.022875 0.001731 0.018525 0.003579
# 4 0.000540 -0.004788 0.001731 0.039690 0.016957 0.000145
# 5 -0.005448 -0.003296 0.018525 0.016957 0.098044 0.010734
# 6 -0.001015 0.000238 0.003579 0.000145 0.010734 0.021759
#
#
# Mechanical properties :
#
#
# Convention : Reuss Voigt Hill
#
# Bulk Modulus (GPa) = 41.75533 54.12469 47.94001
# Shear Modulus (GPa) = 21.43863 32.05627 26.74745
#
# Velocity S-wave (km/s) = 3.10700 3.79926 3.47044
# Velocity P-wave (km/s) = 5.62788 6.60434 6.13556
#
# Compressibility (1/GPa) = 0.02394904
#
# Stress axis : x y z
#
# Youngs Moduli (GPa) = 80.84314 104.12194 43.71651
#
# Poissons Ratio (x) = 0.38993 0.16918
# Poissons Ratio (y) = 0.30275 0.12393
# Poissons Ratio (z) = 0.31285 0.29518
#
# Static dielectric constant tensor:
#      x y z
#    x 1.801600 -0.003490 -0.003740 
#    y -0.003490 1.817050 -0.027780 
#    z -0.003740 -0.027780 1.804330 
# 
# From -- ./inp_files/110748.got.cif
#   From: 2010.05.17/outbox.cif.g08.bks.cpg/sg2_56_cif.got.tgz:110748.got - 2010.06.03 11:33:40.
