data_PCOD9109039
_publ_section_title
;
Structure prediction by ZEFSAII (Michael W. Deem and Ramdas Pophale) SiO2 
 PCOD9109039
Probable space group: P -1
;
_chemical_formula_sum "Si O2"
_cell_formula_units_Z 14
_cell_length_a 19.715848
_cell_length_b 6.972341
_cell_length_c 6.985395
_cell_angle_alpha 117.208322
_cell_angle_beta 128.975801
_cell_angle_gamma 42.202484
_cell_volume 501.400842
_symmetry_space_group_name_H-M "P -1"
_symmetry_group_IT_number 2
_symmetry_cell_setting 'triclinic'
loop_
_space_group_symop_operation_xyz
x,y,z
-x,-y,-z
loop_
_atom_site_type_symbol
_atom_site_label
_atom_site_fract_x
_atom_site_fract_y
_atom_site_fract_z
Si Si1 0.753078 0.428771 0.806425
Si Si2 0.000000 0.500000 0.500000
Si Si3 0.500000 0.000000 0.000000
Si Si4 0.783136 0.632632 0.346367
Si Si5 0.057945 0.874738 0.294424
Si Si6 0.404877 0.057535 0.531860
Si Si7 0.635385 0.339603 0.835810
Si Si8 0.886414 0.877397 0.208262
O O1 0.877120 0.205404 0.823099
O O2 0.676828 0.674058 0.625040
O O3 0.691416 0.311612 0.715943
O O4 0.765195 0.535089 0.074991
O O5 0.868425 0.685078 0.468201
O O6 0.931990 0.568942 0.191866
O O7 0.559360 0.653966 0.926093
O O8 0.512496 0.007054 0.785276
O O9 0.850669 0.374979 0.503740
O O10 0.656814 0.868035 0.328021
O O11 0.947513 0.907825 0.161661
O O12 0.044253 0.141497 0.482436
O O13 0.424791 0.791376 0.361581
O O14 0.750759 0.114744 0.066764
#
# Coordination Sequence:
#
# PCOD9109039 Si02
#       8
#     2   1   1   2   2   2   2   2
#     4  11  22  44  74 106 145 193 238 295 364 438
#     4  10  22  34  70 100 148 194 226 278 362 424
#     4  12  26  56  76 100 150 180 246 336 348 430
#     4  10  20  43  62 104 148 183 234 297 339 436
#     4   9  20  37  65  98 151 191 230 280 352 426
#     4  11  26  47  73 106 144 182 246 309 367 430
#     4  12  25  46  77 106 141 195 246 300 372 423
#     4  10  20  41  62 107 149 190 238 291 346 431
#
# _framework density 27.921773999999999
#
# number of rings (size 3 to 8) (size 9 to 14) (size 15 to 20)
#    0.000    1.429    2.857    2.143    2.000    2.286 
#    2.571    5.714    0.000    0.000    0.000    0.000 
#    0.000    0.000    0.000    0.000    0.000    0.000 
#
# Total GULP energy -78018.370736 kJ/mol
# GULP energy per Si atom -5572.740767 kJ/mol
# Density = 2.785822 g / cm^3
# Si number density = 27.921774 Si / 1000 Ang^3
#
#
#
# Elastic Constant Matrix: (Units=GPa)
#
#
# Indices 1 2 3 4 5 6 
#
# 1 159.2389 41.4972 32.7741 11.3916 -30.1166 -11.0881
# 2 41.4972 151.0297 60.5621 -23.9421 -13.7767 -11.8455
# 3 32.7741 60.5621 106.2723 -16.8360 -19.0228 1.8473
# 4 11.3916 -23.9421 -16.8360 61.3262 5.8048 -4.4311
# 5 -30.1166 -13.7767 -19.0228 5.8048 40.4005 -0.4526
# 6 -11.0881 -11.8455 1.8473 -4.4311 -0.4526 60.0443
#
#
#
# Elastic Compliance Matrix: (Units=1/GPa)
#
#
# Indices 1 2 3 4 5 6 
#
# 1 0.008277 -0.001730 -0.001065 -0.002952 0.005514 0.001044
# 2 -0.001730 0.009483 -0.004540 0.002972 -0.000599 0.001906
# 3 -0.001065 -0.004540 0.013260 0.001622 0.003653 -0.001353
# 4 -0.002952 0.002972 0.001622 0.018853 -0.003117 0.001359
# 5 0.005514 -0.000599 0.003653 -0.003117 0.030835 0.000790
# 6 0.001044 0.001906 -0.001353 0.001359 0.000790 0.017371
#
#
# Mechanical properties :
#
#
# Convention : Reuss Voigt Hill
#
# Bulk Modulus (GPa) = 61.16746 76.24527 68.70636
# Shear Modulus (GPa) = 42.30121 51.13471 46.71796
#
# Velocity S-wave (km/s) = 3.89651 4.28408 4.09488
# Velocity P-wave (km/s) = 6.49600 7.19980 6.85693
#
# Compressibility (1/GPa) = 0.01634856
#
# Stress axis : x y z
#
# Youngs Moduli (GPa) = 120.82121 105.45117 75.41400
#
# Poissons Ratio (x) = 0.18243 0.08034
# Poissons Ratio (y) = 0.20902 0.34240
# Poissons Ratio (z) = 0.12872 0.47878
#
# Static dielectric constant tensor:
#      x y z
#    x 1.915550 0.305660 -0.470070 
#    y 0.305660 2.063820 0.350810 
#    z -0.470070 0.350810 1.639160 
# 
# From -- ./inp_files/123025.got.cif
#   From: 2010.05.17/outbox.cif.g08.bks.cpg/sg2_62_cif.got.tgz:123025.got - 2010.06.03 11:33:40.
