data_PCOD9109032
_publ_section_title
;
Structure prediction by ZEFSAII (Michael W. Deem and Ramdas Pophale) SiO2 
 PCOD9109032
Probable space group: P -1
;
_chemical_formula_sum "Si O2"
_cell_formula_units_Z 16
_cell_length_a 6.828659
_cell_length_b 11.494502
_cell_length_c 23.359874
_cell_angle_alpha 148.684655
_cell_angle_beta 126.078439
_cell_angle_gamma 67.051673
_cell_volume 741.723945
_symmetry_space_group_name_H-M "P -1"
_symmetry_group_IT_number 2
_symmetry_cell_setting 'triclinic'
loop_
_space_group_symop_operation_xyz
x,y,z
-x,-y,-z
loop_
_atom_site_type_symbol
_atom_site_label
_atom_site_fract_x
_atom_site_fract_y
_atom_site_fract_z
Si Si1 0.994655 0.234301 0.375180
Si Si2 0.855115 0.749462 0.817604
Si Si3 0.551259 0.723175 0.453951
Si Si4 0.772831 0.375670 0.975796
Si Si5 0.886846 0.954872 0.122762
Si Si6 0.320679 0.826206 0.997373
Si Si7 0.770465 0.804817 0.221732
Si Si8 0.849500 0.005927 0.533625
O O1 0.261003 0.204344 0.430359
O O2 0.000000 0.500000 0.500000
O O3 0.939677 0.134920 0.260481
O O4 0.791312 0.058953 0.306381
O O5 0.627661 0.529662 0.672039
O O6 0.993727 0.896213 0.849395
O O7 0.731213 0.920356 0.904078
O O8 0.072626 0.676268 0.859535
O O9 0.373131 0.887492 0.479932
O O10 0.727570 0.763208 0.444176
O O11 0.683777 0.258575 0.973652
O O12 0.523012 0.317756 0.869485
O O13 0.853836 0.646343 0.120870
O O14 0.977708 0.253277 0.936801
O O15 0.587000 0.845599 0.022564
O O16 0.959474 0.841461 0.322667
O O17 0.000000 0.000000 0.500000
#
# Coordination Sequence:
#
# PCOD9109032 Si02
#       8
#     2   2   2   2   2   2   2   2
#     4  11  24  42  67  94 140 176 217 277 329 399
#     4  10  22  38  65  91 133 173 215 271 329 399
#     4  10  23  42  62  94 130 171 217 272 332 387
#     4  10  22  41  67  95 129 173 218 284 341 388
#     4  11  23  39  66  99 128 176 230 265 337 401
#     4  10  20  41  61  96 131 166 218 279 329 386
#     4  10  22  44  65  96 138 169 219 283 337 390
#     4  10  23  43  67  94 129 173 225 271 332 397
#
# _framework density 21.571368
#
# number of rings (size 3 to 8) (size 9 to 14) (size 15 to 20)
#    0.000    1.750    1.250    1.875    3.500    4.000 
#    0.000    8.750    0.000    0.000    0.000    0.000 
#    0.000    0.000    0.000    0.000    0.000    0.000 
#
# Total GULP energy -89351.557171 kJ/mol
# GULP energy per Si atom -5584.472323 kJ/mol
# Density = 2.152227 g / cm^3
# Si number density = 21.571368 Si / 1000 Ang^3
#
#
#
# Elastic Constant Matrix: (Units=GPa)
#
#
# Indices 1 2 3 4 5 6 
#
# 1 113.7353 22.5846 19.9706 0.0240 5.7250 -12.0757
# 2 22.5846 71.5344 21.2216 -5.7449 1.3953 -14.6343
# 3 19.9706 21.2216 82.7120 -1.0965 8.7066 -8.9051
# 4 0.0240 -5.7449 -1.0965 44.8287 -8.0065 6.5340
# 5 5.7250 1.3953 8.7066 -8.0065 29.4835 0.5833
# 6 -12.0757 -14.6343 -8.9051 6.5340 0.5833 32.4069
#
#
#
# Elastic Compliance Matrix: (Units=1/GPa)
#
#
# Indices 1 2 3 4 5 6 
#
# 1 0.009828 -0.002231 -0.001362 -0.000998 -0.001721 0.002513
# 2 -0.002231 0.016895 -0.003267 0.001427 0.000875 0.005597
# 3 -0.001362 -0.003267 0.013896 -0.001108 -0.004028 0.002132
# 4 -0.000998 0.001427 -0.001108 0.024494 0.007206 -0.005100
# 5 -0.001721 0.000875 -0.004028 0.007206 0.037425 -0.003480
# 6 0.002513 0.005597 0.002132 -0.005100 -0.003480 0.035998
#
#
# Mechanical properties :
#
#
# Convention : Reuss Voigt Hill
#
# Bulk Modulus (GPa) = 37.17576 43.94835 40.56205
# Shear Modulus (GPa) = 31.01287 34.95749 32.98518
#
# Velocity S-wave (km/s) = 3.79580 4.02997 3.91464
# Velocity P-wave (km/s) = 6.04004 6.48629 6.26714
#
# Compressibility (1/GPa) = 0.02689925
#
# Stress axis : x y z
#
# Youngs Moduli (GPa) = 101.74782 59.18750 71.96359
#
# Poissons Ratio (x) = 0.13207 0.09801
# Poissons Ratio (y) = 0.22705 0.23509
# Poissons Ratio (z) = 0.13858 0.19335
#
# Static dielectric constant tensor:
#      x y z
#    x 1.793700 0.013850 0.017260 
#    y 0.013850 1.833400 0.016620 
#    z 0.017260 0.016620 1.778060 
# 
# From -- ./inp_files/84217.got.cif
#   From: 2010.05.17/outbox.cif.g08.bks.cpg/sg2_43_cif.got.tgz:84217.got - 2010.06.03 11:33:40.
