data_PCOD9109148
_publ_section_title
;
Structure prediction by ZEFSAII (Michael W. Deem and Ramdas Pophale) SiO2 
 PCOD9109148
Probable space group: P -1
;
_chemical_formula_sum "Si O2"
_cell_formula_units_Z 14
_cell_length_a 7.770269
_cell_length_b 15.912185
_cell_length_c 14.476059
_cell_angle_alpha 31.244710
_cell_angle_beta 53.283966
_cell_angle_gamma 74.402865
_cell_volume 604.821645
_symmetry_space_group_name_H-M "P -1"
_symmetry_group_IT_number 2
_symmetry_cell_setting 'triclinic'
loop_
_space_group_symop_operation_xyz
x,y,z
-x,-y,-z
loop_
_atom_site_type_symbol
_atom_site_label
_atom_site_fract_x
_atom_site_fract_y
_atom_site_fract_z
Si Si1 0.790799 0.424894 0.519603
Si Si2 0.054183 0.784018 0.208445
Si Si3 0.180964 0.924127 0.483312
Si Si4 0.657857 0.359159 0.964218
Si Si5 0.387572 0.330618 0.406253
Si Si6 0.634075 0.213518 0.301481
Si Si7 0.574614 0.198890 0.618311
O O1 0.786312 0.302900 0.723198
O O2 0.600613 0.270836 0.647344
O O3 0.820097 0.617158 0.372814
O O4 0.066964 0.535848 0.273354
O O5 0.899488 0.779558 0.352052
O O6 0.275717 0.997178 0.896111
O O7 0.149108 0.766324 0.717560
O O8 0.216820 0.844579 0.447798
O O9 0.000000 0.000000 0.500000
O O10 0.468754 0.130619 0.209956
O O11 0.540025 0.473914 0.854648
O O12 0.705506 0.365128 0.052864
O O13 0.411849 0.201338 0.445319
O O14 0.584188 0.358431 0.397882
O O15 0.500000 0.000000 0.500000
#
# Coordination Sequence:
#
# PCOD9109148 Si02
#       7
#     2   2   2   2   2   2   2
#     4  10  22  38  67  92 124 174 211 260 318 375
#     4  10  21  42  64  91 133 166 211 264 317 377
#     4  10  22  39  63  92 131 167 211 267 316 377
#     4  10  20  41  63  90 131 168 208 266 316 376
#     4  10  22  37  65  95 125 170 212 261 321 377
#     4   9  20  38  62  91 127 168 213 256 323 379
#     4  11  22  41  64  97 130 165 216 261 318 379
#
# _framework density 23.147321000000002
#
# number of rings (size 3 to 8) (size 9 to 14) (size 15 to 20)
#    0.000    2.000    1.429    1.286    0.000    7.429 
#    0.000    2.857    3.143    0.000    0.000    0.000 
#    0.000    0.000    0.000    0.000    0.000    0.000 
#
# Total GULP energy -77992.680031 kJ/mol
# GULP energy per Si atom -5570.905716 kJ/mol
# Density = 2.309464 g / cm^3
# Si number density = 23.147321 Si / 1000 Ang^3
#
#
#
# Elastic Constant Matrix: (Units=GPa)
#
#
# Indices 1 2 3 4 5 6 
#
# 1 55.4757 39.1086 29.3719 -5.3302 28.8494 -2.4577
# 2 39.1086 151.4709 29.1291 3.2334 10.8739 4.1769
# 3 29.3719 29.1291 77.2863 -5.5320 22.1244 -1.2899
# 4 -5.3302 3.2334 -5.5320 30.2075 2.4867 -2.7527
# 5 28.8494 10.8739 22.1244 2.4867 36.2659 2.9376
# 6 -2.4577 4.1769 -1.2899 -2.7527 2.9376 33.3484
#
#
#
# Elastic Compliance Matrix: (Units=1/GPa)
#
#
# Indices 1 2 3 4 5 6 
#
# 1 0.044052 -0.008917 -0.003333 0.011459 -0.031768 0.007979
# 2 -0.008917 0.009016 -0.002070 -0.003669 0.006124 -0.002709
# 3 -0.003333 -0.002070 0.017504 0.003633 -0.007791 0.001677
# 4 0.011459 -0.003669 0.003633 0.037801 -0.013289 0.005735
# 5 -0.031768 0.006124 -0.007791 -0.013289 0.057449 -0.009567
# 6 0.007979 -0.002709 0.001677 0.005735 -0.009567 0.032295
#
#
# Mechanical properties :
#
#
# Convention : Reuss Voigt Hill
#
# Bulk Modulus (GPa) = 23.84843 53.27248 38.56045
# Shear Modulus (GPa) = 20.76980 32.40589 26.58784
#
# Velocity S-wave (km/s) = 2.99873 3.74570 3.39283
# Velocity P-wave (km/s) = 4.72388 6.46309 5.66068
#
# Compressibility (1/GPa) = 0.04193148
#
# Stress axis : x y z
#
# Youngs Moduli (GPa) = 22.70050 110.91791 57.12869
#
# Poissons Ratio (x) = 0.98904 0.19042
# Poissons Ratio (y) = 0.20242 0.11826
# Poissons Ratio (z) = 0.07567 0.22961
#
# Static dielectric constant tensor:
#      x y z
#    x 1.989460 0.017390 0.043730 
#    y 0.017390 1.938220 -0.031480 
#    z 0.043730 -0.031480 1.859620 
# 
# From -- ./inp_files/378617.got.cif
#   From: 2010.05.17/outbox.cif.g08.bks.cpg/sg2_190_cif.got.tgz:378617.got - 2010.06.03 11:33:40.
