data_PCOD9109203
_publ_section_title
;
Structure prediction by ZEFSAII (Michael W. Deem and Ramdas Pophale) SiO2 
 PCOD9109203
Probable space group: P -1
;
_chemical_formula_sum "Si O2"
_cell_formula_units_Z 16
_cell_length_a 9.134473
_cell_length_b 18.644219
_cell_length_c 12.069909
_cell_angle_alpha 32.323077
_cell_angle_beta 131.036009
_cell_angle_gamma 134.921596
_cell_volume 768.468142
_symmetry_space_group_name_H-M "P -1"
_symmetry_group_IT_number 2
_symmetry_cell_setting 'triclinic'
loop_
_space_group_symop_operation_xyz
x,y,z
-x,-y,-z
loop_
_atom_site_type_symbol
_atom_site_label
_atom_site_fract_x
_atom_site_fract_y
_atom_site_fract_z
Si Si1 0.440372 0.860621 0.730980
Si Si2 0.773568 0.718836 0.051208
Si Si3 0.329112 0.349445 0.569823
Si Si4 0.732180 0.611082 0.939700
Si Si5 0.938636 0.410256 0.202829
Si Si6 0.751181 0.186628 0.811520
Si Si7 0.479970 0.871657 0.992655
Si Si8 0.515652 0.376590 0.393321
O O1 0.250155 0.734117 0.741034
O O2 0.393588 0.875463 0.819620
O O3 0.500000 0.000000 0.500000
O O4 0.637627 0.811572 0.890635
O O5 0.635281 0.550354 0.229684
O O6 0.004902 0.773123 0.142708
O O7 0.809557 0.719923 0.935683
O O8 0.500000 0.500000 0.500000
O O9 0.403045 0.323692 0.520495
O O10 0.112359 0.370460 0.409036
O O11 0.371182 0.222513 0.822223
O O12 0.675949 0.677296 0.716484
O O13 0.500000 0.500000 0.000000
O O14 0.866367 0.514757 0.107560
O O15 0.000000 0.500000 0.000000
O O16 0.683149 0.303249 0.560728
O O17 0.619606 0.030710 0.898268
O O18 0.689763 0.187920 0.911699
#
# Coordination Sequence:
#
# PCOD9109203 Si02
#       8
#     2   2   2   2   2   2   2   2
#     4  12  28  47  67  99 142 181 227 284 344 410
#     4  11  23  42  64 102 132 174 230 273 342 401
#     4  11  23  40  70  99 133 174 227 285 336 401
#     4  10  21  39  62  95 136 163 220 281 321 399
#     4  12  23  43  72 100 130 181 229 277 343 397
#     4  10  24  42  71  95 133 183 222 277 342 401
#     4  10  25  48  64  96 139 175 231 277 336 412
#     4  10  20  41  63  98 133 171 221 285 334 395
#
# _framework density 20.820643
#
# number of rings (size 3 to 8) (size 9 to 14) (size 15 to 20)
#    0.000    1.250    3.750    1.875    8.750    0.500 
#    6.750    0.625    0.000    0.000    0.000    0.000 
#    0.000    0.000    0.000    0.000    0.000    0.000 
#
# Total GULP energy -89209.266722 kJ/mol
# GULP energy per Si atom -5575.579170 kJ/mol
# Density = 2.077325 g / cm^3
# Si number density = 20.820643 Si / 1000 Ang^3
#
#
#
# Elastic Constant Matrix: (Units=GPa)
#
#
# Indices 1 2 3 4 5 6 
#
# 1 62.4954 17.5402 32.8049 5.4630 23.3522 -0.5212
# 2 17.5402 53.9972 24.6941 18.0027 8.6336 -10.5202
# 3 32.8049 24.6941 130.9354 2.6683 11.7899 2.2419
# 4 5.4630 18.0027 2.6683 32.9371 2.1002 2.7154
# 5 23.3522 8.6336 11.7899 2.1002 39.2887 11.9942
# 6 -0.5212 -10.5202 2.2419 2.7154 11.9942 34.8112
#
#
#
# Elastic Compliance Matrix: (Units=1/GPa)
#
#
# Indices 1 2 3 4 5 6 
#
# 1 0.024456 -0.001854 -0.004540 -0.002195 -0.014228 0.005172
# 2 -0.001854 0.030520 -0.004511 -0.016635 -0.007436 0.013346
# 3 -0.004540 -0.004511 0.009481 0.002581 0.001556 -0.002779
# 4 -0.002195 -0.016635 0.002581 0.040115 0.005131 -0.010123
# 5 -0.014228 -0.007436 0.001556 0.005131 0.039903 -0.016709
# 6 0.005172 0.013346 -0.002779 -0.010123 -0.016709 0.039563
#
#
# Mechanical properties :
#
#
# Convention : Reuss Voigt Hill
#
# Bulk Modulus (GPa) = 23.44907 44.16739 33.80823
# Shear Modulus (GPa) = 22.72059 32.89998 27.81028
#
# Velocity S-wave (km/s) = 3.30700 3.97944 3.65870
# Velocity P-wave (km/s) = 5.08611 6.50952 5.84133
#
# Compressibility (1/GPa) = 0.04264561
#
# Stress axis : x y z
#
# Youngs Moduli (GPa) = 40.88954 32.76550 105.47744
#
# Poissons Ratio (x) = 0.06074 0.47891
# Poissons Ratio (y) = 0.07579 0.47586
# Poissons Ratio (z) = 0.18566 0.14782
#
# Static dielectric constant tensor:
#      x y z
#    x 1.759810 0.042090 -0.061600 
#    y 0.042090 1.593960 0.178060 
#    z -0.061600 0.178060 1.754600 
# 
# From -- ./inp_files/402728.got.cif
#   From: 2010.05.17/outbox.cif.g08.bks.cpg/sg2_202_cif.got.tgz:402728.got - 2010.06.03 11:33:40.
