data_PCOD9109315
_publ_section_title
;
Structure prediction by ZEFSAII (Michael W. Deem and Ramdas Pophale) SiO2 
 PCOD9109315
Probable space group: P -1
;
_chemical_formula_sum "Si O2"
_cell_formula_units_Z 16
_cell_length_a 20.822252
_cell_length_b 7.335463
_cell_length_c 5.378942
_cell_angle_alpha 73.156581
_cell_angle_beta 86.827081
_cell_angle_gamma 60.162362
_cell_volume 678.186018
_symmetry_space_group_name_H-M "P -1"
_symmetry_group_IT_number 2
_symmetry_cell_setting 'triclinic'
loop_
_space_group_symop_operation_xyz
x,y,z
-x,-y,-z
loop_
_atom_site_type_symbol
_atom_site_label
_atom_site_fract_x
_atom_site_fract_y
_atom_site_fract_z
Si Si1 0.764102 0.218011 0.838392
Si Si2 0.375896 0.503456 0.567577
Si Si3 0.687869 0.077428 0.284727
Si Si4 0.665596 0.810852 0.008258
Si Si5 0.072196 0.019796 0.044300
Si Si6 0.063900 0.280704 0.447913
Si Si7 0.479413 0.918597 0.293163
Si Si8 0.794292 0.768054 0.739855
O O1 0.687118 0.419207 0.666755
O O2 0.845335 0.196953 0.834323
O O3 0.780303 0.002488 0.758134
O O4 0.739843 0.166571 0.125573
O O5 0.364067 0.727306 0.600253
O O6 0.464354 0.341881 0.586192
O O7 0.352946 0.363200 0.805291
O O8 0.744455 0.840203 0.478086
O O9 0.646989 0.018484 0.107221
O O10 0.752481 0.690822 0.964875
O O11 0.609954 0.941899 0.744321
O O12 0.051724 0.168828 0.245230
O O13 0.088199 0.118884 0.748322
O O14 0.000000 0.000000 0.000000
O O15 0.121299 0.354693 0.304883
O O16 0.000000 0.500000 0.500000
O O17 0.500000 0.000000 0.500000
O O18 0.500000 0.000000 0.000000
#
# Coordination Sequence:
#
# PCOD9109315 Si02
#       8
#     2   2   2   2   2   2   2   2
#     4   9  20  40  65  93 131 180 220 279 338 401
#     4  10  23  41  69  97 132 179 231 278 345 406
#     4  10  20  41  64  94 132 170 226 276 338 395
#     4  10  23  41  69  97 132 179 231 278 345 406
#     4  11  23  45  69  99 141 179 225 285 345 408
#     4  11  23  45  69  99 141 179 225 285 345 408
#     4  10  24  43  65  97 140 175 219 293 339 392
#     4   9  20  40  65  93 131 180 220 279 338 401
#
# _framework density 23.592345999999999
#
# number of rings (size 3 to 8) (size 9 to 14) (size 15 to 20)
#    0.000    2.000    1.250    0.750    7.000    0.500 
#    4.500    5.625    0.000    0.000    0.000    0.000 
#    0.000    0.000    0.000    0.000    0.000    0.000 
#
# Total GULP energy -89112.422546 kJ/mol
# GULP energy per Si atom -5569.526409 kJ/mol
# Density = 2.353865 g / cm^3
# Si number density = 23.592346 Si / 1000 Ang^3
#
#
#
# Elastic Constant Matrix: (Units=GPa)
#
#
# Indices 1 2 3 4 5 6 
#
# 1 95.2707 15.6394 18.1106 0.0808 -8.5893 -2.5491
# 2 15.6394 75.8714 21.7319 8.9282 1.2144 -7.2924
# 3 18.1106 21.7319 95.5709 12.2982 5.6839 4.8717
# 4 0.0808 8.9282 12.2982 33.7536 2.5896 2.8942
# 5 -8.5893 1.2144 5.6839 2.5896 42.6293 1.5930
# 6 -2.5491 -7.2924 4.8717 2.8942 1.5930 25.2313
#
#
#
# Elastic Compliance Matrix: (Units=1/GPa)
#
#
# Indices 1 2 3 4 5 6 
#
# 1 0.011440 -0.001849 -0.002060 0.000953 0.002547 0.000749
# 2 -0.001849 0.015310 -0.002936 -0.003392 -0.000406 0.005220
# 3 -0.002060 -0.002936 0.012191 -0.003283 -0.001648 -0.002930
# 4 0.000953 -0.003392 -0.003283 0.032132 -0.001081 -0.003868
# 5 0.002547 -0.000406 -0.001648 -0.001081 0.024304 -0.000952
# 6 0.000749 0.005220 -0.002930 -0.003868 -0.000952 0.042287
#
#
# Mechanical properties :
#
#
# Convention : Reuss Voigt Hill
#
# Bulk Modulus (GPa) = 39.60239 41.96410 40.78324
# Shear Modulus (GPa) = 31.29474 34.40490 32.84982
#
# Velocity S-wave (km/s) = 3.64604 3.82292 3.73553
# Velocity P-wave (km/s) = 5.87770 6.10836 5.99414
#
# Compressibility (1/GPa) = 0.02525100
#
# Stress axis : x y z
#
# Youngs Moduli (GPa) = 87.41025 65.31798 82.02628
#
# Poissons Ratio (x) = 0.12078 0.16895
# Poissons Ratio (y) = 0.16163 0.24086
# Poissons Ratio (z) = 0.18004 0.19180
#
# Static dielectric constant tensor:
#      x y z
#    x 1.973060 -0.067690 -0.009980 
#    y -0.067690 2.007740 0.029000 
#    z -0.009980 0.029000 1.991040 
# 
# From -- ./inp_files/116936.got.cif
#   From: 2010.05.17/outbox.cif.g08.bks.cpg/sg2_59_cif.got.tgz:116936.got - 2010.06.03 11:33:40.
