data_PCOD9109260
_publ_section_title
;
Structure prediction by ZEFSAII (Michael W. Deem and Ramdas Pophale) SiO2 
 PCOD9109260
Probable space group: P -1
;
_chemical_formula_sum "Si O2"
_cell_formula_units_Z 14
_cell_length_a 26.270541
_cell_length_b 6.422359
_cell_length_c 5.108692
_cell_angle_alpha 92.279383
_cell_angle_beta 120.275016
_cell_angle_gamma 58.740549
_cell_volume 606.905574
_symmetry_space_group_name_H-M "P -1"
_symmetry_group_IT_number 2
_symmetry_cell_setting 'triclinic'
loop_
_space_group_symop_operation_xyz
x,y,z
-x,-y,-z
loop_
_atom_site_type_symbol
_atom_site_label
_atom_site_fract_x
_atom_site_fract_y
_atom_site_fract_z
Si Si1 0.444971 0.289240 0.459530
Si Si2 0.085046 0.800743 0.178494
Si Si3 0.144935 0.440696 0.818688
Si Si4 0.173089 0.005024 0.551856
Si Si5 0.728792 0.880068 0.521062
Si Si6 0.399216 0.565950 0.851976
Si Si7 0.301309 0.464376 0.894958
O O1 0.454668 0.371887 0.769860
O O2 0.500000 0.000000 0.500000
O O3 0.436585 0.487673 0.228890
O O4 0.366998 0.332244 0.260649
O O5 0.122199 0.951348 0.259992
O O6 0.104024 0.611865 0.975740
O O7 0.880832 0.366301 0.479045
O O8 0.000000 0.000000 0.000000
O O9 0.132988 0.230239 0.671663
O O10 0.229605 0.272779 0.115832
O O11 0.216729 0.067454 0.472775
O O12 0.235001 0.738461 0.834899
O O13 0.722396 0.701395 0.299018
O O14 0.649080 0.142007 0.352646
O O15 0.338571 0.514257 0.753354
#
# Coordination Sequence:
#
# PCOD9109260 Si02
#       7
#     2   2   2   2   2   2   2
#     4  10  20  41  64  90 133 179 216 267 337 394
#     4  12  29  48  69 102 140 177 223 276 340 409
#     4  12  25  45  71  99 133 179 225 274 340 402
#     4  11  23  45  72  97 138 172 230 277 338 389
#     4  11  22  44  67 104 128 174 230 281 331 393
#     4   9  22  37  63  92 129 170 218 276 326 389
#     4   9  21  39  66  96 133 170 223 280 330 386
#
# _framework density 23.067837999999998
#
# number of rings (size 3 to 8) (size 9 to 14) (size 15 to 20)
#    0.857    0.571    2.857    1.714    2.000    3.429 
#    0.000    1.429    0.000    0.000    0.000    0.000 
#    0.000    0.000    0.000    0.000    0.000    0.000 
#
# Total GULP energy -78181.560165 kJ/mol
# GULP energy per Si atom -5584.397155 kJ/mol
# Density = 2.301533 g / cm^3
# Si number density = 23.067838 Si / 1000 Ang^3
#
#
#
# Elastic Constant Matrix: (Units=GPa)
#
#
# Indices 1 2 3 4 5 6 
#
# 1 49.6660 34.4681 29.7679 6.9375 4.3916 -3.4775
# 2 34.4681 128.9227 38.0555 15.5774 -5.6178 -14.8613
# 3 29.7679 38.0555 85.0989 2.9056 -17.0966 -5.4291
# 4 6.9375 15.5774 2.9056 39.2946 -3.8288 -5.1212
# 5 4.3916 -5.6178 -17.0966 -3.8288 42.9987 9.1698
# 6 -3.4775 -14.8613 -5.4291 -5.1212 9.1698 29.2551
#
#
#
# Elastic Compliance Matrix: (Units=1/GPa)
#
#
# Indices 1 2 3 4 5 6 
#
# 1 0.031025 -0.005146 -0.010045 -0.003349 -0.008401 0.001257
# 2 -0.005146 0.010686 -0.002681 -0.002639 -0.000216 0.003925
# 3 -0.010045 -0.002681 0.017970 0.002128 0.008321 -0.001457
# 4 -0.003349 -0.002639 0.002128 0.027537 0.002737 0.002619
# 5 -0.008401 -0.000216 0.008321 0.002737 0.029409 -0.008303
# 6 0.001257 0.003925 -0.001457 0.002619 -0.008303 0.039116
#
#
# Mechanical properties :
#
#
# Convention : Reuss Voigt Hill
#
# Bulk Modulus (GPa) = 41.77782 52.03009 46.90395
# Shear Modulus (GPa) = 25.06697 33.06942 29.06819
#
# Velocity S-wave (km/s) = 3.30003 3.79036 3.55366
# Velocity P-wave (km/s) = 5.71581 6.46220 6.10043
#
# Compressibility (1/GPa) = 0.02393615
#
# Stress axis : x y z
#
# Youngs Moduli (GPa) = 32.23207 93.58207 55.64892
#
# Poissons Ratio (x) = 0.48160 0.55897
# Poissons Ratio (y) = 0.16587 0.14922
# Poissons Ratio (z) = 0.32376 0.25093
#
# Static dielectric constant tensor:
#      x y z
#    x 1.934580 0.021880 0.000770 
#    y 0.021880 1.857220 -0.022890 
#    z 0.000770 -0.022890 1.880690 
# 
# From -- ./inp_files/125919.got.cif
#   From: 2010.05.17/outbox.cif.g08.bks.cpg/sg2_63_cif.got.tgz:125919.got - 2010.06.03 11:33:40.
