data_PCOD9109249
_publ_section_title
;
Structure prediction by ZEFSAII (Michael W. Deem and Ramdas Pophale) SiO2 
 PCOD9109249
Probable space group: P -1
;
_chemical_formula_sum "Si O2"
_cell_formula_units_Z 16
_cell_length_a 5.513595
_cell_length_b 12.202368
_cell_length_c 20.580804
_cell_angle_alpha 152.178306
_cell_angle_beta 85.312448
_cell_angle_gamma 90.128659
_cell_volume 636.745320
_symmetry_space_group_name_H-M "P -1"
_symmetry_group_IT_number 2
_symmetry_cell_setting 'triclinic'
loop_
_space_group_symop_operation_xyz
x,y,z
-x,-y,-z
loop_
_atom_site_type_symbol
_atom_site_label
_atom_site_fract_x
_atom_site_fract_y
_atom_site_fract_z
Si Si1 0.187679 0.122488 0.517687
Si Si2 0.397361 0.803932 0.135949
Si Si3 0.203613 0.890708 0.866295
Si Si4 0.057521 0.321962 0.006639
Si Si5 0.641827 0.336148 0.788866
Si Si6 0.113215 0.516923 0.359683
Si Si7 0.431066 0.561647 0.788644
Si Si8 0.397211 0.313790 0.359873
O O1 0.266445 0.356073 0.670208
O O2 0.059352 0.235120 0.514502
O O3 0.383559 0.902602 0.375400
O O4 0.000000 0.000000 0.500000
O O5 0.676795 0.746567 0.071261
O O6 0.423758 0.712708 0.161340
O O7 0.171785 0.708099 0.051049
O O8 0.329926 0.087818 0.280302
O O9 0.322970 0.820589 0.897595
O O10 0.411254 0.792337 0.756867
O O11 0.005537 0.714080 0.775821
O O12 0.080296 0.146005 0.976293
O O13 0.084796 0.586663 0.169531
O O14 0.500582 0.541304 0.852127
O O15 0.330452 0.520527 0.304692
O O16 0.184093 0.471174 0.407805
O O17 0.500000 0.500000 0.500000
#
# Coordination Sequence:
#
# PCOD9109249 Si02
#       8
#     2   2   2   2   2   2   2   2
#     4  11  24  40  65 100 138 175 222 286 346 420
#     4  11  26  47  70 103 142 181 236 291 340 409
#     4   9  21  42  68  90 138 172 221 300 332 400
#     4  11  25  51  70 100 139 186 239 288 337 409
#     4  12  26  43  70  99 135 189 228 279 354 422
#     4  10  20  41  64  89 140 167 219 290 345 397
#     4  10  23  42  65 102 135 172 227 284 356 405
#     4  10  22  37  65 100 127 178 230 279 353 407
#
# _framework density 25.127782
#
# number of rings (size 3 to 8) (size 9 to 14) (size 15 to 20)
#    0.000    1.500    2.500    1.125    5.250    5.000 
#    0.000    0.625    0.000    0.000    0.000    0.000 
#    0.000    0.000    0.000    0.000    0.000    0.000 
#
# Total GULP energy -89388.611040 kJ/mol
# GULP energy per Si atom -5586.788190 kJ/mol
# Density = 2.507059 g / cm^3
# Si number density = 25.127782 Si / 1000 Ang^3
#
#
#
# Elastic Constant Matrix: (Units=GPa)
#
#
# Indices 1 2 3 4 5 6 
#
# 1 79.4267 64.2231 16.2121 3.0871 23.3413 -8.6444
# 2 64.2231 231.0701 55.7562 11.8886 4.1203 -19.3117
# 3 16.2121 55.7562 68.1845 9.5313 28.6360 -2.3364
# 4 3.0871 11.8886 9.5313 39.0660 6.4939 4.2731
# 5 23.3413 4.1203 28.6360 6.4939 43.2197 4.5229
# 6 -8.6444 -19.3117 -2.3364 4.2731 4.5229 53.6408
#
#
#
# Elastic Compliance Matrix: (Units=1/GPa)
#
#
# Indices 1 2 3 4 5 6 
#
# 1 0.022516 -0.007772 0.008184 0.001184 -0.017286 0.002550
# 2 -0.007772 0.008614 -0.008922 -0.001484 0.009428 0.000783
# 3 0.008184 -0.008922 0.030139 -0.001551 -0.023465 0.001522
# 4 0.001184 -0.001484 -0.001551 0.027135 -0.003307 -0.002294
# 5 -0.017286 0.009428 -0.023465 -0.003307 0.048058 -0.004202
# 6 0.002550 0.000783 0.001522 -0.002294 -0.004202 0.019939
#
#
# Mechanical properties :
#
#
# Convention : Reuss Voigt Hill
#
# Bulk Modulus (GPa) = 22.59951 72.34045 47.46998
# Shear Modulus (GPa) = 26.57163 43.35131 34.96147
#
# Velocity S-wave (km/s) = 3.25539 4.15810 3.73412
# Velocity P-wave (km/s) = 4.81076 7.20448 6.12568
#
# Compressibility (1/GPa) = 0.04424874
#
# Stress axis : x y z
#
# Youngs Moduli (GPa) = 44.41369 116.08602 33.17918
#
# Poissons Ratio (x) = 0.90224 -0.27152
# Poissons Ratio (y) = 0.34519 0.29601
# Poissons Ratio (z) = -0.36346 1.03568
#
# Static dielectric constant tensor:
#      x y z
#    x 1.335970 0.549130 -0.538250 
#    y 0.549130 1.500680 0.385960 
#    z -0.538250 0.385960 1.653400 
# 
# From -- ./inp_files/96856.got.cif
#   From: 2010.05.17/outbox.cif.g08.bks.cpg/sg2_49_cif.got.tgz:96856.got - 2010.06.03 11:33:40.
