data_PCOD9109522
_publ_section_title
;
Structure prediction by ZEFSAII (Michael W. Deem and Ramdas Pophale) SiO2 
 PCOD9109522
Probable space group: P -1
;
_chemical_formula_sum "Si O2"
_cell_formula_units_Z 15
_cell_length_a 8.015072
_cell_length_b 20.973783
_cell_length_c 11.018558
_cell_angle_alpha 29.039168
_cell_angle_beta 128.184456
_cell_angle_gamma 133.325282
_cell_volume 653.199378
_symmetry_space_group_name_H-M "P -1"
_symmetry_group_IT_number 2
_symmetry_cell_setting 'triclinic'
loop_
_space_group_symop_operation_xyz
x,y,z
-x,-y,-z
loop_
_atom_site_type_symbol
_atom_site_label
_atom_site_fract_x
_atom_site_fract_y
_atom_site_fract_z
Si Si1 0.000000 0.500000 0.000000
Si Si2 0.306591 0.306260 0.893796
Si Si3 0.769800 0.264476 0.106197
Si Si4 0.515025 0.767854 0.400830
Si Si5 0.779861 0.432033 0.599253
Si Si6 0.748218 0.004494 0.395367
Si Si7 0.190572 0.919667 0.969868
Si Si8 0.514777 0.320701 0.203650
O O1 0.772812 0.418989 0.122192
O O2 0.065389 0.648521 0.858775
O O3 0.524948 0.275898 0.000813
O O4 0.279334 0.437548 0.594713
O O5 0.352230 0.354172 0.976138
O O6 0.078288 0.168235 0.005400
O O7 0.844596 0.349440 0.872680
O O8 0.749779 0.106211 0.336316
O O9 0.429722 0.670827 0.406003
O O10 0.543170 0.683649 0.672422
O O11 0.729531 0.916395 0.227536
O O12 0.313834 0.826759 0.245440
O O13 0.000000 0.500000 0.500000
O O14 0.716811 0.069970 0.143978
O O15 0.556841 0.847565 0.578829
O O16 0.000000 0.000000 0.500000
#
# Coordination Sequence:
#
# PCOD9109522 Si02
#       8
#     1   2   2   2   2   2   2   2
#     4  10  24  44  60  98 144 176 212 270 350 400
#     4  11  23  41  63  97 134 181 220 267 347 400
#     4  11  25  45  66  96 140 177 227 277 340 406
#     4  10  21  38  70  97 130 172 229 281 326 384
#     4  12  22  41  69  93 130 184 221 274 330 401
#     4  11  21  43  74  97 127 179 231 275 333 398
#     4  10  20  41  65  99 130 168 232 276 329 399
#     4  10  23  42  66 101 135 175 224 282 334 403
#
# _framework density 22.963894
#
# number of rings (size 3 to 8) (size 9 to 14) (size 15 to 20)
#    0.000    1.333    4.000    1.200    0.000    2.667 
#    9.600    0.667    0.000    0.000    0.000    0.000 
#    0.000    0.000    0.000    0.000    0.000    0.000 
#
# Total GULP energy -83563.454243 kJ/mol
# GULP energy per Si atom -5570.896950 kJ/mol
# Density = 2.291163 g / cm^3
# Si number density = 22.963894 Si / 1000 Ang^3
#
#
#
# Elastic Constant Matrix: (Units=GPa)
#
#
# Indices 1 2 3 4 5 6 
#
# 1 69.2992 16.7358 5.2133 -24.6995 7.9813 13.7377
# 2 16.7358 102.2159 -5.9439 -43.6657 2.7667 -1.9975
# 3 5.2133 -5.9439 42.7708 -12.2311 0.4524 13.1571
# 4 -24.6995 -43.6657 -12.2311 51.6312 -4.1260 -7.3236
# 5 7.9813 2.7667 0.4524 -4.1260 31.8939 -8.7255
# 6 13.7377 -1.9975 13.1571 -7.3236 -8.7255 40.7440
#
#
#
# Elastic Compliance Matrix: (Units=1/GPa)
#
#
# Indices 1 2 3 4 5 6 
#
# 1 0.019300 0.000952 0.002583 0.009229 -0.005626 -0.006841
# 2 0.000952 0.017235 0.006609 0.016887 0.000794 0.001595
# 3 0.002583 0.006609 0.030240 0.012587 -0.002361 -0.008555
# 4 0.009229 0.016887 0.012587 0.041401 0.001808 0.001480
# 5 -0.005626 0.000794 -0.002361 0.001808 0.035890 0.010709
# 6 -0.006841 0.001595 -0.008555 0.001480 0.010709 0.032250
#
#
# Mechanical properties :
#
#
# Convention : Reuss Voigt Hill
#
# Bulk Modulus (GPa) = 11.48597 27.36627 19.42612
# Shear Modulus (GPa) = 27.01966 38.07254 32.54610
#
# Velocity S-wave (km/s) = 3.43390 4.07619 3.76875
# Velocity P-wave (km/s) = 4.55356 5.83924 5.23601
#
# Compressibility (1/GPa) = 0.08706277
#
# Stress axis : x y z
#
# Youngs Moduli (GPa) = 51.81450 58.02017 33.06846
#
# Poissons Ratio (x) = -0.05521 -0.08541
# Poissons Ratio (y) = -0.04930 -0.21856
# Poissons Ratio (z) = -0.13383 -0.38347
#
# Static dielectric constant tensor:
#      x y z
#    x 1.837620 -0.015920 -0.010140 
#    y -0.015920 1.895300 0.060690 
#    z -0.010140 0.060690 1.962440 
# 
# From -- ./inp_files/406166.got.cif
#   From: 2010.05.17/outbox.cif.g08.bks.cpg/sg2_204_cif.got.tgz:406166.got - 2010.06.03 11:33:40.
