data_PCOD9109158
_publ_section_title
;
Structure prediction by ZEFSAII (Michael W. Deem and Ramdas Pophale) SiO2 
 PCOD9109158
Probable space group: P -1
;
_chemical_formula_sum "Si O2"
_cell_formula_units_Z 16
_cell_length_a 13.630094
_cell_length_b 8.868595
_cell_length_c 7.802900
_cell_angle_alpha 52.790348
_cell_angle_beta 83.433435
_cell_angle_gamma 83.756865
_cell_volume 745.338128
_symmetry_space_group_name_H-M "P -1"
_symmetry_group_IT_number 2
_symmetry_cell_setting 'triclinic'
loop_
_space_group_symop_operation_xyz
x,y,z
-x,-y,-z
loop_
_atom_site_type_symbol
_atom_site_label
_atom_site_fract_x
_atom_site_fract_y
_atom_site_fract_z
Si Si1 0.437400 0.582067 0.689564
Si Si2 0.476395 0.060565 0.658693
Si Si3 0.982660 0.559676 0.769007
Si Si4 0.806802 0.380113 0.742963
Si Si5 0.889538 0.792966 0.102316
Si Si6 0.603385 0.315010 0.983566
Si Si7 0.970596 0.114539 0.696184
Si Si8 0.308334 0.311769 0.679273
O O1 0.392952 0.634794 0.849035
O O2 0.621990 0.571569 0.292444
O O3 0.447572 0.772695 0.443473
O O4 0.545909 0.488330 0.777713
O O5 0.466541 0.864282 0.896533
O O6 0.500000 0.000000 0.500000
O O7 0.371324 0.167965 0.644773
O O8 0.062039 0.418747 0.752687
O O9 0.004125 0.770399 0.557362
O O10 0.875167 0.495356 0.778462
O O11 0.000000 0.500000 0.000000
O O12 0.881557 0.234270 0.728979
O O13 0.755166 0.535021 0.522786
O O14 0.714708 0.282921 0.917158
O O15 0.772473 0.795407 0.122355
O O16 0.932496 0.887079 0.200385
O O17 0.933417 0.903210 0.856394
#
# Coordination Sequence:
#
# PCOD9109158 Si02
#       8
#     2   2   2   2   2   2   2   2
#     4  10  23  40  62  88 127 163 210 264 313 377
#     4  10  22  41  61  89 126 167 209 263 313 371
#     4  11  23  40  63  91 131 165 202 263 320 377
#     4  11  21  38  67  88 121 166 209 257 318 380
#     4  10  21  39  65  91 124 161 212 259 309 380
#     4  10  22  41  61  89 125 166 205 261 322 370
#     4  10  20  41  63  92 121 163 210 259 311 378
#     4  12  21  39  68  94 123 170 214 260 318 381
#
# _framework density 21.46677
#
# number of rings (size 3 to 8) (size 9 to 14) (size 15 to 20)
#    0.000    1.500    3.750    1.875    1.750    1.000 
#    2.250    0.000    8.250    0.000    0.000    0.000 
#    0.000    0.000    0.000    0.000    0.000    0.000 
#
# Total GULP energy -89285.436067 kJ/mol
# GULP energy per Si atom -5580.339754 kJ/mol
# Density = 2.141791 g / cm^3
# Si number density = 21.466770 Si / 1000 Ang^3
#
#
#
# Elastic Constant Matrix: (Units=GPa)
#
#
# Indices 1 2 3 4 5 6 
#
# 1 94.9775 31.0142 34.0392 18.4118 -20.5368 3.5066
# 2 31.0142 62.2485 22.4383 -5.1420 -8.4453 -0.8048
# 3 34.0392 22.4383 133.1040 -10.7378 -19.7867 16.8096
# 4 18.4118 -5.1420 -10.7378 29.7112 1.7984 -1.6458
# 5 -20.5368 -8.4453 -19.7867 1.7984 41.6998 -2.8001
# 6 3.5066 -0.8048 16.8096 -1.6458 -2.8001 14.7130
#
#
#
# Elastic Compliance Matrix: (Units=1/GPa)
#
#
# Indices 1 2 3 4 5 6 
#
# 1 0.018903 -0.008546 -0.003446 -0.014912 0.006488 -0.001468
# 2 -0.008546 0.021620 -0.001576 0.008829 -0.000563 0.005900
# 3 -0.003446 -0.001576 0.010714 0.005022 0.002143 -0.010536
# 4 -0.014912 0.008829 0.005022 0.046687 -0.005014 0.002568
# 5 0.006488 -0.000563 0.002143 -0.005014 0.028350 0.000809
# 6 -0.001468 0.005900 -0.010536 0.002568 0.000809 0.081118
#
#
# Mechanical properties :
#
#
# Convention : Reuss Voigt Hill
#
# Bulk Modulus (GPa) = 41.49327 51.70150 46.59739
# Shear Modulus (GPa) = 20.61329 30.74734 25.68031
#
# Velocity S-wave (km/s) = 3.10214 3.78871 3.46248
# Velocity P-wave (km/s) = 5.67468 6.57844 6.14320
#
# Compressibility (1/GPa) = 0.02410029
#
# Stress axis : x y z
#
# Youngs Moduli (GPa) = 52.90282 46.25382 93.33343
#
# Poissons Ratio (x) = 0.39529 0.32167
# Poissons Ratio (y) = 0.45212 0.14705
# Poissons Ratio (z) = 0.18233 0.07287
#
# Static dielectric constant tensor:
#      x y z
#    x 1.781700 0.011350 -0.068350 
#    y 0.011350 1.807040 -0.004920 
#    z -0.068350 -0.004920 1.832340 
# 
# From -- ./inp_files/304529.got.cif
#   From: 2010.05.17/outbox.cif.g08.bks.cpg/sg2_153_cif.got.tgz:304529.got - 2010.06.03 11:33:40.
