data_PCOD9109188
_publ_section_title
;
Structure prediction by ZEFSAII (Michael W. Deem and Ramdas Pophale) SiO2 
 PCOD9109188
Probable space group: P -1
;
_chemical_formula_sum "Si O2"
_cell_formula_units_Z 16
_cell_length_a 6.001514
_cell_length_b 6.138900
_cell_length_c 26.507290
_cell_angle_alpha 56.894500
_cell_angle_beta 124.284630
_cell_angle_gamma 102.753164
_cell_volume 670.574797
_symmetry_space_group_name_H-M "P -1"
_symmetry_group_IT_number 2
_symmetry_cell_setting 'triclinic'
loop_
_space_group_symop_operation_xyz
x,y,z
-x,-y,-z
loop_
_atom_site_type_symbol
_atom_site_label
_atom_site_fract_x
_atom_site_fract_y
_atom_site_fract_z
Si Si1 0.905204 0.763903 0.798158
Si Si2 0.104364 0.207989 0.715063
Si Si3 0.142489 0.229643 0.892647
Si Si4 0.945008 0.224510 0.584053
Si Si5 0.680219 0.917899 0.848582
Si Si6 0.405978 0.216354 0.032337
Si Si7 0.783559 0.244574 0.457942
Si Si8 0.370168 0.731143 0.670943
O O1 0.841125 0.726846 0.853085
O O2 0.645382 0.724753 0.737100
O O3 0.145366 0.536687 0.842576
O O4 0.965499 0.062075 0.760372
O O5 0.911581 0.190584 0.643777
O O6 0.192586 0.497364 0.692700
O O7 0.395283 0.026291 0.772601
O O8 0.359489 0.027128 0.916711
O O9 0.194999 0.183035 0.964775
O O10 0.848726 0.159789 0.849209
O O11 0.061350 0.500459 0.559197
O O12 0.715049 0.220541 0.511737
O O13 0.181565 0.998514 0.626529
O O14 0.671656 0.794067 0.918078
O O15 0.500000 0.500000 0.000000
O O16 0.570130 0.277816 0.380787
O O17 0.000000 0.000000 0.500000
#
# Coordination Sequence:
#
# PCOD9109188 Si02
#       8
#     2   2   2   2   2   2   2   2
#     4  12  26  43  69 102 137 179 224 276 337 402
#     4  11  23  40  64  98 136 177 224 272 333 402
#     4  11  25  45  70  96 131 178 221 273 341 399
#     4   9  17  35  63  94 131 180 220 280 334 385
#     4  12  24  44  67  99 136 175 221 275 338 398
#     4  11  26  48  69  99 132 175 225 275 336 404
#     4   8  16  32  63  94 128 177 227 272 337 387
#     4  10  20  41  63  95 135 178 222 278 334 395
#
# _framework density 23.860130000000002
#
# number of rings (size 3 to 8) (size 9 to 14) (size 15 to 20)
#    0.000    1.500    2.500    2.625    0.000    7.000 
#    2.250    0.625    0.000   25.500    0.000    0.000 
#    0.000    0.000    0.000    0.000    0.000    0.000 
#
# Total GULP energy -89366.821282 kJ/mol
# GULP energy per Si atom -5585.426330 kJ/mol
# Density = 2.380582 g / cm^3
# Si number density = 23.860130 Si / 1000 Ang^3
#
#
#
# Elastic Constant Matrix: (Units=GPa)
#
#
# Indices 1 2 3 4 5 6 
#
# 1 45.3916 33.9454 43.2866 3.4021 -18.8032 -3.9151
# 2 33.9454 119.8892 64.5515 -9.5375 -2.3773 -2.2613
# 3 43.2866 64.5515 122.6745 14.9778 -26.7475 -4.9091
# 4 3.4021 -9.5375 14.9778 60.9474 -6.4074 2.0973
# 5 -18.8032 -2.3773 -26.7475 -6.4074 27.1670 5.9723
# 6 -3.9151 -2.2613 -4.9091 2.0973 5.9723 24.0267
#
#
#
# Elastic Compliance Matrix: (Units=1/GPa)
#
#
# Indices 1 2 3 4 5 6 
#
# 1 0.044141 -0.009061 -0.005498 0.000082 0.024562 -0.000896
# 2 -0.009061 0.015155 -0.007781 0.003491 -0.012012 0.001041
# 3 -0.005498 -0.007781 0.017174 -0.003883 0.011656 -0.000678
# 4 0.000082 0.003491 -0.003883 0.018125 0.001335 -0.002365
# 5 0.024562 -0.012012 0.011656 0.001335 0.067086 -0.011538
# 6 -0.000896 0.001041 -0.000678 -0.002365 -0.011538 0.044508
#
#
# Mechanical properties :
#
#
# Convention : Reuss Voigt Hill
#
# Bulk Modulus (GPa) = 31.45603 63.50245 47.47924
# Shear Modulus (GPa) = 19.12290 32.17302 25.64796
#
# Velocity S-wave (km/s) = 2.83408 3.67604 3.28217
# Velocity P-wave (km/s) = 4.89095 6.68505 5.85711
#
# Compressibility (1/GPa) = 0.03179041
#
# Stress axis : x y z
#
# Youngs Moduli (GPa) = 22.65475 65.98394 58.22618
#
# Poissons Ratio (x) = 0.59788 0.32013
# Poissons Ratio (y) = 0.20528 0.45305
# Poissons Ratio (z) = 0.12456 0.51342
#
# Static dielectric constant tensor:
#      x y z
#    x 1.895180 -0.004200 -0.022940 
#    y -0.004200 1.888770 0.029700 
#    z -0.022940 0.029700 1.933800 
# 
# From -- ./inp_files/12797.got.cif
#   From: 2010.05.17/outbox.cif.g08.bks.cpg/sg2_7_cif.got.tgz:12797.got - 2010.06.03 11:33:40.
