data_PCOD9109339
_publ_section_title
;
Structure prediction by ZEFSAII (Michael W. Deem and Ramdas Pophale) SiO2 
 PCOD9109339
Probable space group: P -1
;
_chemical_formula_sum "Si O2"
_cell_formula_units_Z 16
_cell_length_a 11.912715
_cell_length_b 8.262437
_cell_length_c 10.598910
_cell_angle_alpha 123.466795
_cell_angle_beta 123.337947
_cell_angle_gamma 58.866531
_cell_volume 691.946781
_symmetry_space_group_name_H-M "P -1"
_symmetry_group_IT_number 2
_symmetry_cell_setting 'triclinic'
loop_
_space_group_symop_operation_xyz
x,y,z
-x,-y,-z
loop_
_atom_site_type_symbol
_atom_site_label
_atom_site_fract_x
_atom_site_fract_y
_atom_site_fract_z
Si Si1 0.545821 0.682588 0.043754
Si Si2 0.304542 0.109939 0.317609
Si Si3 0.752832 0.105329 0.059599
Si Si4 0.836125 0.420945 0.093878
Si Si5 0.852216 0.166255 0.514954
Si Si6 0.011642 0.727977 0.112450
Si Si7 0.395730 0.976729 0.599937
Si Si8 0.065283 0.509915 0.409686
O O1 0.689211 0.565837 0.010033
O O2 0.589937 0.818715 0.236843
O O3 0.500000 0.500000 0.000000
O O4 0.404463 0.819130 0.945506
O O5 0.442423 0.165931 0.376772
O O6 0.166066 0.296689 0.331972
O O7 0.340926 0.015246 0.438655
O O8 0.276212 0.967016 0.130005
O O9 0.809253 0.295672 0.144741
O O10 0.866376 0.914106 0.111998
O O11 0.930338 0.561784 0.255930
O O12 0.918913 0.257220 0.973142
O O13 0.715826 0.095340 0.419050
O O14 0.843302 0.337135 0.478603
O O15 0.882898 0.255953 0.705928
O O16 0.000000 0.000000 0.500000
O O17 0.000000 0.500000 0.000000
O O18 0.000000 0.500000 0.500000
#
# Coordination Sequence:
#
# PCOD9109339 Si02
#       8
#     2   2   2   2   2   2   2   2
#     4   9  20  40  64  97 135 173 224 274 330 403
#     4  10  20  41  64  97 130 175 226 271 333 416
#     4  10  21  38  67  94 129 176 222 270 331 407
#     4  11  21  38  66  96 130 171 226 276 325 400
#     4  12  26  43  66  97 139 176 222 287 343 397
#     4  12  24  42  65  96 136 174 221 277 339 395
#     4  10  22  39  68  95 138 178 220 277 346 396
#     4  12  25  40  65  96 131 176 231 281 337 402
#
# _framework density 23.123163999999999
#
# number of rings (size 3 to 8) (size 9 to 14) (size 15 to 20)
#    0.000    1.250    2.500    3.375    3.500    1.500 
#    0.000    0.625    2.750    0.000    0.000    0.000 
#    0.000    0.000    0.000    0.000    0.000    0.000 
#
# Total GULP energy -89386.446963 kJ/mol
# GULP energy per Si atom -5586.652935 kJ/mol
# Density = 2.307053 g / cm^3
# Si number density = 23.123164 Si / 1000 Ang^3
#
#
#
# Elastic Constant Matrix: (Units=GPa)
#
#
# Indices 1 2 3 4 5 6 
#
# 1 149.2405 39.1701 39.4595 1.5052 29.0896 -9.5258
# 2 39.1701 77.0684 13.1068 -1.1025 17.3308 -21.0677
# 3 39.4595 13.1068 88.2978 7.4717 11.9549 16.4655
# 4 1.5052 -1.1025 7.4717 27.5451 3.4496 3.9500
# 5 29.0896 17.3308 11.9549 3.4496 36.7215 2.5039
# 6 -9.5258 -21.0677 16.4655 3.9500 2.5039 47.4491
#
#
#
# Elastic Compliance Matrix: (Units=1/GPa)
#
#
# Indices 1 2 3 4 5 6 
#
# 1 0.009483 -0.002309 -0.003660 0.000725 -0.005461 0.002376
# 2 -0.002309 0.018580 -0.002566 0.001138 -0.006821 0.008942
# 3 -0.003660 -0.002566 0.014856 -0.002961 0.000015 -0.006784
# 4 0.000725 0.001138 -0.002961 0.037748 -0.003607 -0.001274
# 5 -0.005461 -0.006821 0.000015 -0.003607 0.035500 -0.005703
# 6 0.002376 0.008942 -0.006784 -0.001274 -0.005703 0.028283
#
#
# Mechanical properties :
#
#
# Convention : Reuss Voigt Hill
#
# Bulk Modulus (GPa) = 38.68904 55.34216 47.01560
# Shear Modulus (GPa) = 29.38796 37.20114 33.29455
#
# Velocity S-wave (km/s) = 3.56888 4.01537 3.79869
# Velocity P-wave (km/s) = 5.80953 6.74412 6.29419
#
# Compressibility (1/GPa) = 0.02584711
#
# Stress axis : x y z
#
# Youngs Moduli (GPa) = 105.44789 53.82107 67.31481
#
# Poissons Ratio (x) = 0.12429 0.24640
# Poissons Ratio (y) = 0.24352 0.17274
# Poissons Ratio (z) = 0.38598 0.13812
#
# Static dielectric constant tensor:
#      x y z
#    x 1.966160 -0.015920 0.035170 
#    y -0.015920 1.920670 -0.002370 
#    z 0.035170 -0.002370 1.933400 
# 
# From -- ./inp_files/420131.got.cif
#   From: 2010.05.17/outbox.cif.g08.bks.cpg/sg2_211_cif.got.tgz:420131.got - 2010.06.03 11:33:40.
