data_PCOD9109255
_publ_section_title
;
Structure prediction by ZEFSAII (Michael W. Deem and Ramdas Pophale) SiO2 
 PCOD9109255
Probable space group: P -1
;
_chemical_formula_sum "Si O2"
_cell_formula_units_Z 14
_cell_length_a 9.079127
_cell_length_b 11.941668
_cell_length_c 7.541459
_cell_angle_alpha 117.421848
_cell_angle_beta 112.287127
_cell_angle_gamma 58.491041
_cell_volume 608.304997
_symmetry_space_group_name_H-M "P -1"
_symmetry_group_IT_number 2
_symmetry_cell_setting 'triclinic'
loop_
_space_group_symop_operation_xyz
x,y,z
-x,-y,-z
loop_
_atom_site_type_symbol
_atom_site_label
_atom_site_fract_x
_atom_site_fract_y
_atom_site_fract_z
Si Si1 0.060820 0.398740 0.710302
Si Si2 0.006555 0.778946 0.168421
Si Si3 0.016459 0.047564 0.243493
Si Si4 0.705747 0.436725 0.029449
Si Si5 0.687429 0.324659 0.293112
Si Si6 0.325002 0.395484 0.331339
Si Si7 0.168981 0.226648 0.297809
O O1 0.087304 0.269140 0.755067
O O2 0.212087 0.452858 0.830818
O O3 0.052999 0.351924 0.470250
O O4 0.877214 0.528415 0.772983
O O5 0.029499 0.920783 0.279942
O O6 0.907508 0.780057 0.937307
O O7 0.203735 0.654472 0.165649
O O8 0.842982 0.182629 0.329873
O O9 0.174182 0.095591 0.318024
O O10 0.000000 0.000000 0.000000
O O11 0.754381 0.323904 0.125009
O O12 0.500000 0.500000 0.000000
O O13 0.491440 0.334451 0.232239
O O14 0.666039 0.473940 0.467062
O O15 0.329600 0.267648 0.360437
#
# Coordination Sequence:
#
# PCOD9109255 Si02
#       7
#     2   2   2   2   2   2   2
#     4  12  22  41  65  95 124 165 211 261 320 366
#     4  11  24  39  65  93 125 167 211 251 319 381
#     4  10  20  41  64  90 125 173 209 248 315 381
#     4  12  23  38  62  96 129 156 210 274 312 364
#     4  11  21  38  64  97 127 162 211 259 318 370
#     4  11  21  37  67  97 124 160 210 269 313 366
#     4  11  21  41  66  90 123 170 209 256 316 375
#
# _framework density 23.014771
#
# number of rings (size 3 to 8) (size 9 to 14) (size 15 to 20)
#    0.000    0.857    7.143    1.714    2.000    0.571 
#    0.000    4.286    0.000    1.714    0.000    0.000 
#    0.000    0.000    0.000    0.000    0.000    0.000 
#
# Total GULP energy -78011.707568 kJ/mol
# GULP energy per Si atom -5572.264826 kJ/mol
# Density = 2.296239 g / cm^3
# Si number density = 23.014771 Si / 1000 Ang^3
#
#
#
# Elastic Constant Matrix: (Units=GPa)
#
#
# Indices 1 2 3 4 5 6 
#
# 1 185.8110 52.5026 32.7665 5.9349 12.5221 38.8570
# 2 52.5026 97.2055 20.0050 11.5117 15.7853 49.6223
# 3 32.7665 20.0050 67.3328 8.7480 -6.9615 10.2743
# 4 5.9349 11.5117 8.7480 29.0761 8.9797 6.0751
# 5 12.5221 15.7853 -6.9615 8.9797 37.0560 1.1780
# 6 38.8570 49.6223 10.2743 6.0751 1.1780 51.2047
#
#
#
# Elastic Compliance Matrix: (Units=1/GPa)
#
#
# Indices 1 2 3 4 5 6 
#
# 1 0.007177 -0.000847 -0.003115 0.001563 -0.002898 -0.004119
# 2 -0.000847 0.024658 -0.004553 -0.000442 -0.010265 -0.022051
# 3 -0.003115 -0.004553 0.018836 -0.006440 0.007978 0.003577
# 4 0.001563 -0.000442 -0.006440 0.040494 -0.011235 -0.004011
# 5 -0.002898 -0.010265 0.007978 -0.011235 0.036208 0.011046
# 6 -0.004119 -0.022051 0.003577 -0.004011 0.011046 0.043529
#
#
# Mechanical properties :
#
#
# Convention : Reuss Voigt Hill
#
# Bulk Modulus (GPa) = 29.72571 62.32194 46.02383
# Shear Modulus (GPa) = 25.10714 39.80571 32.45642
#
# Velocity S-wave (km/s) = 3.30648 4.16332 3.75939
# Velocity P-wave (km/s) = 5.24605 7.08865 6.23578
#
# Compressibility (1/GPa) = 0.03364091
#
# Stress axis : x y z
#
# Youngs Moduli (GPa) = 139.32819 40.55437 53.09033
#
# Poissons Ratio (x) = 0.03436 0.16538
# Poissons Ratio (y) = 0.11806 0.24171
# Poissons Ratio (z) = 0.43402 0.18464
#
# Static dielectric constant tensor:
#      x y z
#    x 1.885430 0.005870 0.037380 
#    y 0.005870 1.968640 -0.071910 
#    z 0.037380 -0.071910 1.979590 
# 
# From -- ./inp_files/172295.got.cif
#   From: 2010.05.17/outbox.cif.g08.bks.cpg/sg2_87_cif.got.tgz:172295.got - 2010.06.03 11:33:40.
