data_PCOD9109732
_publ_section_title
;
Structure prediction by ZEFSAII (Michael W. Deem and Ramdas Pophale) SiO2 
 PCOD9109732
Probable space group: P -1
;
_chemical_formula_sum "Si O2"
_cell_formula_units_Z 12
_cell_length_a 13.614900
_cell_length_b 10.939942
_cell_length_c 5.415199
_cell_angle_alpha 91.616572
_cell_angle_beta 110.314684
_cell_angle_gamma 40.894060
_cell_volume 457.735226
_symmetry_space_group_name_H-M "P -1"
_symmetry_group_IT_number 2
_symmetry_cell_setting 'triclinic'
loop_
_space_group_symop_operation_xyz
x,y,z
-x,-y,-z
loop_
_atom_site_type_symbol
_atom_site_label
_atom_site_fract_x
_atom_site_fract_y
_atom_site_fract_z
Si Si1 0.709675 0.292608 0.229319
Si Si2 0.932299 0.445853 0.582328
Si Si3 0.745061 0.978309 0.317207
Si Si4 0.361477 0.307723 0.010037
Si Si5 0.326307 0.581411 0.297246
Si Si6 0.296997 0.170216 0.279247
O O1 0.763051 0.324736 0.511267
O O2 0.755849 0.113893 0.345928
O O3 0.500000 0.500000 0.000000
O O4 0.777130 0.264751 0.014844
O O5 0.833068 0.601163 0.728874
O O6 0.000000 0.500000 0.500000
O O7 0.103119 0.205950 0.746049
O O8 0.790925 0.512960 0.292820
O O9 0.751401 0.900395 0.585589
O O10 0.551926 0.137307 0.050799
O O11 0.369807 0.402681 0.239585
O O12 0.314047 0.211129 0.019529
O O13 0.500000 0.500000 0.500000
O O14 0.500000 0.000000 0.500000
#
# Coordination Sequence:
#
# PCOD9109732 Si02
#       6
#     2   2   2   2   2   2
#     4  10  20  41  67 103 138 187 239 290 344 420
#     4  10  24  43  63 101 140 175 233 289 350 428
#     4  10  21  43  66 100 135 182 234 286 356 412
#     4  11  22  42  69  96 136 186 224 293 353 415
#     4  10  21  39  70  99 137 185 239 286 344 421
#     4   9  22  41  66 100 132 173 232 279 359 415
#
# _framework density 26.216027
#
# number of rings (size 3 to 8) (size 9 to 14) (size 15 to 20)
#    0.000    2.000    3.333    0.000    2.333    8.667 
#    9.000    1.667    0.000    0.000    0.000    0.000 
#    0.000    0.000    0.000    0.000    0.000    0.000 
#
# Total GULP energy -66832.772455 kJ/mol
# GULP energy per Si atom -5569.397705 kJ/mol
# Density = 2.615636 g / cm^3
# Si number density = 26.216027 Si / 1000 Ang^3
#
#
#
# Elastic Constant Matrix: (Units=GPa)
#
#
# Indices 1 2 3 4 5 6 
#
# 1 114.0471 51.5620 44.6957 -11.2024 -28.0658 24.8201
# 2 51.5620 144.0800 12.1139 -14.1389 16.8202 15.6057
# 3 44.6957 12.1139 104.0385 0.7713 4.0431 0.1046
# 4 -11.2024 -14.1389 0.7713 38.7915 2.0369 4.1965
# 5 -28.0658 16.8202 4.0431 2.0369 49.8164 -11.0312
# 6 24.8201 15.6057 0.1046 4.1965 -11.0312 48.2398
#
#
#
# Elastic Compliance Matrix: (Units=1/GPa)
#
#
# Indices 1 2 3 4 5 6 
#
# 1 0.019772 -0.007011 -0.008197 0.003206 0.012885 -0.005220
# 2 -0.007011 0.010696 0.002071 0.002479 -0.008266 -0.001963
# 3 -0.008197 0.002071 0.013128 -0.001824 -0.005787 0.002354
# 4 0.003206 0.002479 -0.001824 0.028267 -0.001185 -0.005177
# 5 0.012885 -0.008266 -0.005787 -0.001185 0.031381 0.003336
# 6 -0.005220 -0.001963 0.002354 -0.005177 0.003336 0.025259
#
#
# Mechanical properties :
#
#
# Convention : Reuss Voigt Hill
#
# Bulk Modulus (GPa) = 57.72619 64.32320 61.02469
# Shear Modulus (GPa) = 31.14268 44.28914 37.71591
#
# Velocity S-wave (km/s) = 3.45037 4.11468 3.79708
# Velocity P-wave (km/s) = 6.15960 6.86755 6.52318
#
# Compressibility (1/GPa) = 0.01732316
#
# Stress axis : x y z
#
# Youngs Moduli (GPa) = 50.57575 93.48955 76.17136
#
# Poissons Ratio (x) = 0.65546 0.62440
# Poissons Ratio (y) = 0.35459 -0.15778
# Poissons Ratio (z) = 0.41458 -0.19365
#
# Static dielectric constant tensor:
#      x y z
#    x 2.123700 -0.141190 -0.072350 
#    y -0.141190 2.361760 0.209840 
#    z -0.072350 0.209840 2.260590 
# 
# From -- ./inp_files/91659.got.cif
#   From: 2010.05.17/outbox.cif.g08.bks.cpg/sg2_46_cif.got.tgz:91659.got - 2010.06.03 11:33:40.
