data_PCOD9109857
_publ_section_title
;
Structure prediction by ZEFSAII (Michael W. Deem and Ramdas Pophale) SiO2 
 PCOD9109857
Probable space group: P -1
;
_chemical_formula_sum "Si O2"
_cell_formula_units_Z 14
_cell_length_a 9.591335
_cell_length_b 8.715788
_cell_length_c 12.021342
_cell_angle_alpha 77.343985
_cell_angle_beta 58.721483
_cell_angle_gamma 121.382976
_cell_volume 543.748820
_symmetry_space_group_name_H-M "P -1"
_symmetry_group_IT_number 2
_symmetry_cell_setting 'triclinic'
loop_
_space_group_symop_operation_xyz
x,y,z
-x,-y,-z
loop_
_atom_site_type_symbol
_atom_site_label
_atom_site_fract_x
_atom_site_fract_y
_atom_site_fract_z
Si Si1 0.440717 0.653641 0.181339
Si Si2 0.723645 0.603759 0.210400
Si Si3 0.968353 0.148513 0.537120
Si Si4 0.700525 0.286136 0.399736
Si Si5 0.063901 0.001117 0.191605
Si Si6 0.976772 0.288161 0.132989
Si Si7 0.542654 0.065162 0.720354
O O1 0.558456 0.628586 0.234310
O O2 0.154599 0.389785 0.347361
O O3 0.451101 0.842610 0.180542
O O4 0.632026 0.768144 0.982149
O O5 0.615079 0.388924 0.368533
O O6 0.953613 0.846237 0.147929
O O7 0.801810 0.572566 0.069239
O O8 0.688271 0.009605 0.666926
O O9 0.000000 0.000000 0.500000
O O10 0.019282 0.165773 0.644569
O O11 0.953161 0.410030 0.213480
O O12 0.700138 0.287905 0.531966
O O13 0.500000 0.000000 0.500000
O O14 0.964049 0.106746 0.223905
O O15 0.737942 0.142724 0.175422
#
# Coordination Sequence:
#
# PCOD9109857 Si02
#       7
#     2   2   2   2   2   2   2
#     4  11  24  44  71  98 133 170 227 272 323 396
#     4  11  21  41  71 101 126 170 218 282 331 381
#     4  12  29  44  65  95 139 182 218 263 334 395
#     4  10  23  35  64  98 133 171 211 273 329 381
#     4  11  23  46  72  97 129 176 218 277 330 385
#     4  10  20  41  67  98 133 162 222 275 325 386
#     4  11  22  44  62  96 134 169 223 270 315 396
#
# _framework density 25.747181000000001
#
# number of rings (size 3 to 8) (size 9 to 14) (size 15 to 20)
#    0.000    1.143    2.857    3.429    8.000    2.286 
#    2.571    0.000    0.000    0.000    0.000    0.000 
#    0.000    0.000    0.000    0.000    0.000    0.000 
#
# Total GULP energy -78333.955136 kJ/mol
# GULP energy per Si atom -5595.282510 kJ/mol
# Density = 2.568858 g / cm^3
# Si number density = 25.747181 Si / 1000 Ang^3
#
#
#
# Elastic Constant Matrix: (Units=GPa)
#
#
# Indices 1 2 3 4 5 6 
#
# 1 94.9759 17.4281 27.6288 -0.7371 -13.4083 -22.1938
# 2 17.4281 52.4105 14.3585 4.8922 -11.9002 -14.9259
# 3 27.6288 14.3585 85.6984 2.2416 -6.1853 -3.4896
# 4 -0.7371 4.8922 2.2416 38.5165 -10.6990 -2.7235
# 5 -13.4083 -11.9002 -6.1853 -10.6990 50.4874 6.2012
# 6 -22.1938 -14.9259 -3.4896 -2.7235 6.2012 33.8279
#
#
#
# Elastic Compliance Matrix: (Units=1/GPa)
#
#
# Indices 1 2 3 4 5 6 
#
# 1 0.014105 -0.000911 -0.003935 0.001870 0.002444 0.008148
# 2 -0.000911 0.023641 -0.003017 -0.001218 0.003627 0.008759
# 3 -0.003935 -0.003017 0.013359 -0.000635 0.000065 -0.002598
# 4 0.001870 -0.001218 -0.000635 0.027937 0.005830 0.001804
# 5 0.002444 0.003627 0.000065 0.005830 0.022612 -0.000465
# 6 0.008148 0.008759 -0.002598 0.001804 -0.000465 0.038735
#
#
# Mechanical properties :
#
#
# Convention : Reuss Voigt Hill
#
# Bulk Modulus (GPa) = 28.26633 39.10175 33.68404
# Shear Modulus (GPa) = 29.77823 36.14430 32.96127
#
# Velocity S-wave (km/s) = 3.40452 3.75082 3.58186
# Velocity P-wave (km/s) = 5.14359 5.82906 5.49702
#
# Compressibility (1/GPa) = 0.03537778
#
# Stress axis : x y z
#
# Youngs Moduli (GPa) = 70.89863 42.29862 74.85836
#
# Poissons Ratio (x) = 0.03854 0.29459
# Poissons Ratio (y) = 0.06459 0.22585
# Poissons Ratio (z) = 0.27901 0.12762
#
# Static dielectric constant tensor:
#      x y z
#    x 2.010500 0.034590 -0.003500 
#    y 0.034590 2.021380 -0.010470 
#    z -0.003500 -0.010470 2.099660 
# 
# From -- ./inp_files/156671.got.cif
#   From: 2010.05.17/outbox.cif.g08.bks.cpg/sg2_79_cif.got.tgz:156671.got - 2010.06.03 11:33:40.
