data_PCOD9109033
_publ_section_title
;
Structure prediction by ZEFSAII (Michael W. Deem and Ramdas Pophale) SiO2 
 PCOD9109033
Probable space group: P -1
;
_chemical_formula_sum "Si O2"
_cell_formula_units_Z 16
_cell_length_a 14.666230
_cell_length_b 8.816742
_cell_length_c 11.359221
_cell_angle_alpha 79.705179
_cell_angle_beta 31.994579
_cell_angle_gamma 70.951725
_cell_volume 721.392851
_symmetry_space_group_name_H-M "P -1"
_symmetry_group_IT_number 2
_symmetry_cell_setting 'triclinic'
loop_
_space_group_symop_operation_xyz
x,y,z
-x,-y,-z
loop_
_atom_site_type_symbol
_atom_site_label
_atom_site_fract_x
_atom_site_fract_y
_atom_site_fract_z
Si Si1 0.549846 0.236903 0.555845
Si Si2 0.015183 0.902916 0.373349
Si Si3 0.999567 0.577896 0.169838
Si Si4 0.364701 0.161774 0.190116
Si Si5 0.418483 0.640905 0.969800
Si Si6 0.922141 0.960814 0.214275
Si Si7 0.307852 0.395277 0.003128
Si Si8 0.292207 0.466721 0.651409
O O1 0.439272 0.290423 0.547798
O O2 0.635165 0.382422 0.452644
O O3 0.709563 0.068674 0.423723
O O4 0.406033 0.265149 0.814470
O O5 0.826521 0.863543 0.570502
O O6 0.012834 0.991129 0.235100
O O7 0.000000 0.000000 0.500000
O O8 0.205027 0.752976 0.201478
O O9 0.958877 0.768841 0.197485
O O10 0.819488 0.540480 0.340304
O O11 0.099098 0.486965 0.187878
O O12 0.148278 0.510111 0.912107
O O13 0.467619 0.233505 0.166994
O O14 0.320625 0.301877 0.121596
O O15 0.500000 0.000000 0.000000
O O16 0.500000 0.500000 0.000000
O O17 0.408424 0.531499 0.882911
O O18 0.000000 0.000000 0.000000
#
# Coordination Sequence:
#
# PCOD9109033 Si02
#       8
#     2   2   2   2   2   2   2   2
#     4  10  21  39  66  93 135 184 228 282 351 414
#     4  12  26  46  74 108 144 188 237 296 364 418
#     4  10  20  41  61  96 136 176 226 287 344 412
#     4  11  23  44  70 102 141 184 238 294 354 426
#     4  10  23  44  69 101 144 184 238 293 353 423
#     4  12  25  44  70 101 141 184 233 292 350 419
#     4  10  22  42  65  98 141 178 230 291 352 421
#     4   9  20  38  62  90 132 179 230 273 344 414
#
# _framework density 22.179317999999999
#
# number of rings (size 3 to 8) (size 9 to 14) (size 15 to 20)
#    0.000    1.500    3.750    0.750    1.750    4.500 
#    2.250    0.000    0.000    0.000    0.000    0.000 
#    0.000    0.000    0.000    0.000    0.000    0.000 
#
# Total GULP energy -89247.625587 kJ/mol
# GULP energy per Si atom -5577.976599 kJ/mol
# Density = 2.212884 g / cm^3
# Si number density = 22.179318 Si / 1000 Ang^3
#
#
#
# Elastic Constant Matrix: (Units=GPa)
#
#
# Indices 1 2 3 4 5 6 
#
# 1 134.8906 41.9472 38.8076 10.9055 -22.9577 -7.5181
# 2 41.9472 69.5033 29.0987 32.9194 -8.4757 -18.7456
# 3 38.8076 29.0987 83.4864 19.1671 -14.2920 -9.6118
# 4 10.9055 32.9194 19.1671 44.4960 -7.9978 -12.7416
# 5 -22.9577 -8.4757 -14.2920 -7.9978 34.2087 6.2820
# 6 -7.5181 -18.7456 -9.6118 -12.7416 6.2820 33.9605
#
#
#
# Elastic Compliance Matrix: (Units=1/GPa)
#
#
# Indices 1 2 3 4 5 6 
#
# 1 0.011044 -0.007409 -0.002803 0.004502 0.005792 -0.001820
# 2 -0.007409 0.030109 -0.002778 -0.017644 -0.004336 0.008376
# 3 -0.002803 -0.002778 0.015585 -0.003286 0.003090 0.000453
# 4 0.004502 -0.017644 -0.003286 0.037828 0.005477 0.003507
# 5 0.005792 -0.004336 0.003090 0.005477 0.035488 -0.004746
# 6 -0.001820 0.008376 0.000453 0.003507 -0.004746 0.035988
#
#
# Mechanical properties :
#
#
# Convention : Reuss Voigt Hill
#
# Bulk Modulus (GPa) = 32.51043 56.39861 44.45452
# Shear Modulus (GPa) = 24.71891 34.40152 29.56021
#
# Velocity S-wave (km/s) = 3.34204 3.94263 3.65469
# Velocity P-wave (km/s) = 5.43894 6.79775 6.15595
#
# Compressibility (1/GPa) = 0.03075936
#
# Stress axis : x y z
#
# Youngs Moduli (GPa) = 90.54645 33.21232 64.16555
#
# Poissons Ratio (x) = 0.24606 0.17986
# Poissons Ratio (y) = 0.67083 0.17823
# Poissons Ratio (z) = 0.25380 0.09225
#
# Static dielectric constant tensor:
#      x y z
#    x 1.901560 0.011800 0.038130 
#    y 0.011800 1.788390 -0.020750 
#    z 0.038130 -0.020750 1.860510 
# 
# From -- ./inp_files/447301.got.cif
#   From: 2010.05.17/outbox.cif.g08.bks.cpg/sg2_224_cif.got.tgz:447301.got - 2010.06.03 11:33:40.
