data_PCOD9109743
_publ_section_title
;
Structure prediction by ZEFSAII (Michael W. Deem and Ramdas Pophale) SiO2 
 PCOD9109743
Probable space group: P -1
;
_chemical_formula_sum "Si O2"
_cell_formula_units_Z 16
_cell_length_a 8.539067
_cell_length_b 11.181685
_cell_length_c 9.140409
_cell_angle_alpha 82.888697
_cell_angle_beta 95.772552
_cell_angle_gamma 112.228119
_cell_volume 800.291317
_symmetry_space_group_name_H-M "P -1"
_symmetry_group_IT_number 2
_symmetry_cell_setting 'triclinic'
loop_
_space_group_symop_operation_xyz
x,y,z
-x,-y,-z
loop_
_atom_site_type_symbol
_atom_site_label
_atom_site_fract_x
_atom_site_fract_y
_atom_site_fract_z
Si Si1 0.555145 0.046805 0.726582
Si Si2 0.708191 0.360614 0.358719
Si Si3 0.660162 0.498559 0.607152
Si Si4 0.393121 0.210447 0.161239
Si Si5 0.914130 0.772620 0.705803
Si Si6 0.231970 0.902199 0.537782
Si Si7 0.110027 0.618398 0.896711
Si Si8 0.564677 0.288411 0.885795
O O1 0.718935 0.081428 0.630407
O O2 0.555718 0.162872 0.811802
O O3 0.552823 0.914986 0.821907
O O4 0.385228 0.014980 0.616524
O O5 0.735215 0.427045 0.507112
O O6 0.524242 0.316057 0.268707
O O7 0.736914 0.227552 0.399134
O O8 0.845072 0.438031 0.240556
O O9 0.500000 0.500000 0.500000
O O10 0.792407 0.641824 0.632256
O O11 0.602188 0.409458 0.760253
O O12 0.210038 0.176469 0.222306
O O13 0.410220 0.264826 0.989028
O O14 0.046065 0.874023 0.591310
O O15 0.022079 0.719405 0.834343
O O16 0.281024 0.685183 0.991705
O O17 0.000000 0.500000 0.000000
#
# Coordination Sequence:
#
# PCOD9109743 Si02
#       8
#     2   2   2   2   2   2   2   2
#     4  10  20  41  67  88 119 165 220 248 305 368
#     4   9  19  37  57  87 120 162 208 240 306 364
#     4  12  23  37  64  95 127 159 208 261 304 374
#     4  10  22  39  61  89 129 164 199 259 310 369
#     4  11  23  39  60  95 131 158 206 254 323 359
#     4   9  20  37  64  90 120 165 204 262 300 368
#     4  10  21  38  60  88 124 167 199 249 305 373
#     4  11  23  41  66  91 121 169 214 245 308 376
#
# _framework density 19.992719000000001
#
# number of rings (size 3 to 8) (size 9 to 14) (size 15 to 20)
#    0.000    1.750    3.750    1.125    0.000    5.000 
#    0.000    2.500    0.000    0.000    0.000    0.000 
#    0.000    0.000    0.000    0.000    0.000    0.000 
#
# Total GULP energy -89186.329932 kJ/mol
# GULP energy per Si atom -5574.145621 kJ/mol
# Density = 1.994721 g / cm^3
# Si number density = 19.992719 Si / 1000 Ang^3
#
#
#
# Elastic Constant Matrix: (Units=GPa)
#
#
# Indices 1 2 3 4 5 6 
#
# 1 78.0659 16.1789 27.6539 -4.2925 -15.6012 9.6669
# 2 16.1789 57.6399 29.8085 -2.0372 -15.1900 11.3899
# 3 27.6539 29.8085 109.5928 -12.2737 -22.2069 12.5943
# 4 -4.2925 -2.0372 -12.2737 38.0032 5.4985 -8.2992
# 5 -15.6012 -15.1900 -22.2069 5.4985 40.9128 -10.7032
# 6 9.6669 11.3899 12.5943 -8.2992 -10.7032 20.6333
#
#
#
# Elastic Compliance Matrix: (Units=1/GPa)
#
#
# Indices 1 2 3 4 5 6 
#
# 1 0.014970 -0.001525 -0.002411 -0.000319 0.003024 -0.003260
# 2 -0.001525 0.022524 -0.004362 -0.002702 0.003613 -0.008269
# 3 -0.002411 -0.004362 0.012013 0.002674 0.003368 -0.000973
# 4 -0.000319 -0.002702 0.002674 0.029619 -0.000619 0.011601
# 5 0.003024 0.003613 0.003368 -0.000619 0.031647 0.010701
# 6 -0.003260 -0.008269 -0.000973 0.011601 0.010701 0.065368
#
#
# Mechanical properties :
#
#
# Convention : Reuss Voigt Hill
#
# Bulk Modulus (GPa) = 30.38502 43.62012 37.00257
# Shear Modulus (GPa) = 24.54496 31.35370 27.94933
#
# Velocity S-wave (km/s) = 3.50765 3.96442 3.74301
# Velocity P-wave (km/s) = 5.62457 6.54376 6.10150
#
# Compressibility (1/GPa) = 0.03291096
#
# Stress axis : x y z
#
# Youngs Moduli (GPa) = 66.79896 44.39807 83.24255
#
# Poissons Ratio (x) = 0.06773 0.20070
# Poissons Ratio (y) = 0.10190 0.36306
# Poissons Ratio (z) = 0.16105 0.19364
#
# Static dielectric constant tensor:
#      x y z
#    x 1.857060 0.047770 -0.044150 
#    y 0.047770 1.722040 -0.036670 
#    z -0.044150 -0.036670 1.757010 
# 
# From -- ./inp_files/179122.got.cif
#   From: 2010.05.17/outbox.cif.g08.bks.cpg/sg2_90_cif.got.tgz:179122.got - 2010.06.03 11:33:40.
