data_PCOD9109942
_publ_section_title
;
Structure prediction by ZEFSAII (Michael W. Deem and Ramdas Pophale) SiO2 
 PCOD9109942
Probable space group: P -1
;
_chemical_formula_sum "Si O2"
_cell_formula_units_Z 16
_cell_length_a 13.758780
_cell_length_b 8.156674
_cell_length_c 8.218575
_cell_angle_alpha 115.932966
_cell_angle_beta 84.897721
_cell_angle_gamma 125.283403
_cell_volume 660.052134
_symmetry_space_group_name_H-M "P -1"
_symmetry_group_IT_number 2
_symmetry_cell_setting 'triclinic'
loop_
_space_group_symop_operation_xyz
x,y,z
-x,-y,-z
loop_
_atom_site_type_symbol
_atom_site_label
_atom_site_fract_x
_atom_site_fract_y
_atom_site_fract_z
Si Si1 0.677921 0.072547 0.373954
Si Si2 0.104287 0.444087 0.302484
Si Si3 0.902613 0.327569 0.075144
Si Si4 0.646500 0.684149 0.031612
Si Si5 0.197090 0.174373 0.243731
Si Si6 0.531933 0.001613 0.811439
Si Si7 0.242623 0.527811 0.988640
Si Si8 0.385880 0.248461 0.453887
O O1 0.688532 0.939282 0.167672
O O2 0.582783 0.116002 0.341680
O O3 0.619140 0.874932 0.435042
O O4 0.796306 0.305767 0.528921
O O5 0.110141 0.252725 0.302450
O O6 0.973768 0.389248 0.262686
O O7 0.149176 0.438037 0.111571
O O8 0.801414 0.376317 0.098688
O O9 0.000000 0.500000 0.000000
O O10 0.864387 0.082459 0.916710
O O11 0.722634 0.641037 0.127651
O O12 0.500000 0.500000 0.000000
O O13 0.695445 0.677508 0.843997
O O14 0.262455 0.217014 0.424318
O O15 0.604418 0.897077 0.745891
O O16 0.629103 0.262299 0.862817
O O17 0.500000 0.000000 0.000000
O O18 0.500000 0.500000 0.500000
#
# Coordination Sequence:
#
# PCOD9109942 Si02
#       8
#     2   2   2   2   2   2   2   2
#     4  12  24  41  62  94 138 167 212 275 331 378
#     4  10  22  41  66  94 123 168 215 280 321 367
#     4  10  20  41  68  94 123 168 226 275 316 379
#     4  11  23  39  63  94 134 178 211 259 328 403
#     4  11  22  41  65  96 128 171 227 255 325 409
#     4  12  24  39  63  90 132 173 213 256 328 399
#     4  10  21  39  64  89 125 171 215 256 319 393
#     4  12  24  36  59  97 132 170 212 265 323 388
#
# _framework density 24.240508999999999
#
# number of rings (size 3 to 8) (size 9 to 14) (size 15 to 20)
#    0.000    1.000    3.750    3.750    3.500    0.000 
#    0.000    1.250    0.000    0.000    0.000    0.000 
#    0.000    0.000    0.000    0.000    0.000    0.000 
#
# Total GULP energy -89358.777088 kJ/mol
# GULP energy per Si atom -5584.923568 kJ/mol
# Density = 2.418534 g / cm^3
# Si number density = 24.240509 Si / 1000 Ang^3
#
#
#
# Elastic Constant Matrix: (Units=GPa)
#
#
# Indices 1 2 3 4 5 6 
#
# 1 134.8599 21.3600 37.3215 -4.1174 31.2657 -32.4579
# 2 21.3600 95.0978 16.4936 7.2959 9.6544 -12.9267
# 3 37.3215 16.4936 78.1067 2.3170 32.8265 -10.9919
# 4 -4.1174 7.2959 2.3170 36.2565 0.9355 -2.3200
# 5 31.2657 9.6544 32.8265 0.9355 50.4766 -6.9805
# 6 -32.4579 -12.9267 -10.9919 -2.3200 -6.9805 42.3330
#
#
#
# Elastic Compliance Matrix: (Units=1/GPa)
#
#
# Indices 1 2 3 4 5 6 
#
# 1 0.010890 -0.000836 -0.002387 0.002106 -0.004117 0.006911
# 2 -0.000836 0.011475 -0.001489 -0.002153 -0.000351 0.002300
# 3 -0.002387 -0.001489 0.018721 -0.000849 -0.010281 0.000835
# 4 0.002106 -0.002153 -0.000849 0.028463 -0.000563 0.002204
# 5 -0.004117 -0.000351 -0.010281 -0.000563 0.028960 -0.001188
# 6 0.006911 0.002300 0.000835 0.002204 -0.001188 0.029765
#
#
# Mechanical properties :
#
#
# Convention : Reuss Voigt Hill
#
# Bulk Modulus (GPa) = 31.58243 50.93494 41.25868
# Shear Modulus (GPa) = 33.72618 41.33917 37.53267
#
# Velocity S-wave (km/s) = 3.73408 4.13410 3.93917
# Velocity P-wave (km/s) = 5.62567 6.62160 6.14385
#
# Compressibility (1/GPa) = 0.03166318
#
# Stress axis : x y z
#
# Youngs Moduli (GPa) = 91.82602 87.14624 53.41533
#
# Poissons Ratio (x) = 0.07288 0.12749
# Poissons Ratio (y) = 0.07679 0.07951
# Poissons Ratio (z) = 0.21917 0.12972
#
# Static dielectric constant tensor:
#      x y z
#    x 2.017150 -0.143860 -0.019160 
#    y -0.143860 2.739030 0.194910 
#    z -0.019160 0.194910 2.020310 
# 
# From -- ./inp_files/299281.got.cif
#   From: 2010.05.17/outbox.cif.g08.bks.cpg/sg2_150_cif.got.tgz:299281.got - 2010.06.03 11:33:40.
