data_PCOD9109388
_publ_section_title
;
Structure prediction by ZEFSAII (Michael W. Deem and Ramdas Pophale) SiO2 
 PCOD9109388
Probable space group: P -1
;
_chemical_formula_sum "Si O2"
_cell_formula_units_Z 16
_cell_length_a 17.106916
_cell_length_b 12.427841
_cell_length_c 6.434117
_cell_angle_alpha 46.622129
_cell_angle_beta 56.997911
_cell_angle_gamma 48.327670
_cell_volume 732.835726
_symmetry_space_group_name_H-M "P -1"
_symmetry_group_IT_number 2
_symmetry_cell_setting 'triclinic'
loop_
_space_group_symop_operation_xyz
x,y,z
-x,-y,-z
loop_
_atom_site_type_symbol
_atom_site_label
_atom_site_fract_x
_atom_site_fract_y
_atom_site_fract_z
Si Si1 0.153254 0.756588 0.074971
Si Si2 0.925137 0.196549 0.403544
Si Si3 0.612008 0.498870 0.804946
Si Si4 0.700610 0.253287 0.654110
Si Si5 0.445500 0.125552 0.606789
Si Si6 0.362239 0.961207 0.247626
Si Si7 0.204202 0.020486 0.750280
Si Si8 0.009948 0.330776 0.803305
O O1 0.080380 0.705751 0.115470
O O2 0.190613 0.763435 0.572508
O O3 0.138452 0.943633 0.826019
O O4 0.280288 0.631560 0.057704
O O5 0.891266 0.235928 0.638246
O O6 0.000000 0.000000 0.500000
O O7 0.984035 0.304143 0.112272
O O8 0.638439 0.435135 0.611296
O O9 0.600207 0.679679 0.639476
O O10 0.500000 0.500000 0.000000
O O11 0.643901 0.194936 0.643827
O O12 0.728282 0.119722 0.985288
O O13 0.532392 0.099181 0.690365
O O14 0.500000 0.000000 0.500000
O O15 0.363213 0.080155 0.903341
O O16 0.272198 0.046285 0.439645
O O17 0.124767 0.185106 0.767571
O O18 0.000000 0.500000 0.500000
#
# Coordination Sequence:
#
# PCOD9109388 Si02
#       8
#     2   2   2   2   2   2   2   2
#     4  10  23  40  65  91 123 170 221 256 323 387
#     4  10  20  41  65  88 124 172 210 262 315 377
#     4  10  21  42  67  89 124 163 210 276 314 374
#     4  10  22  40  67  95 119 165 224 259 317 385
#     4  11  24  43  62  90 132 167 208 261 332 384
#     4  11  23  38  65  94 121 166 212 261 323 391
#     4  10  21  39  62  90 124 166 211 262 318 385
#     4  12  25  38  61  96 132 169 215 267 319 379
#
# _framework density 21.832996999999999
#
# number of rings (size 3 to 8) (size 9 to 14) (size 15 to 20)
#    0.000    1.750    2.500    4.125    1.750    5.000 
#    0.000    8.750    0.000    0.000    0.000    0.000 
#    0.000    0.000    0.000    0.000    0.000    0.000 
#
# Total GULP energy -89247.992019 kJ/mol
# GULP energy per Si atom -5577.999501 kJ/mol
# Density = 2.178330 g / cm^3
# Si number density = 21.832997 Si / 1000 Ang^3
#
#
#
# Elastic Constant Matrix: (Units=GPa)
#
#
# Indices 1 2 3 4 5 6 
#
# 1 54.5706 9.1016 -6.5495 10.0725 -2.2661 4.5469
# 2 9.1016 110.5861 38.9921 0.8896 -9.2374 -9.2679
# 3 -6.5495 38.9921 120.7313 11.8762 -33.6304 -14.3300
# 4 10.0725 0.8896 11.8762 37.4939 -3.8309 -6.2126
# 5 -2.2661 -9.2374 -33.6304 -3.8309 33.3842 5.7543
# 6 4.5469 -9.2679 -14.3300 -6.2126 5.7543 28.9660
#
#
#
# Elastic Compliance Matrix: (Units=1/GPa)
#
#
# Indices 1 2 3 4 5 6 
#
# 1 0.021087 -0.002925 0.003312 -0.007050 0.003996 -0.004913
# 2 -0.002925 0.010752 -0.003899 0.002070 -0.001377 0.002688
# 3 0.003312 -0.003899 0.013692 -0.003586 0.012216 0.001810
# 4 -0.007050 0.002070 -0.003586 0.030659 -0.001173 0.006804
# 5 0.003996 -0.001377 0.012216 -0.001173 0.042662 -0.003752
# 6 -0.004913 0.002688 0.001810 0.006804 -0.003752 0.039255
#
#
# Mechanical properties :
#
#
# Convention : Reuss Voigt Hill
#
# Bulk Modulus (GPa) = 25.96923 40.99738 33.48330
# Shear Modulus (GPa) = 28.09515 36.25842 32.17678
#
# Velocity S-wave (km/s) = 3.59112 4.07961 3.84313
# Velocity P-wave (km/s) = 5.39585 6.40386 5.92134
#
# Compressibility (1/GPa) = 0.03850712
#
# Stress axis : x y z
#
# Youngs Moduli (GPa) = 47.42295 93.00678 73.03386
#
# Poissons Ratio (x) = 0.27200 -0.24189
# Poissons Ratio (y) = 0.13869 0.28479
# Poissons Ratio (z) = -0.15707 0.36268
#
# Static dielectric constant tensor:
#      x y z
#    x 1.921940 0.018080 0.134780 
#    y 0.018080 1.785240 0.028840 
#    z 0.134780 0.028840 2.000910 
# 
# From -- ./inp_files/109467.got.cif
#   From: 2010.05.17/outbox.cif.g08.bks.cpg/sg2_55_cif.got.tgz:109467.got - 2010.06.03 11:33:40.
