data_PCOD9109697
_publ_section_title
;
Structure prediction by ZEFSAII (Michael W. Deem and Ramdas Pophale) SiO2 
 PCOD9109697
Probable space group: P -1
;
_chemical_formula_sum "Si O2"
_cell_formula_units_Z 16
_cell_length_a 20.555415
_cell_length_b 9.224911
_cell_length_c 9.894956
_cell_angle_alpha 101.909996
_cell_angle_beta 119.420586
_cell_angle_gamma 131.074661
_cell_volume 729.580272
_symmetry_space_group_name_H-M "P -1"
_symmetry_group_IT_number 2
_symmetry_cell_setting 'triclinic'
loop_
_space_group_symop_operation_xyz
x,y,z
-x,-y,-z
loop_
_atom_site_type_symbol
_atom_site_label
_atom_site_fract_x
_atom_site_fract_y
_atom_site_fract_z
Si Si1 0.261552 0.184235 0.568331
Si Si2 0.617188 0.316542 0.769372
Si Si3 0.903150 0.557662 0.404161
Si Si4 0.178338 0.845248 0.182166
Si Si5 0.636913 0.328727 0.119107
Si Si6 0.230210 0.984501 0.768351
Si Si7 0.352499 0.292449 0.217230
Si Si8 0.128912 0.467260 0.941146
O O1 0.346084 0.486486 0.749589
O O2 0.284853 0.127071 0.449050
O O3 0.298975 0.147362 0.726658
O O4 0.065372 0.872182 0.301297
O O5 0.623211 0.493115 0.752997
O O6 0.500000 0.000000 0.500000
O O7 0.594518 0.271959 0.903232
O O8 0.796191 0.561210 0.974758
O O9 0.808798 0.539601 0.346645
O O10 0.850621 0.318880 0.385071
O O11 0.845315 0.435068 0.167269
O O12 0.098883 0.883572 0.654054
O O13 0.191461 0.961106 0.077985
O O14 0.225947 0.759831 0.184356
O O15 0.000000 0.500000 0.000000
O O16 0.500000 0.000000 0.000000
O O17 0.348847 0.195741 0.055779
O O18 0.500000 0.500000 0.500000
#
# Coordination Sequence:
#
# PCOD9109697 Si02
#       8
#     2   2   2   2   2   2   2   2
#     4  10  22  41  66  97 132 168 218 280 338 395
#     4  11  25  43  67  93 133 181 228 268 332 413
#     4   9  20  37  70  94 126 165 216 276 327 396
#     4  10  22  43  66  97 137 171 217 284 336 394
#     4  11  25  44  64  99 141 171 216 285 346 393
#     4  10  20  41  66  98 118 169 233 266 326 396
#     4  12  25  42  69  93 132 181 229 269 331 414
#     4   9  19  41  69  93 127 172 218 276 329 397
#
# _framework density 21.930418
#
# number of rings (size 3 to 8) (size 9 to 14) (size 15 to 20)
#    0.000    1.750    2.500    0.750    7.000    1.500 
#    4.500    3.750    0.000    0.000    0.000    0.000 
#    0.000    0.000    0.000    0.000    0.000    0.000 
#
# Total GULP energy -89221.780216 kJ/mol
# GULP energy per Si atom -5576.361263 kJ/mol
# Density = 2.188050 g / cm^3
# Si number density = 21.930418 Si / 1000 Ang^3
#
#
#
# Elastic Constant Matrix: (Units=GPa)
#
#
# Indices 1 2 3 4 5 6 
#
# 1 62.1544 35.7139 34.3615 -6.2448 -20.8803 -6.9936
# 2 35.7139 120.4823 29.9129 -5.1763 -12.0653 -14.5547
# 3 34.3615 29.9129 99.3079 -8.4399 -22.5172 -1.2959
# 4 -6.2448 -5.1763 -8.4399 30.2065 -4.6756 -1.6659
# 5 -20.8803 -12.0653 -22.5172 -4.6756 49.6876 2.5013
# 6 -6.9936 -14.5547 -1.2959 -1.6659 2.5013 31.8815
#
#
#
# Elastic Compliance Matrix: (Units=1/GPa)
#
#
# Indices 1 2 3 4 5 6 
#
# 1 0.024850 -0.004876 -0.005111 0.004135 0.007197 0.002669
# 2 -0.004876 0.010555 -0.001461 0.000555 -0.000284 0.003741
# 3 -0.005111 -0.001461 0.013401 0.002967 0.003920 -0.001396
# 4 0.004135 0.000555 0.002967 0.036033 0.006474 0.002656
# 5 0.007197 -0.000284 0.003920 0.006474 0.025469 -0.000052
# 6 0.002669 0.003741 -0.001396 0.002656 -0.000052 0.033745
#
#
# Mechanical properties :
#
#
# Convention : Reuss Voigt Hill
#
# Bulk Modulus (GPa) = 38.59553 53.54679 46.07116
# Shear Modulus (GPa) = 28.47575 34.48556 31.48065
#
# Velocity S-wave (km/s) = 3.60732 3.96978 3.79288
# Velocity P-wave (km/s) = 5.91504 6.74402 6.34309
#
# Compressibility (1/GPa) = 0.02590974
#
# Stress axis : x y z
#
# Youngs Moduli (GPa) = 40.24093 94.73816 74.62139
#
# Poissons Ratio (x) = 0.46198 0.38143
# Poissons Ratio (y) = 0.19623 0.10899
# Poissons Ratio (z) = 0.20569 0.13837
#
# Static dielectric constant tensor:
#      x y z
#    x 1.838360 0.032460 0.028130 
#    y 0.032460 1.810780 0.040860 
#    z 0.028130 0.040860 1.871300 
# 
# From -- ./inp_files/343681.got.cif
#   From: 2010.05.17/outbox.cif.g08.bks.cpg/sg2_172_cif.got.tgz:343681.got - 2010.06.03 11:33:40.
