data_PCOD9109226
_publ_section_title
;
Structure prediction by ZEFSAII (Michael W. Deem and Ramdas Pophale) SiO2 
 PCOD9109226
Probable space group: P -1
;
_chemical_formula_sum "Si O2"
_cell_formula_units_Z 12
_cell_length_a 6.774574
_cell_length_b 11.286312
_cell_length_c 9.184558
_cell_angle_alpha 54.229657
_cell_angle_beta 52.726607
_cell_angle_gamma 71.303667
_cell_volume 452.798359
_symmetry_space_group_name_H-M "P -1"
_symmetry_group_IT_number 2
_symmetry_cell_setting 'triclinic'
loop_
_space_group_symop_operation_xyz
x,y,z
-x,-y,-z
loop_
_atom_site_type_symbol
_atom_site_label
_atom_site_fract_x
_atom_site_fract_y
_atom_site_fract_z
Si Si1 0.685539 0.237362 0.634859
Si Si2 0.027958 0.839654 0.167047
Si Si3 0.261727 0.067117 0.269385
Si Si4 0.385926 0.579832 0.715463
Si Si5 0.952294 0.706234 0.995561
Si Si6 0.751207 0.720403 0.635867
O O1 0.537459 0.351054 0.525047
O O2 0.734708 0.202381 0.808312
O O3 0.968149 0.301645 0.420633
O O4 0.604474 0.078833 0.721267
O O5 0.807918 0.820789 0.397669
O O6 0.008592 0.726516 0.124657
O O7 0.000000 0.000000 0.000000
O O8 0.369788 0.183923 0.254325
O O9 0.180609 0.151162 0.102206
O O10 0.000000 0.000000 0.500000
O O11 0.203143 0.685673 0.807328
O O12 0.611318 0.578703 0.731172
O O13 0.235855 0.428033 0.867622
#
# Coordination Sequence:
#
# PCOD9109226 Si02
#       6
#     2   2   2   2   2   2
#     4   9  20  39  60  81 119 150 186 236 292 328
#     4  10  19  38  63  83 113 154 187 237 290 329
#     4  10  16  38  59  80 114 155 182 235 283 335
#     4  11  23  38  58  88 114 154 192 232 282 347
#     4  11  21  37  61  85 119 146 193 243 278 331
#     4   9  21  37  60  83 113 158 189 224 294 342
#
# _framework density 26.501861000000002
#
# number of rings (size 3 to 8) (size 9 to 14) (size 15 to 20)
#    1.000    1.000    5.000    0.000    0.000    2.667 
#    0.000    2.500    0.000    0.000    0.000    0.000 
#    0.000    0.000    0.000    0.000    0.000    0.000 
#
# Total GULP energy -67028.621885 kJ/mol
# GULP energy per Si atom -5585.718490 kJ/mol
# Density = 2.644154 g / cm^3
# Si number density = 26.501861 Si / 1000 Ang^3
#
#
#
# Elastic Constant Matrix: (Units=GPa)
#
#
# Indices 1 2 3 4 5 6 
#
# 1 92.5738 43.3057 19.5019 12.0200 0.8225 32.1681
# 2 43.3057 127.1145 26.9983 21.4134 13.7287 32.1983
# 3 19.5019 26.9983 73.0917 18.7015 24.8106 2.2028
# 4 12.0200 21.4134 18.7015 42.3369 3.8130 8.2246
# 5 0.8225 13.7287 24.8106 3.8130 33.9970 10.5388
# 6 32.1681 32.1983 2.2028 8.2246 10.5388 51.4030
#
#
#
# Elastic Compliance Matrix: (Units=1/GPa)
#
#
# Indices 1 2 3 4 5 6 
#
# 1 0.016846 -0.002828 -0.006122 0.000605 0.008332 -0.010313
# 2 -0.002828 0.010968 -0.001999 -0.002915 -0.001244 -0.004293
# 3 -0.006122 -0.001999 0.024142 -0.008016 -0.018599 0.009145
# 4 0.000605 -0.002915 -0.008016 0.028760 0.004975 -0.003831
# 5 0.008332 -0.001244 -0.018599 0.004975 0.047098 -0.014090
# 6 -0.010313 -0.004293 0.009145 -0.003831 -0.014090 0.031707
#
#
# Mechanical properties :
#
#
# Convention : Reuss Voigt Hill
#
# Bulk Modulus (GPa) = 33.27011 52.48800 42.87905
# Shear Modulus (GPa) = 26.11776 39.07897 32.59836
#
# Velocity S-wave (km/s) = 3.14268 3.84418 3.51100
# Velocity P-wave (km/s) = 5.07442 6.28904 5.71410
#
# Compressibility (1/GPa) = 0.03005701
#
# Stress axis : x y z
#
# Youngs Moduli (GPa) = 59.36075 91.17441 41.42111
#
# Poissons Ratio (x) = 0.25786 0.25359
# Poissons Ratio (y) = 0.16789 0.08281
# Poissons Ratio (z) = 0.36342 0.18227
#
# Static dielectric constant tensor:
#      x y z
#    x 2.159380 -0.036370 -0.117700 
#    y -0.036370 2.062060 0.055780 
#    z -0.117700 0.055780 2.107720 
# 
# From -- ./inp_files/174843.got.cif
#   From: 2010.05.17/outbox.cif.g08.bks.cpg/sg2_88_cif.got.tgz:174843.got - 2010.06.03 11:33:40.
