data_PCOD9109016
_publ_section_title
;
Structure prediction by ZEFSAII (Michael W. Deem and Ramdas Pophale) SiO2 
 PCOD9109016
Probable space group: P -1
;
_chemical_formula_sum "Si O2"
_cell_formula_units_Z 16
_cell_length_a 6.649236
_cell_length_b 10.763803
_cell_length_c 17.731715
_cell_angle_alpha 55.555196
_cell_angle_beta 129.658172
_cell_angle_gamma 111.123145
_cell_volume 805.719645
_symmetry_space_group_name_H-M "P -1"
_symmetry_group_IT_number 2
_symmetry_cell_setting 'triclinic'
loop_
_space_group_symop_operation_xyz
x,y,z
-x,-y,-z
loop_
_atom_site_type_symbol
_atom_site_label
_atom_site_fract_x
_atom_site_fract_y
_atom_site_fract_z
Si Si1 0.168838 0.822614 0.683186
Si Si2 0.788336 0.828676 0.458196
Si Si3 0.399829 0.815422 0.186178
Si Si4 0.860205 0.065919 0.200308
Si Si5 0.199535 0.817734 0.295994
Si Si6 0.877642 0.653987 0.392124
Si Si7 0.816411 0.303072 0.978618
Si Si8 0.403581 0.423828 0.082068
O O1 0.061321 0.860181 0.727493
O O2 0.398306 0.703017 0.795167
O O3 0.954555 0.772563 0.588126
O O4 0.244578 0.989675 0.613546
O O5 0.491308 0.773327 0.405214
O O6 0.921436 0.772135 0.431420
O O7 0.200316 0.836341 0.199900
O O8 0.569852 0.667437 0.299199
O O9 0.275134 0.785977 0.086324
O O10 0.610054 0.953130 0.188652
O O11 0.788590 0.194262 0.080573
O O12 0.099203 0.972153 0.255519
O O13 0.006961 0.699419 0.328455
O O14 0.000000 0.500000 0.500000
O O15 0.645196 0.449031 0.909479
O O16 0.117721 0.352092 0.024452
O O17 0.500000 0.500000 0.000000
#
# Coordination Sequence:
#
# PCOD9109016 Si02
#       8
#     2   2   2   2   2   2   2   2
#     4  11  21  43  63  91 129 161 207 265 311 368
#     4  10  22  40  64  93 122 164 212 256 315 373
#     4  10  23  41  64  96 123 160 217 257 316 376
#     4  11  21  41  66  93 130 161 209 267 309 376
#     4  10  20  41  61  93 125 161 206 256 312 370
#     4  10  22  41  60  91 127 163 205 262 310 373
#     4  11  25  42  65  95 122 173 211 250 327 376
#     4  11  25  45  63  89 133 168 209 266 309 376
#
# _framework density 19.858024
#
# number of rings (size 3 to 8) (size 9 to 14) (size 15 to 20)
#    0.000    1.500    5.000    1.125    1.750    5.000 
#    4.500    0.000    0.000    0.000    0.000    0.000 
#    0.000    0.000    0.000    0.000    0.000    0.000 
#
# Total GULP energy -89228.355592 kJ/mol
# GULP energy per Si atom -5576.772225 kJ/mol
# Density = 1.981283 g / cm^3
# Si number density = 19.858024 Si / 1000 Ang^3
#
#
#
# Elastic Constant Matrix: (Units=GPa)
#
#
# Indices 1 2 3 4 5 6 
#
# 1 108.9505 30.6482 34.6271 2.5218 -12.9837 -21.7622
# 2 30.6482 45.5252 25.5179 5.8132 -11.0485 -6.8812
# 3 34.6271 25.5179 104.6586 -5.6777 -12.6759 -13.9602
# 4 2.5218 5.8132 -5.6777 45.1798 -16.5855 -7.5177
# 5 -12.9837 -11.0485 -12.6759 -16.5855 29.1821 4.7078
# 6 -21.7622 -6.8812 -13.9602 -7.5177 4.7078 9.6153
#
#
#
# Elastic Compliance Matrix: (Units=1/GPa)
#
#
# Indices 1 2 3 4 5 6 
#
# 1 0.021687 -0.008398 0.003400 0.011393 0.005689 0.054133
# 2 -0.008398 0.030956 -0.005931 -0.004392 0.004719 -0.011209
# 3 0.003400 -0.005931 0.015238 0.009948 0.006688 0.030077
# 4 0.011393 -0.004392 0.009948 0.040975 0.021568 0.058562
# 5 0.005689 0.004719 0.006688 0.021568 0.050857 0.017925
# 6 0.054133 -0.011209 0.030077 0.058562 0.017925 0.299177
#
#
# Mechanical properties :
#
#
# Convention : Reuss Voigt Hill
#
# Bulk Modulus (GPa) = 21.72833 48.96897 35.34865
# Shear Modulus (GPa) = 10.07884 28.01818 19.04851
#
# Velocity S-wave (km/s) = 2.25532 3.76030 3.10051
# Velocity P-wave (km/s) = 4.21278 6.60047 5.53687
#
# Compressibility (1/GPa) = 0.04602287
#
# Stress axis : x y z
#
# Youngs Moduli (GPa) = 46.10992 32.30405 65.62679
#
# Poissons Ratio (x) = 0.27129 -0.22313
# Poissons Ratio (y) = 0.38723 0.38924
# Poissons Ratio (z) = -0.15677 0.19160
#
# Static dielectric constant tensor:
#      x y z
#    x 1.707800 -0.007730 0.005000 
#    y -0.007730 1.741200 -0.025710 
#    z 0.005000 -0.025710 1.694510 
# 
# From -- ./inp_files/69257.got.cif
#   From: 2010.05.17/outbox.cif.g08.bks.cpg/sg2_35_cif.got.tgz:69257.got - 2010.06.03 11:33:40.
