data_PCOD9109136
_publ_section_title
;
Structure prediction by ZEFSAII (Michael W. Deem and Ramdas Pophale) SiO2 
 PCOD9109136
Probable space group: P -1
;
_chemical_formula_sum "Si O2"
_cell_formula_units_Z 16
_cell_length_a 14.623021
_cell_length_b 11.876964
_cell_length_c 9.401785
_cell_angle_alpha 106.702369
_cell_angle_beta 96.396282
_cell_angle_gamma 29.559677
_cell_volume 737.627804
_symmetry_space_group_name_H-M "P -1"
_symmetry_group_IT_number 2
_symmetry_cell_setting 'triclinic'
loop_
_space_group_symop_operation_xyz
x,y,z
-x,-y,-z
loop_
_atom_site_type_symbol
_atom_site_label
_atom_site_fract_x
_atom_site_fract_y
_atom_site_fract_z
Si Si1 0.694899 0.716395 0.378004
Si Si2 0.856186 0.701567 0.173636
Si Si3 0.111940 0.533648 0.399914
Si Si4 0.435919 0.443988 0.169262
Si Si5 0.469248 0.156436 0.131354
Si Si6 0.199693 0.659822 0.778982
Si Si7 0.762959 0.171859 0.940260
Si Si8 0.181744 0.727559 0.494573
O O1 0.766718 0.690051 0.234029
O O2 0.860848 0.547848 0.466783
O O3 0.674476 0.599045 0.310144
O O4 0.500000 0.000000 0.500000
O O5 0.961245 0.654830 0.301823
O O6 0.672507 0.970872 0.166405
O O7 0.000000 0.500000 0.000000
O O8 0.322597 0.284995 0.275554
O O9 0.100498 0.686046 0.470660
O O10 0.382149 0.365750 0.105765
O O11 0.329521 0.678219 0.168050
O O12 0.370179 0.525241 0.352794
O O13 0.640293 0.227522 0.044071
O O14 0.500000 0.000000 0.000000
O O15 0.225851 0.707151 0.657946
O O16 0.234373 0.705942 0.933154
O O17 0.972769 0.883633 0.839892
O O18 0.000000 0.000000 0.500000
#
# Coordination Sequence:
#
# PCOD9109136 Si02
#       8
#     2   2   2   2   2   2   2   2
#     4  11  24  44  65  94 137 174 218 273 336 395
#     4  12  25  41  67  97 125 177 223 261 336 391
#     4  10  23  43  64  93 130 170 217 266 322 398
#     4  10  23  40  64  92 132 164 216 271 323 390
#     4  11  23  41  66  98 133 168 215 278 332 383
#     4  10  23  40  66  93 125 172 219 264 328 392
#     4  10  22  42  63  96 126 171 220 265 325 388
#     4  10  20  41  63  89 125 168 206 265 328 380
#
# _framework density 21.691158000000001
#
# number of rings (size 3 to 8) (size 9 to 14) (size 15 to 20)
#    0.000    1.500    3.750    0.375    3.500    1.500 
#    2.250    0.000    0.000    0.000    0.000    0.000 
#    0.000    0.000    0.000    0.000    0.000    0.000 
#
# Total GULP energy -89130.799964 kJ/mol
# GULP energy per Si atom -5570.674998 kJ/mol
# Density = 2.164179 g / cm^3
# Si number density = 21.691158 Si / 1000 Ang^3
#
#
#
# Elastic Constant Matrix: (Units=GPa)
#
#
# Indices 1 2 3 4 5 6 
#
# 1 34.3275 8.5699 16.5253 -2.1084 -18.3481 6.7426
# 2 8.5699 65.6892 15.4620 3.3758 0.0824 11.6551
# 3 16.5253 15.4620 98.7172 8.9471 -22.2059 8.3012
# 4 -2.1084 3.3758 8.9471 36.3491 2.8392 3.0826
# 5 -18.3481 0.0824 -22.2059 2.8392 43.6909 -2.9756
# 6 6.7426 11.6551 8.3012 3.0826 -2.9756 32.7187
#
#
#
# Elastic Compliance Matrix: (Units=1/GPa)
#
#
# Indices 1 2 3 4 5 6 
#
# 1 0.040688 -0.003938 -0.002559 0.002603 0.015271 -0.005189
# 2 -0.003938 0.017186 -0.002266 -0.000601 -0.003137 -0.004964
# 3 -0.002559 -0.002266 0.012530 -0.003360 0.005446 -0.001032
# 4 0.002603 -0.000601 -0.003360 0.028960 -0.002662 -0.002441
# 5 0.015271 -0.003137 0.005446 -0.002662 0.032232 -0.000229
# 6 -0.005189 -0.004964 -0.001032 -0.002441 -0.000229 0.033872
#
#
# Mechanical properties :
#
#
# Convention : Reuss Voigt Hill
#
# Bulk Modulus (GPa) = 18.91182 31.09425 25.00304
# Shear Modulus (GPa) = 24.92275 33.09685 29.00980
#
# Velocity S-wave (km/s) = 3.39334 3.91042 3.66102
# Velocity P-wave (km/s) = 4.90822 5.89530 5.42426
#
# Compressibility (1/GPa) = 0.05287697
#
# Stress axis : x y z
#
# Youngs Moduli (GPa) = 24.57743 58.18672 79.81087
#
# Poissons Ratio (x) = 0.22915 0.20421
# Poissons Ratio (y) = 0.09679 0.18088
# Poissons Ratio (z) = 0.06289 0.13188
#
# Static dielectric constant tensor:
#      x y z
#    x 1.820750 -0.009830 -0.011310 
#    y -0.009830 1.857710 -0.088740 
#    z -0.011310 -0.088740 1.768190 
# 
# From -- ./inp_files/307733.got.cif
#   From: 2010.05.17/outbox.cif.g08.bks.cpg/sg2_154_cif.got.tgz:307733.got - 2010.06.03 11:33:40.
