data_PCOD9109291
_publ_section_title
;
Structure prediction by ZEFSAII (Michael W. Deem and Ramdas Pophale) SiO2 
 PCOD9109291
Probable space group: P -1
;
_chemical_formula_sum "Si O2"
_cell_formula_units_Z 15
_cell_length_a 9.561432
_cell_length_b 6.986637
_cell_length_c 20.336066
_cell_angle_alpha 62.394222
_cell_angle_beta 141.173781
_cell_angle_gamma 126.890082
_cell_volume 681.173349
_symmetry_space_group_name_H-M "P -1"
_symmetry_group_IT_number 2
_symmetry_cell_setting 'triclinic'
loop_
_space_group_symop_operation_xyz
x,y,z
-x,-y,-z
loop_
_atom_site_type_symbol
_atom_site_label
_atom_site_fract_x
_atom_site_fract_y
_atom_site_fract_z
Si Si1 0.970214 0.207125 0.915615
Si Si2 0.417533 0.091076 0.542820
Si Si3 0.500000 0.500000 0.000000
Si Si4 0.874277 0.322404 0.578587
Si Si5 0.445074 0.667388 0.199648
Si Si6 0.222233 0.248923 0.562431
Si Si7 0.259146 0.118316 0.238820
Si Si8 0.786459 0.790500 0.188764
O O1 0.236561 0.405186 0.960640
O O2 0.794540 0.291444 0.878760
O O3 0.823414 0.077907 0.817060
O O4 0.000000 0.000000 0.000000
O O5 0.623225 0.237474 0.542108
O O6 0.401229 0.268118 0.563299
O O7 0.167930 0.910264 0.443749
O O8 0.517243 0.908593 0.639110
O O9 0.347747 0.341436 0.905174
O O10 0.884592 0.554042 0.509189
O O11 0.094876 0.362433 0.703198
O O12 0.628280 0.739721 0.318345
O O13 0.347752 0.382411 0.201424
O O14 0.594367 0.809835 0.167614
O O15 0.000000 0.000000 0.500000
O O16 0.023038 0.034190 0.214962
#
# Coordination Sequence:
#
# PCOD9109291 Si02
#       8
#     2   2   1   2   2   2   2   2
#     4  11  25  45  72 100 132 180 229 288 343 407
#     4  10  20  41  64  92 135 181 224 275 334 403
#     4  10  24  48  70  98 134 176 228 290 346 394
#     4  10  22  41  66  96 136 182 226 273 337 410
#     4  12  25  44  71 102 139 180 229 282 345 411
#     4  12  25  37  63 104 142 181 225 279 340 410
#     4  10  22  44  68  94 138 181 225 279 343 402
#     4  10  24  43  70 103 135 183 231 284 341 409
#
# _framework density 22.020824999999999
#
# number of rings (size 3 to 8) (size 9 to 14) (size 15 to 20)
#    0.000    1.333    2.667    2.000    1.867    5.333 
#    2.400    2.667    0.000    0.000    0.000    0.000 
#    0.000    0.000    0.000    0.000    0.000    0.000 
#
# Total GULP energy -83559.790342 kJ/mol
# GULP energy per Si atom -5570.652689 kJ/mol
# Density = 2.197070 g / cm^3
# Si number density = 22.020825 Si / 1000 Ang^3
#
#
#
# Elastic Constant Matrix: (Units=GPa)
#
#
# Indices 1 2 3 4 5 6 
#
# 1 130.8868 4.1101 -7.0477 9.7191 13.5986 1.0022
# 2 4.1101 37.4892 -0.1142 8.0004 16.6700 -5.4619
# 3 -7.0477 -0.1142 48.9272 26.1933 9.4081 5.4141
# 4 9.7191 8.0004 26.1933 32.8465 -3.3751 -3.4277
# 5 13.5986 16.6700 9.4081 -3.3751 36.3951 7.9408
# 6 1.0022 -5.4619 5.4141 -3.4277 7.9408 24.6596
#
#
#
# Elastic Compliance Matrix: (Units=1/GPa)
#
#
# Indices 1 2 3 4 5 6 
#
# 1 0.010606 0.008022 0.012785 -0.016547 -0.012537 0.000276
# 2 0.008022 0.057875 0.033320 -0.046307 -0.045323 0.013335
# 3 0.012785 0.033320 0.070462 -0.073092 -0.044029 -0.004591
# 4 -0.016547 -0.046307 -0.073092 0.111044 0.055721 0.003955
# 5 -0.012537 -0.045323 -0.044029 0.055721 0.072868 -0.015582
# 6 0.000276 0.013335 -0.004591 0.003955 -0.015582 0.050070
#
#
# Mechanical properties :
#
#
# Convention : Reuss Voigt Hill
#
# Bulk Modulus (GPa) = 4.04536 23.46664 13.75600
# Shear Modulus (GPa) = 14.40636 33.47057 23.93847
#
# Velocity S-wave (km/s) = 2.56054 3.90288 3.30067
# Velocity P-wave (km/s) = 3.25313 5.56684 4.55920
#
# Compressibility (1/GPa) = 0.24719678
#
# Stress axis : x y z
#
# Youngs Moduli (GPa) = 94.28818 17.27875 14.19207
#
# Poissons Ratio (x) = -0.13861 -0.18144
# Poissons Ratio (y) = -0.75639 -0.47288
# Poissons Ratio (z) = -1.20546 -0.57573
#
# Static dielectric constant tensor:
#      x y z
#    x 1.912290 -0.004090 0.000850 
#    y -0.004090 1.788980 0.017630 
#    z 0.000850 0.017630 1.847020 
# 
# From -- ./inp_files/585632.got.cif
#   From: 2010.05.17/outbox.cif.g08.bks.cpg/sg2_293_cif.got.tgz:585632.got - 2010.06.03 11:33:40.
