data_PCOD9109243
_publ_section_title
;
Structure prediction by ZEFSAII (Michael W. Deem and Ramdas Pophale) SiO2 
 PCOD9109243
Probable space group: P -1
;
_chemical_formula_sum "Si O2"
_cell_formula_units_Z 14
_cell_length_a 17.154583
_cell_length_b 11.069605
_cell_length_c 8.226770
_cell_angle_alpha 135.572345
_cell_angle_beta 136.876875
_cell_angle_gamma 39.366900
_cell_volume 635.595642
_symmetry_space_group_name_H-M "P -1"
_symmetry_group_IT_number 2
_symmetry_cell_setting 'triclinic'
loop_
_space_group_symop_operation_xyz
x,y,z
-x,-y,-z
loop_
_atom_site_type_symbol
_atom_site_label
_atom_site_fract_x
_atom_site_fract_y
_atom_site_fract_z
Si Si1 0.408519 0.202737 0.454124
Si Si2 0.142719 0.814975 0.106936
Si Si3 0.733150 0.952181 0.135985
Si Si4 0.973287 0.401546 0.712768
Si Si5 0.856781 0.190448 0.510695
Si Si6 0.769066 0.600120 0.342919
Si Si7 0.355120 0.951285 0.563166
O O1 0.339845 0.361799 0.647629
O O2 0.500000 0.000000 0.500000
O O3 0.507873 0.201836 0.470240
O O4 0.303876 0.166051 0.160623
O O5 0.142322 0.779082 0.265769
O O6 0.249871 0.881840 0.304290
O O7 0.189267 0.600215 0.888056
O O8 0.000000 0.000000 0.000000
O O9 0.629215 0.045837 0.215537
O O10 0.880638 0.797374 0.290571
O O11 0.748400 0.128952 0.249418
O O12 0.864059 0.353029 0.568796
O O13 0.905175 0.545240 0.593752
O O14 0.000000 0.500000 0.000000
O O15 0.000000 0.000000 0.500000
O O16 0.707348 0.815027 0.364309
#
# Coordination Sequence:
#
# PCOD9109243 Si02
#       7
#     2   2   2   2   2   2   2
#     4  10  22  40  64  91 123 170 214 256 311 371
#     4  11  24  40  63  96 129 162 208 262 319 374
#     4  10  20  41  64  89 124 165 209 262 315 370
#     4  11  22  36  61  93 124 162 205 253 318 375
#     4   9  21  38  58  88 124 161 200 252 311 374
#     4  11  24  40  64  96 127 166 208 260 320 369
#     4  10  24  42  65  91 127 170 213 260 308 374
#
# _framework density 22.026582999999999
#
# number of rings (size 3 to 8) (size 9 to 14) (size 15 to 20)
#    0.000    1.714    1.429    3.000    4.000    5.143 
#    0.000    1.429    0.000    9.429    0.000    0.000 
#    0.000    0.000    0.000    0.000    0.000    0.000 
#
# Total GULP energy -78120.292219 kJ/mol
# GULP energy per Si atom -5580.020873 kJ/mol
# Density = 2.197645 g / cm^3
# Si number density = 22.026583 Si / 1000 Ang^3
#
#
#
# Elastic Constant Matrix: (Units=GPa)
#
#
# Indices 1 2 3 4 5 6 
#
# 1 127.7241 13.9327 33.3652 9.9713 -2.3813 -19.1387
# 2 13.9327 60.5309 15.3914 8.0731 -0.4931 -2.4922
# 3 33.3652 15.3914 88.2194 15.7082 -7.5534 -16.0124
# 4 9.9713 8.0731 15.7082 29.3188 -9.7441 -4.5762
# 5 -2.3813 -0.4931 -7.5534 -9.7441 31.8284 11.1387
# 6 -19.1387 -2.4922 -16.0124 -4.5762 11.1387 27.5981
#
#
#
# Elastic Compliance Matrix: (Units=1/GPa)
#
#
# Indices 1 2 3 4 5 6 
#
# 1 0.009505 -0.001184 -0.002243 -0.001578 -0.002381 0.005882
# 2 -0.001184 0.017831 -0.002197 -0.003857 -0.001305 -0.000598
# 3 -0.002243 -0.002197 0.014629 -0.005727 -0.000591 0.006023
# 4 -0.001578 -0.003857 -0.005727 0.042477 0.012425 -0.002736
# 5 -0.002381 -0.001305 -0.000591 0.012425 0.040643 -0.016455
# 6 0.005882 -0.000598 0.006023 -0.002736 -0.016455 0.049942
#
#
# Mechanical properties :
#
#
# Convention : Reuss Voigt Hill
#
# Bulk Modulus (GPa) = 32.55564 44.65035 38.60299
# Shear Modulus (GPa) = 25.44359 32.00140 28.72249
#
# Velocity S-wave (km/s) = 3.40241 3.81577 3.61500
# Velocity P-wave (km/s) = 5.49977 6.30306 5.91506
#
# Compressibility (1/GPa) = 0.03071665
#
# Stress axis : x y z
#
# Youngs Moduli (GPa) = 105.21000 56.08288 68.35589
#
# Poissons Ratio (x) = 0.06641 0.15336
# Poissons Ratio (y) = 0.12458 0.15015
# Poissons Ratio (z) = 0.23604 0.12319
#
# Static dielectric constant tensor:
#      x y z
#    x 1.853950 -0.015040 0.014800 
#    y -0.015040 1.893530 0.012020 
#    z 0.014800 0.012020 1.829920 
# 
# From -- ./inp_files/332574.got.cif
#   From: 2010.05.17/outbox.cif.g08.bks.cpg/sg2_167_cif.got.tgz:332574.got - 2010.06.03 11:33:40.
