data_PCOD9109606
_publ_section_title
;
Structure prediction by ZEFSAII (Michael W. Deem and Ramdas Pophale) SiO2 
 PCOD9109606
Probable space group: P -1
;
_chemical_formula_sum "Si O2"
_cell_formula_units_Z 14
_cell_length_a 8.272271
_cell_length_b 16.030533
_cell_length_c 10.991756
_cell_angle_alpha 147.047118
_cell_angle_beta 56.192221
_cell_angle_gamma 134.376903
_cell_volume 564.961711
_symmetry_space_group_name_H-M "P -1"
_symmetry_group_IT_number 2
_symmetry_cell_setting 'triclinic'
loop_
_space_group_symop_operation_xyz
x,y,z
-x,-y,-z
loop_
_atom_site_type_symbol
_atom_site_label
_atom_site_fract_x
_atom_site_fract_y
_atom_site_fract_z
Si Si1 0.097189 0.368048 0.812953
Si Si2 0.666750 0.181242 0.421431
Si Si3 0.783442 0.890355 0.043036
Si Si4 0.441086 0.513763 0.351543
Si Si5 0.139383 0.451450 0.159370
Si Si6 0.299207 0.026901 0.560832
Si Si7 0.675008 0.212397 0.183428
O O1 0.299503 0.417440 0.697644
O O2 0.902998 0.163982 0.628313
O O3 0.000000 0.500000 0.000000
O O4 0.201465 0.401000 0.945084
O O5 0.846244 0.357419 0.635554
O O6 0.426503 0.144522 0.531530
O O7 0.763003 0.243516 0.322612
O O8 0.643926 0.989054 0.199487
O O9 0.791703 0.901731 0.203200
O O10 0.674014 0.687708 0.801611
O O11 0.000000 0.000000 0.000000
O O12 0.306608 0.490366 0.250793
O O13 0.426782 0.658043 0.618071
O O14 0.887228 0.292945 0.104276
O O15 0.500000 0.000000 0.500000
O O16 0.500000 0.000000 0.000000
#
# Coordination Sequence:
#
# PCOD9109606 Si02
#       7
#     2   2   2   2   2   2   2
#     4  12  24  42  68 103 140 181 229 283 339 409
#     4  10  20  41  66  91 131 181 222 270 335 401
#     4  11  21  39  66  97 129 171 222 278 334 399
#     4  11  25  43  69 102 136 180 231 283 344 407
#     4  11  23  45  70  98 138 184 229 283 341 405
#     4  10  22  40  63  92 130 176 219 270 334 396
#     4  11  24  44  67  99 138 183 229 283 343 407
#
# _framework density 24.780439999999999
#
# number of rings (size 3 to 8) (size 9 to 14) (size 15 to 20)
#    0.000    1.143    0.000    9.000    0.000    3.429 
#    0.000    6.429    0.000    0.000    0.000    0.000 
#    0.000    0.000    0.000    0.000    0.000    0.000 
#
# Total GULP energy -78156.143062 kJ/mol
# GULP energy per Si atom -5582.581647 kJ/mol
# Density = 2.472404 g / cm^3
# Si number density = 24.780440 Si / 1000 Ang^3
#
#
#
# Elastic Constant Matrix: (Units=GPa)
#
#
# Indices 1 2 3 4 5 6 
#
# 1 52.0096 -6.0791 16.0353 4.3799 -4.0919 6.3994
# 2 -6.0791 160.3710 44.1442 17.0175 -19.1426 19.0079
# 3 16.0353 44.1442 145.0286 29.1362 -17.0821 9.8592
# 4 4.3799 17.0175 29.1362 62.2158 1.5272 2.6513
# 5 -4.0919 -19.1426 -17.0821 1.5272 37.0442 0.3075
# 6 6.3994 19.0079 9.8592 2.6513 0.3075 37.5728
#
#
#
# Elastic Compliance Matrix: (Units=1/GPa)
#
#
# Indices 1 2 3 4 5 6 
#
# 1 0.020975 0.002305 -0.002254 -0.000939 0.002541 -0.004101
# 2 0.002305 0.007821 -0.001656 -0.001451 0.003624 -0.003842
# 3 -0.002254 -0.001656 0.008783 -0.003541 0.003099 -0.000859
# 4 -0.000939 -0.001451 -0.003541 0.018250 -0.003244 0.000562
# 5 0.002541 0.003624 0.003099 -0.003244 0.030737 -0.003102
# 6 -0.004101 -0.003842 -0.000859 0.000562 -0.003102 0.029468
#
#
# Mechanical properties :
#
#
# Convention : Reuss Voigt Hill
#
# Bulk Modulus (GPa) = 29.09595 51.73445 40.41520
# Shear Modulus (GPa) = 38.25556 47.58713 42.92135
#
# Velocity S-wave (km/s) = 3.93336 4.38693 4.16632
# Velocity P-wave (km/s) = 5.69170 6.82515 6.28403
#
# Compressibility (1/GPa) = 0.03436905
#
# Stress axis : x y z
#
# Youngs Moduli (GPa) = 47.67550 127.86792 113.85468
#
# Poissons Ratio (x) = -0.29468 0.25661
# Poissons Ratio (y) = -0.10987 0.18851
# Poissons Ratio (z) = 0.10745 0.21171
#
# Static dielectric constant tensor:
#      x y z
#    x 2.022160 -0.223780 -0.067140 
#    y -0.223780 2.047680 0.012630 
#    z -0.067140 0.012630 1.973410 
# 
# From -- ./inp_files/403516.got.cif
#   From: 2010.05.17/outbox.cif.g08.bks.cpg/sg2_202_cif.got.tgz:403516.got - 2010.06.03 11:33:40.
