data_PCOD9109893
_publ_section_title
;
Structure prediction by ZEFSAII (Michael W. Deem and Ramdas Pophale) SiO2 
 PCOD9109893
Probable space group: P -1
;
_chemical_formula_sum "Si O2"
_cell_formula_units_Z 16
_cell_length_a 12.419220
_cell_length_b 9.202209
_cell_length_c 7.728378
_cell_angle_alpha 93.045151
_cell_angle_beta 115.870947
_cell_angle_gamma 123.577423
_cell_volume 608.893159
_symmetry_space_group_name_H-M "P -1"
_symmetry_group_IT_number 2
_symmetry_cell_setting 'triclinic'
loop_
_space_group_symop_operation_xyz
x,y,z
-x,-y,-z
loop_
_atom_site_type_symbol
_atom_site_label
_atom_site_fract_x
_atom_site_fract_y
_atom_site_fract_z
Si Si1 0.196213 0.413376 0.929415
Si Si2 0.256215 0.880157 0.252130
Si Si3 0.896261 0.979208 0.663981
Si Si4 0.221701 0.423504 0.353111
Si Si5 0.070675 0.636593 0.805814
Si Si6 0.574091 0.070183 0.297159
Si Si7 0.561350 0.360547 0.173996
Si Si8 0.731152 0.953014 0.212896
O O1 0.114114 0.501030 0.812628
O O2 0.339165 0.496512 0.904135
O O3 0.250013 0.470462 0.171564
O O4 0.064767 0.185465 0.812666
O O5 0.311097 0.836128 0.454717
O O6 0.217858 0.011237 0.296861
O O7 0.401759 0.970191 0.234640
O O8 0.108923 0.706966 0.036170
O O9 0.878101 0.802163 0.705432
O O10 0.836538 0.948821 0.422523
O O11 0.374361 0.532592 0.589324
O O12 0.106232 0.455000 0.353415
O O13 0.170913 0.834794 0.781136
O O14 0.606805 0.224819 0.200272
O O15 0.597950 0.929415 0.231676
O O16 0.374496 0.217732 0.007402
#
# Coordination Sequence:
#
# PCOD9109893 Si02
#       8
#     2   2   2   2   2   2   2   2
#     4  12  26  46  75 111 143 183 243 302 356 423
#     4  10  21  39  74  99 141 184 234 287 358 418
#     4  11  27  50  69 101 144 199 239 290 355 431
#     4  12  29  48  71 104 150 193 241 291 357 426
#     4  12  23  43  74 112 136 184 240 297 361 423
#     4  10  20  41  68 108 138 177 230 300 357 412
#     4  12  25  44  72 109 145 184 234 305 359 421
#     4  11  24  44  74 104 146 180 238 296 366 425
#
# _framework density 26.277187999999999
#
# number of rings (size 3 to 8) (size 9 to 14) (size 15 to 20)
#    0.000    0.750    3.750    3.375    3.500    5.500 
#    0.000    2.500    0.000    0.000    0.000    0.000 
#    0.000    0.000    0.000    0.000    0.000    0.000 
#
# Total GULP energy -89649.772057 kJ/mol
# GULP energy per Si atom -5603.110754 kJ/mol
# Density = 2.621738 g / cm^3
# Si number density = 26.277188 Si / 1000 Ang^3
#
#
#
# Elastic Constant Matrix: (Units=GPa)
#
#
# Indices 1 2 3 4 5 6 
#
# 1 82.0552 35.3992 26.3255 0.6371 1.5876 9.2252
# 2 35.3992 114.0050 26.7690 -11.4637 13.6126 12.3462
# 3 26.3255 26.7690 152.4160 0.8676 -1.9234 21.9267
# 4 0.6371 -11.4637 0.8676 44.1697 5.6012 1.1675
# 5 1.5876 13.6126 -1.9234 5.6012 19.6004 -2.0313
# 6 9.2252 12.3462 21.9267 1.1675 -2.0313 28.3451
#
#
#
# Elastic Compliance Matrix: (Units=1/GPa)
#
#
# Indices 1 2 3 4 5 6 
#
# 1 0.014736 -0.004463 -0.001515 -0.001562 0.002051 -0.001469
# 2 -0.004463 0.012540 -0.000987 0.004747 -0.010234 -0.004175
# 3 -0.001515 -0.000987 0.007726 -0.000403 0.001168 -0.004953
# 4 -0.001562 0.004747 -0.000403 0.025349 -0.010771 -0.003063
# 5 0.002051 -0.010234 0.001168 -0.010771 0.061959 0.007770
# 6 -0.001469 -0.004175 -0.004953 -0.003063 0.007770 0.042090
#
#
# Mechanical properties :
#
#
# Convention : Reuss Voigt Hill
#
# Bulk Modulus (GPa) = 47.45794 58.38485 52.92139
# Shear Modulus (GPa) = 26.97532 35.75519 31.36525
#
# Velocity S-wave (km/s) = 3.20749 3.69276 3.45864
# Velocity P-wave (km/s) = 5.64066 6.35996 6.01107
#
# Compressibility (1/GPa) = 0.02107129
#
# Stress axis : x y z
#
# Youngs Moduli (GPa) = 67.86150 79.74189 129.43873
#
# Poissons Ratio (x) = 0.35587 0.19615
# Poissons Ratio (y) = 0.30285 0.12779
# Poissons Ratio (z) = 0.10283 0.07872
#
# Static dielectric constant tensor:
#      x y z
#    x 2.095090 0.026540 -0.012920 
#    y 0.026540 2.068440 0.024720 
#    z -0.012920 0.024720 2.065580 
# 
# From -- ./inp_files/298600.got.cif
#   From: 2010.05.17/outbox.cif.g08.bks.cpg/sg2_150_cif.got.tgz:298600.got - 2010.06.03 11:33:40.
