data_PCOD9109223
_publ_section_title
;
Structure prediction by ZEFSAII (Michael W. Deem and Ramdas Pophale) SiO2 
 PCOD9109223
Probable space group: P -1
;
_chemical_formula_sum "Si O2"
_cell_formula_units_Z 14
_cell_length_a 22.011567
_cell_length_b 7.815806
_cell_length_c 13.157397
_cell_angle_alpha 110.857477
_cell_angle_beta 27.192881
_cell_angle_gamma 92.554906
_cell_volume 744.976865
_symmetry_space_group_name_H-M "P -1"
_symmetry_group_IT_number 2
_symmetry_cell_setting 'triclinic'
loop_
_space_group_symop_operation_xyz
x,y,z
-x,-y,-z
loop_
_atom_site_type_symbol
_atom_site_label
_atom_site_fract_x
_atom_site_fract_y
_atom_site_fract_z
Si Si1 0.861885 0.692219 0.665981
Si Si2 0.651071 0.968361 0.707109
Si Si3 0.721484 0.644046 0.365217
Si Si4 0.496904 0.826133 0.234902
Si Si5 0.968042 0.769414 0.320779
Si Si6 0.538316 0.420677 0.582906
Si Si7 0.227157 0.836703 0.012786
O O1 0.000000 0.500000 0.500000
O O2 0.941835 0.652723 0.427684
O O3 0.696419 0.706584 0.910161
O O4 0.800984 0.945755 0.846706
O O5 0.751918 0.719517 0.442612
O O6 0.784421 0.953006 0.577904
O O7 0.568590 0.159728 0.779085
O O8 0.500000 0.000000 0.000000
O O9 0.604194 0.568082 0.538843
O O10 0.611823 0.892704 0.519183
O O11 0.891398 0.433484 0.009520
O O12 0.462511 0.702659 0.342735
O O13 0.050399 0.884833 0.264123
O O14 0.349971 0.603028 0.850970
O O15 0.667613 0.232604 0.263774
#
# Coordination Sequence:
#
# PCOD9109223 Si02
#       7
#     2   2   2   2   2   2   2
#     4  12  24  38  59  94 127 162 206 249 309 369
#     4  10  20  41  64  86 124 162 205 254 311 363
#     4   9  21  39  66  89 121 162 205 256 304 362
#     4  10  22  39  66  87 120 164 207 249 306 365
#     4  11  21  39  63  89 123 168 198 256 312 354
#     4  10  20  41  65  93 122 160 210 250 308 362
#     4  10  22  39  61  92 128 162 200 259 303 362
#
# _framework density 18.792531
#
# number of rings (size 3 to 8) (size 9 to 14) (size 15 to 20)
#    0.857    0.857    2.857    1.714    2.000    0.571 
#    0.000    5.000    0.000    0.000    0.000    0.000 
#    0.000    0.000    0.000    0.000    0.000    0.000 
#
# Total GULP energy -78108.731447 kJ/mol
# GULP energy per Si atom -5579.195103 kJ/mol
# Density = 1.874976 g / cm^3
# Si number density = 18.792531 Si / 1000 Ang^3
#
#
#
# Elastic Constant Matrix: (Units=GPa)
#
#
# Indices 1 2 3 4 5 6 
#
# 1 90.3950 45.7592 38.6999 -21.4544 -28.2054 -22.9165
# 2 45.7592 110.0206 44.0068 -25.8689 -6.9371 -33.0895
# 3 38.6999 44.0068 66.7485 -11.8200 -28.4278 -18.0939
# 4 -21.4544 -25.8689 -11.8200 18.7804 1.9768 6.4186
# 5 -28.2054 -6.9371 -28.4278 1.9768 40.1330 2.2053
# 6 -22.9165 -33.0895 -18.0939 6.4186 2.2053 37.5519
#
#
#
# Elastic Compliance Matrix: (Units=1/GPa)
#
#
# Indices 1 2 3 4 5 6 
#
# 1 0.023400 -0.001187 -0.000872 0.020139 0.014162 0.008540
# 2 -0.001187 0.019895 -0.008757 0.017695 -0.005012 0.009856
# 3 -0.000872 -0.008757 0.031713 0.002976 0.019896 0.005355
# 4 0.020139 0.017695 0.002976 0.096961 0.013889 0.011927
# 5 0.014162 -0.005012 0.019896 0.013889 0.046936 0.008682
# 6 0.008540 0.009856 0.005355 0.011927 0.008682 0.040558
#
#
# Mechanical properties :
#
#
# Convention : Reuss Voigt Hill
#
# Bulk Modulus (GPa) = 18.73533 58.23287 38.48410
# Shear Modulus (GPa) = 16.72869 28.53961 22.63415
#
# Velocity S-wave (km/s) = 2.98682 3.90124 3.47424
# Velocity P-wave (km/s) = 4.67825 7.16571 6.05117
#
# Compressibility (1/GPa) = 0.05337508
#
# Stress axis : x y z
#
# Youngs Moduli (GPa) = 42.73447 50.26467 31.53268
#
# Poissons Ratio (x) = 0.05967 0.02749
# Poissons Ratio (y) = 0.05073 0.27615
# Poissons Ratio (z) = 0.03726 0.44019
#
# Static dielectric constant tensor:
#      x y z
#    x 1.672020 0.005020 0.003640 
#    y 0.005020 1.612600 0.011110 
#    z 0.003640 0.011110 1.650000 
# 
# From -- ./inp_files/469428.got.cif
#   From: 2010.05.17/outbox.cif.g08.bks.cpg/sg2_235_cif.got.tgz:469428.got - 2010.06.03 11:33:40.
