data_PCOD9109483
_publ_section_title
;
Structure prediction by ZEFSAII (Michael W. Deem and Ramdas Pophale) SiO2 
 PCOD9109483
Probable space group: P -1
;
_chemical_formula_sum "Si O2"
_cell_formula_units_Z 14
_cell_length_a 8.238403
_cell_length_b 17.222438
_cell_length_c 9.309590
_cell_angle_alpha 135.221824
_cell_angle_beta 97.204146
_cell_angle_gamma 116.473306
_cell_volume 594.134053
_symmetry_space_group_name_H-M "P -1"
_symmetry_group_IT_number 2
_symmetry_cell_setting 'triclinic'
loop_
_space_group_symop_operation_xyz
x,y,z
-x,-y,-z
loop_
_atom_site_type_symbol
_atom_site_label
_atom_site_fract_x
_atom_site_fract_y
_atom_site_fract_z
Si Si1 0.629293 0.022483 0.689030
Si Si2 0.874324 0.325830 0.691845
Si Si3 0.942932 0.989820 0.721963
Si Si4 0.744323 0.663811 0.151286
Si Si5 0.449376 0.430159 0.558599
Si Si6 0.336263 0.137041 0.165361
Si Si7 0.142085 0.803792 0.766674
O O1 0.409844 0.835209 0.492928
O O2 0.860122 0.058845 0.727694
O O3 0.500000 0.000000 0.500000
O O4 0.744893 0.157630 0.009246
O O5 0.866161 0.301598 0.485938
O O6 0.032625 0.304683 0.742749
O O7 0.000000 0.500000 0.000000
O O8 0.830686 0.829720 0.416537
O O9 0.819472 0.928944 0.788441
O O10 0.228663 0.116536 0.969103
O O11 0.500000 0.500000 0.000000
O O12 0.635938 0.596505 0.894426
O O13 0.500000 0.500000 0.500000
O O14 0.521501 0.338124 0.470059
O O15 0.149110 0.298686 0.388877
O O16 0.312588 0.991462 0.964099
#
# Coordination Sequence:
#
# PCOD9109483 Si02
#       7
#     2   2   2   2   2   2   2
#     4  11  26  45  67 100 144 177 224 284 343 409
#     4  12  26  43  70 103 134 183 232 274 341 413
#     4  10  18  39  73  89 127 178 226 267 325 402
#     4  12  21  41  68 100 133 171 232 278 332 401
#     4  12  24  38  69 107 137 164 224 298 344 380
#     4  10  16  39  71  93 121 174 230 270 327 395
#     4  11  22  47  69  93 138 188 229 269 339 420
#
# _framework density 23.563704000000001
#
# number of rings (size 3 to 8) (size 9 to 14) (size 15 to 20)
#    0.000    0.857    8.571    1.286    4.000    0.000 
#    2.571    2.143    0.000    0.000    0.000    0.000 
#    0.000    0.000    0.000    0.000    0.000    0.000 
#
# Total GULP energy -78093.947701 kJ/mol
# GULP energy per Si atom -5578.139121 kJ/mol
# Density = 2.351007 g / cm^3
# Si number density = 23.563704 Si / 1000 Ang^3
#
#
#
# Elastic Constant Matrix: (Units=GPa)
#
#
# Indices 1 2 3 4 5 6 
#
# 1 98.2310 36.5091 56.1498 -12.8516 -12.2396 -6.4197
# 2 36.5091 68.6385 42.4719 -18.8542 -5.2348 -5.9152
# 3 56.1498 42.4719 206.4039 -43.6367 -25.2452 3.4230
# 4 -12.8516 -18.8542 -43.6367 51.3768 -1.0730 16.7545
# 5 -12.2396 -5.2348 -25.2452 -1.0730 59.4001 -4.0255
# 6 -6.4197 -5.9152 3.4230 16.7545 -4.0255 22.3530
#
#
#
# Elastic Compliance Matrix: (Units=1/GPa)
#
#
# Indices 1 2 3 4 5 6 
#
# 1 0.014385 -0.005888 -0.003309 -0.003215 0.001369 0.005736
# 2 -0.005888 0.019920 -0.001608 0.004268 -0.000022 0.000624
# 3 -0.003309 -0.001608 0.008285 0.008465 0.002269 -0.008581
# 4 -0.003215 0.004268 0.008465 0.036652 0.002063 -0.028191
# 5 0.001369 -0.000022 0.002269 0.002063 0.018237 0.001778
# 6 0.005736 0.000624 -0.008581 -0.028191 0.001778 0.069314
#
#
# Mechanical properties :
#
#
# Convention : Reuss Voigt Hill
#
# Bulk Modulus (GPa) = 47.66328 71.50389 59.58359
# Shear Modulus (GPa) = 25.58876 42.50212 34.04544
#
# Velocity S-wave (km/s) = 3.29893 4.25162 3.80521
# Velocity P-wave (km/s) = 5.89762 7.38326 6.68186
#
# Compressibility (1/GPa) = 0.02098051
#
# Stress axis : x y z
#
# Youngs Moduli (GPa) = 69.51747 50.19961 120.69439
#
# Poissons Ratio (x) = 0.29559 0.39937
# Poissons Ratio (y) = 0.40934 0.19407
# Poissons Ratio (z) = 0.23003 0.08072
#
# Static dielectric constant tensor:
#      x y z
#    x -0.485870 -1.669760 1.431160 
#    y -1.669760 0.865600 0.729790 
#    z 1.431160 0.729790 1.360040 
# 
# From -- ./inp_files/218674.got.cif
#   From: 2010.05.17/outbox.cif.g08.bks.cpg/sg2_110_cif.got.tgz:218674.got - 2010.06.03 11:33:40.
