data_PCOD9109921
_publ_section_title
;
Structure prediction by ZEFSAII (Michael W. Deem and Ramdas Pophale) SiO2 
 PCOD9109921
Probable space group: P -1
;
_chemical_formula_sum "Si O2"
_cell_formula_units_Z 16
_cell_length_a 9.309496
_cell_length_b 11.999425
_cell_length_c 13.849064
_cell_angle_alpha 66.761209
_cell_angle_beta 64.758106
_cell_angle_gamma 123.005518
_cell_volume 660.796558
_symmetry_space_group_name_H-M "P -1"
_symmetry_group_IT_number 2
_symmetry_cell_setting 'triclinic'
loop_
_space_group_symop_operation_xyz
x,y,z
-x,-y,-z
loop_
_atom_site_type_symbol
_atom_site_label
_atom_site_fract_x
_atom_site_fract_y
_atom_site_fract_z
Si Si1 0.742809 0.234320 0.188395
Si Si2 0.450019 0.704323 0.626623
Si Si3 0.051441 0.294768 0.747913
Si Si4 0.579154 0.690255 0.302237
Si Si5 0.434257 0.559390 0.076546
Si Si6 0.895882 0.065107 0.201353
Si Si7 0.205424 0.298915 0.402237
Si Si8 0.622762 0.935582 0.827306
O O1 0.578320 0.190542 0.341489
O O2 0.897486 0.207625 0.171646
O O3 0.538127 0.088276 0.200022
O O4 0.000000 0.500000 0.000000
O O5 0.129093 0.446126 0.756571
O O6 0.580706 0.681004 0.664616
O O7 0.699326 0.881164 0.409093
O O8 0.320448 0.496636 0.523895
O O9 0.149203 0.229769 0.787343
O O10 0.749723 0.082047 0.839045
O O11 0.394522 0.534071 0.314534
O O12 0.712335 0.908921 0.210219
O O13 0.770130 0.774844 0.958127
O O14 0.413780 0.682483 0.001600
O O15 0.500000 0.500000 0.000000
O O16 0.160685 0.323308 0.300415
O O17 0.919035 0.084467 0.627779
#
# Coordination Sequence:
#
# PCOD9109921 Si02
#       8
#     2   2   2   2   2   2   2   2
#     4  12  27  43  58  88 134 175 210 250 315 388
#     4  10  20  41  68  92 125 167 211 258 315 382
#     4   8  15  35  66  94 117 157 208 264 315 356
#     4   8  15  34  64  93 122 152 208 261 311 375
#     4  12  24  37  64  98 128 157 216 265 299 378
#     4  11  21  41  64  90 125 173 206 251 320 374
#     4  10  21  39  68 101 121 159 210 266 320 360
#     4  11  22  44  65  92 130 164 207 269 313 360
#
# _framework density 24.213200000000001
#
# number of rings (size 3 to 8) (size 9 to 14) (size 15 to 20)
#    0.000    1.750    2.500    4.125    1.750    1.500 
#    4.500    6.250    0.000    0.000    0.000    0.000 
#    0.000    0.000    0.000    0.000    0.000    0.000 
#
# Total GULP energy -89316.826242 kJ/mol
# GULP energy per Si atom -5582.301640 kJ/mol
# Density = 2.415809 g / cm^3
# Si number density = 24.213200 Si / 1000 Ang^3
#
#
#
# Elastic Constant Matrix: (Units=GPa)
#
#
# Indices 1 2 3 4 5 6 
#
# 1 44.9317 28.8053 1.8758 3.1840 5.0621 -2.1617
# 2 28.8053 66.9167 16.0211 -12.0982 6.7121 -6.4916
# 3 1.8758 16.0211 68.0210 13.3564 16.7044 -9.5362
# 4 3.1840 -12.0982 13.3564 39.2331 -0.0350 -0.3081
# 5 5.0621 6.7121 16.7044 -0.0350 26.8739 -5.1906
# 6 -2.1617 -6.4916 -9.5362 -0.3081 -5.1906 33.1137
#
#
#
# Elastic Compliance Matrix: (Units=1/GPa)
#
#
# Indices 1 2 3 4 5 6 
#
# 1 0.035039 -0.018085 0.006956 -0.010797 -0.006493 -0.000373
# 2 -0.018085 0.027086 -0.008705 0.012803 0.002481 0.002130
# 3 0.006956 -0.008705 0.022131 -0.010770 -0.012309 0.003091
# 4 -0.010797 0.012803 -0.010770 0.033983 0.005554 -0.000110
# 5 -0.006493 0.002481 -0.012309 0.005554 0.046209 0.003813
# 6 -0.000373 0.002130 0.003091 -0.000110 0.003813 0.032079
#
#
# Mechanical properties :
#
#
# Convention : Reuss Voigt Hill
#
# Bulk Modulus (GPa) = 22.42890 30.36376 26.39633
# Shear Modulus (GPa) = 19.91571 28.72194 24.31882
#
# Velocity S-wave (km/s) = 2.87106 3.44788 3.17261
# Velocity P-wave (km/s) = 4.50265 5.33084 4.93415
#
# Compressibility (1/GPa) = 0.04458533
#
# Stress axis : x y z
#
# Youngs Moduli (GPa) = 28.53998 36.91989 45.18584
#
# Poissons Ratio (x) = 0.66770 -0.31429
# Poissons Ratio (y) = 0.51615 0.39335
# Poissons Ratio (z) = -0.19851 0.32140
#
# Static dielectric constant tensor:
#      x y z
#    x 1.919700 0.068820 -0.048090 
#    y 0.068820 2.066710 0.037920 
#    z -0.048090 0.037920 2.000510 
# 
# From -- ./inp_files/500163.got.cif
#   From: 2010.05.17/outbox.cif.g08.bks.cpg/sg2_251_cif.got.tgz:500163.got - 2010.06.03 11:33:40.
