data_PCOD9109402
_publ_section_title
;
Structure prediction by ZEFSAII (Michael W. Deem and Ramdas Pophale) SiO2 
 PCOD9109402
Probable space group: P -1
;
_chemical_formula_sum "Si O2"
_cell_formula_units_Z 14
_cell_length_a 8.249909
_cell_length_b 9.440331
_cell_length_c 15.691767
_cell_angle_alpha 77.218228
_cell_angle_beta 110.713455
_cell_angle_gamma 46.325540
_cell_volume 599.960952
_symmetry_space_group_name_H-M "P -1"
_symmetry_group_IT_number 2
_symmetry_cell_setting 'triclinic'
loop_
_space_group_symop_operation_xyz
x,y,z
-x,-y,-z
loop_
_atom_site_type_symbol
_atom_site_label
_atom_site_fract_x
_atom_site_fract_y
_atom_site_fract_z
Si Si1 0.325478 0.274650 0.452827
Si Si2 0.599288 0.309813 0.615998
Si Si3 0.830479 0.256044 0.149861
Si Si4 0.270139 0.367753 0.166805
Si Si5 0.370750 0.713367 0.624687
Si Si6 0.750699 0.893896 0.891352
Si Si7 0.799263 0.570583 0.198652
O O1 0.425700 0.281846 0.558359
O O2 0.447090 0.307029 0.403331
O O3 0.962307 0.494284 0.329786
O O4 0.500000 0.000000 0.500000
O O5 0.500000 0.500000 0.500000
O O6 0.468263 0.480076 0.653723
O O7 0.984033 0.012046 0.737106
O O8 0.796441 0.404001 0.195868
O O9 0.112997 0.098533 0.156597
O O10 0.500000 0.500000 0.000000
O O11 0.514142 0.306969 0.261801
O O12 0.427363 0.115709 0.186067
O O13 0.014406 0.489835 0.173951
O O14 0.066340 0.598163 0.029394
O O15 0.000000 0.000000 0.500000
O O16 0.550543 0.113008 0.898623
#
# Coordination Sequence:
#
# PCOD9109402 Si02
#       7
#     2   2   2   2   2   2   2
#     4  10  20  41  65  89 124 172 222 267 327 394
#     4  10  23  44  64  92 133 177 218 270 342 389
#     4  11  25  43  64  99 136 171 223 279 331 399
#     4   9  21  42  61  96 131 169 224 269 330 404
#     4  10  23  39  62  95 131 170 218 276 332 399
#     4  10  22  40  66  95 125 177 223 270 331 397
#     4  10  21  40  68  91 128 174 221 279 327 393
#
# _framework density 23.334851
#
# number of rings (size 3 to 8) (size 9 to 14) (size 15 to 20)
#    0.000    2.000    1.429    0.429    4.000    4.000 
#   10.286    1.429    0.000    0.000    0.000    0.000 
#    0.000    0.000    0.000    0.000    0.000    0.000 
#
# Total GULP energy -78119.627217 kJ/mol
# GULP energy per Si atom -5579.973373 kJ/mol
# Density = 2.328174 g / cm^3
# Si number density = 23.334851 Si / 1000 Ang^3
#
#
#
# Elastic Constant Matrix: (Units=GPa)
#
#
# Indices 1 2 3 4 5 6 
#
# 1 46.8853 35.6152 19.1379 1.1849 2.7190 11.6664
# 2 35.6152 168.4517 42.8031 -6.0448 8.7963 25.7517
# 3 19.1379 42.8031 121.1189 6.7637 8.0401 21.7810
# 4 1.1849 -6.0448 6.7637 43.6214 12.6083 4.1309
# 5 2.7190 8.7963 8.0401 12.6083 26.9203 4.9814
# 6 11.6664 25.7517 21.7810 4.1309 4.9814 32.4126
#
#
#
# Elastic Compliance Matrix: (Units=1/GPa)
#
#
# Indices 1 2 3 4 5 6 
#
# 1 0.026656 -0.004513 -0.001743 -0.000785 0.000563 -0.004824
# 2 -0.004513 0.008035 -0.001440 0.002449 -0.002189 -0.003767
# 3 -0.001743 -0.001440 0.010002 -0.000965 -0.001025 -0.004669
# 4 -0.000785 0.002449 -0.000965 0.027370 -0.012782 -0.002538
# 5 0.000563 -0.002189 -0.001025 -0.012782 0.044654 -0.003009
# 6 -0.004824 -0.003767 -0.004669 -0.002538 -0.003009 0.039505
#
#
# Mechanical properties :
#
#
# Convention : Reuss Voigt Hill
#
# Bulk Modulus (GPa) = 34.12955 59.06312 46.59634
# Shear Modulus (GPa) = 27.56629 36.51751 32.04190
#
# Velocity S-wave (km/s) = 3.44078 3.96022 3.70960
# Velocity P-wave (km/s) = 5.51753 6.80273 6.19355
#
# Compressibility (1/GPa) = 0.02930012
#
# Stress axis : x y z
#
# Youngs Moduli (GPa) = 37.51525 124.46145 99.97619
#
# Poissons Ratio (x) = 0.56169 0.17426
# Poissons Ratio (y) = 0.16931 0.14400
# Poissons Ratio (z) = 0.06539 0.17927
#
# Static dielectric constant tensor:
#      x y z
#    x 1.887490 0.052160 -0.032230 
#    y 0.052160 1.810880 0.031220 
#    z -0.032230 0.031220 1.978870 
# 
# From -- ./inp_files/123681.got.cif
#   From: 2010.05.17/outbox.cif.g08.bks.cpg/sg2_62_cif.got.tgz:123681.got - 2010.06.03 11:33:40.
