data_PCOD9109937
_publ_section_title
;
Structure prediction by ZEFSAII (Michael W. Deem and Ramdas Pophale) SiO2 
 PCOD9109937
Probable space group: P -1
;
_chemical_formula_sum "Si O2"
_cell_formula_units_Z 16
_cell_length_a 18.838882
_cell_length_b 19.556680
_cell_length_c 8.303022
_cell_angle_alpha 40.484960
_cell_angle_beta 41.534381
_cell_angle_gamma 20.421970
_cell_volume 684.306174
_symmetry_space_group_name_H-M "P -1"
_symmetry_group_IT_number 2
_symmetry_cell_setting 'triclinic'
loop_
_space_group_symop_operation_xyz
x,y,z
-x,-y,-z
loop_
_atom_site_type_symbol
_atom_site_label
_atom_site_fract_x
_atom_site_fract_y
_atom_site_fract_z
Si Si1 0.133392 0.033204 0.047135
Si Si2 0.776431 0.242604 0.103044
Si Si3 0.650759 0.747317 0.863908
Si Si4 0.959946 0.864935 0.423468
Si Si5 0.557891 0.074849 0.767819
Si Si6 0.524989 0.558441 0.207264
Si Si7 0.393177 0.967901 0.575810
Si Si8 0.100879 0.653711 0.874237
O O1 0.324244 0.797075 0.127665
O O2 0.184013 0.076423 0.746988
O O3 0.936180 0.126537 0.188406
O O4 0.103463 0.130465 0.079931
O O5 0.567537 0.464746 0.133459
O O6 0.801482 0.098437 0.282416
O O7 0.879480 0.228360 0.816894
O O8 0.519022 0.846178 0.745465
O O9 0.669922 0.857185 0.646089
O O10 0.536910 0.804287 0.119837
O O11 0.860112 0.502901 0.937434
O O12 0.110403 0.713843 0.589160
O O13 0.800354 0.900227 0.654150
O O14 0.481685 0.174090 0.540938
O O15 0.500000 0.000000 0.000000
O O16 0.500000 0.500000 0.500000
O O17 0.717969 0.468805 0.089496
#
# Coordination Sequence:
#
# PCOD9109937 Si02
#       8
#     2   2   2   2   2   2   2   2
#     4  11  21  42  65  91 136 174 223 280 331 400
#     4  10  24  41  64  99 132 181 220 269 346 393
#     4  10  22  40  65 102 129 174 228 273 339 397
#     4  11  22  43  63  95 144 168 223 287 324 410
#     4  10  22  42  71  98 131 180 223 277 339 396
#     4  11  23  40  65  95 132 177 225 271 335 404
#     4  10  20  41  68  93 134 176 222 278 329 404
#     4  11  24  39  64 101 131 173 224 281 338 399
#
# _framework density 23.381347000000002
#
# number of rings (size 3 to 8) (size 9 to 14) (size 15 to 20)
#    0.000    1.500    2.500    2.250    1.750    3.500 
#    0.000    4.375    0.000    0.000    0.000    0.000 
#    0.000    0.000    0.000    0.000    0.000    0.000 
#
# Total GULP energy -89142.720619 kJ/mol
# GULP energy per Si atom -5571.420039 kJ/mol
# Density = 2.332813 g / cm^3
# Si number density = 23.381347 Si / 1000 Ang^3
#
#
#
# Elastic Constant Matrix: (Units=GPa)
#
#
# Indices 1 2 3 4 5 6 
#
# 1 58.6692 29.4873 34.8141 6.3030 6.1712 9.2621
# 2 29.4873 126.7850 33.9408 -6.8811 1.2214 36.1900
# 3 34.8141 33.9408 101.4937 6.8908 0.7644 30.0691
# 4 6.3030 -6.8811 6.8908 23.3180 2.6617 -1.3498
# 5 6.1712 1.2214 0.7644 2.6617 42.6032 14.0831
# 6 9.2621 36.1900 30.0691 -1.3498 14.0831 31.9264
#
#
#
# Elastic Compliance Matrix: (Units=1/GPa)
#
#
# Indices 1 2 3 4 5 6 
#
# 1 0.025815 -0.007299 -0.009984 -0.004561 -0.007457 0.013284
# 2 -0.007299 0.014740 0.003519 0.003233 0.007309 -0.020993
# 3 -0.009984 0.003519 0.019253 -0.004333 0.008999 -0.023379
# 4 -0.004561 0.003233 -0.004333 0.047147 -0.004137 0.005557
# 5 -0.007457 0.007309 0.008999 -0.004137 0.034329 -0.029915
# 6 0.013284 -0.020993 -0.023379 0.005557 -0.029915 0.086715
#
#
# Mechanical properties :
#
#
# Convention : Reuss Voigt Hill
#
# Bulk Modulus (GPa) = 30.97741 53.71469 42.34605
# Shear Modulus (GPa) = 18.77681 32.14992 25.46337
#
# Velocity S-wave (km/s) = 2.83692 3.71215 3.30365
# Velocity P-wave (km/s) = 4.89983 6.43402 5.71861
#
# Compressibility (1/GPa) = 0.03228159
#
# Stress axis : x y z
#
# Youngs Moduli (GPa) = 38.73751 67.84134 51.93910
#
# Poissons Ratio (x) = 0.49516 0.51856
# Poissons Ratio (y) = 0.28274 -0.18279
# Poissons Ratio (z) = 0.38675 -0.23876
#
# Static dielectric constant tensor:
#      x y z
#    x 5.409790 4.159370 -7.797330 
#    y 4.159370 7.088560 -9.763120 
#    z -7.797330 -9.763120 20.443210 
# 
# From -- ./inp_files/349396.got.cif
#   From: 2010.05.17/outbox.cif.g08.bks.cpg/sg2_175_cif.got.tgz:349396.got - 2010.06.03 11:33:40.
