data_PCOD9109588
_publ_section_title
;
Structure prediction by ZEFSAII (Michael W. Deem and Ramdas Pophale) SiO2 
 PCOD9109588
Probable space group: P -1
;
_chemical_formula_sum "Si O2"
_cell_formula_units_Z 16
_cell_length_a 17.506432
_cell_length_b 7.987516
_cell_length_c 8.396549
_cell_angle_alpha 117.782717
_cell_angle_beta 45.653180
_cell_angle_gamma 98.031312
_cell_volume 709.978956
_symmetry_space_group_name_H-M "P -1"
_symmetry_group_IT_number 2
_symmetry_cell_setting 'triclinic'
loop_
_space_group_symop_operation_xyz
x,y,z
-x,-y,-z
loop_
_atom_site_type_symbol
_atom_site_label
_atom_site_fract_x
_atom_site_fract_y
_atom_site_fract_z
Si Si1 0.971239 0.223085 0.050651
Si Si2 0.664807 0.213699 0.722128
Si Si3 0.579441 0.128429 0.484599
Si Si4 0.946987 0.711477 0.735431
Si Si5 0.481126 0.443125 0.319636
Si Si6 0.894292 0.031391 0.486763
Si Si7 0.243341 0.084558 0.108020
Si Si8 0.725327 0.540834 0.577416
O O1 0.846674 0.375320 0.296894
O O2 0.045056 0.309105 0.096786
O O3 0.000000 0.000000 0.000000
O O4 0.024659 0.178853 0.781132
O O5 0.634643 0.094076 0.563943
O O6 0.786382 0.099788 0.560605
O O7 0.673990 0.420312 0.726987
O O8 0.575317 0.263144 0.018872
O O9 0.513224 0.357882 0.687723
O O10 0.500000 0.000000 0.500000
O O11 0.661559 0.084982 0.193243
O O12 0.823327 0.797791 0.892130
O O13 0.000000 0.500000 0.500000
O O14 0.029308 0.827051 0.591159
O O15 0.500000 0.500000 0.500000
O O16 0.359154 0.424217 0.435767
O O17 0.840525 0.014301 0.725462
O O18 0.268963 0.250106 0.261668
#
# Coordination Sequence:
#
# PCOD9109588 Si02
#       8
#     2   2   2   2   2   2   2   2
#     4  10  20  41  66  90 129 172 226 257 326 394
#     4  11  21  45  67  91 126 177 222 270 331 395
#     4  11  24  42  70  95 125 175 225 272 328 404
#     4  11  21  41  63  93 131 175 222 261 316 405
#     4  11  25  43  67  96 128 168 223 282 337 382
#     4  11  24  39  64  96 136 176 213 278 332 380
#     4  12  24  40  62 104 136 167 220 280 336 385
#     4  11  22  43  67  92 131 181 218 269 326 404
#
# _framework density 22.535878
#
# number of rings (size 3 to 8) (size 9 to 14) (size 15 to 20)
#    0.000    1.000    3.750    4.875    5.250    1.500 
#    2.250    3.750    0.000    0.000    0.000    0.000 
#    0.000    0.000    0.000    0.000    0.000    0.000 
#
# Total GULP energy -89157.636467 kJ/mol
# GULP energy per Si atom -5572.352279 kJ/mol
# Density = 2.248459 g / cm^3
# Si number density = 22.535878 Si / 1000 Ang^3
#
#
#
# Elastic Constant Matrix: (Units=GPa)
#
#
# Indices 1 2 3 4 5 6 
#
# 1 153.5302 14.8741 38.2712 7.7460 0.7148 8.1029
# 2 14.8741 23.4724 12.1836 9.8517 5.8597 13.8083
# 3 38.2712 12.1836 155.8772 9.3323 20.1779 2.0075
# 4 7.7460 9.8517 9.3323 28.4019 -5.3671 6.0843
# 5 0.7148 5.8597 20.1779 -5.3671 27.0001 6.3065
# 6 8.1029 13.8083 2.0075 6.0843 6.3065 29.6478
#
#
#
# Elastic Compliance Matrix: (Units=1/GPa)
#
#
# Indices 1 2 3 4 5 6 
#
# 1 0.007362 -0.004254 -0.001806 0.000613 0.002323 -0.000528
# 2 -0.004254 0.073065 -0.001457 -0.020570 -0.012708 -0.025843
# 3 -0.001806 -0.001457 0.008063 -0.003596 -0.007045 0.002863
# 4 0.000613 -0.020570 -0.003596 0.047472 0.017459 -0.003800
# 5 0.002323 -0.012708 -0.007045 0.017459 0.050468 -0.008557
# 6 -0.000528 -0.025843 0.002863 -0.003800 -0.008557 0.048316
#
#
# Mechanical properties :
#
#
# Convention : Reuss Voigt Hill
#
# Bulk Modulus (GPa) = 13.61369 51.50420 32.55895
# Shear Modulus (GPa) = 18.23060 34.84668 26.53864
#
# Velocity S-wave (km/s) = 2.84731 3.93654 3.43537
# Velocity P-wave (km/s) = 4.10653 6.60043 5.49678
#
# Compressibility (1/GPa) = 0.07345545
#
# Stress axis : x y z
#
# Youngs Moduli (GPa) = 135.83713 13.68650 124.02502
#
# Poissons Ratio (x) = 0.05823 0.22394
# Poissons Ratio (y) = 0.57791 0.18069
# Poissons Ratio (z) = 0.24527 0.01994
#
# Static dielectric constant tensor:
#      x y z
#    x 2.017330 -0.178840 -0.174380 
#    y -0.178840 2.132730 0.345860 
#    z -0.174380 0.345860 2.333340 
# 
# From -- ./inp_files/185704.got.cif
#   From: 2010.05.17/outbox.cif.g08.bks.cpg/sg2_93_cif.got.tgz:185704.got - 2010.06.03 11:33:40.
