data_PCOD9109689
_publ_section_title
;
Structure prediction by ZEFSAII (Michael W. Deem and Ramdas Pophale) SiO2 
 PCOD9109689
Probable space group: P -1
;
_chemical_formula_sum "Si O2"
_cell_formula_units_Z 16
_cell_length_a 5.846006
_cell_length_b 11.297243
_cell_length_c 13.690328
_cell_angle_alpha 58.981778
_cell_angle_beta 111.354115
_cell_angle_gamma 81.337284
_cell_volume 653.661178
_symmetry_space_group_name_H-M "P -1"
_symmetry_group_IT_number 2
_symmetry_cell_setting 'triclinic'
loop_
_space_group_symop_operation_xyz
x,y,z
-x,-y,-z
loop_
_atom_site_type_symbol
_atom_site_label
_atom_site_fract_x
_atom_site_fract_y
_atom_site_fract_z
Si Si1 0.518637 0.483236 0.860494
Si Si2 0.695682 0.657688 0.667380
Si Si3 0.265426 0.939022 0.999928
Si Si4 0.047122 0.842808 0.284509
Si Si5 0.751912 0.647711 0.249255
Si Si6 0.114893 0.722045 0.829585
Si Si7 0.872424 0.057022 0.561081
Si Si8 0.372518 0.379454 0.544025
O O1 0.598267 0.534845 0.748692
O O2 0.268056 0.440402 0.813147
O O3 0.385333 0.635935 0.841258
O O4 0.763186 0.351414 0.014264
O O5 0.440801 0.825521 0.551210
O O6 0.778984 0.617792 0.582785
O O7 0.898763 0.664886 0.777882
O O8 0.129933 0.988032 0.853169
O O9 0.500000 0.000000 0.000000
O O10 0.440882 0.773154 0.136509
O O11 0.000000 0.000000 0.000000
O O12 0.947273 0.734411 0.252689
O O13 0.009102 0.845346 0.394647
O O14 0.366759 0.784397 0.343360
O O15 0.763422 0.587414 0.385854
O O16 0.956838 0.900792 0.701527
O O17 0.000000 0.000000 0.500000
O O18 0.500000 0.500000 0.500000
#
# Coordination Sequence:
#
# PCOD9109689 Si02
#       8
#     2   2   2   2   2   2   2   2
#     4  11  24  44  68  99 134 174 224 283 335 424
#     4  11  24  43  68  98 130 175 224 282 346 406
#     4  10  20  41  66  96 138 182 227 282 347 423
#     4  10  24  41  64  97 133 176 221 281 348 412
#     4  11  23  40  68  98 134 174 218 282 354 411
#     4  11  25  45  68  93 133 178 227 273 342 407
#     4  11  23  45  68  94 135 175 234 285 334 422
#     4  11  23  38  61  96 132 167 217 275 337 422
#
# _framework density 24.477512000000001
#
# number of rings (size 3 to 8) (size 9 to 14) (size 15 to 20)
#    0.000    1.250    3.750    1.500    3.500    0.500 
#    0.000    1.250    0.000    0.000    0.000    0.000 
#    0.000    0.000    0.000    0.000    0.000    0.000 
#
# Total GULP energy -89103.226873 kJ/mol
# GULP energy per Si atom -5568.951680 kJ/mol
# Density = 2.442180 g / cm^3
# Si number density = 24.477512 Si / 1000 Ang^3
#
#
#
# Elastic Constant Matrix: (Units=GPa)
#
#
# Indices 1 2 3 4 5 6 
#
# 1 47.0847 14.0628 35.2439 10.3160 -2.9549 -4.3840
# 2 14.0628 84.6467 50.5972 17.5897 1.4201 -1.0974
# 3 35.2439 50.5972 226.9361 12.3444 27.5435 0.9120
# 4 10.3160 17.5897 12.3444 60.1182 -1.0262 -1.5086
# 5 -2.9549 1.4201 27.5435 -1.0262 48.8926 7.8977
# 6 -4.3840 -1.0974 0.9120 -1.5086 7.8977 27.3243
#
#
#
# Elastic Compliance Matrix: (Units=1/GPa)
#
#
# Indices 1 2 3 4 5 6 
#
# 1 0.025752 -0.001287 -0.003951 -0.003098 0.003254 0.003100
# 2 -0.001287 0.014496 -0.002983 -0.003390 0.001116 -0.000035
# 3 -0.003951 -0.002983 0.006109 0.000237 -0.003605 0.000097
# 4 -0.003098 -0.003390 0.000237 0.018119 0.000105 0.000329
# 5 0.003254 0.001116 -0.003605 0.000105 0.023642 -0.006140
# 6 0.003100 -0.000035 0.000097 0.000329 -0.006140 0.038883
#
#
# Mechanical properties :
#
#
# Convention : Reuss Voigt Hill
#
# Bulk Modulus (GPa) = 33.42865 62.05284 47.74074
# Shear Modulus (GPa) = 32.59125 44.51794 38.55459
#
# Velocity S-wave (km/s) = 3.65290 4.26928 3.97306
# Velocity P-wave (km/s) = 5.61053 7.05041 6.37128
#
# Compressibility (1/GPa) = 0.02991446
#
# Stress axis : x y z
#
# Youngs Moduli (GPa) = 38.83203 68.98476 163.68051
#
# Poissons Ratio (x) = 0.08879 0.64674
# Poissons Ratio (y) = 0.04998 0.48826
# Poissons Ratio (z) = 0.15344 0.20578
#
# Static dielectric constant tensor:
#      x y z
#    x 1.965630 -0.054890 0.043280 
#    y -0.054890 2.112720 -0.049790 
#    z 0.043280 -0.049790 1.983450 
# 
# From -- ./inp_files/85143.got.cif
#   From: 2010.05.17/outbox.cif.g08.bks.cpg/sg2_43_cif.got.tgz:85143.got - 2010.06.03 11:33:40.
