data_PCOD9109092
_publ_section_title
;
Structure prediction by ZEFSAII (Michael W. Deem and Ramdas Pophale) SiO2 
 PCOD9109092
Probable space group: P -1
;
_chemical_formula_sum "Si O2"
_cell_formula_units_Z 14
_cell_length_a 8.962121
_cell_length_b 10.929334
_cell_length_c 11.250220
_cell_angle_alpha 127.443639
_cell_angle_beta 44.839037
_cell_angle_gamma 101.063979
_cell_volume 557.757069
_symmetry_space_group_name_H-M "P -1"
_symmetry_group_IT_number 2
_symmetry_cell_setting 'triclinic'
loop_
_space_group_symop_operation_xyz
x,y,z
-x,-y,-z
loop_
_atom_site_type_symbol
_atom_site_label
_atom_site_fract_x
_atom_site_fract_y
_atom_site_fract_z
Si Si1 0.760849 0.952102 0.549712
Si Si2 0.634101 0.111438 0.949104
Si Si3 0.444941 0.766188 0.682354
Si Si4 0.882751 0.692342 0.139553
Si Si5 0.858670 0.399460 0.303578
Si Si6 0.546906 0.294993 0.727189
Si Si7 0.729225 0.561141 0.796178
O O1 0.542666 0.900804 0.665498
O O2 0.929781 0.797684 0.281051
O O3 0.681761 0.117595 0.611761
O O4 0.815060 0.997284 0.678237
O O5 0.692522 0.168011 0.076002
O O6 0.453748 0.281149 0.083397
O O7 0.500000 0.000000 0.000000
O O8 0.670350 0.587990 0.480712
O O9 0.282749 0.713252 0.657938
O O10 0.609598 0.735936 0.303440
O O11 0.000000 0.500000 0.000000
O O12 0.981000 0.696640 0.956556
O O13 0.023760 0.428493 0.324639
O O14 0.707732 0.391756 0.665809
O O15 0.360460 0.414309 0.001470
#
# Coordination Sequence:
#
# PCOD9109092 Si02
#       7
#     2   2   2   2   2   2   2
#     4  10  20  41  62  94 130 167 207 265 324 378
#     4   9  20  38  62  89 129 171 204 260 320 379
#     4  10  21  40  64  91 132 167 210 264 321 376
#     4  11  21  37  64  97 127 163 216 267 318 383
#     4  10  22  39  63  97 122 170 217 259 319 384
#     4   9  20  37  64  90 130 166 207 268 319 377
#     4   9  19  39  63  89 127 170 216 254 322 384
#
# _framework density 25.100535000000001
#
# number of rings (size 3 to 8) (size 9 to 14) (size 15 to 20)
#    0.000    2.286    1.429    0.429    2.000    0.571 
#    0.000   17.143    0.000    0.000    0.000    0.000 
#    0.000    0.000    0.000    0.000    0.000    0.000 
#
# Total GULP energy -78254.311744 kJ/mol
# GULP energy per Si atom -5589.593696 kJ/mol
# Density = 2.504341 g / cm^3
# Si number density = 25.100535 Si / 1000 Ang^3
#
#
#
# Elastic Constant Matrix: (Units=GPa)
#
#
# Indices 1 2 3 4 5 6 
#
# 1 147.2744 45.3653 40.1627 7.3018 32.4893 31.5559
# 2 45.3653 130.8801 30.7162 4.8494 -0.0420 29.9057
# 3 40.1627 30.7162 117.1535 -8.4039 40.1783 8.6381
# 4 7.3018 4.8494 -8.4039 40.4204 3.3608 8.1240
# 5 32.4893 -0.0420 40.1783 3.3608 45.2453 0.3690
# 6 31.5559 29.9057 8.6381 8.1240 0.3690 36.2237
#
#
#
# Elastic Compliance Matrix: (Units=1/GPa)
#
#
# Indices 1 2 3 4 5 6 
#
# 1 0.010728 -0.001996 0.000132 0.000539 -0.007799 -0.007770
# 2 -0.001996 0.010484 -0.003161 -0.000700 0.004352 -0.006050
# 3 0.000132 -0.003161 0.014309 0.004797 -0.013145 -0.001860
# 4 0.000539 -0.000700 0.004797 0.027721 -0.006648 -0.007185
# 5 -0.007799 0.004352 -0.013145 -0.006648 0.039812 0.007421
# 6 -0.007770 -0.006050 -0.001860 -0.007185 0.007421 0.041349
#
#
# Mechanical properties :
#
#
# Convention : Reuss Voigt Hill
#
# Bulk Modulus (GPa) = 39.26208 69.75513 54.50860
# Shear Modulus (GPa) = 30.68555 42.98213 36.83384
#
# Velocity S-wave (km/s) = 3.50023 4.14260 3.83489
# Velocity P-wave (km/s) = 5.65786 7.12265 6.43209
#
# Compressibility (1/GPa) = 0.02546987
#
# Stress axis : x y z
#
# Youngs Moduli (GPa) = 93.21762 95.38223 69.88734
#
# Poissons Ratio (x) = 0.19042 -0.00923
# Poissons Ratio (y) = 0.18610 0.22091
# Poissons Ratio (z) = -0.01231 0.30150
#
# Static dielectric constant tensor:
#      x y z
#    x 1.969170 0.059250 0.022930 
#    y 0.059250 1.928600 -0.084210 
#    z 0.022930 -0.084210 2.053670 
# 
# From -- ./inp_files/391242.got.cif
#   From: 2010.05.17/outbox.cif.g08.bks.cpg/sg2_196_cif.got.tgz:391242.got - 2010.06.03 11:33:40.
