data_PCOD9109159
_publ_section_title
;
Structure prediction by ZEFSAII (Michael W. Deem and Ramdas Pophale) SiO2 
 PCOD9109159
Probable space group: P -1
;
_chemical_formula_sum "Si O2"
_cell_formula_units_Z 14
_cell_length_a 16.013459
_cell_length_b 5.737873
_cell_length_c 7.002190
_cell_angle_alpha 110.711778
_cell_angle_beta 102.601247
_cell_angle_gamma 85.760378
_cell_volume 587.302681
_symmetry_space_group_name_H-M "P -1"
_symmetry_group_IT_number 2
_symmetry_cell_setting 'triclinic'
loop_
_space_group_symop_operation_xyz
x,y,z
-x,-y,-z
loop_
_atom_site_type_symbol
_atom_site_label
_atom_site_fract_x
_atom_site_fract_y
_atom_site_fract_z
Si Si1 0.029581 0.546204 0.314818
Si Si2 0.430876 0.164488 0.900789
Si Si3 0.065952 0.824132 0.084643
Si Si4 0.261828 0.903813 0.255265
Si Si5 0.316555 0.773713 0.838134
Si Si6 0.772772 0.522714 0.573931
Si Si7 0.517918 0.537763 0.299318
O O1 0.044858 0.811357 0.296463
O O2 0.126825 0.438812 0.315237
O O3 0.000000 0.500000 0.500000
O O4 0.955467 0.431044 0.110648
O O5 0.463015 0.196233 0.709946
O O6 0.338137 0.042193 0.833104
O O7 0.441853 0.416820 0.100298
O O8 0.500000 0.000000 0.000000
O O9 0.163925 0.886951 0.131800
O O10 0.000000 0.000000 0.000000
O O11 0.266722 0.685590 0.357257
O O12 0.271700 0.203970 0.383904
O O13 0.316463 0.825624 0.076699
O O14 0.235262 0.627251 0.673428
O O15 0.394558 0.605423 0.752139
O O16 0.500000 0.500000 0.500000
#
# Coordination Sequence:
#
# PCOD9109159 Si02
#       7
#     2   2   2   2   2   2   2
#     4  10  21  40  64  95 129 175 232 281 335 403
#     4   9  22  43  65 100 129 169 219 270 335 398
#     4  10  20  41  63  92 127 178 224 283 335 385
#     4  11  26  45  67  97 144 178 230 284 337 408
#     4  11  26  41  69  99 134 180 222 276 343 406
#     4  11  26  44  66 102 137 184 226 278 349 403
#     4  10  23  42  71  99 132 171 225 274 336 407
#
# _framework density 23.837789999999998
#
# number of rings (size 3 to 8) (size 9 to 14) (size 15 to 20)
#    0.000    1.714    1.429    0.857    6.000    5.143 
#    2.571    0.000    0.000    0.000    0.000    0.000 
#    0.000    0.000    0.000    0.000    0.000    0.000 
#
# Total GULP energy -78012.096684 kJ/mol
# GULP energy per Si atom -5572.292620 kJ/mol
# Density = 2.378353 g / cm^3
# Si number density = 23.837790 Si / 1000 Ang^3
#
#
#
# Elastic Constant Matrix: (Units=GPa)
#
#
# Indices 1 2 3 4 5 6 
#
# 1 57.3251 38.6010 24.7768 -6.2449 -5.4398 5.2005
# 2 38.6010 117.8943 48.8634 -21.8695 -19.4518 7.7739
# 3 24.7768 48.8634 115.0061 -18.8735 -23.3271 14.2688
# 4 -6.2449 -21.8695 -18.8735 48.7631 22.6447 9.9346
# 5 -5.4398 -19.4518 -23.3271 22.6447 47.2309 -3.3573
# 6 5.2005 7.7739 14.2688 9.9346 -3.3573 33.5425
#
#
#
# Elastic Compliance Matrix: (Units=1/GPa)
#
#
# Indices 1 2 3 4 5 6 
#
# 1 0.022907 -0.006742 -0.002204 -0.000134 -0.001243 -0.001136
# 2 -0.006742 0.012893 -0.003001 0.003490 0.001266 -0.001573
# 3 -0.002204 -0.003001 0.012024 0.002626 0.002865 -0.004569
# 4 -0.000134 0.003490 0.002626 0.031927 -0.013492 -0.012712
# 5 -0.001243 0.001266 0.002865 -0.013492 0.029837 0.005663
# 6 -0.001136 -0.001573 -0.004569 -0.012712 0.005663 0.036629
#
#
# Mechanical properties :
#
#
# Convention : Reuss Voigt Hill
#
# Bulk Modulus (GPa) = 41.78614 57.18978 49.48796
# Shear Modulus (GPa) = 28.07598 37.77292 32.92445
#
# Velocity S-wave (km/s) = 3.43562 3.98500 3.72046
# Velocity P-wave (km/s) = 5.77108 6.72435 6.26587
#
# Compressibility (1/GPa) = 0.02393138
#
# Stress axis : x y z
#
# Youngs Moduli (GPa) = 43.65436 77.55848 83.16775
#
# Poissons Ratio (x) = 0.52290 0.18329
# Poissons Ratio (y) = 0.29432 0.24957
# Poissons Ratio (z) = 0.09621 0.23274
#
# Static dielectric constant tensor:
#      x y z
#    x 1.923910 0.017870 0.000160 
#    y 0.017870 2.301140 0.095350 
#    z 0.000160 0.095350 2.001700 
# 
# From -- ./inp_files/7800.got.cif
#   From: 2010.05.17/outbox.cif.g08.bks.cpg/sg2_4_cif.got.tgz:7800.got - 2010.06.03 11:33:40.
