data_PCOD9109698
_publ_section_title
;
Structure prediction by ZEFSAII (Michael W. Deem and Ramdas Pophale) SiO2 
 PCOD9109698
Probable space group: P -1
;
_chemical_formula_sum "Si O2"
_cell_formula_units_Z 16
_cell_length_a 10.234196
_cell_length_b 16.138208
_cell_length_c 9.106935
_cell_angle_alpha 115.624066
_cell_angle_beta 127.993818
_cell_angle_gamma 103.678630
_cell_volume 755.378464
_symmetry_space_group_name_H-M "P -1"
_symmetry_group_IT_number 2
_symmetry_cell_setting 'triclinic'
loop_
_space_group_symop_operation_xyz
x,y,z
-x,-y,-z
loop_
_atom_site_type_symbol
_atom_site_label
_atom_site_fract_x
_atom_site_fract_y
_atom_site_fract_z
Si Si1 0.407448 0.823356 0.313097
Si Si2 0.946046 0.481665 0.122600
Si Si3 0.388071 0.714916 0.769060
Si Si4 0.366984 0.066630 0.140763
Si Si5 0.067835 0.005064 0.308964
Si Si6 0.184788 0.800633 0.869814
Si Si7 0.138704 0.188520 0.738428
Si Si8 0.226467 0.395482 0.765773
O O1 0.462952 0.871715 0.554954
O O2 0.667321 0.901634 0.490877
O O3 0.235922 0.669183 0.082202
O O4 0.268492 0.841048 0.127274
O O5 0.837584 0.532831 0.150909
O O6 0.190901 0.574864 0.451290
O O7 0.000000 0.500000 0.000000
O O8 0.493666 0.827732 0.810285
O O9 0.293303 0.746332 0.851299
O O10 0.593369 0.732818 0.984732
O O11 0.284510 0.929567 0.955255
O O12 0.135778 0.041731 0.980177
O O13 0.053573 0.082138 0.476666
O O14 0.997478 0.886743 0.262588
O O15 0.916726 0.684103 0.543795
O O16 0.136752 0.286635 0.739883
O O17 0.500000 0.500000 0.000000
#
# Coordination Sequence:
#
# PCOD9109698 Si02
#       8
#     2   2   2   2   2   2   2   2
#     4  12  24  41  64  95 137 171 216 269 337 394
#     4  11  25  46  66  94 137 180 214 270 344 391
#     4  10  22  41  70  91 129 173 221 269 328 397
#     4  11  22  41  64  95 133 167 218 270 334 389
#     4  10  21  39  66  95 131 167 215 275 331 387
#     4  11  24  38  65 100 125 172 218 280 320 392
#     4  10  20  41  66  98 126 166 224 274 322 381
#     4  11  25  43  71  97 132 175 231 273 315 402
#
# _framework density 21.181435
#
# number of rings (size 3 to 8) (size 9 to 14) (size 15 to 20)
#    0.000    1.250    3.750    1.875    1.750    3.000 
#    2.250    0.625    0.000    0.000    0.000    0.000 
#    0.000    0.000    0.000    0.000    0.000    0.000 
#
# Total GULP energy -89348.693177 kJ/mol
# GULP energy per Si atom -5584.293324 kJ/mol
# Density = 2.113322 g / cm^3
# Si number density = 21.181435 Si / 1000 Ang^3
#
#
#
# Elastic Constant Matrix: (Units=GPa)
#
#
# Indices 1 2 3 4 5 6 
#
# 1 22.1994 4.3829 18.8623 -3.1732 11.2006 9.5122
# 2 4.3829 81.1214 38.0935 3.5159 11.8604 -6.2358
# 3 18.8623 38.0935 144.6778 -10.5030 16.9949 -1.2514
# 4 -3.1732 3.5159 -10.5030 44.3211 3.1187 -2.0589
# 5 11.2006 11.8604 16.9949 3.1187 29.4177 4.3208
# 6 9.5122 -6.2358 -1.2514 -2.0589 4.3208 17.2472
#
#
#
# Elastic Compliance Matrix: (Units=1/GPa)
#
#
# Indices 1 2 3 4 5 6 
#
# 1 0.079194 -0.000842 -0.007854 0.003456 -0.019891 -0.039156
# 2 -0.000842 0.015233 -0.003395 -0.001430 -0.004697 0.006732
# 3 -0.007854 -0.003395 0.009253 0.002242 -0.001888 0.004516
# 4 0.003456 -0.001430 0.002242 0.023878 -0.004831 0.001800
# 5 -0.019891 -0.004697 -0.001888 -0.004831 0.045479 -0.002835
# 6 -0.039156 0.006732 0.004516 0.001800 -0.002835 0.083263
#
#
# Mechanical properties :
#
#
# Convention : Reuss Voigt Hill
#
# Bulk Modulus (GPa) = 12.57893 41.18621 26.88257
# Shear Modulus (GPa) = 16.28755 30.64118 23.46436
#
# Velocity S-wave (km/s) = 2.77601 3.80755 3.33194
# Velocity P-wave (km/s) = 4.02822 6.23030 5.24610
#
# Compressibility (1/GPa) = 0.07949802
#
# Stress axis : x y z
#
# Youngs Moduli (GPa) = 12.62717 65.64676 108.06831
#
# Poissons Ratio (x) = 0.05527 0.84882
# Poissons Ratio (y) = 0.01063 0.36689
# Poissons Ratio (z) = 0.09918 0.22287
#
# Static dielectric constant tensor:
#      x y z
#    x 1.758110 0.021230 -0.006750 
#    y 0.021230 1.780380 -0.034460 
#    z -0.006750 -0.034460 1.816100 
# 
# From -- ./inp_files/185955.got.cif
#   From: 2010.05.17/outbox.cif.g08.bks.cpg/sg2_93_cif.got.tgz:185955.got - 2010.06.03 11:33:40.
