data_PCOD9109970
_publ_section_title
;
Structure prediction by ZEFSAII (Michael W. Deem and Ramdas Pophale) SiO2 
 PCOD9109970
Probable space group: P -1
;
_chemical_formula_sum "Si O2"
_cell_formula_units_Z 14
_cell_length_a 9.915080
_cell_length_b 11.013906
_cell_length_c 12.596912
_cell_angle_alpha 44.967263
_cell_angle_beta 39.107445
_cell_angle_gamma 56.738902
_cell_volume 613.216280
_symmetry_space_group_name_H-M "P -1"
_symmetry_group_IT_number 2
_symmetry_cell_setting 'triclinic'
loop_
_space_group_symop_operation_xyz
x,y,z
-x,-y,-z
loop_
_atom_site_type_symbol
_atom_site_label
_atom_site_fract_x
_atom_site_fract_y
_atom_site_fract_z
Si Si1 0.914873 0.685348 0.216206
Si Si2 0.989284 0.972255 0.710536
Si Si3 0.388067 0.531567 0.310396
Si Si4 0.145463 0.611087 0.922428
Si Si5 0.299571 0.034786 0.309122
Si Si6 0.767630 0.182501 0.903292
Si Si7 0.503842 0.699547 0.339146
O O1 0.781571 0.580566 0.450525
O O2 0.732140 0.762638 0.202824
O O3 0.068816 0.815844 0.100654
O O4 0.059085 0.575032 0.115920
O O5 0.099564 0.809138 0.799057
O O6 0.824639 0.914487 0.753771
O O7 0.165641 0.075995 0.470102
O O8 0.872884 0.087294 0.797649
O O9 0.604683 0.430102 0.215704
O O10 0.275385 0.619715 0.225985
O O11 0.467416 0.686151 0.244658
O O12 0.000000 0.500000 0.000000
O O13 0.328565 0.826382 0.415387
O O14 0.535281 0.110311 0.117839
O O15 0.500000 0.500000 0.500000
#
# Coordination Sequence:
#
# PCOD9109970 Si02
#       7
#     2   2   2   2   2   2   2
#     4  11  26  43  69 102 141 178 227 284 343 397
#     4  11  25  43  70 103 135 181 229 281 342 400
#     4  11  24  45  71  98 138 181 231 279 334 407
#     4  12  25  42  71 102 130 180 237 278 334 405
#     4  11  24  42  69 101 138 176 229 282 334 407
#     4  12  26  45  68 103 143 180 222 281 350 407
#     4  10  20  41  68  96 128 176 224 275 330 397
#
# _framework density 22.830445000000001
#
# number of rings (size 3 to 8) (size 9 to 14) (size 15 to 20)
#    0.000    0.857    2.857    4.286    2.000    5.143 
#    0.000    2.143    0.000    0.000    0.000    0.000 
#    0.000    0.000    0.000    0.000    0.000    0.000 
#
# Total GULP energy -78316.810538 kJ/mol
# GULP energy per Si atom -5594.057896 kJ/mol
# Density = 2.277848 g / cm^3
# Si number density = 22.830445 Si / 1000 Ang^3
#
#
#
# Elastic Constant Matrix: (Units=GPa)
#
#
# Indices 1 2 3 4 5 6 
#
# 1 97.1250 33.6083 24.8210 19.1899 -24.5814 -3.0936
# 2 33.6083 78.3003 57.2355 14.4694 -5.3254 -20.9556
# 3 24.8210 57.2355 145.3159 46.7074 -17.6225 8.6793
# 4 19.1899 14.4694 46.7074 28.7848 -9.3271 7.4056
# 5 -24.5814 -5.3254 -17.6225 -9.3271 25.5337 1.7309
# 6 -3.0936 -20.9556 8.6793 7.4056 1.7309 24.3333
#
#
#
# Elastic Compliance Matrix: (Units=1/GPa)
#
#
# Indices 1 2 3 4 5 6 
#
# 1 0.019714 -0.014666 0.009045 -0.011506 0.018717 -0.011180
# 2 -0.014666 0.044544 -0.021586 0.004089 -0.021247 0.044463
# 3 0.009045 -0.021586 0.025233 -0.026957 0.013073 -0.019166
# 4 -0.011506 0.004089 -0.026957 0.089873 0.005088 -0.016040
# 5 0.018717 -0.021247 0.013073 0.005088 0.065448 -0.026785
# 6 -0.011180 0.044463 -0.019166 -0.016040 -0.026785 0.091589
#
#
# Mechanical properties :
#
#
# Convention : Reuss Voigt Hill
#
# Bulk Modulus (GPa) = 28.50861 61.34119 44.92490
# Shear Modulus (GPa) = 12.42212 29.40213 20.91213
#
# Velocity S-wave (km/s) = 2.33513 3.59255 3.02979
# Velocity P-wave (km/s) = 4.44800 6.64342 5.65331
#
# Compressibility (1/GPa) = 0.03507712
#
# Stress axis : x y z
#
# Youngs Moduli (GPa) = 50.72576 22.44961 39.63028
#
# Poissons Ratio (x) = 0.32925 -0.35846
# Poissons Ratio (y) = 0.74396 0.85546
# Poissons Ratio (z) = -0.45883 0.48460
#
# Static dielectric constant tensor:
#      x y z
#    x 1.843650 0.000050 0.015330 
#    y 0.000050 1.857620 -0.032930 
#    z 0.015330 -0.032930 1.896220 
# 
# From -- ./inp_files/391914.got.cif
#   From: 2010.05.17/outbox.cif.g08.bks.cpg/sg2_196_cif.got.tgz:391914.got - 2010.06.03 11:33:40.
