data_PCOD9109146
_publ_section_title
;
Structure prediction by ZEFSAII (Michael W. Deem and Ramdas Pophale) SiO2 
 PCOD9109146
Probable space group: P -1
;
_chemical_formula_sum "Si O2"
_cell_formula_units_Z 16
_cell_length_a 15.252428
_cell_length_b 9.285060
_cell_length_c 12.333308
_cell_angle_alpha 36.824434
_cell_angle_beta 47.644856
_cell_angle_gamma 44.282525
_cell_volume 709.464649
_symmetry_space_group_name_H-M "P -1"
_symmetry_group_IT_number 2
_symmetry_cell_setting 'triclinic'
loop_
_space_group_symop_operation_xyz
x,y,z
-x,-y,-z
loop_
_atom_site_type_symbol
_atom_site_label
_atom_site_fract_x
_atom_site_fract_y
_atom_site_fract_z
Si Si1 0.866722 0.602762 0.919608
Si Si2 0.432815 0.717968 0.516218
Si Si3 0.638873 0.952267 0.279520
Si Si4 0.292319 0.271144 0.230193
Si Si5 0.471060 0.493162 0.850196
Si Si6 0.134889 0.854552 0.413888
Si Si7 0.826880 0.581021 0.201266
Si Si8 0.741957 0.512261 0.634194
O O1 0.812770 0.574554 0.865753
O O2 0.022718 0.475818 0.869395
O O3 0.817759 0.917131 0.783318
O O4 0.817220 0.521335 0.119846
O O5 0.500000 0.500000 0.500000
O O6 0.524897 0.860952 0.397296
O O7 0.416084 0.576277 0.724780
O O8 0.314132 0.969931 0.414782
O O9 0.738431 0.865127 0.149356
O O10 0.707217 0.778117 0.433060
O O11 0.586745 0.251331 0.178167
O O12 0.254957 0.422084 0.283509
O O13 0.423970 0.280693 0.066287
O O14 0.623474 0.423858 0.764092
O O15 0.211436 0.614755 0.574182
O O16 0.132820 0.712125 0.388550
O O17 0.000000 0.000000 0.500000
#
# Coordination Sequence:
#
# PCOD9109146 Si02
#       8
#     2   2   2   2   2   2   2   2
#     4  10  23  40  62  91 126 160 218 269 305 373
#     4  11  25  41  61  94 134 161 211 270 310 378
#     4  10  20  42  68  84 124 180 206 250 329 378
#     4  12  25  38  63  98 132 164 212 260 319 376
#     4  11  23  41  61  94 130 175 205 247 327 389
#     4   9  20  40  67  87 115 169 215 256 314 369
#     4   9  21  42  64  86 121 169 215 256 320 371
#     4  10  20  41  63  90 130 166 210 259 308 392
#
# _framework density 22.552216999999999
#
# number of rings (size 3 to 8) (size 9 to 14) (size 15 to 20)
#    0.000    1.750    2.500    1.125    8.750    0.500 
#    0.000    6.250    0.000    0.000    0.000    0.000 
#    0.000    0.000    0.000    0.000    0.000    0.000 
#
# Total GULP energy -89393.827325 kJ/mol
# GULP energy per Si atom -5587.114208 kJ/mol
# Density = 2.250089 g / cm^3
# Si number density = 22.552217 Si / 1000 Ang^3
#
#
#
# Elastic Constant Matrix: (Units=GPa)
#
#
# Indices 1 2 3 4 5 6 
#
# 1 95.6270 19.5068 8.4787 17.9754 25.7123 13.5461
# 2 19.5068 107.9439 18.7739 19.2426 8.0965 6.0481
# 3 8.4787 18.7739 79.3529 8.3249 25.2673 14.8968
# 4 17.9754 19.2426 8.3249 28.6837 10.1538 5.4389
# 5 25.7123 8.0965 25.2673 10.1538 28.3486 2.4711
# 6 13.5461 6.0481 14.8968 5.4389 2.4711 24.6898
#
#
#
# Elastic Compliance Matrix: (Units=1/GPa)
#
#
# Indices 1 2 3 4 5 6 
#
# 1 0.017652 -0.001846 0.007286 -0.002760 -0.020029 -0.011016
# 2 -0.001846 0.011014 -0.003094 -0.006872 0.003631 0.001332
# 3 0.007286 -0.003094 0.023568 0.002963 -0.026444 -0.015465
# 4 -0.002760 -0.006872 0.002963 0.046819 -0.014293 -0.007473
# 5 -0.020029 0.003631 -0.026444 -0.014293 0.079239 0.021272
# 6 -0.011016 0.001332 -0.015465 -0.007473 0.021272 0.055069
#
#
# Mechanical properties :
#
#
# Convention : Reuss Voigt Hill
#
# Bulk Modulus (GPa) = 17.56649 41.82695 29.69672
# Shear Modulus (GPa) = 20.19019 32.08872 26.13946
#
# Velocity S-wave (km/s) = 2.99534 3.77618 3.40820
# Velocity P-wave (km/s) = 4.44623 6.13186 5.35577
#
# Compressibility (1/GPa) = 0.05692658
#
# Stress axis : x y z
#
# Youngs Moduli (GPa) = 56.64946 90.79574 42.43013
#
# Poissons Ratio (x) = 0.16757 -0.30913
# Poissons Ratio (y) = 0.10455 0.13127
# Poissons Ratio (z) = -0.41272 0.28091
#
# Static dielectric constant tensor:
#      x y z
#    x 1.890850 -0.038320 0.017880 
#    y -0.038320 1.840510 -0.007540 
#    z 0.017880 -0.007540 1.872970 
# 
# From -- ./inp_files/277684.got.cif
#   From: 2010.05.17/outbox.cif.g08.bks.cpg/sg2_139_cif.got.tgz:277684.got - 2010.06.03 11:33:40.
