data_PCOD9109706
_publ_section_title
;
Structure prediction by ZEFSAII (Michael W. Deem and Ramdas Pophale) SiO2 
 PCOD9109706
Probable space group: P -1
;
_chemical_formula_sum "Si O2"
_cell_formula_units_Z 14
_cell_length_a 10.963936
_cell_length_b 12.110113
_cell_length_c 5.597012
_cell_angle_alpha 53.267789
_cell_angle_beta 63.462572
_cell_angle_gamma 72.827803
_cell_volume 532.425785
_symmetry_space_group_name_H-M "P -1"
_symmetry_group_IT_number 2
_symmetry_cell_setting 'triclinic'
loop_
_space_group_symop_operation_xyz
x,y,z
-x,-y,-z
loop_
_atom_site_type_symbol
_atom_site_label
_atom_site_fract_x
_atom_site_fract_y
_atom_site_fract_z
Si Si1 0.428141 0.113291 0.088064
Si Si2 0.186877 0.946790 0.670399
Si Si3 0.106232 0.911576 0.273744
Si Si4 0.042026 0.570533 0.116241
Si Si5 0.295912 0.461055 0.201814
Si Si6 0.447304 0.617599 0.211367
Si Si7 0.182600 0.218820 0.857575
O O1 0.331531 0.022015 0.461934
O O2 0.538139 0.223562 0.931903
O O3 0.313291 0.209224 0.928329
O O4 0.500000 0.000000 0.000000
O O5 0.057776 0.059016 0.612649
O O6 0.177840 0.872995 0.512824
O O7 0.151979 0.851995 0.052320
O O8 0.159209 0.066212 0.994872
O O9 0.205924 0.558775 0.982455
O O10 0.000000 0.500000 0.500000
O O11 0.954328 0.712597 0.003182
O O12 0.000000 0.500000 0.000000
O O13 0.312408 0.554616 0.301046
O O14 0.217412 0.321440 0.484530
O O15 0.440315 0.399000 0.073562
O O16 0.500000 0.500000 0.500000
#
# Coordination Sequence:
#
# PCOD9109706 Si02
#       7
#     2   2   2   2   2   2   2
#     4  11  23  42  69 103 143 192 239 294 365 438
#     4   9  19  38  59  89 126 171 225 277 337 417
#     4   9  18  35  63  88 123 170 222 277 351 409
#     4  10  22  39  65 100 135 176 232 296 360 422
#     4  10  22  40  69 103 136 186 241 296 362 427
#     4  11  22  42  70  96 142 189 239 293 353 430
#     4  10  20  41  66  98 136 179 226 298 362 421
#
# _framework density 26.294740999999998
#
# number of rings (size 3 to 8) (size 9 to 14) (size 15 to 20)
#    0.000    2.000    1.429    1.714    2.000    3.429 
#    2.571   13.571    0.000    0.000    0.000    0.000 
#    0.000    0.000    0.000    0.000    0.000    0.000 
#
# Total GULP energy -78117.038312 kJ/mol
# GULP energy per Si atom -5579.788451 kJ/mol
# Density = 2.623489 g / cm^3
# Si number density = 26.294741 Si / 1000 Ang^3
#
#
#
# Elastic Constant Matrix: (Units=GPa)
#
#
# Indices 1 2 3 4 5 6 
#
# 1 90.2936 28.8031 -5.5387 -4.5899 14.6054 22.4108
# 2 28.8031 125.4685 42.0229 -4.9065 1.5778 9.9971
# 3 -5.5387 42.0229 85.9302 4.3393 -3.5174 14.2510
# 4 -4.5899 -4.9065 4.3393 39.1023 7.9648 3.1929
# 5 14.6054 1.5778 -3.5174 7.9648 50.3910 2.8879
# 6 22.4108 9.9971 14.2510 3.1929 2.8879 43.7165
#
#
#
# Elastic Compliance Matrix: (Units=1/GPa)
#
#
# Indices 1 2 3 4 5 6 
#
# 1 0.015436 -0.004120 0.004093 0.002317 -0.003955 -0.008213
# 2 -0.004120 0.010815 -0.005856 0.001376 0.000147 0.001438
# 3 0.004093 -0.005856 0.015849 -0.001679 0.000704 -0.005849
# 4 0.002317 0.001376 -0.001679 0.027442 -0.005019 -0.002628
# 5 -0.003955 0.000147 0.000704 -0.005019 0.021789 0.000692
# 6 -0.008213 0.001438 -0.005849 -0.002628 0.000692 0.028809
#
#
# Mechanical properties :
#
#
# Convention : Reuss Voigt Hill
#
# Bulk Modulus (GPa) = 32.96677 48.02966 40.49821
# Shear Modulus (GPa) = 35.20701 42.40229 38.80465
#
# Velocity S-wave (km/s) = 3.66312 4.02005 3.84573
# Velocity P-wave (km/s) = 5.51868 6.31294 5.92913
#
# Compressibility (1/GPa) = 0.03033358
#
# Stress axis : x y z
#
# Youngs Moduli (GPa) = 64.78276 92.46710 63.09666
#
# Poissons Ratio (x) = 0.38093 -0.25824
# Poissons Ratio (y) = 0.26688 0.36951
# Poissons Ratio (z) = -0.26514 0.54150
#
# Static dielectric constant tensor:
#      x y z
#    x 2.110290 0.060140 0.039450 
#    y 0.060140 2.098780 0.129070 
#    z 0.039450 0.129070 2.270440 
# 
# From -- ./inp_files/68272.got.cif
#   From: 2010.05.17/outbox.cif.g08.bks.cpg/sg2_35_cif.got.tgz:68272.got - 2010.06.03 11:33:40.
