data_PCOD9109639
_publ_section_title
;
Structure prediction by ZEFSAII (Michael W. Deem and Ramdas Pophale) SiO2 
 PCOD9109639
Probable space group: P -1
;
_chemical_formula_sum "Si O2"
_cell_formula_units_Z 14
_cell_length_a 13.766855
_cell_length_b 22.590179
_cell_length_c 6.691950
_cell_angle_alpha 81.256727
_cell_angle_beta 72.378178
_cell_angle_gamma 20.113314
_cell_volume 624.076227
_symmetry_space_group_name_H-M "P -1"
_symmetry_group_IT_number 2
_symmetry_cell_setting 'triclinic'
loop_
_space_group_symop_operation_xyz
x,y,z
-x,-y,-z
loop_
_atom_site_type_symbol
_atom_site_label
_atom_site_fract_x
_atom_site_fract_y
_atom_site_fract_z
Si Si1 0.807560 0.960983 0.901296
Si Si2 0.678984 0.424148 0.632529
Si Si3 0.121994 0.207731 0.145617
Si Si4 0.774106 0.625833 0.385534
Si Si5 0.720343 0.283889 0.954060
Si Si6 0.040992 0.039917 0.563811
Si Si7 0.065017 0.370104 0.051791
O O1 0.931097 0.923862 0.641977
O O2 0.424804 0.171573 0.023995
O O3 0.951083 0.813835 0.905923
O O4 0.956409 0.909539 0.024191
O O5 0.500000 0.500000 0.500000
O O6 0.727003 0.340378 0.787305
O O7 0.008756 0.264157 0.414615
O O8 0.528482 0.561204 0.792368
O O9 0.979951 0.348278 0.078560
O O10 0.500000 0.000000 0.000000
O O11 0.395173 0.842477 0.543270
O O12 0.897074 0.612437 0.179732
O O13 0.000000 0.500000 0.500000
O O14 0.834855 0.532367 0.264034
O O15 0.746039 0.217474 0.806021
O O16 0.000000 0.000000 0.500000
#
# Coordination Sequence:
#
# PCOD9109639 Si02
#       7
#     2   2   2   2   2   2   2
#     4  10  20  42  64  94 135 173 224 283 344 397
#     4  11  22  41  64  95 135 175 217 281 344 403
#     4  10  20  41  66  93 132 173 215 280 345 397
#     4  10  21  43  65  93 132 180 228 278 335 404
#     4  11  22  39  68  93 131 183 226 271 349 409
#     4  11  24  42  67  99 138 181 228 286 342 405
#     4   9  21  39  64  92 129 175 223 280 336 398
#
# _framework density 22.433156
#
# number of rings (size 3 to 8) (size 9 to 14) (size 15 to 20)
#    0.000    1.714    2.857    0.857    0.000    2.857 
#    2.571    5.714    0.000    0.000    0.000    0.000 
#    0.000    0.000    0.000    0.000    0.000    0.000 
#
# Total GULP energy -78099.846330 kJ/mol
# GULP energy per Si atom -5578.560452 kJ/mol
# Density = 2.238210 g / cm^3
# Si number density = 22.433156 Si / 1000 Ang^3
#
#
#
# Elastic Constant Matrix: (Units=GPa)
#
#
# Indices 1 2 3 4 5 6 
#
# 1 78.2633 14.2740 35.7629 8.0117 16.0812 26.5672
# 2 14.2740 101.4896 50.6910 -9.2609 13.1490 2.8180
# 3 35.7629 50.6910 134.2036 35.6307 28.3102 1.2471
# 4 8.0117 -9.2609 35.6307 40.1796 5.7021 9.1614
# 5 16.0812 13.1490 28.3102 5.7021 27.3094 5.2371
# 6 26.5672 2.8180 1.2471 9.1614 5.2371 37.9638
#
#
#
# Elastic Compliance Matrix: (Units=1/GPa)
#
#
# Indices 1 2 3 4 5 6 
#
# 1 0.021316 0.002343 -0.007352 0.007079 -0.004481 -0.015940
# 2 0.002343 0.016052 -0.010189 0.013619 -0.000288 -0.005743
# 3 -0.007352 -0.010189 0.020737 -0.020460 -0.010208 0.011566
# 4 0.007079 0.013619 -0.020460 0.048203 0.003765 -0.017445
# 5 -0.004481 -0.000288 -0.010208 0.003765 0.050018 -0.004316
# 6 -0.015940 -0.005743 0.011566 -0.017445 -0.004316 0.042347
#
#
# Mechanical properties :
#
#
# Convention : Reuss Voigt Hill
#
# Bulk Modulus (GPa) = 36.08785 57.26804 46.67794
# Shear Modulus (GPa) = 20.98136 35.30581 28.14359
#
# Velocity S-wave (km/s) = 3.06156 3.97145 3.54581
# Velocity P-wave (km/s) = 5.34970 6.82741 6.13322
#
# Compressibility (1/GPa) = 0.02771016
#
# Stress axis : x y z
#
# Youngs Moduli (GPa) = 46.91232 62.29598 48.22259
#
# Poissons Ratio (x) = -0.14596 0.35452
# Poissons Ratio (y) = -0.10991 0.49135
# Poissons Ratio (z) = 0.34488 0.63475
#
# Static dielectric constant tensor:
#      x y z
#    x 1.887490 -0.022880 -0.007690 
#    y -0.022880 1.866700 0.035870 
#    z -0.007690 0.035870 1.826610 
# 
# From -- ./inp_files/85046.got.cif
#   From: 2010.05.17/outbox.cif.g08.bks.cpg/sg2_43_cif.got.tgz:85046.got - 2010.06.03 11:33:40.
