data_PCOD9109551
_publ_section_title
;
Structure prediction by ZEFSAII (Michael W. Deem and Ramdas Pophale) SiO2 
 PCOD9109551
Probable space group: P -1
;
_chemical_formula_sum "Si O2"
_cell_formula_units_Z 16
_cell_length_a 9.087927
_cell_length_b 16.426561
_cell_length_c 9.482341
_cell_angle_alpha 95.246612
_cell_angle_beta 108.238720
_cell_angle_gamma 37.056321
_cell_volume 778.542114
_symmetry_space_group_name_H-M "P -1"
_symmetry_group_IT_number 2
_symmetry_cell_setting 'triclinic'
loop_
_space_group_symop_operation_xyz
x,y,z
-x,-y,-z
loop_
_atom_site_type_symbol
_atom_site_label
_atom_site_fract_x
_atom_site_fract_y
_atom_site_fract_z
Si Si1 0.870776 0.505961 0.333895
Si Si2 0.015438 0.016220 0.239907
Si Si3 0.809471 0.946176 0.274377
Si Si4 0.631409 0.214567 0.921398
Si Si5 0.540507 0.492664 0.344757
Si Si6 0.943231 0.244807 0.933849
Si Si7 0.233202 0.221172 0.257061
Si Si8 0.044362 0.177865 0.411818
O O1 0.673033 0.641426 0.193166
O O2 0.689850 0.513054 0.353203
O O3 0.000000 0.500000 0.500000
O O4 0.097750 0.362826 0.289157
O O5 0.076817 0.072634 0.347732
O O6 0.006176 0.939437 0.320548
O O7 0.729708 0.144359 0.093631
O O8 0.234391 0.905931 0.167547
O O9 0.899722 0.847141 0.409597
O O10 0.833796 0.889435 0.123723
O O11 0.523563 0.101787 0.259168
O O12 0.782347 0.236520 0.947108
O O13 0.500000 0.500000 0.500000
O O14 0.261595 0.616080 0.200490
O O15 0.740261 0.337438 0.324728
O O16 0.054770 0.251915 0.092376
O O17 0.227546 0.163008 0.380873
#
# Coordination Sequence:
#
# PCOD9109551 Si02
#       8
#     2   2   2   2   2   2   2   2
#     4  10  24  41  62  88 125 161 197 248 309 362
#     4  10  21  38  63  89 117 161 205 247 295 354
#     4  11  23  39  59  93 126 159 200 250 302 353
#     4   9  20  40  63  88 119 158 204 247 298 358
#     4  10  21  40  64  92 116 156 204 249 301 351
#     4  10  20  41  66  87 122 158 205 250 295 362
#     4  11  24  40  62  91 124 163 197 247 309 360
#     4  11  22  38  64  90 122 158 204 249 301 361
#
# _framework density 20.551231999999999
#
# number of rings (size 3 to 8) (size 9 to 14) (size 15 to 20)
#    0.000    1.750    2.500    1.125    3.500    2.500 
#    2.250    0.625    0.000    0.000    0.000    0.000 
#    0.000    0.000    0.000    0.000    0.000    0.000 
#
# Total GULP energy -89382.976163 kJ/mol
# GULP energy per Si atom -5586.436010 kJ/mol
# Density = 2.050446 g / cm^3
# Si number density = 20.551232 Si / 1000 Ang^3
#
#
#
# Elastic Constant Matrix: (Units=GPa)
#
#
# Indices 1 2 3 4 5 6 
#
# 1 22.7452 9.2211 9.0546 4.6644 -8.2565 -6.8001
# 2 9.2211 106.4075 23.5776 8.8096 11.5059 -7.9899
# 3 9.0546 23.5776 66.3028 2.2437 -2.8843 4.8640
# 4 4.6644 8.8096 2.2437 38.8509 8.9049 1.7402
# 5 -8.2565 11.5059 -2.8843 8.9049 32.4597 3.1739
# 6 -6.8001 -7.9899 4.8640 1.7402 3.1739 26.0758
#
#
#
# Elastic Compliance Matrix: (Units=1/GPa)
#
#
# Indices 1 2 3 4 5 6 
#
# 1 0.061356 -0.003687 -0.007005 -0.010873 0.017833 0.014733
# 2 -0.003687 0.011620 -0.004144 -0.000855 -0.005592 0.004110
# 3 -0.007005 -0.004144 0.018062 0.000632 0.001776 -0.006724
# 4 -0.010873 -0.000855 0.000632 0.029711 -0.010170 -0.003960
# 5 0.017833 -0.005592 0.001776 -0.010170 0.040434 -0.001637
# 6 0.014733 0.004110 -0.006724 -0.003960 -0.001637 0.045169
#
#
# Mechanical properties :
#
#
# Convention : Reuss Voigt Hill
#
# Bulk Modulus (GPa) = 16.29580 31.01802 23.65691
# Shear Modulus (GPa) = 19.49478 29.71743 24.60610
#
# Velocity S-wave (km/s) = 3.08327 3.80678 3.46396
# Velocity P-wave (km/s) = 4.54114 5.86923 5.24737
#
# Compressibility (1/GPa) = 0.06136550
#
# Stress axis : x y z
#
# Youngs Moduli (GPa) = 16.29821 86.06090 55.36502
#
# Poissons Ratio (x) = 0.31728 0.38784
# Poissons Ratio (y) = 0.06009 0.22945
# Poissons Ratio (z) = 0.11417 0.35667
#
# Static dielectric constant tensor:
#      x y z
#    x 1.708450 -0.004650 -0.013110 
#    y -0.004650 1.751120 -0.032190 
#    z -0.013110 -0.032190 1.726230 
# 
# From -- ./inp_files/207887.got.cif
#   From: 2010.05.17/outbox.cif.g08.bks.cpg/sg2_104_cif.got.tgz:207887.got - 2010.06.03 11:33:40.
