data_PCOD9109514
_publ_section_title
;
Structure prediction by ZEFSAII (Michael W. Deem and Ramdas Pophale) SiO2 
 PCOD9109514
Probable space group: P -1
;
_chemical_formula_sum "Si O2"
_cell_formula_units_Z 16
_cell_length_a 15.714317
_cell_length_b 19.389222
_cell_length_c 9.428131
_cell_angle_alpha 143.475648
_cell_angle_beta 140.305788
_cell_angle_gamma 26.850583
_cell_volume 757.340158
_symmetry_space_group_name_H-M "P -1"
_symmetry_group_IT_number 2
_symmetry_cell_setting 'triclinic'
loop_
_space_group_symop_operation_xyz
x,y,z
-x,-y,-z
loop_
_atom_site_type_symbol
_atom_site_label
_atom_site_fract_x
_atom_site_fract_y
_atom_site_fract_z
Si Si1 0.766583 0.221846 0.709232
Si Si2 0.320354 0.188694 0.139005
Si Si3 0.403503 0.545216 0.607494
Si Si4 0.849270 0.927861 0.185111
Si Si5 0.217000 0.840585 0.058477
Si Si6 0.450828 0.916166 0.478526
Si Si7 0.520496 0.848129 0.124823
Si Si8 0.196114 0.449315 0.184317
O O1 0.571331 0.385482 0.655856
O O2 0.801406 0.064753 0.453928
O O3 0.767044 0.240744 0.909588
O O4 0.946851 0.175374 0.794829
O O5 0.367867 0.201552 0.379467
O O6 0.291396 0.318879 0.221248
O O7 0.500000 0.000000 0.000000
O O8 0.156093 0.193941 0.947229
O O9 0.500000 0.500000 0.500000
O O10 0.219677 0.572668 0.431156
O O11 0.331632 0.708808 0.858600
O O12 0.680143 0.033999 0.023519
O O13 0.306042 0.908664 0.323211
O O14 0.000000 0.000000 0.000000
O O15 0.493823 0.869176 0.291954
O O16 0.380130 0.092262 0.692045
O O17 0.664681 0.660038 0.951074
O O18 0.000000 0.500000 0.000000
#
# Coordination Sequence:
#
# PCOD9109514 Si02
#       8
#     2   2   2   2   2   2   2   2
#     4  11  24  42  71  97 142 179 232 283 347 407
#     4  11  20  41  68  96 131 175 228 274 342 407
#     4  12  28  48  69  99 148 184 227 286 352 406
#     4  10  21  39  73 101 132 178 232 279 347 416
#     4  12  27  42  70 102 136 181 236 276 343 417
#     4  10  21  38  69  92 129 169 219 278 332 390
#     4  10  20  41  65  98 132 167 220 281 334 405
#     4  12  26  42  68  99 136 177 227 280 340 402
#
# _framework density 21.126570000000001
#
# number of rings (size 3 to 8) (size 9 to 14) (size 15 to 20)
#    0.000    1.000    3.750    3.375    7.000    0.000 
#    0.000    0.625    0.000    0.000    0.000    0.000 
#    0.000    0.000    0.000    0.000    0.000    0.000 
#
# Total GULP energy -89340.812338 kJ/mol
# GULP energy per Si atom -5583.800771 kJ/mol
# Density = 2.107848 g / cm^3
# Si number density = 21.126570 Si / 1000 Ang^3
#
#
#
# Elastic Constant Matrix: (Units=GPa)
#
#
# Indices 1 2 3 4 5 6 
#
# 1 104.2865 17.5809 39.2487 -9.7553 3.1773 5.4615
# 2 17.5809 43.3017 7.4455 -10.1320 0.4247 -4.4436
# 3 39.2487 7.4455 85.7665 -4.7037 15.8635 -3.5478
# 4 -9.7553 -10.1320 -4.7037 22.9644 0.1779 3.5243
# 5 3.1773 0.4247 15.8635 0.1779 58.0782 -7.7921
# 6 5.4615 -4.4436 -3.5478 3.5243 -7.7921 27.7618
#
#
#
# Elastic Compliance Matrix: (Units=1/GPa)
#
#
# Indices 1 2 3 4 5 6 
#
# 1 0.012875 -0.003945 -0.005598 0.003226 0.000279 -0.004211
# 2 -0.003945 0.027392 0.000036 0.009789 0.000522 0.004069
# 3 -0.005598 0.000036 0.014975 0.000429 -0.003520 0.001978
# 4 0.003226 0.009789 0.000429 0.050215 -0.001290 -0.005750
# 5 0.000279 0.000522 -0.003520 -0.001290 0.018839 0.005030
# 6 -0.004211 0.004069 0.001978 -0.005750 0.005030 0.039895
#
#
# Mechanical properties :
#
#
# Convention : Reuss Voigt Hill
#
# Bulk Modulus (GPa) = 27.60328 40.21168 33.90748
# Shear Modulus (GPa) = 25.60419 33.03286 29.31852
#
# Velocity S-wave (km/s) = 3.48507 3.95849 3.72930
# Velocity P-wave (km/s) = 5.41187 6.32201 5.88457
#
# Compressibility (1/GPa) = 0.03622758
#
# Stress axis : x y z
#
# Youngs Moduli (GPa) = 77.67193 36.50709 66.77939
#
# Poissons Ratio (x) = 0.14401 0.37384
# Poissons Ratio (y) = 0.30639 -0.00240
# Poissons Ratio (z) = 0.43482 -0.00131
#
# Static dielectric constant tensor:
#      x y z
#    x 1.762000 -0.003990 0.018050 
#    y -0.003990 1.702270 -0.012520 
#    z 0.018050 -0.012520 1.797280 
# 
# From -- ./inp_files/318169.got.cif
#   From: 2010.05.17/outbox.cif.g08.bks.cpg/sg2_160_cif.got.tgz:318169.got - 2010.06.03 11:33:40.
