data_PCOD9109863
_publ_section_title
;
Structure prediction by ZEFSAII (Michael W. Deem and Ramdas Pophale) SiO2 
 PCOD9109863
Probable space group: P -1
;
_chemical_formula_sum "Si O2"
_cell_formula_units_Z 14
_cell_length_a 20.671368
_cell_length_b 7.837851
_cell_length_c 12.006477
_cell_angle_alpha 132.554855
_cell_angle_beta 157.488021
_cell_angle_gamma 50.127756
_cell_volume 547.724513
_symmetry_space_group_name_H-M "P -1"
_symmetry_group_IT_number 2
_symmetry_cell_setting 'triclinic'
loop_
_space_group_symop_operation_xyz
x,y,z
-x,-y,-z
loop_
_atom_site_type_symbol
_atom_site_label
_atom_site_fract_x
_atom_site_fract_y
_atom_site_fract_z
Si Si1 0.195629 0.613466 0.744697
Si Si2 0.740892 0.272515 0.531751
Si Si3 0.978459 0.673976 0.817696
Si Si4 0.778296 0.080018 0.815605
Si Si5 0.855300 0.831029 0.380822
Si Si6 0.490237 0.091000 0.229748
Si Si7 0.568303 0.716304 0.352041
O O1 0.194690 0.387627 0.722067
O O2 0.141025 0.525635 0.497183
O O3 0.043907 0.791608 0.618689
O O4 0.379194 0.707097 0.091740
O O5 0.585616 0.159415 0.299601
O O6 0.697277 0.898724 0.689703
O O7 0.836478 0.065169 0.525584
O O8 0.876413 0.368924 0.877390
O O9 0.080460 0.736049 0.893460
O O10 0.861650 0.892260 0.774069
O O11 0.603747 0.214165 0.556489
O O12 0.529858 0.824380 0.214987
O O13 0.707601 0.855031 0.064230
O O14 0.662409 0.470520 0.414660
#
# Coordination Sequence:
#
# PCOD9109863 Si02
#       7
#     2   2   2   2   2   2   2
#     4  11  24  41  68 103 137 179 223 284 341 407
#     4  11  22  42  74  99 131 181 229 280 336 405
#     4  10  20  41  67  98 140 174 222 283 346 387
#     4   8  19  37  64  97 131 173 219 281 324 397
#     4  11  23  40  66 101 140 177 225 277 347 401
#     4   9  20  39  66 103 129 172 228 289 320 394
#     4  10  23  40  73 104 130 175 242 274 328 411
#
# _framework density 25.560296000000001
#
# number of rings (size 3 to 8) (size 9 to 14) (size 15 to 20)
#    0.857    1.143    1.429    3.000    2.000    3.429 
#    0.000    4.286    3.143    8.571    0.000    0.000 
#    0.000    0.000    0.000    0.000    0.000    0.000 
#
# Total GULP energy -78063.950766 kJ/mol
# GULP energy per Si atom -5575.996483 kJ/mol
# Density = 2.550212 g / cm^3
# Si number density = 25.560296 Si / 1000 Ang^3
#
#
#
# Elastic Constant Matrix: (Units=GPa)
#
#
# Indices 1 2 3 4 5 6 
#
# 1 54.2018 54.0686 50.2814 3.8390 14.1963 9.3810
# 2 54.0686 127.9320 52.3957 -27.0649 11.9108 16.6364
# 3 50.2814 52.3957 143.7180 -22.3715 30.1823 2.7548
# 4 3.8390 -27.0649 -22.3715 45.0077 -0.8685 -4.6981
# 5 14.1963 11.9108 30.1823 -0.8685 28.8156 1.9754
# 6 9.3810 16.6364 2.7548 -4.6981 1.9754 37.5801
#
#
#
# Elastic Compliance Matrix: (Units=1/GPa)
#
#
# Indices 1 2 3 4 5 6 
#
# 1 0.062561 -0.024574 -0.016547 -0.029138 -0.003732 -0.006972
# 2 -0.024574 0.020180 0.003633 0.015932 0.000515 -0.001101
# 3 -0.016547 0.003633 0.014980 0.011214 -0.008928 0.003295
# 4 -0.029138 0.015932 0.011214 0.040279 -0.003077 0.004596
# 5 -0.003732 0.000515 -0.008928 -0.003077 0.045686 -0.001428
# 6 -0.006972 -0.001101 0.003295 0.004596 -0.001428 0.029246
#
#
# Mechanical properties :
#
#
# Convention : Reuss Voigt Hill
#
# Bulk Modulus (GPa) = 43.96348 71.03816 57.50082
# Shear Modulus (GPa) = 16.92107 33.55441 25.23774
#
# Velocity S-wave (km/s) = 2.57574 3.62713 3.14567
# Velocity P-wave (km/s) = 5.10717 6.73752 5.97818
#
# Compressibility (1/GPa) = 0.02274615
#
# Stress axis : x y z
#
# Youngs Moduli (GPa) = 15.98432 49.55354 66.75515
#
# Poissons Ratio (x) = 1.21772 1.10460
# Poissons Ratio (y) = 0.39280 -0.24254
# Poissons Ratio (z) = 0.26449 -0.18004
#
# Static dielectric constant tensor:
#      x y z
#    x 2.126040 0.015440 -0.055120 
#    y 0.015440 1.980810 0.073470 
#    z -0.055120 0.073470 2.150140 
# 
# From -- ./inp_files/542618.got.cif
#   From: 2010.05.17/outbox.cif.g08.bks.cpg/sg2_272_cif.got.tgz:542618.got - 2010.06.03 11:33:40.
