data_PCOD9109617
_publ_section_title
;
Structure prediction by ZEFSAII (Michael W. Deem and Ramdas Pophale) SiO2 
 PCOD9109617
Probable space group: P -1
;
_chemical_formula_sum "Si O2"
_cell_formula_units_Z 16
_cell_length_a 15.214639
_cell_length_b 19.104430
_cell_length_c 11.928168
_cell_angle_alpha 29.371944
_cell_angle_beta 140.622708
_cell_angle_gamma 157.137098
_cell_volume 652.466973
_symmetry_space_group_name_H-M "P -1"
_symmetry_group_IT_number 2
_symmetry_cell_setting 'triclinic'
loop_
_space_group_symop_operation_xyz
x,y,z
-x,-y,-z
loop_
_atom_site_type_symbol
_atom_site_label
_atom_site_fract_x
_atom_site_fract_y
_atom_site_fract_z
Si Si1 0.286180 0.093125 0.149036
Si Si2 0.235879 0.876647 0.683255
Si Si3 0.063306 0.346510 0.873004
Si Si4 0.883775 0.613000 0.496813
Si Si5 0.675144 0.148499 0.600650
Si Si6 0.773955 0.218021 0.953103
Si Si7 0.188490 0.138883 0.224412
Si Si8 0.651563 0.641639 0.344176
O O1 0.304322 0.192875 0.144018
O O2 0.009159 0.834493 0.235352
O O3 0.363267 0.993814 0.341070
O O4 0.402357 0.277439 0.908312
O O5 0.461421 0.990073 0.695180
O O6 0.278119 0.079587 0.470261
O O7 0.054169 0.729061 0.608532
O O8 0.147851 0.730585 0.912643
O O9 0.238521 0.622963 0.665985
O O10 0.906656 0.210983 0.019733
O O11 0.196786 0.309097 0.032511
O O12 0.839464 0.421445 0.673868
O O13 0.657776 0.499008 0.481419
O O14 0.879005 0.238828 0.746384
O O15 0.500000 0.000000 0.000000
O O16 0.913611 0.889056 0.292102
O O17 0.500000 0.500000 0.500000
#
# Coordination Sequence:
#
# PCOD9109617 Si02
#       8
#     2   2   2   2   2   2   2   2
#     4  10  20  41  66  92 131 174 230 264 326 395
#     4  10  24  44  65  96 140 172 225 280 339 392
#     4  11  24  40  68  99 133 172 232 268 343 395
#     4  10  23  42  66  96 133 178 222 280 330 395
#     4  11  22  40  70  99 128 177 224 285 315 415
#     4  12  24  43  66  99 134 183 218 280 341 403
#     4  10  23  43  63  94 137 180 216 283 329 405
#     4  10  21  35  64  98 130 171 223 271 327 393
#
# _framework density 24.522314000000001
#
# number of rings (size 3 to 8) (size 9 to 14) (size 15 to 20)
#    0.000    1.750    3.750    1.875    3.500    3.000 
#    0.000    0.000    0.000    0.000    0.000    0.000 
#    0.000    0.000    0.000    0.000    0.000    0.000 
#
# Total GULP energy -89357.352990 kJ/mol
# GULP energy per Si atom -5584.834562 kJ/mol
# Density = 2.446650 g / cm^3
# Si number density = 24.522314 Si / 1000 Ang^3
#
#
#
# Elastic Constant Matrix: (Units=GPa)
#
#
# Indices 1 2 3 4 5 6 
#
# 1 194.5935 24.4459 82.1309 -11.1750 13.0635 30.0713
# 2 24.4459 54.4839 18.2327 -6.8973 8.8368 1.6963
# 3 82.1309 18.2327 130.5347 -6.4772 10.1896 19.6268
# 4 -11.1750 -6.8973 -6.4772 20.6847 7.7939 0.5543
# 5 13.0635 8.8368 10.1896 7.7939 60.1605 5.3884
# 6 30.0713 1.6963 19.6268 0.5543 5.3884 25.2410
#
#
#
# Elastic Compliance Matrix: (Units=1/GPa)
#
#
# Indices 1 2 3 4 5 6 
#
# 1 0.008168 -0.001712 -0.003687 0.003132 -0.000706 -0.006667
# 2 -0.001712 0.021030 -0.001617 0.006853 -0.003554 0.002493
# 3 -0.003687 -0.001617 0.010897 0.001218 -0.000619 -0.003866
# 4 0.003132 0.006853 0.001218 0.056125 -0.008761 -0.004501
# 5 -0.000706 -0.003554 -0.000619 -0.008761 0.018739 -0.002246
# 6 -0.006667 0.002493 -0.003866 -0.004501 -0.002246 0.050978
#
#
# Mechanical properties :
#
#
# Convention : Reuss Voigt Hill
#
# Bulk Modulus (GPa) = 38.37116 69.91456 54.14286
# Shear Modulus (GPa) = 26.50327 38.20410 32.35369
#
# Velocity S-wave (km/s) = 3.29109 3.95135 3.63624
# Velocity P-wave (km/s) = 5.48845 7.02780 6.30528
#
# Compressibility (1/GPa) = 0.02606124
#
# Stress axis : x y z
#
# Youngs Moduli (GPa) = 122.43461 47.55108 91.77243
#
# Poissons Ratio (x) = 0.08142 0.33835
# Poissons Ratio (y) = 0.20964 0.14842
# Poissons Ratio (z) = 0.45140 0.07690
#
# Static dielectric constant tensor:
#      x y z
#    x 1.976150 -0.054460 0.043270 
#    y -0.054460 2.039640 0.006480 
#    z 0.043270 0.006480 1.995320 
# 
# From -- ./inp_files/539282.got.cif
#   From: 2010.05.17/outbox.cif.g08.bks.cpg/sg2_270_cif.got.tgz:539282.got - 2010.06.03 11:33:40.
