data_PCOD9109813
_publ_section_title
;
Structure prediction by ZEFSAII (Michael W. Deem and Ramdas Pophale) SiO2 
 PCOD9109813
Probable space group: P -1
;
_chemical_formula_sum "Si O2"
_cell_formula_units_Z 13
_cell_length_a 9.894436
_cell_length_b 8.160558
_cell_length_c 19.202116
_cell_angle_alpha 134.816725
_cell_angle_beta 147.846640
_cell_angle_gamma 65.846037
_cell_volume 507.981625
_symmetry_space_group_name_H-M "P -1"
_symmetry_group_IT_number 2
_symmetry_cell_setting 'triclinic'
loop_
_space_group_symop_operation_xyz
x,y,z
-x,-y,-z
loop_
_atom_site_type_symbol
_atom_site_label
_atom_site_fract_x
_atom_site_fract_y
_atom_site_fract_z
Si Si1 0.226165 0.705126 0.103939
Si Si2 0.857629 0.957643 0.522307
Si Si3 0.973422 0.043440 0.126372
Si Si4 0.046253 0.554855 0.454511
Si Si5 0.031567 0.483333 0.816006
Si Si6 0.615147 0.695237 0.487698
Si Si7 0.500000 0.000000 0.000000
O O1 0.545822 0.865289 0.323960
O O2 0.066479 0.874758 0.067557
O O3 0.000000 0.500000 0.000000
O O4 0.241766 0.564723 0.998040
O O5 0.012849 0.812859 0.508580
O O6 0.786299 0.853032 0.540535
O O7 0.047368 0.273678 0.708793
O O8 0.937580 0.265379 0.136353
O O9 0.231899 0.156323 0.330222
O O10 0.674431 0.889120 0.993295
O O11 0.000000 0.500000 0.500000
O O12 0.354562 0.570742 0.576617
O O13 0.806650 0.287394 0.231194
O O14 0.705910 0.347695 0.665481
#
# Coordination Sequence:
#
# PCOD9109813 Si02
#       7
#     2   2   2   2   2   2   1
#     4  12  23  39  69  99 134 177 221 268 331 395
#     4  11  22  41  66 102 132 175 222 271 325 399
#     4  11  24  42  68  98 131 180 220 278 330 394
#     4   9  21  39  67  93 124 174 222 260 324 394
#     4  12  24  41  67 103 137 167 225 276 332 386
#     4  10  20  41  67  94 131 177 214 266 329 396
#     4  10  22  44  64  88 130 172 222 260 328 396
#
# _framework density 25.591476
#
# number of rings (size 3 to 8) (size 9 to 14) (size 15 to 20)
#    0.000    1.231    3.077    3.231    2.154    2.462 
#    0.000    3.077    3.385   16.615    0.000    0.000 
#    0.000    0.000    0.000    0.000    0.000    0.000 
#
# Total GULP energy -72553.109354 kJ/mol
# GULP energy per Si atom -5581.008412 kJ/mol
# Density = 2.553323 g / cm^3
# Si number density = 25.591476 Si / 1000 Ang^3
#
#
#
# Elastic Constant Matrix: (Units=GPa)
#
#
# Indices 1 2 3 4 5 6 
#
# 1 66.5901 23.6045 29.8250 3.1939 -15.9386 -11.2135
# 2 23.6045 136.8525 41.2736 12.8372 -7.1325 -23.4458
# 3 29.8250 41.2736 101.2596 3.0600 -42.6261 4.2921
# 4 3.1939 12.8372 3.0600 20.2930 -0.7895 -18.0614
# 5 -15.9386 -7.1325 -42.6261 -0.7895 29.3331 -2.0261
# 6 -11.2135 -23.4458 4.2921 -18.0614 -2.0261 55.2815
#
#
#
# Elastic Compliance Matrix: (Units=1/GPa)
#
#
# Indices 1 2 3 4 5 6 
#
# 1 0.018905 -0.001748 -0.002107 0.002621 0.007158 0.004376
# 2 -0.001748 0.010274 -0.007789 -0.002305 -0.009590 0.003503
# 3 -0.002107 -0.007789 0.032247 -0.002893 0.043358 -0.005590
# 4 0.002621 -0.002305 -0.002893 0.071312 0.000174 0.023084
# 5 0.007158 -0.009590 0.043358 0.000174 0.098500 -0.002315
# 6 0.004376 0.003503 -0.005590 0.023084 -0.002315 0.028354
#
#
# Mechanical properties :
#
#
# Convention : Reuss Voigt Hill
#
# Bulk Modulus (GPa) = 26.22051 54.90093 40.56072
# Shear Modulus (GPa) = 16.91510 34.98145 25.94827
#
# Velocity S-wave (km/s) = 2.57372 3.70120 3.18770
# Velocity P-wave (km/s) = 4.37036 6.30591 5.42515
#
# Compressibility (1/GPa) = 0.03813808
#
# Stress axis : x y z
#
# Youngs Moduli (GPa) = 52.89542 97.33047 31.01043
#
# Poissons Ratio (x) = 0.17018 0.06534
# Poissons Ratio (y) = 0.09249 0.24153
# Poissons Ratio (z) = 0.11145 0.75808
#
# Static dielectric constant tensor:
#      x y z
#    x 2.003580 0.001920 -0.072750 
#    y 0.001920 2.088200 0.086400 
#    z -0.072750 0.086400 2.116350 
# 
# From -- ./inp_files/199998.got.cif
#   From: 2010.05.17/outbox.cif.g08.bks.cpg/sg2_100_cif.got.tgz:199998.got - 2010.06.03 11:33:40.
