data_PCOD9109826
_publ_section_title
;
Structure prediction by ZEFSAII (Michael W. Deem and Ramdas Pophale) SiO2 
 PCOD9109826
Probable space group: P -1
;
_chemical_formula_sum "Si O2"
_cell_formula_units_Z 16
_cell_length_a 16.002425
_cell_length_b 14.998237
_cell_length_c 5.150123
_cell_angle_alpha 62.001552
_cell_angle_beta 61.787793
_cell_angle_gamma 36.792724
_cell_volume 642.620052
_symmetry_space_group_name_H-M "P -1"
_symmetry_group_IT_number 2
_symmetry_cell_setting 'triclinic'
loop_
_space_group_symop_operation_xyz
x,y,z
-x,-y,-z
loop_
_atom_site_type_symbol
_atom_site_label
_atom_site_fract_x
_atom_site_fract_y
_atom_site_fract_z
Si Si1 0.620033 0.643201 0.653631
Si Si2 0.140666 0.641532 0.624902
Si Si3 0.632241 0.289108 0.316970
Si Si4 0.607588 0.504314 0.224167
Si Si5 0.909362 0.977110 0.560378
Si Si6 0.742016 0.939919 0.116717
Si Si7 0.975782 0.590207 0.162726
Si Si8 0.556218 0.061117 0.736639
O O1 0.770399 0.486902 0.545670
O O2 0.480860 0.688339 0.700921
O O3 0.581248 0.779905 0.410376
O O4 0.621489 0.612618 0.991005
O O5 0.258163 0.618048 0.621722
O O6 0.012969 0.814957 0.488129
O O7 0.080588 0.602692 0.955715
O O8 0.637457 0.403558 0.079534
O O9 0.550450 0.372901 0.596707
O O10 0.782783 0.119959 0.372171
O O11 0.840375 0.961964 0.911146
O O12 0.000000 0.000000 0.500000
O O13 0.827654 0.769620 0.152688
O O14 0.671965 0.977390 0.449201
O O15 0.626224 0.051005 0.907805
O O16 0.000000 0.500000 0.500000
O O17 0.000000 0.500000 0.000000
O O18 0.500000 0.000000 0.000000
#
# Coordination Sequence:
#
# PCOD9109826 Si02
#       8
#     2   2   2   2   2   2   2   2
#     4  11  24  41  67  99 141 180 242 306 362 431
#     4  10  25  41  65 103 134 184 243 293 361 445
#     4  10  20  41  67  95 136 181 239 290 370 424
#     4  10  21  40  68  96 135 180 233 305 360 431
#     4  11  21  46  71 101 149 198 240 302 369 450
#     4  11  26  49  72 112 147 186 258 305 367 448
#     4  11  26  46  74 100 145 195 235 302 371 437
#     4  12  27  47  77 106 143 195 247 318 375 434
#
# _framework density 24.898071999999999
#
# number of rings (size 3 to 8) (size 9 to 14) (size 15 to 20)
#    0.000    1.250    2.500    2.250    7.000    0.000 
#    4.500    1.250    0.000    0.000    0.000    0.000 
#    0.000    0.000    0.000    0.000    0.000    0.000 
#
# Total GULP energy -89327.591396 kJ/mol
# GULP energy per Si atom -5582.974462 kJ/mol
# Density = 2.484140 g / cm^3
# Si number density = 24.898072 Si / 1000 Ang^3
#
#
#
# Elastic Constant Matrix: (Units=GPa)
#
#
# Indices 1 2 3 4 5 6 
#
# 1 80.7790 20.5718 23.5853 5.7431 -19.0013 -8.5135
# 2 20.5718 202.5000 49.9435 -21.0828 -6.4085 -3.8168
# 3 23.5853 49.9435 108.1806 -3.3259 -15.1842 -1.2406
# 4 5.7431 -21.0828 -3.3259 39.4171 0.6953 -3.5592
# 5 -19.0013 -6.4085 -15.1842 0.6953 38.0595 -1.3160
# 6 -8.5135 -3.8168 -1.2406 -3.5592 -1.3160 34.1824
#
#
#
# Elastic Compliance Matrix: (Units=1/GPa)
#
#
# Indices 1 2 3 4 5 6 
#
# 1 0.015432 -0.001094 -0.001931 -0.002791 0.006926 0.003627
# 2 -0.001094 0.005996 -0.002504 0.003221 -0.000573 0.000619
# 3 -0.001931 -0.002504 0.011247 -0.000186 0.003096 -0.000253
# 4 -0.002791 0.003221 -0.000186 0.027733 -0.001346 0.002493
# 5 0.006926 -0.000573 0.003096 -0.001346 0.030993 0.002826
# 6 0.003627 0.000619 -0.000253 0.002493 0.002826 0.030587
#
#
# Mechanical properties :
#
#
# Convention : Reuss Voigt Hill
#
# Bulk Modulus (GPa) = 46.26309 64.40675 55.33492
# Shear Modulus (GPa) = 35.65025 42.15572 38.90299
#
# Velocity S-wave (km/s) = 3.78808 4.11923 3.95712
# Velocity P-wave (km/s) = 6.14443 6.96767 6.56896
#
# Compressibility (1/GPa) = 0.02161550
#
# Stress axis : x y z
#
# Youngs Moduli (GPa) = 64.80041 166.78094 88.91513
#
# Poissons Ratio (x) = 0.18254 0.17172
# Poissons Ratio (y) = 0.07092 0.22263
# Poissons Ratio (z) = 0.12515 0.41759
#
# Static dielectric constant tensor:
#      x y z
#    x 2.124920 0.047410 -0.137760 
#    y 0.047410 1.981810 -0.020960 
#    z -0.137760 -0.020960 2.131540 
# 
# From -- ./inp_files/111570.got.cif
#   From: 2010.05.17/outbox.cif.g08.bks.cpg/sg2_56_cif.got.tgz:111570.got - 2010.06.03 11:33:40.
