data_PCOD9109227
_publ_section_title
;
Structure prediction by ZEFSAII (Michael W. Deem and Ramdas Pophale) SiO2 
 PCOD9109227
Probable space group: P -1
;
_chemical_formula_sum "Si O2"
_cell_formula_units_Z 16
_cell_length_a 11.586977
_cell_length_b 17.029191
_cell_length_c 16.090057
_cell_angle_alpha 23.923464
_cell_angle_beta 38.037732
_cell_angle_gamma 40.798700
_cell_volume 784.521601
_symmetry_space_group_name_H-M "P -1"
_symmetry_group_IT_number 2
_symmetry_cell_setting 'triclinic'
loop_
_space_group_symop_operation_xyz
x,y,z
-x,-y,-z
loop_
_atom_site_type_symbol
_atom_site_label
_atom_site_fract_x
_atom_site_fract_y
_atom_site_fract_z
Si Si1 0.176995 0.679133 0.804129
Si Si2 0.784619 0.137773 0.901128
Si Si3 0.940579 0.051135 0.612913
Si Si4 0.797363 0.485979 0.218017
Si Si5 0.908210 0.840065 0.411860
Si Si6 0.283631 0.514384 0.082629
Si Si7 0.137606 0.827736 0.993335
Si Si8 0.570146 0.869866 0.006603
O O1 0.284728 0.575333 0.764378
O O2 0.262535 0.610189 0.910828
O O3 0.118240 0.914261 0.602122
O O4 0.975118 0.600407 0.993639
O O5 0.918619 0.253729 0.655178
O O6 0.592596 0.122920 0.976779
O O7 0.767136 0.215740 0.929377
O O8 0.918537 0.924705 0.037663
O O9 0.889843 0.280854 0.402911
O O10 0.992692 0.037328 0.694477
O O11 0.751275 0.963795 0.783333
O O12 0.645769 0.639863 0.203815
O O13 0.792735 0.692737 0.666295
O O14 0.783563 0.994735 0.272327
O O15 0.500000 0.500000 0.000000
O O16 0.162845 0.649426 0.088823
O O17 0.500000 0.000000 0.000000
#
# Coordination Sequence:
#
# PCOD9109227 Si02
#       8
#     2   2   2   2   2   2   2   2
#     4  10  21  42  60  86 127 163 205 259 305 365
#     4   9  20  43  63  88 125 164 200 256 303 371
#     4  11  20  40  64  89 120 169 202 247 318 368
#     4  10  23  38  61  90 123 165 207 251 311 368
#     4  10  20  41  64  87 117 168 206 242 318 365
#     4  12  25  39  65  92 121 162 211 261 304 370
#     4   9  21  44  62  86 126 163 203 255 311 364
#     4  11  22  38  62  96 126 152 205 261 305 370
#
# _framework density 20.394594999999999
#
# number of rings (size 3 to 8) (size 9 to 14) (size 15 to 20)
#    0.750    1.000    3.750    0.375    3.500    1.500 
#    4.500    0.000    0.000    0.000    0.000    0.000 
#    0.000    0.000    0.000    0.000    0.000    0.000 
#
# Total GULP energy -89083.978235 kJ/mol
# GULP energy per Si atom -5567.748640 kJ/mol
# Density = 2.034818 g / cm^3
# Si number density = 20.394595 Si / 1000 Ang^3
#
#
#
# Elastic Constant Matrix: (Units=GPa)
#
#
# Indices 1 2 3 4 5 6 
#
# 1 123.2071 28.7906 14.6577 -1.4828 4.8485 6.5997
# 2 28.7906 61.7111 17.9950 -21.8115 5.3106 6.6303
# 3 14.6577 17.9950 64.3453 -12.5594 4.0103 -9.4525
# 4 -1.4828 -21.8115 -12.5594 28.5755 -2.8556 -1.7435
# 5 4.8485 5.3106 4.0103 -2.8556 16.9460 6.9738
# 6 6.5997 6.6303 -9.4525 -1.7435 6.9738 22.2111
#
#
#
# Elastic Compliance Matrix: (Units=1/GPa)
#
#
# Indices 1 2 3 4 5 6 
#
# 1 0.009665 -0.005265 -0.001932 -0.004555 -0.000465 -0.002334
# 2 -0.005265 0.026903 -0.003712 0.018203 -0.000294 -0.006525
# 3 -0.001932 -0.003712 0.020668 0.006203 -0.007628 0.013360
# 4 -0.004555 0.018203 0.006203 0.051703 0.002028 0.001982
# 5 -0.000465 -0.000294 -0.007628 0.002028 0.071843 -0.025418
# 6 -0.002334 -0.006525 0.013360 0.001982 -0.025418 0.061486
#
#
# Mechanical properties :
#
#
# Convention : Reuss Voigt Hill
#
# Bulk Modulus (GPa) = 28.23373 41.34999 34.79186
# Shear Modulus (GPa) = 18.12296 26.06787 22.09541
#
# Velocity S-wave (km/s) = 2.98420 3.57904 3.29507
# Velocity P-wave (km/s) = 5.07422 6.11542 5.61899
#
# Compressibility (1/GPa) = 0.03541863
#
# Stress axis : x y z
#
# Youngs Moduli (GPa) = 103.46507 37.17018 48.38343
#
# Poissons Ratio (x) = 0.19570 0.09349
# Poissons Ratio (y) = 0.54474 0.17959
# Poissons Ratio (z) = 0.19993 0.13797
#
# Static dielectric constant tensor:
#      x y z
#    x 1.768180 0.028890 0.045510 
#    y 0.028890 1.791850 -0.016650 
#    z 0.045510 -0.016650 1.762620 
# 
# From -- ./inp_files/570222.got.cif
#   From: 2010.05.17/outbox.cif.g08.bks.cpg/sg2_286_cif.got.tgz:570222.got - 2010.06.03 11:33:40.
