data_PCOD9109943
_publ_section_title
;
Structure prediction by ZEFSAII (Michael W. Deem and Ramdas Pophale) SiO2 
 PCOD9109943
Probable space group: P -1
;
_chemical_formula_sum "Si O2"
_cell_formula_units_Z 14
_cell_length_a 8.156679
_cell_length_b 11.425929
_cell_length_c 13.590762
_cell_angle_alpha 148.093435
_cell_angle_beta 116.915329
_cell_angle_gamma 57.064709
_cell_volume 561.753252
_symmetry_space_group_name_H-M "P -1"
_symmetry_group_IT_number 2
_symmetry_cell_setting 'triclinic'
loop_
_space_group_symop_operation_xyz
x,y,z
-x,-y,-z
loop_
_atom_site_type_symbol
_atom_site_label
_atom_site_fract_x
_atom_site_fract_y
_atom_site_fract_z
Si Si1 0.032332 0.381418 0.817123
Si Si2 0.958694 0.415205 0.227638
Si Si3 0.890103 0.942544 0.666996
Si Si4 0.611627 0.822575 0.617267
Si Si5 0.253118 0.854536 0.434032
Si Si6 0.572915 0.789268 0.795321
Si Si7 0.226319 0.682516 0.704709
O O1 0.100129 0.541707 0.872896
O O2 0.832102 0.346052 0.697804
O O3 0.169478 0.105851 0.648279
O O4 0.000000 0.500000 0.000000
O O5 0.192823 0.289478 0.200297
O O6 0.912502 0.684747 0.443767
O O7 0.847355 0.291127 0.182993
O O8 0.713318 0.003974 0.740112
O O9 0.086749 0.888252 0.745117
O O10 0.823865 0.103665 0.668830
O O11 0.481033 0.786823 0.466406
O O12 0.500928 0.875979 0.727667
O O13 0.782826 0.574457 0.506051
O O14 0.447798 0.635934 0.694263
O O15 0.500000 0.000000 0.000000
#
# Coordination Sequence:
#
# PCOD9109943 Si02
#       7
#     2   2   2   2   2   2   2
#     4  10  23  41  64  94 134 174 218 268 326 392
#     4  10  21  43  63  94 126 166 218 263 321 387
#     4  10  20  41  68  94 124 166 218 270 323 384
#     4  11  21  42  65  93 127 166 221 268 319 388
#     4  10  23  38  66  97 127 174 220 267 328 386
#     4  12  26  37  61  97 135 165 212 268 324 389
#     4  11  22  41  70  90 123 172 215 266 325 382
#
# _framework density 24.921972
#
# number of rings (size 3 to 8) (size 9 to 14) (size 15 to 20)
#    0.000    1.429    2.857    2.571    8.000    0.571 
#    2.571    0.000    0.000    4.286    0.000    0.000 
#    0.000    0.000    0.000    0.000    0.000    0.000 
#
# Total GULP energy -78055.450130 kJ/mol
# GULP energy per Si atom -5575.389295 kJ/mol
# Density = 2.486525 g / cm^3
# Si number density = 24.921972 Si / 1000 Ang^3
#
#
#
# Elastic Constant Matrix: (Units=GPa)
#
#
# Indices 1 2 3 4 5 6 
#
# 1 135.2974 38.1995 24.7034 -16.6217 -27.7781 7.2148
# 2 38.1995 100.4236 35.4344 -31.4141 -13.0262 8.3030
# 3 24.7034 35.4344 95.4725 -19.1442 -19.6000 18.1856
# 4 -16.6217 -31.4141 -19.1442 26.3202 10.6032 -6.4439
# 5 -27.7781 -13.0262 -19.6000 10.6032 32.8773 -15.8681
# 6 7.2148 8.3030 18.1856 -6.4439 -15.8681 45.7562
#
#
#
# Elastic Compliance Matrix: (Units=1/GPa)
#
#
# Indices 1 2 3 4 5 6 
#
# 1 0.009726 -0.002763 -0.000226 -0.000053 0.007862 0.001777
# 2 -0.002763 0.017209 -0.002640 0.018039 -0.002970 -0.000127
# 3 -0.000226 -0.002640 0.013796 0.004344 0.004184 -0.002906
# 4 -0.000053 0.018039 0.004344 0.067540 -0.011901 0.000393
# 5 0.007862 -0.002970 0.004184 -0.011901 0.048360 0.012731
# 6 0.001777 -0.000127 -0.002906 0.000393 0.012731 0.027223
#
#
# Mechanical properties :
#
#
# Convention : Reuss Voigt Hill
#
# Bulk Modulus (GPa) = 33.93112 58.65200 46.29156
# Shear Modulus (GPa) = 24.39785 36.51449 30.45617
#
# Velocity S-wave (km/s) = 3.13224 3.83188 3.49959
# Velocity P-wave (km/s) = 5.16970 6.56986 5.91138
#
# Compressibility (1/GPa) = 0.02947147
#
# Stress axis : x y z
#
# Youngs Moduli (GPa) = 102.82219 58.11000 72.48437
#
# Poissons Ratio (x) = 0.16058 0.01637
# Poissons Ratio (y) = 0.28414 0.19138
# Poissons Ratio (z) = 0.02322 0.15342
#
# Static dielectric constant tensor:
#      x y z
#    x 1.277070 -0.168700 -0.312960 
#    y -0.168700 1.982770 -0.095870 
#    z -0.312960 -0.095870 1.902720 
# 
# From -- ./inp_files/391693.got.cif
#   From: 2010.05.17/outbox.cif.g08.bks.cpg/sg2_196_cif.got.tgz:391693.got - 2010.06.03 11:33:40.
