data_PCOD9109362
_publ_section_title
;
Structure prediction by ZEFSAII (Michael W. Deem and Ramdas Pophale) SiO2 
 PCOD9109362
Probable space group: P -1
;
_chemical_formula_sum "Si O2"
_cell_formula_units_Z 16
_cell_length_a 15.243844
_cell_length_b 14.428279
_cell_length_c 5.518595
_cell_angle_alpha 73.993707
_cell_angle_beta 118.577598
_cell_angle_gamma 138.245952
_cell_volume 702.958578
_symmetry_space_group_name_H-M "P -1"
_symmetry_group_IT_number 2
_symmetry_cell_setting 'triclinic'
loop_
_space_group_symop_operation_xyz
x,y,z
-x,-y,-z
loop_
_atom_site_type_symbol
_atom_site_label
_atom_site_fract_x
_atom_site_fract_y
_atom_site_fract_z
Si Si1 0.639931 0.659842 0.162412
Si Si2 0.233147 0.398018 0.255006
Si Si3 0.438054 0.674957 0.026218
Si Si4 0.036020 0.081107 0.740654
Si Si5 0.778853 0.250569 0.606993
Si Si6 0.968091 0.223256 0.724563
Si Si7 0.842020 0.496363 0.536206
Si Si8 0.387295 0.839785 0.045628
O O1 0.694450 0.637240 0.479823
O O2 0.583956 0.728763 0.084843
O O3 0.790242 0.772401 0.131689
O O4 0.500000 0.500000 0.000000
O O5 0.355409 0.529361 0.152985
O O6 0.177465 0.451179 0.295409
O O7 0.086342 0.262486 0.033296
O O8 0.322577 0.622029 0.703768
O O9 0.451748 0.777459 0.141582
O O10 0.943309 0.116432 0.591490
O O11 0.000000 0.000000 0.500000
O O12 0.000000 0.000000 0.000000
O O13 0.885870 0.416226 0.682930
O O14 0.730695 0.233317 0.275231
O O15 0.841686 0.187059 0.729087
O O16 0.668291 0.181682 0.738788
O O17 0.051855 0.369399 0.593925
O O18 0.500000 0.000000 0.000000
#
# Coordination Sequence:
#
# PCOD9109362 Si02
#       8
#     2   2   2   2   2   2   2   2
#     4  12  23  44  76 107 135 191 248 297 362 431
#     4  11  20  40  69 101 146 171 231 306 360 406
#     4  10  22  39  65 101 138 177 231 301 355 410
#     4  12  29  50  69 104 151 191 235 295 361 430
#     4  11  25  43  71 100 134 181 233 284 364 429
#     4  11  25  43  70  99 141 189 231 282 356 443
#     4  10  20  41  65 104 139 169 223 304 354 407
#     4  11  25  45  65  97 135 182 237 294 344 422
#
# _framework density 22.760940999999999
#
# number of rings (size 3 to 8) (size 9 to 14) (size 15 to 20)
#    0.000    1.000    3.750    2.625    1.750    3.500 
#    0.000    0.000    0.000    0.000    0.000    0.000 
#    0.000    0.000    0.000    0.000    0.000    0.000 
#
# Total GULP energy -89290.552395 kJ/mol
# GULP energy per Si atom -5580.659525 kJ/mol
# Density = 2.270914 g / cm^3
# Si number density = 22.760941 Si / 1000 Ang^3
#
#
#
# Elastic Constant Matrix: (Units=GPa)
#
#
# Indices 1 2 3 4 5 6 
#
# 1 200.8161 28.4259 22.1381 0.7374 0.7084 -28.5482
# 2 28.4259 68.0545 13.0387 -12.1920 4.0773 -14.4322
# 3 22.1381 13.0387 62.2721 -8.0461 -2.6060 0.1238
# 4 0.7374 -12.1920 -8.0461 28.3746 -3.5091 -6.8997
# 5 0.7084 4.0773 -2.6060 -3.5091 31.5341 -4.5020
# 6 -28.5482 -14.4322 0.1238 -6.8997 -4.5020 34.5219
#
#
#
# Elastic Compliance Matrix: (Units=1/GPa)
#
#
# Indices 1 2 3 4 5 6 
#
# 1 0.005999 -0.001232 -0.001870 -0.000057 0.000507 0.004508
# 2 -0.001232 0.019352 -0.002374 0.009828 -0.000291 0.009006
# 3 -0.001870 -0.002374 0.017820 0.003959 0.002042 -0.001545
# 4 -0.000057 0.009828 0.003959 0.044676 0.005993 0.013758
# 5 0.000507 -0.000291 0.002042 0.005993 0.033408 0.005845
# 6 0.004508 0.009006 -0.001545 0.013758 0.005845 0.039977
#
#
# Mechanical properties :
#
#
# Convention : Reuss Voigt Hill
#
# Bulk Modulus (GPa) = 31.03766 50.92757 40.98261
# Shear Modulus (GPa) = 27.33355 36.72212 32.02784
#
# Velocity S-wave (km/s) = 3.46916 4.02105 3.75526
# Velocity P-wave (km/s) = 5.45094 6.63190 6.07020
#
# Compressibility (1/GPa) = 0.03221893
#
# Stress axis : x y z
#
# Youngs Moduli (GPa) = 166.68098 51.67523 56.11552
#
# Poissons Ratio (x) = 0.06368 0.10493
# Poissons Ratio (y) = 0.20541 0.13322
# Poissons Ratio (z) = 0.31168 0.12268
#
# Static dielectric constant tensor:
#      x y z
#    x 1.860030 -0.043940 -0.020760 
#    y -0.043940 1.876780 0.040550 
#    z -0.020760 0.040550 1.928300 
# 
# From -- ./inp_files/97817.got.cif
#   From: 2010.05.17/outbox.cif.g08.bks.cpg/sg2_49_cif.got.tgz:97817.got - 2010.06.03 11:33:40.
