data_PCOD9109163
_publ_section_title
;
Structure prediction by ZEFSAII (Michael W. Deem and Ramdas Pophale) SiO2 
 PCOD9109163
Probable space group: P -1
;
_chemical_formula_sum "Si O2"
_cell_formula_units_Z 16
_cell_length_a 10.720808
_cell_length_b 11.775308
_cell_length_c 11.672720
_cell_angle_alpha 42.212873
_cell_angle_beta 124.628065
_cell_angle_gamma 114.895824
_cell_volume 814.691273
_symmetry_space_group_name_H-M "P -1"
_symmetry_group_IT_number 2
_symmetry_cell_setting 'triclinic'
loop_
_space_group_symop_operation_xyz
x,y,z
-x,-y,-z
loop_
_atom_site_type_symbol
_atom_site_label
_atom_site_fract_x
_atom_site_fract_y
_atom_site_fract_z
Si Si1 0.680205 0.524787 0.568278
Si Si2 0.105356 0.879297 0.322177
Si Si3 0.105971 0.175992 0.528764
Si Si4 0.870120 0.207528 0.190905
Si Si5 0.682971 0.514180 0.844153
Si Si6 0.086431 0.264703 0.054682
Si Si7 0.916664 0.633562 0.272182
Si Si8 0.328207 0.586945 0.601165
O O1 0.500000 0.500000 0.500000
O O2 0.756575 0.706356 0.447825
O O3 0.724871 0.500646 0.741666
O O4 0.718379 0.417168 0.555225
O O5 0.251368 0.757027 0.482559
O O6 0.017705 0.846737 0.419430
O O7 0.983664 0.811749 0.215804
O O8 0.139133 0.077460 0.183586
O O9 0.009230 0.247391 0.319036
O O10 0.165031 0.990087 0.665534
O O11 0.940041 0.235097 0.080215
O O12 0.729599 0.328795 0.051980
O O13 0.787938 0.644405 0.870195
O O14 0.508473 0.569794 0.719619
O O15 0.056374 0.375253 0.842796
O O16 0.745245 0.576948 0.252093
O O17 0.000000 0.500000 0.500000
#
# Coordination Sequence:
#
# PCOD9109163 Si02
#       8
#     2   2   2   2   2   2   2   2
#     4  10  21  40  63  89 123 158 201 245 306 365
#     4  10  22  39  65  88 123 160 204 252 299 363
#     4  10  20  41  63  93 119 158 204 249 310 355
#     4  10  23  37  64  92 123 153 202 263 300 355
#     4  11  24  39  62  91 122 159 205 252 306 361
#     4  11  23  39  62  95 119 156 209 257 301 350
#     4  10  22  38  62  86 119 161 201 251 300 359
#     4  10  23  41  59  89 122 166 199 242 313 362
#
# _framework density 19.639343
#
# number of rings (size 3 to 8) (size 9 to 14) (size 15 to 20)
#    0.000    1.750    2.500    0.750    7.000    1.000 
#    0.000    5.000    0.000    0.000    0.000    0.000 
#    0.000    0.000    0.000    0.000    0.000    0.000 
#
# Total GULP energy -89150.098522 kJ/mol
# GULP energy per Si atom -5571.881158 kJ/mol
# Density = 1.959464 g / cm^3
# Si number density = 19.639343 Si / 1000 Ang^3
#
#
#
# Elastic Constant Matrix: (Units=GPa)
#
#
# Indices 1 2 3 4 5 6 
#
# 1 68.8108 17.0698 41.5875 -7.1028 9.7605 -3.1025
# 2 17.0698 104.7216 48.3320 -2.0793 20.4665 -8.4227
# 3 41.5875 48.3320 90.8218 2.8799 6.8565 -2.2971
# 4 -7.1028 -2.0793 2.8799 27.1628 -18.2484 -1.7271
# 5 9.7605 20.4665 6.8565 -18.2484 38.6981 4.1339
# 6 -3.1025 -8.4227 -2.2971 -1.7271 4.1339 22.5039
#
#
#
# Elastic Compliance Matrix: (Units=1/GPa)
#
#
# Indices 1 2 3 4 5 6 
#
# 1 0.021796 0.002552 -0.011221 0.005547 -0.002641 0.003726
# 2 0.002552 0.015312 -0.008326 -0.003242 -0.009515 0.006732
# 3 -0.011221 -0.008326 0.020525 -0.004837 0.001663 -0.003245
# 4 0.005547 -0.003242 -0.004837 0.057571 0.028509 -0.001761
# 5 -0.002641 -0.009515 0.001663 0.028509 0.045754 -0.009972
# 6 0.003726 0.006732 -0.003245 -0.001761 -0.009972 0.048836
#
#
# Mechanical properties :
#
#
# Convention : Reuss Voigt Hill
#
# Bulk Modulus (GPa) = 42.29351 53.14808 47.72080
# Shear Modulus (GPa) = 19.86767 28.16396 24.01582
#
# Velocity S-wave (km/s) = 3.18406 3.79100 3.50071
# Velocity P-wave (km/s) = 5.92448 6.80317 6.37897
#
# Compressibility (1/GPa) = 0.02364429
#
# Stress axis : x y z
#
# Youngs Moduli (GPa) = 45.87923 65.30651 48.72076
#
# Poissons Ratio (x) = -0.16666 0.54669
# Poissons Ratio (y) = -0.11708 0.40564
# Poissons Ratio (z) = 0.51480 0.54373
#
# Static dielectric constant tensor:
#      x y z
#    x 1.724150 -0.015070 -0.022860 
#    y -0.015070 1.708660 0.001310 
#    z -0.022860 0.001310 1.732610 
# 
# From -- ./inp_files/425146.got.cif
#   From: 2010.05.17/outbox.cif.g08.bks.cpg/sg2_213_cif.got.tgz:425146.got - 2010.06.03 11:33:40.
