data_PCOD9109763
_publ_section_title
;
Structure prediction by ZEFSAII (Michael W. Deem and Ramdas Pophale) SiO2 
 PCOD9109763
Probable space group: P -1
;
_chemical_formula_sum "Si O2"
_cell_formula_units_Z 14
_cell_length_a 16.327956
_cell_length_b 11.630817
_cell_length_c 8.084908
_cell_angle_alpha 142.419228
_cell_angle_beta 124.769031
_cell_angle_gamma 48.690703
_cell_volume 699.651309
_symmetry_space_group_name_H-M "P -1"
_symmetry_group_IT_number 2
_symmetry_cell_setting 'triclinic'
loop_
_space_group_symop_operation_xyz
x,y,z
-x,-y,-z
loop_
_atom_site_type_symbol
_atom_site_label
_atom_site_fract_x
_atom_site_fract_y
_atom_site_fract_z
Si Si1 0.217009 0.996721 0.886788
Si Si2 0.319570 0.213869 0.493174
Si Si3 0.093048 0.292392 0.793764
Si Si4 0.000091 0.015936 0.818646
Si Si5 0.527317 0.040552 0.327930
Si Si6 0.434411 0.745121 0.693957
Si Si7 0.105644 0.508675 0.729785
O O1 0.117682 0.958747 0.805896
O O2 0.313995 0.804303 0.695664
O O3 0.175452 0.175441 0.902354
O O4 0.266908 0.077991 0.185189
O O5 0.418780 0.207176 0.484086
O O6 0.215583 0.428245 0.654829
O O7 0.380837 0.091290 0.586404
O O8 0.134986 0.362148 0.756902
O O9 0.047539 0.130395 0.489157
O O10 0.000000 0.500000 0.000000
O O11 0.000000 0.000000 0.000000
O O12 0.930443 0.258929 0.984416
O O13 0.570201 0.161350 0.386970
O O14 0.489773 0.874471 0.007652
O O15 0.500000 0.500000 0.500000
O O16 0.000000 0.500000 0.500000
#
# Coordination Sequence:
#
# PCOD9109763 Si02
#       7
#     2   2   2   2   2   2   2
#     4  11  23  41  63  93 130 169 214 269 318 384
#     4  10  20  41  67  90 129 171 210 264 324 379
#     4  12  24  42  65  91 134 172 213 264 318 385
#     4  12  25  41  62  95 131 168 220 259 317 396
#     4   9  21  42  66  92 123 167 213 266 320 377
#     4  10  22  42  64  93 125 159 219 269 321 375
#     4  12  22  41  64  95 131 170 210 262 326 384
#
# _framework density 20.009968000000001
#
# number of rings (size 3 to 8) (size 9 to 14) (size 15 to 20)
#    0.000    1.143    4.286    1.286    0.000    2.286 
#    5.143    6.429    0.000    0.000    0.000    0.000 
#    0.000    0.000    0.000    0.000    0.000    0.000 
#
# Total GULP energy -78196.740702 kJ/mol
# GULP energy per Si atom -5585.481479 kJ/mol
# Density = 1.996442 g / cm^3
# Si number density = 20.009968 Si / 1000 Ang^3
#
#
#
# Elastic Constant Matrix: (Units=GPa)
#
#
# Indices 1 2 3 4 5 6 
#
# 1 127.2782 34.8016 41.7253 21.2849 -20.7243 -9.8998
# 2 34.8016 76.0166 25.9245 1.3184 -9.4714 -3.8139
# 3 41.7253 25.9245 91.4991 21.5772 -12.0435 -10.5903
# 4 21.2849 1.3184 21.5772 37.4046 -2.5882 -15.1606
# 5 -20.7243 -9.4714 -12.0435 -2.5882 27.6163 11.3234
# 6 -9.8998 -3.8139 -10.5903 -15.1606 11.3234 40.2889
#
#
#
# Elastic Compliance Matrix: (Units=1/GPa)
#
#
# Indices 1 2 3 4 5 6 
#
# 1 0.011430 -0.003640 -0.002256 -0.005445 0.006677 -0.002055
# 2 -0.003640 0.016183 -0.003605 0.004009 0.001278 0.000839
# 3 -0.002256 -0.003605 0.015050 -0.007284 0.003188 -0.000576
# 4 -0.005445 0.004009 -0.007284 0.039041 -0.007996 0.014065
# 5 0.006677 0.001278 0.003188 -0.007996 0.048000 -0.013900
# 6 -0.002055 0.000839 -0.000576 0.014065 -0.013900 0.033443
#
#
# Mechanical properties :
#
#
# Convention : Reuss Voigt Hill
#
# Bulk Modulus (GPa) = 42.26505 55.52187 48.89346
# Shear Modulus (GPa) = 26.31093 33.88479 30.09786
#
# Velocity S-wave (km/s) = 3.63008 4.11955 3.88254
# Velocity P-wave (km/s) = 6.22397 7.10176 6.67730
#
# Compressibility (1/GPa) = 0.02366021
#
# Stress axis : x y z
#
# Youngs Moduli (GPa) = 87.49207 61.79392 66.44642
#
# Poissons Ratio (x) = 0.22494 0.14988
# Poissons Ratio (y) = 0.31848 0.23956
# Poissons Ratio (z) = 0.19735 0.22278
#
# Static dielectric constant tensor:
#      x y z
#    x 1.728100 -0.009650 -0.027540 
#    y -0.009650 1.695330 -0.012510 
#    z -0.027540 -0.012510 1.683980 
# 
# From -- ./inp_files/315549.got.cif
#   From: 2010.05.17/outbox.cif.g08.bks.cpg/sg2_158_cif.got.tgz:315549.got - 2010.06.03 11:33:40.
