data_PCOD9109014
_publ_section_title
;
Structure prediction by ZEFSAII (Michael W. Deem and Ramdas Pophale) SiO2 
 PCOD9109014
Probable space group: P -1
;
_chemical_formula_sum "Si O2"
_cell_formula_units_Z 15
_cell_length_a 18.655559
_cell_length_b 9.887788
_cell_length_c 13.215076
_cell_angle_alpha 85.735397
_cell_angle_beta 161.055187
_cell_angle_gamma 86.419581
_cell_volume 719.789003
_symmetry_space_group_name_H-M "P -1"
_symmetry_group_IT_number 2
_symmetry_cell_setting 'triclinic'
loop_
_space_group_symop_operation_xyz
x,y,z
-x,-y,-z
loop_
_atom_site_type_symbol
_atom_site_label
_atom_site_fract_x
_atom_site_fract_y
_atom_site_fract_z
Si Si1 0.000000 0.000000 0.000000
Si Si2 0.223285 0.960226 0.879611
Si Si3 0.995100 0.115502 0.777195
Si Si4 0.357398 0.672273 0.448174
Si Si5 0.012829 0.323600 0.192058
Si Si6 0.376328 0.356431 0.513829
Si Si7 0.607829 0.004787 0.251614
Si Si8 0.826559 0.633477 0.985162
O O1 0.887194 0.987657 0.962191
O O2 0.157336 0.818555 0.222538
O O3 0.122745 0.038308 0.847474
O O4 0.000000 0.000000 0.500000
O O5 0.379439 0.784789 0.120807
O O6 0.419868 0.012178 0.087849
O O7 0.722646 0.123654 0.408885
O O8 0.019939 0.269831 0.808799
O O9 0.394588 0.512293 0.551534
O O10 0.607484 0.686921 0.768656
O O11 0.247792 0.661475 0.192254
O O12 0.159591 0.350035 0.292438
O O13 0.165827 0.154708 0.433173
O O14 0.977206 0.457024 0.212324
O O15 0.291984 0.348343 0.286581
O O16 0.500000 0.000000 0.000000
#
# Coordination Sequence:
#
# PCOD9109014 Si02
#       8
#     1   2   2   2   2   2   2   2
#     4  12  24  40  64  98 142 164 210 282 344 380
#     4  11  25  45  71  98 130 178 235 268 317 405
#     4  12  26  42  64 103 137 167 222 281 333 391
#     4  11  22  36  63  96 133 175 217 268 340 402
#     4  10  20  41  61  92 129 178 220 265 332 404
#     4  10  21  39  66  93 128 179 219 267 337 398
#     4  11  24  44  72  92 129 184 227 271 325 401
#     4  11  24  37  63  99 137 165 216 286 337 391
#
# _framework density 20.83944
#
# number of rings (size 3 to 8) (size 9 to 14) (size 15 to 20)
#    0.000    1.067    2.667    5.600    5.600    1.067 
#    0.000    0.667    2.933    1.600    0.000    0.000 
#    0.000    0.000    0.000    0.000    0.000    0.000 
#
# Total GULP energy -83529.979427 kJ/mol
# GULP energy per Si atom -5568.665295 kJ/mol
# Density = 2.079201 g / cm^3
# Si number density = 20.839440 Si / 1000 Ang^3
#
#
#
# Elastic Constant Matrix: (Units=GPa)
#
#
# Indices 1 2 3 4 5 6 
#
# 1 93.5926 38.9378 15.4663 -0.5061 12.1325 -5.2115
# 2 38.9378 147.4627 40.5107 15.6427 24.5446 -0.5195
# 3 15.4663 40.5107 68.2264 5.7731 18.0124 -2.2331
# 4 -0.5061 15.6427 5.7731 23.9911 -2.9716 14.2328
# 5 12.1325 24.5446 18.0124 -2.9716 24.0232 0.2163
# 6 -5.2115 -0.5195 -2.2331 14.2328 0.2163 24.8881
#
#
#
# Elastic Compliance Matrix: (Units=1/GPa)
#
#
# Indices 1 2 3 4 5 6 
#
# 1 0.012405 -0.002655 -0.000297 0.000216 -0.003325 0.002421
# 2 -0.002655 0.010930 -0.002155 -0.011510 -0.009690 0.006145
# 3 -0.000297 -0.002155 0.020972 -0.009980 -0.014676 0.007610
# 4 0.000216 -0.011510 -0.009980 0.084939 0.030090 -0.049926
# 5 -0.003325 -0.009690 -0.014676 0.030090 0.068112 -0.020015
# 6 0.002421 0.006145 0.007610 -0.049926 -0.020015 0.070223
#
#
# Mechanical properties :
#
#
# Convention : Reuss Voigt Hill
#
# Bulk Modulus (GPa) = 29.33104 55.45683 42.39393
# Shear Modulus (GPa) = 17.29151 28.87159 23.08155
#
# Velocity S-wave (km/s) = 2.88366 3.72617 3.33166
# Velocity P-wave (km/s) = 5.01923 6.72174 5.93188
#
# Compressibility (1/GPa) = 0.03409358
#
# Stress axis : x y z
#
# Youngs Moduli (GPa) = 80.61116 91.49300 47.68254
#
# Poissons Ratio (x) = 0.24292 0.01416
# Poissons Ratio (y) = 0.21403 0.10274
# Poissons Ratio (z) = 0.02394 0.19714
#
# Static dielectric constant tensor:
#      x y z
#    x 1.356560 0.096080 -0.149440 
#    y 0.096080 1.737010 0.039320 
#    z -0.149440 0.039320 1.745130 
# 
# From -- ./inp_files/540047.got.cif
#   From: 2010.05.17/outbox.cif.g08.bks.cpg/sg2_271_cif.got.tgz:540047.got - 2010.06.03 11:33:40.
