data_PCOD9109398
_publ_section_title
;
Structure prediction by ZEFSAII (Michael W. Deem and Ramdas Pophale) SiO2 
 PCOD9109398
Probable space group: P -1
;
_chemical_formula_sum "Si O2"
_cell_formula_units_Z 16
_cell_length_a 6.583556
_cell_length_b 13.014517
_cell_length_c 16.560334
_cell_angle_alpha 125.907519
_cell_angle_beta 63.500383
_cell_angle_gamma 138.082636
_cell_volume 767.656504
_symmetry_space_group_name_H-M "P -1"
_symmetry_group_IT_number 2
_symmetry_cell_setting 'triclinic'
loop_
_space_group_symop_operation_xyz
x,y,z
-x,-y,-z
loop_
_atom_site_type_symbol
_atom_site_label
_atom_site_fract_x
_atom_site_fract_y
_atom_site_fract_z
Si Si1 0.072712 0.673759 0.055160
Si Si2 0.138325 0.870501 0.987817
Si Si3 0.730875 0.951007 0.579510
Si Si4 0.785175 0.765779 0.263781
Si Si5 0.841563 0.627978 0.528425
Si Si6 0.285184 0.989974 0.667171
Si Si7 0.313057 0.603952 0.415144
Si Si8 0.769668 0.993628 0.131964
O O1 0.426714 0.828387 0.088889
O O2 0.856538 0.674461 0.152956
O O3 0.019699 0.711900 0.992096
O O4 0.000000 0.500000 0.000000
O O5 0.103951 0.863955 0.893795
O O6 0.979753 0.944794 0.076029
O O7 0.500000 0.000000 0.000000
O O8 0.569017 0.012969 0.598391
O O9 0.483619 0.748335 0.522404
O O10 0.000000 0.000000 0.500000
O O11 0.888841 0.061387 0.682328
O O12 0.557055 0.658103 0.329069
O O13 0.658260 0.841320 0.275588
O O14 0.500000 0.500000 0.500000
O O15 0.828346 0.568164 0.594394
O O16 0.999567 0.823862 0.593862
O O17 0.055597 0.607281 0.433482
O O18 0.241829 0.951515 0.752271
#
# Coordination Sequence:
#
# PCOD9109398 Si02
#       8
#     2   2   2   2   2   2   2   2
#     4  11  23  41  64  92 127 160 202 267 325 365
#     4   9  20  41  65  87 120 161 208 258 310 372
#     4   9  19  35  61  87 122 160 199 250 302 360
#     4  11  21  38  61  92 123 155 213 254 305 377
#     4  10  21  40  59  84 128 161 197 245 305 357
#     4  11  21  36  65  93 118 166 210 248 297 375
#     4   9  21  38  57  88 123 158 198 249 303 362
#     4  10  20  41  65  89 120 163 212 251 307 378
#
# _framework density 20.842656999999999
#
# number of rings (size 3 to 8) (size 9 to 14) (size 15 to 20)
#    0.000    2.000    2.500    0.750    0.000    7.000 
#    6.750    0.000    0.000    0.000    0.000    0.000 
#    0.000    0.000    0.000    0.000    0.000    0.000 
#
# Total GULP energy -89208.468911 kJ/mol
# GULP energy per Si atom -5575.529307 kJ/mol
# Density = 2.079522 g / cm^3
# Si number density = 20.842657 Si / 1000 Ang^3
#
#
#
# Elastic Constant Matrix: (Units=GPa)
#
#
# Indices 1 2 3 4 5 6 
#
# 1 109.1483 36.8318 36.8588 -3.7998 -24.3627 -0.0349
# 2 36.8318 90.2428 45.9380 -9.5215 -17.8094 -18.6389
# 3 36.8588 45.9380 78.4968 -8.4066 -21.9210 -12.0339
# 4 -3.7998 -9.5215 -8.4066 27.5118 -0.8594 -4.5737
# 5 -24.3627 -17.8094 -21.9210 -0.8594 36.0562 -0.1813
# 6 -0.0349 -18.6389 -12.0339 -4.5737 -0.1813 43.4491
#
#
#
# Elastic Compliance Matrix: (Units=1/GPa)
#
#
# Indices 1 2 3 4 5 6 
#
# 1 0.012278 -0.002990 -0.003003 -0.000455 0.004972 -0.002131
# 2 -0.002990 0.018272 -0.006954 0.004948 0.002928 0.006443
# 3 -0.003003 -0.006954 0.021367 0.004518 0.007652 0.003440
# 4 -0.000455 0.004948 0.004518 0.040842 0.005896 0.007698
# 5 0.004972 0.002928 0.007652 0.005896 0.037354 0.004156
# 6 -0.002131 0.006443 0.003440 0.007698 0.004156 0.027558
#
#
# Mechanical properties :
#
#
# Convention : Reuss Voigt Hill
#
# Bulk Modulus (GPa) = 38.42554 57.46056 47.94305
# Shear Modulus (GPa) = 26.00934 31.95404 28.98169
#
# Velocity S-wave (km/s) = 3.53638 3.91974 3.73298
# Velocity P-wave (km/s) = 5.92880 6.93645 6.45233
#
# Compressibility (1/GPa) = 0.02602436
#
# Stress axis : x y z
#
# Youngs Moduli (GPa) = 81.44660 54.72849 46.80107
#
# Poissons Ratio (x) = 0.16362 0.14052
# Poissons Ratio (y) = 0.24350 0.32546
# Poissons Ratio (z) = 0.24455 0.38059
#
# Static dielectric constant tensor:
#      x y z
#    x 1.812590 -0.007870 0.022730 
#    y -0.007870 1.766290 -0.009700 
#    z 0.022730 -0.009700 1.744070 
# 
# From -- ./inp_files/525796.got.cif
#   From: 2010.05.17/outbox.cif.g08.bks.cpg/sg2_263_cif.got.tgz:525796.got - 2010.06.03 11:33:40.
