data_PCOD9109888
_publ_section_title
;
Structure prediction by ZEFSAII (Michael W. Deem and Ramdas Pophale) SiO2 
 PCOD9109888
Probable space group: P -1
;
_chemical_formula_sum "Si O2"
_cell_formula_units_Z 15
_cell_length_a 9.811144
_cell_length_b 4.898241
_cell_length_c 17.926208
_cell_angle_alpha 74.950538
_cell_angle_beta 131.417467
_cell_angle_gamma 98.419893
_cell_volume 623.496572
_symmetry_space_group_name_H-M "P -1"
_symmetry_group_IT_number 2
_symmetry_cell_setting 'triclinic'
loop_
_space_group_symop_operation_xyz
x,y,z
-x,-y,-z
loop_
_atom_site_type_symbol
_atom_site_label
_atom_site_fract_x
_atom_site_fract_y
_atom_site_fract_z
Si Si1 0.238877 0.270014 0.775058
Si Si2 0.362624 0.579680 0.651685
Si Si3 0.728145 0.507893 0.863255
Si Si4 0.015334 0.898430 0.868325
Si Si5 0.998213 0.758622 0.711073
Si Si6 0.590956 0.366701 0.970273
Si Si7 0.000000 0.000000 0.000000
Si Si8 0.823871 0.858670 0.485120
O O1 0.274906 0.476283 0.704527
O O2 0.098006 0.448509 0.764462
O O3 0.429994 0.191055 0.888130
O O4 0.148290 0.991175 0.733505
O O5 0.577002 0.510216 0.744456
O O6 0.244660 0.421565 0.558958
O O7 0.335174 0.908983 0.603535
O O8 0.633062 0.581811 0.902437
O O9 0.813294 0.196685 0.927791
O O10 0.891124 0.725865 0.896353
O O11 0.920973 0.853828 0.757577
O O12 0.217789 0.786205 0.931475
O O13 0.030395 0.156391 0.912932
O O14 0.862625 0.792657 0.590156
O O15 0.500000 0.500000 0.000000
O O16 0.000000 0.000000 0.500000
#
# Coordination Sequence:
#
# PCOD9109888 Si02
#       8
#     2   2   2   2   2   2   1   2
#     4  11  22  40  63 107 136 176 226 289 349 412
#     4  11  23  43  72 101 139 185 231 293 350 426
#     4  10  25  44  69 100 138 190 232 282 351 426
#     4  11  25  45  65 100 141 193 227 288 345 431
#     4  12  25  40  69 100 141 178 231 288 347 413
#     4  10  20  41  68 103 138 174 232 290 353 410
#     4  10  22  44  70  90 132 188 236 268 342 416
#     4  12  22  42  70 104 142 180 232 294 365 406
#
# _framework density 24.057869
#
# number of rings (size 3 to 8) (size 9 to 14) (size 15 to 20)
#    0.000    1.067    4.000    2.800    3.733    1.600 
#   14.400    1.333    0.000    0.000    0.000    0.000 
#    0.000    0.000    0.000    0.000    0.000    0.000 
#
# Total GULP energy -83625.719177 kJ/mol
# GULP energy per Si atom -5575.047945 kJ/mol
# Density = 2.400311 g / cm^3
# Si number density = 24.057869 Si / 1000 Ang^3
#
#
#
# Elastic Constant Matrix: (Units=GPa)
#
#
# Indices 1 2 3 4 5 6 
#
# 1 118.3213 3.6680 41.2365 5.3592 -23.5784 -3.4362
# 2 3.6680 48.5141 -21.8432 4.8142 9.3972 -0.7335
# 3 41.2365 -21.8432 121.6849 7.0207 -18.2998 -5.1889
# 4 5.3592 4.8142 7.0207 33.3006 -6.0028 0.2613
# 5 -23.5784 9.3972 -18.2998 -6.0028 46.8405 7.0321
# 6 -3.4362 -0.7335 -5.1889 0.2613 7.0321 35.6309
#
#
#
# Elastic Compliance Matrix: (Units=1/GPa)
#
#
# Indices 1 2 3 4 5 6 
#
# 1 0.010726 -0.003394 -0.003564 0.000388 0.004813 -0.000507
# 2 -0.003394 0.024824 0.005143 -0.005162 -0.005654 0.002086
# 3 -0.003564 0.005143 0.010661 -0.002269 0.000874 0.001159
# 4 0.000388 -0.005162 -0.002269 0.032049 0.004686 -0.001559
# 5 0.004813 -0.005654 0.000874 0.004686 0.026570 -0.004803
# 6 -0.000507 0.002086 0.001159 -0.001559 -0.004803 0.029188
#
#
# Mechanical properties :
#
#
# Convention : Reuss Voigt Hill
#
# Bulk Modulus (GPa) = 23.48576 37.18257 30.33416
# Shear Modulus (GPa) = 32.92927 40.85165 36.89046
#
# Velocity S-wave (km/s) = 3.70368 4.12522 3.92012
# Velocity P-wave (km/s) = 5.29840 6.17891 5.75552
#
# Compressibility (1/GPa) = 0.04257900
#
# Stress axis : x y z
#
# Youngs Moduli (GPa) = 93.23268 40.28399 93.80220
#
# Poissons Ratio (x) = 0.13673 0.33433
# Poissons Ratio (y) = 0.31645 -0.48240
# Poissons Ratio (z) = 0.33230 -0.20717
#
# Static dielectric constant tensor:
#      x y z
#    x 1.992160 0.113870 -0.023650 
#    y 0.113870 1.741340 -0.124330 
#    z -0.023650 -0.124330 1.974060 
# 
# From -- ./inp_files/553478.got.cif
#   From: 2010.05.17/outbox.cif.g08.bks.cpg/sg2_277_cif.got.tgz:553478.got - 2010.06.03 11:33:40.
