data_PCOD9109006
_publ_section_title
;
Structure prediction by ZEFSAII (Michael W. Deem and Ramdas Pophale) SiO2 
 PCOD9109006
Probable space group: P -1
;
_chemical_formula_sum "Si O2"
_cell_formula_units_Z 16
_cell_length_a 9.002777
_cell_length_b 13.601597
_cell_length_c 9.334715
_cell_angle_alpha 105.279884
_cell_angle_beta 46.275082
_cell_angle_gamma 85.281418
_cell_volume 737.302972
_symmetry_space_group_name_H-M "P -1"
_symmetry_group_IT_number 2
_symmetry_cell_setting 'triclinic'
loop_
_space_group_symop_operation_xyz
x,y,z
-x,-y,-z
loop_
_atom_site_type_symbol
_atom_site_label
_atom_site_fract_x
_atom_site_fract_y
_atom_site_fract_z
Si Si1 0.454419 0.121223 0.647927
Si Si2 0.284688 0.655364 0.982973
Si Si3 0.185053 0.016940 0.478184
Si Si4 0.040919 0.235499 0.503546
Si Si5 0.237804 0.564829 0.700142
Si Si6 0.014952 0.861418 0.071459
Si Si7 0.806080 0.213847 0.359824
Si Si8 0.201669 0.423302 0.431639
O O1 0.191291 0.178185 0.831336
O O2 0.574174 0.198932 0.536411
O O3 0.500000 0.000000 0.500000
O O4 0.576811 0.081421 0.704409
O O5 0.183919 0.592225 0.913537
O O6 0.550285 0.592221 0.790782
O O7 0.159752 0.689162 0.229836
O O8 0.220498 0.770628 0.982431
O O9 0.079386 0.039442 0.716082
O O10 0.189198 0.129864 0.457176
O O11 0.000000 0.000000 0.500000
O O12 0.936798 0.204544 0.418254
O O13 0.186931 0.305086 0.395932
O O14 0.500000 0.500000 0.500000
O O15 0.202315 0.673113 0.667514
O O16 0.151661 0.483098 0.642302
O O17 0.081296 0.875832 0.872967
O O18 0.000000 0.500000 0.500000
#
# Coordination Sequence:
#
# PCOD9109006 Si02
#       8
#     2   2   2   2   2   2   2   2
#     4  10  22  39  65  89 122 162 213 252 303 373
#     4   9  22  41  62  91 128 160 202 262 306 361
#     4  10  20  41  61  91 127 157 203 263 305 362
#     4  11  23  40  65  90 127 168 198 258 320 354
#     4   9  20  40  61  89 124 158 201 257 297 363
#     4   9  22  40  64  90 122 167 206 250 312 365
#     4  11  21  41  63  90 126 165 204 257 310 361
#     4  11  22  41  65  94 124 157 213 251 306 377
#
# _framework density 21.700713
#
# number of rings (size 3 to 8) (size 9 to 14) (size 15 to 20)
#    0.000    2.000    2.500    0.000    0.000   13.000 
#    0.000    1.875    0.000    0.000    0.000    0.000 
#    0.000    0.000    0.000    0.000    0.000    0.000 
#
# Total GULP energy -89111.051673 kJ/mol
# GULP energy per Si atom -5569.440730 kJ/mol
# Density = 2.165132 g / cm^3
# Si number density = 21.700713 Si / 1000 Ang^3
#
#
#
# Elastic Constant Matrix: (Units=GPa)
#
#
# Indices 1 2 3 4 5 6 
#
# 1 131.5592 12.1368 41.0451 -1.5396 4.7789 -11.2447
# 2 12.1368 42.2157 -6.6751 -0.1338 -3.8933 0.0603
# 3 41.0451 -6.6751 64.3209 0.0934 11.9581 -15.6971
# 4 -1.5396 -0.1338 0.0934 24.8112 -1.3244 -1.1591
# 5 4.7789 -3.8933 11.9581 -1.3244 38.5767 -2.1898
# 6 -11.2447 0.0603 -15.6971 -1.1591 -2.1898 28.8562
#
#
#
# Elastic Compliance Matrix: (Units=1/GPa)
#
#
# Indices 1 2 3 4 5 6 
#
# 1 0.010134 -0.003956 -0.006911 0.000674 0.000526 0.000265
# 2 -0.003956 0.025796 0.005251 0.000021 0.001545 0.001379
# 3 -0.006911 0.005251 0.023935 -0.000321 -0.005483 0.009887
# 4 0.000674 0.000021 -0.000321 0.040514 0.001513 0.001830
# 5 0.000526 0.001545 -0.005483 0.001513 0.027730 -0.000616
# 6 0.000265 0.001379 0.009887 0.001830 -0.000616 0.040160
#
#
# Mechanical properties :
#
#
# Convention : Reuss Voigt Hill
#
# Bulk Modulus (GPa) = 20.56279 36.78993 28.67636
# Shear Modulus (GPa) = 25.54775 31.22140 28.38457
#
# Velocity S-wave (km/s) = 3.43487 3.79717 3.62055
# Velocity P-wave (km/s) = 5.02268 6.01787 5.54266
#
# Compressibility (1/GPa) = 0.04863154
#
# Stress axis : x y z
#
# Youngs Moduli (GPa) = 98.67997 38.76573 41.77980
#
# Poissons Ratio (x) = 0.15336 0.28876
# Poissons Ratio (y) = 0.39037 -0.21938
# Poissons Ratio (z) = 0.68202 -0.20355
#
# Static dielectric constant tensor:
#      x y z
#    x 1.776200 -0.040690 -0.009740 
#    y -0.040690 1.825200 0.006990 
#    z -0.009740 0.006990 1.798450 
# 
# From -- ./inp_files/207551.got.cif
#   From: 2010.05.17/outbox.cif.g08.bks.cpg/sg2_104_cif.got.tgz:207551.got - 2010.06.03 11:33:40.
