data_PCOD9109279
_publ_section_title
;
Structure prediction by ZEFSAII (Michael W. Deem and Ramdas Pophale) SiO2 
 PCOD9109279
Probable space group: P -1
;
_chemical_formula_sum "Si O2"
_cell_formula_units_Z 16
_cell_length_a 11.828170
_cell_length_b 20.046338
_cell_length_c 17.373054
_cell_angle_alpha 148.960189
_cell_angle_beta 147.759687
_cell_angle_gamma 21.955048
_cell_volume 765.688591
_symmetry_space_group_name_H-M "P -1"
_symmetry_group_IT_number 2
_symmetry_cell_setting 'triclinic'
loop_
_space_group_symop_operation_xyz
x,y,z
-x,-y,-z
loop_
_atom_site_type_symbol
_atom_site_label
_atom_site_fract_x
_atom_site_fract_y
_atom_site_fract_z
Si Si1 0.752934 0.174164 0.859886
Si Si2 0.007037 0.801447 0.699271
Si Si3 0.066504 0.049663 0.480304
Si Si4 0.011577 0.199130 0.753838
Si Si5 0.529296 0.092875 0.042364
Si Si6 0.665900 0.691128 0.397639
Si Si7 0.648959 0.422942 0.175988
Si Si8 0.365912 0.687131 0.644350
O O1 0.542237 0.255121 0.742820
O O2 0.622699 0.342870 0.008052
O O3 0.772680 0.025164 0.766296
O O4 0.109650 0.053553 0.921955
O O5 0.132930 0.745485 0.802711
O O6 0.284240 0.700082 0.698313
O O7 0.887258 0.710438 0.523547
O O8 0.989569 0.187414 0.638138
O O9 0.937217 0.147033 0.419056
O O10 0.433817 0.856362 0.491521
O O11 0.924654 0.974620 0.348495
O O12 0.689299 0.393831 0.799252
O O13 0.299436 0.157688 0.905114
O O14 0.430759 0.274712 0.201906
O O15 0.500000 0.000000 0.000000
O O16 0.795829 0.496941 0.311976
O O17 0.500000 0.500000 0.500000
#
# Coordination Sequence:
#
# PCOD9109279 Si02
#       8
#     2   2   2   2   2   2   2   2
#     4  11  24  42  66  95 134 165 210 267 327 380
#     4  11  24  42  63  93 132 169 209 264 333 374
#     4  10  20  41  64  92 126 166 214 265 318 376
#     4  10  22  40  68  93 128 165 216 271 312 371
#     4  11  21  42  65  96 126 172 216 256 324 385
#     4  11  22  43  68  93 121 174 220 260 315 386
#     4  11  24  43  64  98 127 163 221 270 308 384
#     4  11  23  40  62  92 133 167 213 265 318 387
#
# _framework density 20.896222999999999
#
# number of rings (size 3 to 8) (size 9 to 14) (size 15 to 20)
#    0.000    1.250    3.750    3.000    1.750    2.000 
#    2.250    3.125    0.000    0.000    0.000    0.000 
#    0.000    0.000    0.000    0.000    0.000    0.000 
#
# Total GULP energy -89360.616922 kJ/mol
# GULP energy per Si atom -5585.038558 kJ/mol
# Density = 2.084866 g / cm^3
# Si number density = 20.896223 Si / 1000 Ang^3
#
#
#
# Elastic Constant Matrix: (Units=GPa)
#
#
# Indices 1 2 3 4 5 6 
#
# 1 81.4293 12.8505 33.4107 6.7177 5.7441 12.3944
# 2 12.8505 26.4008 16.2348 9.6544 -6.3151 6.0042
# 3 33.4107 16.2348 118.8042 15.5497 -4.0368 -11.6125
# 4 6.7177 9.6544 15.5497 42.2416 -3.1197 -2.1453
# 5 5.7441 -6.3151 -4.0368 -3.1197 36.5253 7.0793
# 6 12.3944 6.0042 -11.6125 -2.1453 7.0793 18.4911
#
#
#
# Elastic Compliance Matrix: (Units=1/GPa)
#
#
# Indices 1 2 3 4 5 6 
#
# 1 0.017364 -0.001121 -0.006072 -0.001086 -0.000799 -0.014909
# 2 -0.001121 0.057758 -0.008687 -0.010307 0.014151 -0.030072
# 3 -0.006072 -0.008687 0.012927 -0.001176 -0.002270 0.015742
# 4 -0.001086 -0.010307 -0.001176 0.026922 -0.000749 0.006747
# 5 -0.000799 0.014151 -0.002270 -0.000749 0.033177 -0.018274
# 6 -0.014909 -0.030072 0.015742 0.006747 -0.018274 0.091503
#
#
# Mechanical properties :
#
#
# Convention : Reuss Voigt Hill
#
# Bulk Modulus (GPa) = 17.76549 39.06960 28.41755
# Shear Modulus (GPa) = 17.23092 30.39415 23.81254
#
# Velocity S-wave (km/s) = 2.87469 3.81797 3.37940
# Velocity P-wave (km/s) = 4.42026 6.17846 5.37178
#
# Compressibility (1/GPa) = 0.05628891
#
# Stress axis : x y z
#
# Youngs Moduli (GPa) = 57.58970 17.31350 77.35482
#
# Poissons Ratio (x) = 0.01941 0.46972
# Poissons Ratio (y) = 0.06458 0.67198
# Poissons Ratio (z) = 0.34970 0.15040
#
# Static dielectric constant tensor:
#      x y z
#    x 1.754240 0.008370 0.019350 
#    y 0.008370 1.797490 0.021260 
#    z 0.019350 0.021260 1.754690 
# 
# From -- ./inp_files/272217.got.cif
#   From: 2010.05.17/outbox.cif.g08.bks.cpg/sg2_137_cif.got.tgz:272217.got - 2010.06.03 11:33:40.
