data_PCOD9109832
_publ_section_title
;
Structure prediction by ZEFSAII (Michael W. Deem and Ramdas Pophale) SiO2 
 PCOD9109832
Probable space group: P -1
;
_chemical_formula_sum "Si O2"
_cell_formula_units_Z 14
_cell_length_a 11.970124
_cell_length_b 13.892895
_cell_length_c 19.615994
_cell_angle_alpha 149.465264
_cell_angle_beta 158.433044
_cell_angle_gamma 33.521728
_cell_volume 599.839883
_symmetry_space_group_name_H-M "P -1"
_symmetry_group_IT_number 2
_symmetry_cell_setting 'triclinic'
loop_
_space_group_symop_operation_xyz
x,y,z
-x,-y,-z
loop_
_atom_site_type_symbol
_atom_site_label
_atom_site_fract_x
_atom_site_fract_y
_atom_site_fract_z
Si Si1 0.267330 0.300315 0.175411
Si Si2 0.323326 0.534631 0.123692
Si Si3 0.634206 0.895900 0.163814
Si Si4 0.862973 0.449694 0.463663
Si Si5 0.244982 0.424936 0.383092
Si Si6 0.374481 0.144304 0.576977
Si Si7 0.310992 0.972127 0.577101
O O1 0.108299 0.392345 0.211800
O O2 0.578603 0.392577 0.406242
O O3 0.363269 0.070898 0.095451
O O4 0.036065 0.374124 0.028211
O O5 0.502499 0.530563 0.294747
O O6 0.469843 0.670964 0.237699
O O7 0.389300 0.313400 0.003745
O O8 0.956598 0.949963 0.354121
O O9 0.659497 0.895329 0.259975
O O10 0.955446 0.546366 0.644569
O O11 0.000000 0.500000 0.500000
O O12 0.005911 0.224926 0.414571
O O13 0.500331 0.235322 0.422453
O O14 0.500000 0.000000 0.500000
O O15 0.443259 0.049358 0.631106
#
# Coordination Sequence:
#
# PCOD9109832 Si02
#       7
#     2   2   2   2   2   2   2
#     4  10  22  40  69  98 129 166 212 274 314 378
#     4  11  24  43  65  99 131 165 222 271 306 390
#     4  10  22  40  67 100 129 163 219 266 320 374
#     4  10  23  42  61  88 129 173 208 260 322 383
#     4  10  20  42  67  95 131 170 213 258 332 380
#     4  11  25  44  66  89 131 179 211 259 336 384
#     4  10  20  41  67  96 131 172 209 262 325 388
#
# _framework density 23.339562000000001
#
# number of rings (size 3 to 8) (size 9 to 14) (size 15 to 20)
#    0.000    1.714    1.429    2.571    6.000    1.143 
#    5.143    2.857    0.000    0.000    0.000    0.000 
#    0.000    0.000    0.000    0.000    0.000    0.000 
#
# Total GULP energy -78194.760585 kJ/mol
# GULP energy per Si atom -5585.340042 kJ/mol
# Density = 2.328644 g / cm^3
# Si number density = 23.339562 Si / 1000 Ang^3
#
#
#
# Elastic Constant Matrix: (Units=GPa)
#
#
# Indices 1 2 3 4 5 6 
#
# 1 66.6197 -12.1180 -17.5792 -0.3556 16.2398 3.8442
# 2 -12.1180 99.4800 12.2477 1.9116 -3.3625 12.2666
# 3 -17.5792 12.2477 35.3944 -4.4335 -3.0857 10.6802
# 4 -0.3556 1.9116 -4.4335 38.4295 3.1008 1.8263
# 5 16.2398 -3.3625 -3.0857 3.1008 15.9988 0.8861
# 6 3.8442 12.2666 10.6802 1.8263 0.8861 37.2271
#
#
#
# Elastic Compliance Matrix: (Units=1/GPa)
#
#
# Indices 1 2 3 4 5 6 
#
# 1 0.024212 0.001405 0.011855 0.003612 -0.022362 -0.006009
# 2 0.001405 0.010911 -0.002162 -0.000693 0.000756 -0.003104
# 3 0.011855 -0.002162 0.038670 0.005679 -0.005479 -0.011754
# 4 0.003612 -0.000693 0.005679 0.027521 -0.007888 -0.002936
# 5 -0.022362 0.000756 -0.005479 -0.007888 0.085725 0.001979
# 6 -0.006009 -0.003104 -0.011754 -0.002936 0.001979 0.031975
#
#
# Mechanical properties :
#
#
# Convention : Reuss Voigt Hill
#
# Bulk Modulus (GPa) = 10.41779 18.51058 14.46418
# Shear Modulus (GPa) = 21.85204 32.92731 27.38967
#
# Velocity S-wave (km/s) = 3.06317 3.76013 3.42940
# Velocity P-wave (km/s) = 4.12115 5.17684 4.67886
#
# Compressibility (1/GPa) = 0.09598965
#
# Stress axis : x y z
#
# Youngs Moduli (GPa) = 41.30260 91.64840 25.86015
#
# Poissons Ratio (x) = -0.12881 -0.30657
# Poissons Ratio (y) = -0.05805 0.05590
# Poissons Ratio (z) = -0.48964 0.19812
#
# Static dielectric constant tensor:
#      x y z
#    x 1.898880 -0.028110 0.043560 
#    y -0.028110 1.895980 -0.071090 
#    z 0.043560 -0.071090 1.975510 
# 
# From -- ./inp_files/447979.got.cif
#   From: 2010.05.17/outbox.cif.g08.bks.cpg/sg2_224_cif.got.tgz:447979.got - 2010.06.03 11:33:40.
