data_PCOD9109126
_publ_section_title
;
Structure prediction by ZEFSAII (Michael W. Deem and Ramdas Pophale) SiO2 
 PCOD9109126
Probable space group: P -1
;
_chemical_formula_sum "Si O2"
_cell_formula_units_Z 16
_cell_length_a 7.514674
_cell_length_b 6.804327
_cell_length_c 21.966646
_cell_angle_alpha 137.273771
_cell_angle_beta 119.841903
_cell_angle_gamma 63.766879
_cell_volume 655.433155
_symmetry_space_group_name_H-M "P -1"
_symmetry_group_IT_number 2
_symmetry_cell_setting 'triclinic'
loop_
_space_group_symop_operation_xyz
x,y,z
-x,-y,-z
loop_
_atom_site_type_symbol
_atom_site_label
_atom_site_fract_x
_atom_site_fract_y
_atom_site_fract_z
Si Si1 0.712978 0.082205 0.199738
Si Si2 0.459295 0.044970 0.255405
Si Si3 0.126821 0.379359 0.660009
Si Si4 0.842228 0.791812 0.029814
Si Si5 0.663016 0.502929 0.824123
Si Si6 0.234257 0.026910 0.482466
Si Si7 0.593126 0.550946 0.461189
Si Si8 0.957523 0.643961 0.808379
O O1 0.602597 0.916177 0.194822
O O2 0.894441 0.281605 0.291304
O O3 0.531267 0.344695 0.211713
O O4 0.759921 0.888071 0.104329
O O5 0.605425 0.242412 0.360676
O O6 0.248320 0.233270 0.237798
O O7 0.385620 0.805969 0.231903
O O8 0.123513 0.460788 0.750521
O O9 0.952992 0.161122 0.583791
O O10 0.265648 0.201368 0.590506
O O11 0.950410 0.066962 0.088448
O O12 0.686573 0.705450 0.932819
O O13 0.000000 0.500000 0.000000
O O14 0.868980 0.481931 0.813259
O O15 0.417972 0.765496 0.445277
O O16 0.219041 0.263007 0.478381
O O17 0.500000 0.500000 0.500000
#
# Coordination Sequence:
#
# PCOD9109126 Si02
#       8
#     2   2   2   2   2   2   2   2
#     4  10  24  43  66  89 130 164 212 258 308 376
#     4  11  22  42  62  94 125 166 213 253 311 374
#     4  10  20  41  63  88 122 172 200 259 316 359
#     4  11  22  45  66  97 127 163 205 263 319 368
#     4  11  24  41  67  93 124 170 209 255 315 381
#     4  10  22  41  63  85 130 162 207 261 316 362
#     4  11  24  38  64  93 123 165 210 260 307 378
#     4  10  22  42  66  89 128 164 208 260 310 372
#
# _framework density 24.411337
#
# number of rings (size 3 to 8) (size 9 to 14) (size 15 to 20)
#    0.000    1.500    3.750    0.750    3.500    0.500 
#    6.750    5.000    0.000    0.000    0.000    0.000 
#    0.000    0.000    0.000    0.000    0.000    0.000 
#
# Total GULP energy -89236.609254 kJ/mol
# GULP energy per Si atom -5577.288078 kJ/mol
# Density = 2.435578 g / cm^3
# Si number density = 24.411337 Si / 1000 Ang^3
#
#
#
# Elastic Constant Matrix: (Units=GPa)
#
#
# Indices 1 2 3 4 5 6 
#
# 1 81.9206 36.4179 11.5022 1.9458 -23.2316 38.4239
# 2 36.4179 107.1876 11.7496 10.4460 0.3238 32.0981
# 3 11.5022 11.7496 88.6964 23.3909 -10.6286 0.4712
# 4 1.9458 10.4460 23.3909 28.3302 6.5654 4.5996
# 5 -23.2316 0.3238 -10.6286 6.5654 42.9366 -9.7220
# 6 38.4239 32.0981 0.4712 4.5996 -9.7220 36.4715
#
#
#
# Elastic Compliance Matrix: (Units=1/GPa)
#
#
# Indices 1 2 3 4 5 6 
#
# 1 0.027810 -0.001615 -0.003382 0.003971 0.007662 -0.026293
# 2 -0.001615 0.013464 -0.001788 -0.000699 -0.003814 -0.011054
# 3 -0.003382 -0.001788 0.016979 -0.016137 0.006841 0.008776
# 4 0.003971 -0.000699 -0.016137 0.053879 -0.013174 -0.013667
# 5 0.007662 -0.003814 0.006841 -0.013174 0.032418 0.005499
# 6 -0.026293 -0.011054 0.008776 -0.013667 0.005499 0.067923
#
#
# Mechanical properties :
#
#
# Convention : Reuss Voigt Hill
#
# Bulk Modulus (GPa) = 22.37973 44.12710 33.25342
# Shear Modulus (GPa) = 20.75236 36.08997 28.42117
#
# Velocity S-wave (km/s) = 2.91883 3.84918 3.41583
# Velocity P-wave (km/s) = 4.53289 6.15391 5.40452
#
# Compressibility (1/GPa) = 0.04468329
#
# Stress axis : x y z
#
# Youngs Moduli (GPa) = 35.95771 74.27360 58.89720
#
# Poissons Ratio (x) = 0.11992 0.19919
# Poissons Ratio (y) = 0.05806 0.10532
# Poissons Ratio (z) = 0.12161 0.13282
#
# Static dielectric constant tensor:
#      x y z
#    x 2.133780 0.043890 0.095330 
#    y 0.043890 2.019450 -0.040960 
#    z 0.095330 -0.040960 1.952300 
# 
# From -- ./inp_files/553960.got.cif
#   From: 2010.05.17/outbox.cif.g08.bks.cpg/sg2_277_cif.got.tgz:553960.got - 2010.06.03 11:33:40.
