data_PCOD9109468
_publ_section_title
;
Structure prediction by ZEFSAII (Michael W. Deem and Ramdas Pophale) SiO2 
 PCOD9109468
Probable space group: P -1
;
_chemical_formula_sum "Si O2"
_cell_formula_units_Z 16
_cell_length_a 11.452419
_cell_length_b 16.075558
_cell_length_c 8.075894
_cell_angle_alpha 73.458801
_cell_angle_beta 39.494526
_cell_angle_gamma 53.114832
_cell_volume 708.264924
_symmetry_space_group_name_H-M "P -1"
_symmetry_group_IT_number 2
_symmetry_cell_setting 'triclinic'
loop_
_space_group_symop_operation_xyz
x,y,z
-x,-y,-z
loop_
_atom_site_type_symbol
_atom_site_label
_atom_site_fract_x
_atom_site_fract_y
_atom_site_fract_z
Si Si1 0.233563 0.983235 0.208446
Si Si2 0.296955 0.254157 0.205633
Si Si3 0.280317 0.183260 0.628795
Si Si4 0.199492 0.008962 0.833274
Si Si5 0.533171 0.621826 0.967431
Si Si6 0.147134 0.663140 0.787428
Si Si7 0.551260 0.534247 0.663742
Si Si8 0.035494 0.784773 0.525031
O O1 0.184353 0.085555 0.306945
O O2 0.469208 0.860796 0.057598
O O3 0.226956 0.001288 0.007789
O O4 0.000000 0.000000 0.500000
O O5 0.290077 0.232011 0.419786
O O6 0.066064 0.279278 0.370348
O O7 0.317405 0.350711 0.117290
O O8 0.544880 0.094880 0.454636
O O9 0.175872 0.116981 0.747315
O O10 0.108467 0.277725 0.893713
O O11 0.000000 0.000000 0.000000
O O12 0.520490 0.535472 0.129142
O O13 0.262712 0.737463 0.192668
O O14 0.619219 0.577375 0.713573
O O15 0.324053 0.633837 0.757821
O O16 0.257457 0.549201 0.634060
O O17 0.130083 0.747649 0.629241
#
# Coordination Sequence:
#
# PCOD9109468 Si02
#       8
#     2   2   2   2   2   2   2   2
#     4  11  22  39  61  97 125 164 214 249 311 386
#     4  11  24  38  64  91 129 170 207 258 319 380
#     4  10  22  40  59  92 129 164 213 253 310 387
#     4  10  23  40  62  91 129 171 205 253 314 380
#     4  10  21  44  64  95 122 166 217 259 327 373
#     4  10  20  41  65  94 122 170 209 263 329 359
#     4   9  21  41  72  89 126 166 216 279 313 375
#     4  11  22  40  63  91 131 165 208 262 311 382
#
# _framework density 22.590416999999999
#
# number of rings (size 3 to 8) (size 9 to 14) (size 15 to 20)
#    0.000    1.750    2.500    1.125    1.750    3.000 
#    0.000   13.750    0.000    0.000    0.000    0.000 
#    0.000    0.000    0.000    0.000    0.000    0.000 
#
# Total GULP energy -89414.451925 kJ/mol
# GULP energy per Si atom -5588.403245 kJ/mol
# Density = 2.253900 g / cm^3
# Si number density = 22.590417 Si / 1000 Ang^3
#
#
#
# Elastic Constant Matrix: (Units=GPa)
#
#
# Indices 1 2 3 4 5 6 
#
# 1 55.2161 13.9411 4.3250 4.4754 -12.3376 22.7500
# 2 13.9411 51.2909 8.9592 4.0512 -4.7367 12.9163
# 3 4.3250 8.9592 113.9103 22.2041 -0.9144 9.5666
# 4 4.4754 4.0512 22.2041 29.5169 8.0471 -5.8352
# 5 -12.3376 -4.7367 -0.9144 8.0471 30.1529 -11.0194
# 6 22.7500 12.9163 9.5666 -5.8352 -11.0194 33.8873
#
#
#
# Elastic Compliance Matrix: (Units=1/GPa)
#
#
# Indices 1 2 3 4 5 6 
#
# 1 0.029069 -0.001880 0.003164 -0.012516 0.008002 -0.019245
# 2 -0.001880 0.022421 -0.000166 -0.004492 0.001157 -0.007634
# 3 0.003164 -0.000166 0.011344 -0.010850 0.002159 -0.006430
# 4 -0.012516 -0.004492 -0.010850 0.051733 -0.013495 0.017698
# 5 0.008002 0.001157 0.002159 -0.013495 0.042093 0.004942
# 6 -0.019245 -0.007634 -0.006430 0.017698 0.004942 0.051809
#
#
# Mechanical properties :
#
#
# Convention : Reuss Voigt Hill
#
# Bulk Modulus (GPa) = 15.36785 30.54089 22.95437
# Shear Modulus (GPa) = 21.93725 31.59087 26.76406
#
# Velocity S-wave (km/s) = 3.11961 3.74360 3.44576
# Velocity P-wave (km/s) = 4.44899 5.67757 5.10041
#
# Compressibility (1/GPa) = 0.06507093
#
# Stress axis : x y z
#
# Youngs Moduli (GPa) = 34.40046 44.60171 88.15163
#
# Poissons Ratio (x) = 0.08385 -0.27895
# Poissons Ratio (y) = 0.06467 0.01464
# Poissons Ratio (z) = -0.10886 0.00741
#
# Static dielectric constant tensor:
#      x y z
#    x 1.847330 0.005420 0.019960 
#    y 0.005420 1.901650 0.021260 
#    z 0.019960 0.021260 1.846460 
# 
# From -- ./inp_files/272788.got.cif
#   From: 2010.05.17/outbox.cif.g08.bks.cpg/sg2_137_cif.got.tgz:272788.got - 2010.06.03 11:33:40.
