data_PCOD9109266
_publ_section_title
;
Structure prediction by ZEFSAII (Michael W. Deem and Ramdas Pophale) SiO2 
 PCOD9109266
Probable space group: P -1
;
_chemical_formula_sum "Si O2"
_cell_formula_units_Z 12
_cell_length_a 21.655364
_cell_length_b 10.212835
_cell_length_c 6.988940
_cell_angle_alpha 135.843179
_cell_angle_beta 42.893745
_cell_angle_gamma 150.533200
_cell_volume 502.695173
_symmetry_space_group_name_H-M "P -1"
_symmetry_group_IT_number 2
_symmetry_cell_setting 'triclinic'
loop_
_space_group_symop_operation_xyz
x,y,z
-x,-y,-z
loop_
_atom_site_type_symbol
_atom_site_label
_atom_site_fract_x
_atom_site_fract_y
_atom_site_fract_z
Si Si1 0.239648 0.067815 0.818938
Si Si2 0.758872 0.527870 0.255836
Si Si3 0.969476 0.931176 0.722183
Si Si4 0.556531 0.406545 0.885366
Si Si5 0.707671 0.136043 0.197819
Si Si6 0.256940 0.686761 0.303695
O O1 0.230395 0.954042 0.933769
O O2 0.250504 0.898124 0.487057
O O3 0.121281 0.023707 0.986316
O O4 0.366944 0.395547 0.897658
O O5 0.889617 0.846477 0.261779
O O6 0.660648 0.474341 0.572017
O O7 0.804713 0.405995 0.133272
O O8 0.694581 0.368631 0.036194
O O9 0.000000 0.000000 0.500000
O O10 0.884466 0.617884 0.635856
O O11 0.422093 0.086788 0.869451
O O12 0.500000 0.500000 0.000000
O O13 0.665271 0.189151 0.541775
#
# Coordination Sequence:
#
# PCOD9109266 Si02
#       6
#     2   2   2   2   2   2
#     4   9  21  43  63  92 128 160 211 254 313 366
#     4  12  23  40  67  94 125 172 206 257 321 363
#     4  12  21  41  67  92 129 168 203 260 313 377
#     4  10  20  41  64  91 126 168 210 257 310 374
#     4   9  21  41  65  86 129 164 206 258 308 368
#     4  10  24  41  63  99 125 162 212 259 310 376
#
# _framework density 23.871327000000001
#
# number of rings (size 3 to 8) (size 9 to 14) (size 15 to 20)
#    1.000    0.667    3.333    1.000    0.000    4.000 
#    6.000    0.833    0.000    0.000    0.000    0.000 
#    0.000    0.000    0.000    0.000    0.000    0.000 
#
# Total GULP energy -66898.583884 kJ/mol
# GULP energy per Si atom -5574.881990 kJ/mol
# Density = 2.381699 g / cm^3
# Si number density = 23.871327 Si / 1000 Ang^3
#
#
#
# Elastic Constant Matrix: (Units=GPa)
#
#
# Indices 1 2 3 4 5 6 
#
# 1 71.2628 13.6433 29.1889 0.1950 -0.1657 -6.8188
# 2 13.6433 111.1064 33.9999 21.7295 -2.3301 6.1375
# 3 29.1889 33.9999 103.0210 26.0708 1.0332 10.9919
# 4 0.1950 21.7295 26.0708 27.2494 6.5017 -2.2298
# 5 -0.1657 -2.3301 1.0332 6.5017 18.6015 -4.5566
# 6 -6.8188 6.1375 10.9919 -2.2298 -4.5566 19.4207
#
#
#
# Elastic Compliance Matrix: (Units=1/GPa)
#
#
# Indices 1 2 3 4 5 6 
#
# 1 0.019710 -0.002771 -0.009295 0.012236 -0.000413 0.014365
# 2 -0.002771 0.011791 0.000158 -0.010907 0.004006 -0.005101
# 3 -0.009295 0.000158 0.019043 -0.020057 0.001988 -0.015928
# 4 0.012236 -0.010907 -0.020057 0.070982 -0.019394 0.022695
# 5 -0.000413 0.004006 0.001988 -0.019394 0.063403 0.010113
# 6 0.014365 -0.005101 -0.015928 0.022695 0.010113 0.072141
#
#
# Mechanical properties :
#
#
# Convention : Reuss Voigt Hill
#
# Bulk Modulus (GPa) = 37.41257 48.78383 43.09820
# Shear Modulus (GPa) = 17.25348 26.95820 22.10584
#
# Velocity S-wave (km/s) = 2.69135 3.36417 3.04639
# Velocity P-wave (km/s) = 5.03632 5.96412 5.51975
#
# Compressibility (1/GPa) = 0.02672899
#
# Stress axis : x y z
#
# Youngs Moduli (GPa) = 50.73485 84.80817 52.51177
#
# Poissons Ratio (x) = 0.23501 0.48809
# Poissons Ratio (y) = 0.14059 -0.00830
# Poissons Ratio (z) = 0.47158 -0.01340
#
# Static dielectric constant tensor:
#      x y z
#    x 1.926790 -0.009800 0.000760 
#    y -0.009800 2.019850 0.112730 
#    z 0.000760 0.112730 1.971510 
# 
# From -- ./inp_files/353228.got.cif
#   From: 2010.05.17/outbox.cif.g08.bks.cpg/sg2_177_cif.got.tgz:353228.got - 2010.06.03 11:33:40.
