data_PCOD9109803
_publ_section_title
;
Structure prediction by ZEFSAII (Michael W. Deem and Ramdas Pophale) SiO2 
 PCOD9109803
Probable space group: P -1
;
_chemical_formula_sum "Si O2"
_cell_formula_units_Z 14
_cell_length_a 20.899674
_cell_length_b 6.260008
_cell_length_c 6.384793
_cell_angle_alpha 105.156192
_cell_angle_beta 57.420917
_cell_angle_gamma 117.720658
_cell_volume 623.038733
_symmetry_space_group_name_H-M "P -1"
_symmetry_group_IT_number 2
_symmetry_cell_setting 'triclinic'
loop_
_space_group_symop_operation_xyz
x,y,z
-x,-y,-z
loop_
_atom_site_type_symbol
_atom_site_label
_atom_site_fract_x
_atom_site_fract_y
_atom_site_fract_z
Si Si1 0.556729 0.390322 0.490912
Si Si2 0.177233 0.758118 0.787716
Si Si3 0.560630 0.006940 0.084369
Si Si4 0.121006 0.492060 0.212273
Si Si5 0.173181 0.284214 0.437852
Si Si6 0.947085 0.207601 0.283150
Si Si7 0.309480 0.168734 0.390597
O O1 0.500000 0.500000 0.500000
O O2 0.588951 0.253187 0.228190
O O3 0.629430 0.591323 0.541029
O O4 0.495747 0.199637 0.711679
O O5 0.181392 0.522891 0.610643
O O6 0.092760 0.785618 0.870935
O O7 0.250334 0.988171 0.621431
O O8 0.178705 0.705463 0.016024
O O9 0.500000 0.000000 0.000000
O O10 0.636074 0.954494 0.848457
O O11 0.162256 0.342410 0.230957
O O12 0.082886 0.616978 0.480741
O O13 0.045507 0.315419 0.157451
O O14 0.251974 0.227487 0.340631
O O15 0.094773 0.054383 0.603466
#
# Coordination Sequence:
#
# PCOD9109803 Si02
#       7
#     2   2   2   2   2   2   2
#     4  11  25  47  73 105 125 179 229 267 346 400
#     4  10  23  41  60 101 134 174 223 271 339 393
#     4  11  25  47  74 102 132 171 231 276 329 411
#     4  10  20  41  67  93 130 179 228 272 324 408
#     4  10  23  41  59  97 134 176 220 270 346 385
#     4   9  20  40  65  94 132 174 229 279 324 388
#     4  11  25  47  65  98 149 170 218 289 332 402
#
# _framework density 22.470511999999999
#
# number of rings (size 3 to 8) (size 9 to 14) (size 15 to 20)
#    0.000    1.714    1.429    1.286    2.000    2.857 
#   20.571    0.000    0.000    0.000    0.000    0.000 
#    0.000    0.000    0.000    0.000    0.000    0.000 
#
# Total GULP energy -78390.938222 kJ/mol
# GULP energy per Si atom -5599.352730 kJ/mol
# Density = 2.241937 g / cm^3
# Si number density = 22.470512 Si / 1000 Ang^3
#
#
#
# Elastic Constant Matrix: (Units=GPa)
#
#
# Indices 1 2 3 4 5 6 
#
# 1 128.1771 66.2202 77.0115 -12.4318 -1.4108 -25.1062
# 2 66.2202 108.3942 29.5649 -6.1507 2.2520 -7.7249
# 3 77.0115 29.5649 88.2003 -1.0031 7.0016 -19.4617
# 4 -12.4318 -6.1507 -1.0031 33.1735 -11.5301 13.0774
# 5 -1.4108 2.2520 7.0016 -11.5301 24.8608 -9.9442
# 6 -25.1062 -7.7249 -19.4617 13.0774 -9.9442 40.3694
#
#
#
# Elastic Compliance Matrix: (Units=1/GPa)
#
#
# Indices 1 2 3 4 5 6 
#
# 1 0.028624 -0.010985 -0.021191 0.011397 0.016185 0.005779
# 2 -0.010985 0.014500 0.004581 -0.002134 -0.005191 -0.002436
# 3 -0.021191 0.004581 0.029876 -0.012278 -0.014748 0.002445
# 4 0.011397 -0.002134 -0.012278 0.044426 0.021576 -0.008317
# 5 0.016185 -0.005191 -0.014748 0.021576 0.059638 0.009664
# 6 0.005779 -0.002436 0.002445 -0.008317 0.009664 0.034152
#
#
# Mechanical properties :
#
#
# Convention : Reuss Voigt Hill
#
# Bulk Modulus (GPa) = 56.14627 74.48497 65.31562
# Shear Modulus (GPa) = 18.35925 29.81242 24.08583
#
# Velocity S-wave (km/s) = 2.86149 3.64639 3.27752
# Velocity P-wave (km/s) = 5.99653 7.13779 6.59190
#
# Compressibility (1/GPa) = 0.01781062
#
# Stress axis : x y z
#
# Youngs Moduli (GPa) = 34.93548 68.96483 33.47222
#
# Poissons Ratio (x) = 0.75758 0.70931
# Poissons Ratio (y) = 0.38376 -0.15335
# Poissons Ratio (z) = 0.74032 -0.31595
#
# Static dielectric constant tensor:
#      x y z
#    x 1.813000 0.009630 0.022990 
#    y 0.009630 1.821010 0.026780 
#    z 0.022990 0.026780 1.829770 
# 
# From -- ./inp_files/7698.got.cif
#   From: 2010.05.17/outbox.cif.g08.bks.cpg/sg2_4_cif.got.tgz:7698.got - 2010.06.03 11:33:40.
