data_PCOD9109375
_publ_section_title
;
Structure prediction by ZEFSAII (Michael W. Deem and Ramdas Pophale) SiO2 
 PCOD9109375
Probable space group: P -1
;
_chemical_formula_sum "Si O2"
_cell_formula_units_Z 16
_cell_length_a 11.832709
_cell_length_b 16.128021
_cell_length_c 8.810544
_cell_angle_alpha 126.935143
_cell_angle_beta 106.138406
_cell_angle_gamma 115.800114
_cell_volume 800.781099
_symmetry_space_group_name_H-M "P -1"
_symmetry_group_IT_number 2
_symmetry_cell_setting 'triclinic'
loop_
_space_group_symop_operation_xyz
x,y,z
-x,-y,-z
loop_
_atom_site_type_symbol
_atom_site_label
_atom_site_fract_x
_atom_site_fract_y
_atom_site_fract_z
Si Si1 0.506334 0.384367 0.352026
Si Si2 0.766483 0.280108 0.038165
Si Si3 0.965198 0.092936 0.151440
Si Si4 0.445126 0.165804 0.296904
Si Si5 0.849363 0.959134 0.302783
Si Si6 0.795016 0.306594 0.729644
Si Si7 0.621216 0.989541 0.223601
Si Si8 0.129650 0.424434 0.486783
O O1 0.500000 0.500000 0.500000
O O2 0.463594 0.296838 0.396033
O O3 0.702681 0.475714 0.462551
O O4 0.333023 0.237413 0.015271
O O5 0.803103 0.430821 0.226373
O O6 0.937853 0.337173 0.245054
O O7 0.766999 0.251261 0.830649
O O8 0.570241 0.120609 0.876254
O O9 0.097433 0.285727 0.388501
O O10 0.936207 0.054727 0.278548
O O11 0.765272 0.991142 0.890637
O O12 0.000000 0.000000 0.000000
O O13 0.620589 0.259709 0.569144
O O14 0.440783 0.098633 0.061039
O O15 0.749966 0.994514 0.365784
O O16 0.000000 0.000000 0.500000
O O17 0.755316 0.181621 0.467728
O O18 0.000000 0.500000 0.000000
#
# Coordination Sequence:
#
# PCOD9109375 Si02
#       8
#     2   2   2   2   2   2   2   2
#     4  10  20  41  65  87 121 168 211 251 305 377
#     4  11  24  39  66  92 132 167 205 265 318 378
#     4  10  22  40  66  91 121 169 213 256 312 380
#     4  10  22  42  61  88 125 168 202 254 320 375
#     4  10  23  41  62  89 123 164 205 256 316 366
#     4  12  26  36  62  99 123 156 213 267 305 370
#     4  10  22  45  61  84 128 172 203 246 333 379
#     4  11  21  40  65  96 125 168 214 253 321 381
#
# _framework density 19.980492000000002
#
# number of rings (size 3 to 8) (size 9 to 14) (size 15 to 20)
#    0.000    1.750    2.500    3.750    5.250    4.000 
#    0.000    0.625    0.000    0.000    0.000    0.000 
#    0.000    0.000    0.000    0.000    0.000    0.000 
#
# Total GULP energy -89203.009340 kJ/mol
# GULP energy per Si atom -5575.188084 kJ/mol
# Density = 1.993502 g / cm^3
# Si number density = 19.980492 Si / 1000 Ang^3
#
#
#
# Elastic Constant Matrix: (Units=GPa)
#
#
# Indices 1 2 3 4 5 6 
#
# 1 76.3137 3.0949 30.5302 7.0684 10.8294 -15.0126
# 2 3.0949 37.7550 24.8095 16.9062 -1.7652 -0.1465
# 3 30.5302 24.8095 75.4165 20.2099 15.9659 -16.2120
# 4 7.0684 16.9062 20.2099 37.0989 -9.8413 -2.3596
# 5 10.8294 -1.7652 15.9659 -9.8413 47.9631 7.7931
# 6 -15.0126 -0.1465 -16.2120 -2.3596 7.7931 34.0311
#
#
#
# Elastic Compliance Matrix: (Units=1/GPa)
#
#
# Indices 1 2 3 4 5 6 
#
# 1 0.016870 0.002977 -0.005358 -0.002166 -0.003254 0.005498
# 2 0.002977 0.040441 -0.014143 -0.010544 0.004500 -0.007012
# 3 -0.005358 -0.014143 0.028713 -0.010840 -0.013294 0.013547
# 4 -0.002166 -0.010544 -0.010840 0.041173 0.013186 -0.006330
# 5 -0.003254 0.004500 -0.013294 0.013186 0.031150 -0.013968
# 6 0.005498 -0.007012 0.013547 -0.006330 -0.013968 0.040993
#
#
# Mechanical properties :
#
#
# Convention : Reuss Voigt Hill
#
# Bulk Modulus (GPa) = 18.87673 34.03937 26.45805
# Shear Modulus (GPa) = 19.99622 32.55532 26.27577
#
# Velocity S-wave (km/s) = 3.16695 4.04091 3.63033
# Velocity P-wave (km/s) = 4.77921 6.23259 5.55365
#
# Compressibility (1/GPa) = 0.05297528
#
# Stress axis : x y z
#
# Youngs Moduli (GPa) = 59.27565 24.72742 34.82784
#
# Poissons Ratio (x) = -0.07361 0.18660
# Poissons Ratio (y) = -0.17644 0.49258
# Poissons Ratio (z) = 0.31759 0.34973
#
# Static dielectric constant tensor:
#      x y z
#    x 1.766510 -0.013260 -0.015900 
#    y -0.013260 1.756750 0.022800 
#    z -0.015900 0.022800 1.709150 
# 
# From -- ./inp_files/279923.got.cif
#   From: 2010.05.17/outbox.cif.g08.bks.cpg/sg2_140_cif.got.tgz:279923.got - 2010.06.03 11:33:40.
