data_PCOD9109377
_publ_section_title
;
Structure prediction by ZEFSAII (Michael W. Deem and Ramdas Pophale) SiO2 
 PCOD9109377
Probable space group: P -1
;
_chemical_formula_sum "Si O2"
_cell_formula_units_Z 16
_cell_length_a 14.919182
_cell_length_b 11.886493
_cell_length_c 6.727020
_cell_angle_alpha 125.954502
_cell_angle_beta 83.787979
_cell_angle_gamma 120.781285
_cell_volume 797.298072
_symmetry_space_group_name_H-M "P -1"
_symmetry_group_IT_number 2
_symmetry_cell_setting 'triclinic'
loop_
_space_group_symop_operation_xyz
x,y,z
-x,-y,-z
loop_
_atom_site_type_symbol
_atom_site_label
_atom_site_fract_x
_atom_site_fract_y
_atom_site_fract_z
Si Si1 0.855050 0.534237 0.594513
Si Si2 0.692090 0.682423 0.450448
Si Si3 0.272881 0.102381 0.711791
Si Si4 0.248035 0.855325 0.128876
Si Si5 0.405320 0.164678 0.127955
Si Si6 0.027012 0.526577 0.792874
Si Si7 0.349360 0.669541 0.809238
Si Si8 0.875000 0.864481 0.923786
O O1 0.923646 0.572865 0.412446
O O2 0.731476 0.393232 0.426083
O O3 0.862081 0.696866 0.834884
O O4 0.918547 0.482206 0.663606
O O5 0.699102 0.752886 0.303195
O O6 0.604198 0.695967 0.610885
O O7 0.667468 0.498195 0.269813
O O8 0.803128 0.804579 0.676480
O O9 0.246135 0.947203 0.420933
O O10 0.368724 0.153137 0.897207
O O11 0.175724 0.070863 0.842452
O O12 0.319630 0.994549 0.089500
O O13 0.126237 0.720747 0.942696
O O14 0.305557 0.756190 0.046963
O O15 0.525895 0.208713 0.151911
O O16 0.000000 0.500000 0.000000
O O17 0.000000 0.000000 0.000000
#
# Coordination Sequence:
#
# PCOD9109377 Si02
#       8
#     2   2   2   2   2   2   2   2
#     4   9  22  39  58  89 116 154 200 243 295 359
#     4   9  21  41  59  92 120 156 209 243 303 361
#     4  10  23  39  58  89 127 157 198 254 302 354
#     4  10  23  39  61  93 121 159 206 246 305 366
#     4  10  21  40  64  89 122 165 199 251 305 351
#     4  10  22  39  62  86 122 158 193 248 305 358
#     4  10  20  41  65  87 124 160 207 251 295 362
#     4  10  22  36  62  85 117 159 200 244 298 359
#
# _framework density 20.067777
#
# number of rings (size 3 to 8) (size 9 to 14) (size 15 to 20)
#    0.000    2.250    0.000    0.750    7.000    6.500 
#    0.000   10.000    0.000    0.000    0.000    0.000 
#    0.000    0.000    0.000    0.000    0.000    0.000 
#
# Total GULP energy -89308.757366 kJ/mol
# GULP energy per Si atom -5581.797335 kJ/mol
# Density = 2.002210 g / cm^3
# Si number density = 20.067777 Si / 1000 Ang^3
#
#
#
# Elastic Constant Matrix: (Units=GPa)
#
#
# Indices 1 2 3 4 5 6 
#
# 1 119.0600 31.2039 47.1832 8.4651 5.2935 8.5058
# 2 31.2039 65.8135 51.2883 9.0360 4.4069 5.2898
# 3 47.1832 51.2883 90.2998 -5.1691 -11.8344 -0.9839
# 4 8.4651 9.0360 -5.1691 26.1655 -9.1020 -1.6789
# 5 5.2935 4.4069 -11.8344 -9.1020 30.0858 13.4332
# 6 8.5058 5.2898 -0.9839 -1.6789 13.4332 28.9060
#
#
#
# Elastic Compliance Matrix: (Units=1/GPa)
#
#
# Indices 1 2 3 4 5 6 
#
# 1 0.013464 0.006702 -0.013254 -0.013642 -0.012391 -0.000674
# 2 0.006702 0.050509 -0.039356 -0.040210 -0.037318 0.002452
# 3 -0.013254 -0.039356 0.048113 0.041527 0.041414 -0.004094
# 4 -0.013642 -0.040210 0.041527 0.082612 0.052702 -0.006907
# 5 -0.012391 -0.037318 0.041414 0.052702 0.083843 -0.024017
# 6 -0.000674 0.002452 -0.004094 -0.006907 -0.024017 0.044965
#
#
# Mechanical properties :
#
#
# Convention : Reuss Voigt Hill
#
# Bulk Modulus (GPa) = 49.33250 59.39157 54.36203
# Shear Modulus (GPa) = 11.84613 26.73132 19.28872
#
# Velocity S-wave (km/s) = 2.43226 3.65369 3.10365
# Velocity P-wave (km/s) = 5.70299 6.88905 6.32389
#
# Compressibility (1/GPa) = 0.02027061
#
# Stress axis : x y z
#
# Youngs Moduli (GPa) = 74.27151 19.79829 20.78439
#
# Poissons Ratio (x) = -0.13269 0.27547
# Poissons Ratio (y) = -0.49776 0.81799
# Poissons Ratio (z) = 0.98438 0.77918
#
# Static dielectric constant tensor:
#      x y z
#    x 1.707640 -0.020490 -0.008010 
#    y -0.020490 1.713350 0.019610 
#    z -0.008010 0.019610 1.716980 
# 
# From -- ./inp_files/77998.got.cif
#   From: 2010.05.17/outbox.cif.g08.bks.cpg/sg2_39_cif.got.tgz:77998.got - 2010.06.03 11:33:40.
