data_PCOD9109111
_publ_section_title
;
Structure prediction by ZEFSAII (Michael W. Deem and Ramdas Pophale) SiO2 
 PCOD9109111
Probable space group: P -1
;
_chemical_formula_sum "Si O2"
_cell_formula_units_Z 16
_cell_length_a 17.701009
_cell_length_b 9.127909
_cell_length_c 6.498699
_cell_angle_alpha 130.663906
_cell_angle_beta 117.866293
_cell_angle_gamma 58.771787
_cell_volume 667.352131
_symmetry_space_group_name_H-M "P -1"
_symmetry_group_IT_number 2
_symmetry_cell_setting 'triclinic'
loop_
_space_group_symop_operation_xyz
x,y,z
-x,-y,-z
loop_
_atom_site_type_symbol
_atom_site_label
_atom_site_fract_x
_atom_site_fract_y
_atom_site_fract_z
Si Si1 0.490679 0.948796 0.673605
Si Si2 0.584725 0.667229 0.843358
Si Si3 0.336712 0.770888 0.335552
Si Si4 0.823349 0.250769 0.580151
Si Si5 0.759259 0.014166 0.964703
Si Si6 0.869116 0.649586 0.486857
Si Si7 0.763042 0.702751 0.008212
Si Si8 0.958915 0.229500 0.079949
O O1 0.565491 0.741418 0.651938
O O2 0.393712 0.923855 0.572011
O O3 0.500000 0.000000 0.500000
O O4 0.491271 0.152499 0.978088
O O5 0.590432 0.445098 0.713456
O O6 0.684835 0.672383 0.023766
O O7 0.251773 0.787494 0.392147
O O8 0.304242 0.805083 0.088991
O O9 0.793070 0.494026 0.722716
O O10 0.914339 0.211141 0.788611
O O11 0.826690 0.110021 0.258604
O O12 0.796873 0.827050 0.682954
O O13 0.725585 0.901593 0.003189
O O14 0.844509 0.708087 0.267761
O O15 0.883191 0.406539 0.274908
O O16 0.959325 0.678066 0.723465
O O17 0.000000 0.000000 0.000000
#
# Coordination Sequence:
#
# PCOD9109111 Si02
#       8
#     2   2   2   2   2   2   2   2
#     4  11  23  40  63  92 124 161 203 253 308 365
#     4  10  23  41  62  89 124 163 205 252 305 368
#     4  11  24  41  63  90 125 164 205 254 310 368
#     4  10  24  41  62  91 124 164 209 258 310 371
#     4  12  22  37  64  93 120 162 212 258 309 367
#     4  10  23  39  61  91 124 163 207 258 311 367
#     4  10  22  42  62  88 125 164 208 256 311 372
#     4  10  20  41  63  85 125 168 205 253 313 367
#
# _framework density 23.975345999999998
#
# number of rings (size 3 to 8) (size 9 to 14) (size 15 to 20)
#    0.000    1.500    0.000    4.875    0.000    9.000 
#    0.000   10.000    0.000    0.000    0.000    0.000 
#    0.000    0.000    0.000    0.000    0.000    0.000 
#
# Total GULP energy -89211.722120 kJ/mol
# GULP energy per Si atom -5575.732633 kJ/mol
# Density = 2.392078 g / cm^3
# Si number density = 23.975346 Si / 1000 Ang^3
#
#
#
# Elastic Constant Matrix: (Units=GPa)
#
#
# Indices 1 2 3 4 5 6 
#
# 1 27.4742 13.5844 6.1247 -12.4021 8.7139 3.6206
# 2 13.5844 182.8285 55.0425 6.0244 -10.5636 4.7671
# 3 6.1247 55.0425 138.3471 3.3562 2.9613 1.5771
# 4 -12.4021 6.0244 3.3562 41.0509 -9.6570 3.0185
# 5 8.7139 -10.5636 2.9613 -9.6570 28.3873 -2.6743
# 6 3.6206 4.7671 1.5771 3.0185 -2.6743 30.1674
#
#
#
# Elastic Compliance Matrix: (Units=1/GPa)
#
#
# Indices 1 2 3 4 5 6 
#
# 1 0.049953 -0.004613 -0.000326 0.013251 -0.013239 -0.007749
# 2 -0.004613 0.006846 -0.002570 -0.001301 0.003796 0.000073
# 3 -0.000326 -0.002570 0.008331 -0.000874 -0.002031 -0.000083
# 4 0.013251 -0.001301 -0.000874 0.030192 0.005445 -0.003877
# 5 -0.013239 0.003796 -0.002031 0.005445 0.043180 0.004378
# 6 -0.007749 0.000073 -0.000083 -0.003877 0.004378 0.034847
#
#
# Mechanical properties :
#
#
# Convention : Reuss Voigt Hill
#
# Bulk Modulus (GPa) = 19.95539 55.35035 37.65287
# Shear Modulus (GPa) = 24.38181 38.18101 31.28141
#
# Velocity S-wave (km/s) = 3.19243 3.99496 3.61603
# Velocity P-wave (km/s) = 4.68297 6.66454 5.75961
#
# Compressibility (1/GPa) = 0.05011177
#
# Stress axis : x y z
#
# Youngs Moduli (GPa) = 20.01896 146.06108 120.03622
#
# Poissons Ratio (x) = 0.67377 0.03912
# Poissons Ratio (y) = 0.09235 0.30852
# Poissons Ratio (z) = 0.00652 0.37541
#
# Static dielectric constant tensor:
#      x y z
#    x 1.990910 -0.023330 -0.053300 
#    y -0.023330 1.983800 -0.033060 
#    z -0.053300 -0.033060 2.001070 
# 
# From -- ./inp_files/117553.got.cif
#   From: 2010.05.17/outbox.cif.g08.bks.cpg/sg2_59_cif.got.tgz:117553.got - 2010.06.03 11:33:40.
