data_PCOD9109218
_publ_section_title
;
Structure prediction by ZEFSAII (Michael W. Deem and Ramdas Pophale) SiO2 
 PCOD9109218
Probable space group: P -1
;
_chemical_formula_sum "Si O2"
_cell_formula_units_Z 16
_cell_length_a 9.558522
_cell_length_b 12.296151
_cell_length_c 17.987280
_cell_angle_alpha 120.010528
_cell_angle_beta 56.312478
_cell_angle_gamma 155.113511
_cell_volume 740.236120
_symmetry_space_group_name_H-M "P -1"
_symmetry_group_IT_number 2
_symmetry_cell_setting 'triclinic'
loop_
_space_group_symop_operation_xyz
x,y,z
-x,-y,-z
loop_
_atom_site_type_symbol
_atom_site_label
_atom_site_fract_x
_atom_site_fract_y
_atom_site_fract_z
Si Si1 0.736242 0.534338 0.732553
Si Si2 0.910318 0.883608 0.310333
Si Si3 0.969058 0.624941 0.070114
Si Si4 0.884583 0.426180 0.286888
Si Si5 0.175265 0.141353 0.169488
Si Si6 0.731376 0.132399 0.781258
Si Si7 0.688673 0.747879 0.558151
Si Si8 0.259550 0.307669 0.936029
O O1 0.491115 0.365096 0.674926
O O2 0.960302 0.807815 0.754702
O O3 0.519316 0.426955 0.835257
O O4 0.916757 0.521842 0.691318
O O5 0.007321 0.813910 0.294491
O O6 0.070332 0.985666 0.215623
O O7 0.108271 0.121087 0.378021
O O8 0.586828 0.404143 0.139195
O O9 0.960779 0.714497 0.033588
O O10 0.234268 0.820586 0.125410
O O11 0.000000 0.500000 0.000000
O O12 0.615457 0.349023 0.374659
O O13 0.136555 0.664576 0.237432
O O14 0.647141 0.166729 0.227560
O O15 0.023189 0.989088 0.085052
O O16 0.500000 0.500000 0.500000
O O17 0.000000 0.000000 0.500000
O O18 0.500000 0.500000 0.000000
#
# Coordination Sequence:
#
# PCOD9109218 Si02
#       8
#     2   2   2   2   2   2   2   2
#     4  10  23  40  66  93 123 177 223 265 319 393
#     4  10  21  42  71  89 125 176 216 261 322 408
#     4  11  23  35  57  90 123 171 223 277 328 375
#     4  11  26  41  70  98 132 164 226 267 319 396
#     4  10  20  41  64  84 127 172 229 258 331 382
#     4  11  22  42  63  96 127 176 221 271 314 386
#     4  11  24  43  68 101 135 166 206 269 338 390
#     4  10  23  39  56  89 128 171 219 277 332 372
#
# _framework density 21.614723999999999
#
# number of rings (size 3 to 8) (size 9 to 14) (size 15 to 20)
#    0.000    1.500    3.750    3.000    7.000    3.500 
#    0.000    1.250    0.000    0.000    0.000    0.000 
#    0.000    0.000    0.000    0.000    0.000    0.000 
#
# Total GULP energy -89228.347664 kJ/mol
# GULP energy per Si atom -5576.771729 kJ/mol
# Density = 2.156553 g / cm^3
# Si number density = 21.614724 Si / 1000 Ang^3
#
#
#
# Elastic Constant Matrix: (Units=GPa)
#
#
# Indices 1 2 3 4 5 6 
#
# 1 115.5475 35.4966 14.8703 27.3228 -6.6021 -6.4725
# 2 35.4966 101.6599 19.9935 37.6254 3.0721 -10.6150
# 3 14.8703 19.9935 66.7998 33.6194 -0.7164 5.8485
# 4 27.3228 37.6254 33.6194 47.4227 2.5705 6.7900
# 5 -6.6021 3.0721 -0.7164 2.5705 22.7226 8.3074
# 6 -6.4725 -10.6150 5.8485 6.7900 8.3074 27.9178
#
#
#
# Elastic Compliance Matrix: (Units=1/GPa)
#
#
# Indices 1 2 3 4 5 6 
#
# 1 0.010774 -0.001523 0.001029 -0.006228 0.003250 0.002251
# 2 -0.001523 0.016876 0.001914 -0.015151 -0.004900 0.010805
# 3 0.001029 0.001914 0.023868 -0.019158 0.003064 -0.000286
# 4 -0.006228 -0.015151 -0.019158 0.052571 -0.000528 -0.015820
# 5 0.003250 -0.004900 0.003064 -0.000528 0.052026 -0.017104
# 6 0.002251 0.010805 -0.000286 -0.015820 -0.017104 0.049447
#
#
# Mechanical properties :
#
#
# Convention : Reuss Voigt Hill
#
# Bulk Modulus (GPa) = 18.39600 47.19201 32.79400
# Shear Modulus (GPa) = 22.64101 33.85575 28.24838
#
# Velocity S-wave (km/s) = 3.23999 3.96198 3.61904
# Velocity P-wave (km/s) = 4.74616 6.54296 5.71561
#
# Compressibility (1/GPa) = 0.05435965
#
# Stress axis : x y z
#
# Youngs Moduli (GPa) = 92.81452 59.25703 41.89783
#
# Poissons Ratio (x) = 0.09024 -0.04313
# Poissons Ratio (y) = 0.14134 -0.08021
# Poissons Ratio (z) = -0.09555 -0.11345
#
# Static dielectric constant tensor:
#      x y z
#    x 1.845440 -0.042380 0.013410 
#    y -0.042380 1.948010 0.044190 
#    z 0.013410 0.044190 1.844080 
# 
# From -- ./inp_files/45723.got.cif
#   From: 2010.05.17/outbox.cif.g08.bks.cpg/sg2_23_cif.got.tgz:45723.got - 2010.06.03 11:33:40.
