data_PCOD9109761
_publ_section_title
;
Structure prediction by ZEFSAII (Michael W. Deem and Ramdas Pophale) SiO2 
 PCOD9109761
Probable space group: P -1
;
_chemical_formula_sum "Si O2"
_cell_formula_units_Z 14
_cell_length_a 20.178181
_cell_length_b 14.430956
_cell_length_c 6.442325
_cell_angle_alpha 112.257399
_cell_angle_beta 54.907124
_cell_angle_gamma 155.323741
_cell_volume 581.418552
_symmetry_space_group_name_H-M "P -1"
_symmetry_group_IT_number 2
_symmetry_cell_setting 'triclinic'
loop_
_space_group_symop_operation_xyz
x,y,z
-x,-y,-z
loop_
_atom_site_type_symbol
_atom_site_label
_atom_site_fract_x
_atom_site_fract_y
_atom_site_fract_z
Si Si1 0.001022 0.992633 0.247582
Si Si2 0.603349 0.794452 0.241064
Si Si3 0.689131 0.560563 0.179093
Si Si4 0.285997 0.747597 0.266331
Si Si5 0.148300 0.973271 0.378337
Si Si6 0.700111 0.425047 0.668322
Si Si7 0.889517 0.229239 0.374575
O O1 0.874613 0.950937 0.386248
O O2 0.877279 0.765267 0.171553
O O3 0.000000 0.000000 0.500000
O O4 0.221691 0.257979 0.990218
O O5 0.491173 0.621933 0.495985
O O6 0.448627 0.698528 0.337274
O O7 0.798133 0.068105 0.209867
O O8 0.684622 0.824273 0.924289
O O9 0.652821 0.425256 0.978098
O O10 0.307588 0.702096 0.390829
O O11 0.200598 0.761608 0.464232
O O12 0.124756 0.508813 0.209289
O O13 0.500000 0.000000 0.000000
O O14 0.176700 0.908829 0.419247
O O15 0.928226 0.709761 0.458025
#
# Coordination Sequence:
#
# PCOD9109761 Si02
#       7
#     2   2   2   2   2   2   2
#     4  10  22  41  66  96 128 168 218 265 317 383
#     4  12  23  40  66  95 130 170 216 262 317 383
#     4  10  21  39  64  92 127 167 210 262 317 373
#     4  10  20  41  67  90 127 171 211 260 320 379
#     4  10  23  42  63  92 131 168 211 268 322 377
#     4  10  23  42  64  94 131 172 214 263 320 380
#     4  10  24  41  61  95 130 165 213 265 318 382
#
# _framework density 24.079039999999999
#
# number of rings (size 3 to 8) (size 9 to 14) (size 15 to 20)
#    0.000    1.714    0.000    4.286    0.000   10.286 
#    0.000   15.000    0.000    0.000    0.000    0.000 
#    0.000    0.000    0.000    0.000    0.000    0.000 
#
# Total GULP energy -78176.868756 kJ/mol
# GULP energy per Si atom -5584.062054 kJ/mol
# Density = 2.402423 g / cm^3
# Si number density = 24.079040 Si / 1000 Ang^3
#
#
#
# Elastic Constant Matrix: (Units=GPa)
#
#
# Indices 1 2 3 4 5 6 
#
# 1 94.2903 23.4749 46.6992 -12.8696 10.7307 -3.6520
# 2 23.4749 94.8604 37.6920 -12.3973 4.6242 10.6930
# 3 46.6992 37.6920 134.0037 -22.6530 15.2361 3.4306
# 4 -12.8696 -12.3973 -22.6530 38.9067 8.8867 -1.1391
# 5 10.7307 4.6242 15.2361 8.8867 30.7688 -0.9126
# 6 -3.6520 10.6930 3.4306 -1.1391 -0.9126 32.7756
#
#
#
# Elastic Compliance Matrix: (Units=1/GPa)
#
#
# Indices 1 2 3 4 5 6 
#
# 1 0.013626 -0.001738 -0.003443 0.002826 -0.003530 0.002446
# 2 -0.001738 0.012705 -0.002404 0.002151 -0.000854 -0.004036
# 3 -0.003443 -0.002404 0.010952 0.005715 -0.005532 -0.000701
# 4 0.002826 0.002151 0.005715 0.033822 -0.013913 -0.000197
# 5 -0.003530 -0.000854 -0.005532 -0.013913 0.040651 0.001113
# 6 0.002446 -0.004036 -0.000701 -0.000197 0.001113 0.032197
#
#
# Mechanical properties :
#
#
# Convention : Reuss Voigt Hill
#
# Bulk Modulus (GPa) = 45.22461 59.87628 52.55045
# Shear Modulus (GPa) = 30.03138 34.84278 32.43708
#
# Velocity S-wave (km/s) = 3.53540 3.80809 3.67428
# Velocity P-wave (km/s) = 5.95718 6.65252 6.31443
#
# Compressibility (1/GPa) = 0.02211185
#
# Stress axis : x y z
#
# Youngs Moduli (GPa) = 73.39071 78.71094 91.31166
#
# Poissons Ratio (x) = 0.13681 0.31439
# Poissons Ratio (y) = 0.12756 0.21950
# Poissons Ratio (z) = 0.25269 0.18921
#
# Static dielectric constant tensor:
#      x y z
#    x 2.031500 -0.007260 0.019520 
#    y -0.007260 1.932530 -0.016460 
#    z 0.019520 -0.016460 1.921000 
# 
# From -- ./inp_files/124869.got.cif
#   From: 2010.05.17/outbox.cif.g08.bks.cpg/sg2_63_cif.got.tgz:124869.got - 2010.06.03 11:33:40.
