data_PCOD9109316
_publ_section_title
;
Structure prediction by ZEFSAII (Michael W. Deem and Ramdas Pophale) SiO2 
 PCOD9109316
Probable space group: P -1
;
_chemical_formula_sum "Si O2"
_cell_formula_units_Z 16
_cell_length_a 5.423433
_cell_length_b 24.586277
_cell_length_c 7.825631
_cell_angle_alpha 130.291450
_cell_angle_beta 63.674919
_cell_angle_gamma 90.262924
_cell_volume 649.783336
_symmetry_space_group_name_H-M "P -1"
_symmetry_group_IT_number 2
_symmetry_cell_setting 'triclinic'
loop_
_space_group_symop_operation_xyz
x,y,z
-x,-y,-z
loop_
_atom_site_type_symbol
_atom_site_label
_atom_site_fract_x
_atom_site_fract_y
_atom_site_fract_z
Si Si1 0.253234 0.462270 0.201412
Si Si2 0.116000 0.067807 0.646067
Si Si3 0.793161 0.829056 0.658023
Si Si4 0.805732 0.321056 0.893273
Si Si5 0.710681 0.988360 0.133465
Si Si6 0.559142 0.430046 0.472973
Si Si7 0.257339 0.375616 0.689914
Si Si8 0.770990 0.211822 0.236528
O O1 0.383670 0.528825 0.292634
O O2 0.000000 0.500000 0.500000
O O3 0.477506 0.377485 0.039043
O O4 0.184200 0.438680 0.990314
O O5 0.214550 0.047052 0.770252
O O6 0.388316 0.058484 0.416326
O O7 0.000000 0.000000 0.500000
O O8 0.887048 0.158390 0.922503
O O9 0.496276 0.814253 0.675061
O O10 0.066803 0.772234 0.339065
O O11 0.959746 0.803500 0.741848
O O12 0.684024 0.921947 0.887846
O O13 0.020305 0.339440 0.730123
O O14 0.811457 0.355912 0.150199
O O15 0.000000 0.000000 0.000000
O O16 0.500000 0.500000 0.500000
O O17 0.282855 0.408413 0.563617
O O18 0.589506 0.304533 0.458274
#
# Coordination Sequence:
#
# PCOD9109316 Si02
#       8
#     2   2   2   2   2   2   2   2
#     4  11  21  40  63  91 122 162 219 270 337 403
#     4  10  20  41  64  94 137 178 223 288 332 403
#     4  10  20  41  68  94 135 180 218 286 339 397
#     4  10  22  42  61  88 128 163 221 274 335 395
#     4  10  22  40  65 101 135 181 231 273 344 409
#     4  10  23  41  61  93 124 166 216 274 331 406
#     4  11  22  42  65  90 126 175 218 275 343 402
#     4  10  21  40  69  96 130 180 231 272 347 405
#
# _framework density 24.623591999999999
#
# number of rings (size 3 to 8) (size 9 to 14) (size 15 to 20)
#    0.000    1.750    3.750    0.375    0.000    2.500 
#    6.750    3.750    0.000    0.000    0.000    0.000 
#    0.000    0.000    0.000    0.000    0.000    0.000 
#
# Total GULP energy -89179.091887 kJ/mol
# GULP energy per Si atom -5573.693243 kJ/mol
# Density = 2.456755 g / cm^3
# Si number density = 24.623592 Si / 1000 Ang^3
#
#
#
# Elastic Constant Matrix: (Units=GPa)
#
#
# Indices 1 2 3 4 5 6 
#
# 1 50.0551 2.4022 14.1409 -13.0010 2.0419 6.6707
# 2 2.4022 64.4360 36.7679 -31.8951 -2.8559 5.3844
# 3 14.1409 36.7679 225.5080 13.3731 -9.8261 2.0495
# 4 -13.0010 -31.8951 13.3731 45.9146 6.2740 -4.5801
# 5 2.0419 -2.8559 -9.8261 6.2740 55.6030 2.8106
# 6 6.6707 5.3844 2.0495 -4.5801 2.8106 27.9938
#
#
#
# Elastic Compliance Matrix: (Units=1/GPa)
#
#
# Indices 1 2 3 4 5 6 
#
# 1 0.025011 0.008436 -0.003835 0.013923 -0.002493 -0.004773
# 2 0.008436 0.033741 -0.007806 0.028209 -0.002987 -0.003014
# 3 -0.003835 -0.007806 0.006537 -0.008632 0.001852 0.000338
# 4 0.013923 0.028209 -0.008632 0.048713 -0.006108 0.000472
# 5 -0.002493 -0.002987 0.001852 -0.006108 0.019034 -0.001878
# 6 -0.004773 -0.003014 0.000338 0.000472 -0.001878 0.037680
#
#
# Mechanical properties :
#
#
# Convention : Reuss Voigt Hill
#
# Bulk Modulus (GPa) = 16.98371 49.62456 33.30414
# Shear Modulus (GPa) = 25.41264 45.01481 35.21372
#
# Velocity S-wave (km/s) = 3.21603 4.28029 3.78574
# Velocity P-wave (km/s) = 4.55003 6.68018 5.71522
#
# Compressibility (1/GPa) = 0.05887994
#
# Stress axis : x y z
#
# Youngs Moduli (GPa) = 39.98296 29.63728 152.97302
#
# Poissons Ratio (x) = -0.25002 0.58661
# Poissons Ratio (y) = -0.33730 1.19410
# Poissons Ratio (z) = 0.15332 0.23135
#
# Static dielectric constant tensor:
#      x y z
#    x 2.221730 -0.009230 -0.007320 
#    y -0.009230 2.060020 0.047300 
#    z -0.007320 0.047300 1.998820 
# 
# From -- ./inp_files/143296.got.cif
#   From: 2010.05.17/outbox.cif.g08.bks.cpg/sg2_72_cif.got.tgz:143296.got - 2010.06.03 11:33:40.
