data_PCOD9109439
_publ_section_title
;
Structure prediction by ZEFSAII (Michael W. Deem and Ramdas Pophale) SiO2 
 PCOD9109439
Probable space group: P -1
;
_chemical_formula_sum "Si O2"
_cell_formula_units_Z 14
_cell_length_a 7.349309
_cell_length_b 17.109012
_cell_length_c 15.510641
_cell_angle_alpha 23.681443
_cell_angle_beta 47.615053
_cell_angle_gamma 55.939087
_cell_volume 567.717365
_symmetry_space_group_name_H-M "P -1"
_symmetry_group_IT_number 2
_symmetry_cell_setting 'triclinic'
loop_
_space_group_symop_operation_xyz
x,y,z
-x,-y,-z
loop_
_atom_site_type_symbol
_atom_site_label
_atom_site_fract_x
_atom_site_fract_y
_atom_site_fract_z
Si Si1 0.414705 0.593499 0.249535
Si Si2 0.381441 0.988974 0.257058
Si Si3 0.312943 0.287306 0.283399
Si Si4 0.041807 0.465132 0.920719
Si Si5 0.811683 0.800577 0.239086
Si Si6 0.332221 0.915228 0.536724
Si Si7 0.352312 0.159767 0.927920
O O1 0.191520 0.406114 0.502680
O O2 0.673635 0.546717 0.176849
O O3 0.412281 0.807778 0.993203
O O4 0.464231 0.655798 0.271683
O O5 0.223069 0.053373 0.163061
O O6 0.542205 0.842343 0.313289
O O7 0.257540 0.923166 0.453076
O O8 0.051946 0.364643 0.277763
O O9 0.409257 0.172546 0.449579
O O10 0.346656 0.131168 0.355176
O O11 0.500000 0.500000 0.000000
O O12 0.866285 0.248357 0.183272
O O13 0.000000 0.500000 0.000000
O O14 0.809702 0.778244 0.159207
O O15 0.000000 0.000000 0.000000
O O16 0.500000 0.000000 0.000000
#
# Coordination Sequence:
#
# PCOD9109439 Si02
#       7
#     2   2   2   2   2   2   2
#     4  10  22  39  69  94 131 173 217 268 334 386
#     4   9  21  39  65  91 127 173 216 260 330 391
#     4   9  21  40  61  89 137 172 212 265 319 365
#     4  11  22  37  65 100 130 170 219 260 316 396
#     4  11  22  42  66  95 129 168 215 283 334 386
#     4  10  20  41  65  91 138 173 211 265 317 390
#     4   8  19  43  65  90 127 167 220 274 324 388
#
# _framework density 24.660157999999999
#
# number of rings (size 3 to 8) (size 9 to 14) (size 15 to 20)
#    0.857    1.429    0.000    2.143    0.000    5.143 
#    7.714    1.429    0.000    0.000    0.000    0.000 
#    0.000    0.000    0.000    0.000    0.000    0.000 
#
# Total GULP energy -78030.691717 kJ/mol
# GULP energy per Si atom -5573.620837 kJ/mol
# Density = 2.460403 g / cm^3
# Si number density = 24.660158 Si / 1000 Ang^3
#
#
#
# Elastic Constant Matrix: (Units=GPa)
#
#
# Indices 1 2 3 4 5 6 
#
# 1 46.1348 30.0452 22.7312 5.1027 1.6733 -2.2252
# 2 30.0452 118.1649 26.1305 -9.1495 8.9300 -8.9231
# 3 22.7312 26.1305 151.8833 -14.7449 4.8626 10.0215
# 4 5.1027 -9.1495 -14.7449 22.9556 5.9033 3.7889
# 5 1.6733 8.9300 4.8626 5.9033 34.3444 -11.8578
# 6 -2.2252 -8.9231 10.0215 3.7889 -11.8578 43.0602
#
#
#
# Elastic Compliance Matrix: (Units=1/GPa)
#
#
# Indices 1 2 3 4 5 6 
#
# 1 0.031251 -0.008100 -0.005233 -0.015583 0.005387 0.004009
# 2 -0.008100 0.011374 0.000067 0.007297 -0.003740 0.000251
# 3 -0.005233 0.000067 0.008550 0.008321 -0.003792 -0.004023
# 4 -0.015583 0.007297 0.008321 0.061448 -0.016763 -0.011253
# 5 0.005387 -0.003740 -0.003792 -0.016763 0.037448 0.012173
# 6 0.004009 0.000251 -0.004023 -0.011253 0.012173 0.028761
#
#
# Mechanical properties :
#
#
# Convention : Reuss Voigt Hill
#
# Bulk Modulus (GPa) = 40.57960 52.66630 46.62295
# Shear Modulus (GPa) = 23.41058 35.89047 29.65052
#
# Velocity S-wave (km/s) = 3.08446 3.81911 3.47128
# Velocity P-wave (km/s) = 5.40152 6.39146 5.91723
#
# Compressibility (1/GPa) = 0.02464292
#
# Stress axis : x y z
#
# Youngs Moduli (GPa) = 31.99944 87.92003 116.95317
#
# Poissons Ratio (x) = 0.71212 0.61206
# Poissons Ratio (y) = 0.25918 -0.00783
# Poissons Ratio (z) = 0.16747 -0.00589
#
# Static dielectric constant tensor:
#      x y z
#    x 2.098270 -0.057230 -0.074440 
#    y -0.057230 1.924520 -0.035420 
#    z -0.074440 -0.035420 2.040320 
# 
# From -- ./inp_files/562301.got.cif
#   From: 2010.05.17/outbox.cif.g08.bks.cpg/sg2_282_cif.got.tgz:562301.got - 2010.06.03 11:33:40.
