data_PCOD9109628
_publ_section_title
;
Structure prediction by ZEFSAII (Michael W. Deem and Ramdas Pophale) SiO2 
 PCOD9109628
Probable space group: P -1
;
_chemical_formula_sum "Si O2"
_cell_formula_units_Z 16
_cell_length_a 7.712864
_cell_length_b 13.836879
_cell_length_c 6.799897
_cell_angle_alpha 77.656956
_cell_angle_beta 80.874193
_cell_angle_gamma 67.309335
_cell_volume 651.715732
_symmetry_space_group_name_H-M "P -1"
_symmetry_group_IT_number 2
_symmetry_cell_setting 'triclinic'
loop_
_space_group_symop_operation_xyz
x,y,z
-x,-y,-z
loop_
_atom_site_type_symbol
_atom_site_label
_atom_site_fract_x
_atom_site_fract_y
_atom_site_fract_z
Si Si1 0.567397 0.283193 0.405976
Si Si2 0.930265 0.204400 0.655572
Si Si3 0.147476 0.181151 0.960562
Si Si4 0.529630 0.913621 0.359838
Si Si5 0.351180 0.325744 0.056599
Si Si6 0.064617 0.357824 0.425705
Si Si7 0.105683 0.001591 0.275400
Si Si8 0.713182 0.551001 0.376225
O O1 0.751647 0.237817 0.528504
O O2 0.462468 0.200818 0.512908
O O3 0.541081 0.288241 0.172086
O O4 0.456619 0.401057 0.460735
O O5 0.077725 0.236182 0.481925
O O6 0.948510 0.088787 0.781681
O O7 0.968281 0.255623 0.830362
O O8 0.295643 0.103753 0.808746
O O9 0.279562 0.236413 0.015713
O O10 0.061771 0.117670 0.149629
O O11 0.331284 0.958185 0.263716
O O12 0.500000 0.000000 0.500000
O O13 0.182997 0.380586 0.217584
O O14 0.357328 0.401662 0.845019
O O15 0.844625 0.428704 0.408383
O O16 0.142464 0.394704 0.590487
O O17 0.000000 0.000000 0.500000
#
# Coordination Sequence:
#
# PCOD9109628 Si02
#       8
#     2   2   2   2   2   2   2   2
#     4  10  23  41  61  94 135 170 206 281 328 385
#     4  11  23  42  59  92 137 165 213 269 339 383
#     4  12  22  42  71  97 128 182 227 265 327 403
#     4  11  22  41  66  95 132 176 229 267 321 394
#     4  11  20  40  67  95 124 167 226 265 322 389
#     4  10  21  39  67  95 126 170 215 279 322 388
#     4  11  24  40  61  97 137 171 216 276 335 389
#     4  10  20  41  66  93 126 168 226 263 326 392
#
# _framework density 24.550581999999999
#
# number of rings (size 3 to 8) (size 9 to 14) (size 15 to 20)
#    0.000    1.250    2.500    4.125    0.000    0.500 
#    6.750    0.625    0.000    0.000    0.000    0.000 
#    0.000    0.000    0.000    0.000    0.000    0.000 
#
# Total GULP energy -89137.542514 kJ/mol
# GULP energy per Si atom -5571.096407 kJ/mol
# Density = 2.449470 g / cm^3
# Si number density = 24.550582 Si / 1000 Ang^3
#
#
#
# Elastic Constant Matrix: (Units=GPa)
#
#
# Indices 1 2 3 4 5 6 
#
# 1 124.6600 5.2870 36.7418 -2.1827 21.7346 0.1076
# 2 5.2870 57.5610 17.2427 11.7498 4.5781 6.7100
# 3 36.7418 17.2427 129.6529 -5.3737 26.8273 -0.9276
# 4 -2.1827 11.7498 -5.3737 29.0331 -5.0927 -0.2315
# 5 21.7346 4.5781 26.8273 -5.0927 40.7771 -5.9223
# 6 0.1076 6.7100 -0.9276 -0.2315 -5.9223 31.7190
#
#
#
# Elastic Compliance Matrix: (Units=1/GPa)
#
#
# Indices 1 2 3 4 5 6 
#
# 1 0.009235 0.000206 -0.001862 -0.000425 -0.003899 -0.000860
# 2 0.000206 0.020892 -0.002732 -0.009436 -0.002570 -0.005049
# 3 -0.001862 -0.002732 0.009684 0.001910 -0.004836 -0.000022
# 4 -0.000425 -0.009436 0.001910 0.039568 0.005459 0.003362
# 5 -0.003899 -0.002570 -0.004836 0.005459 0.031679 0.006370
# 6 -0.000860 -0.005049 -0.000022 0.003362 0.006370 0.033811
#
#
# Mechanical properties :
#
#
# Convention : Reuss Voigt Hill
#
# Bulk Modulus (GPa) = 32.22176 47.82410 40.02293
# Shear Modulus (GPa) = 30.49002 37.14599 33.81800
#
# Velocity S-wave (km/s) = 3.52792 3.89400 3.71547
# Velocity P-wave (km/s) = 5.45418 6.30395 5.89440
#
# Compressibility (1/GPa) = 0.03103493
#
# Stress axis : x y z
#
# Youngs Moduli (GPa) = 108.28635 47.86634 103.26781
#
# Poissons Ratio (x) = -0.00988 0.19223
# Poissons Ratio (y) = -0.02236 0.28217
# Poissons Ratio (z) = 0.20158 0.13079
#
# Static dielectric constant tensor:
#      x y z
#    x 1.988340 -0.033660 0.071480 
#    y -0.033660 2.089590 -0.016220 
#    z 0.071480 -0.016220 2.029410 
# 
# From -- ./inp_files/38006.got.cif
#   From: 2010.05.17/outbox.cif.g08.bks.cpg/sg2_20_cif.got.tgz:38006.got - 2010.06.03 11:33:40.
