data_PCOD9109979
_publ_section_title
;
Structure prediction by ZEFSAII (Michael W. Deem and Ramdas Pophale) SiO2 
 PCOD9109979
Probable space group: P -1
;
_chemical_formula_sum "Si O2"
_cell_formula_units_Z 16
_cell_length_a 11.911204
_cell_length_b 11.694368
_cell_length_c 6.183365
_cell_angle_alpha 95.616596
_cell_angle_beta 95.458988
_cell_angle_gamma 63.094361
_cell_volume 763.128970
_symmetry_space_group_name_H-M "P -1"
_symmetry_group_IT_number 2
_symmetry_cell_setting 'triclinic'
loop_
_space_group_symop_operation_xyz
x,y,z
-x,-y,-z
loop_
_atom_site_type_symbol
_atom_site_label
_atom_site_fract_x
_atom_site_fract_y
_atom_site_fract_z
Si Si1 0.582905 0.887826 0.658377
Si Si2 0.595622 0.424975 0.812528
Si Si3 0.245788 0.782286 0.894273
Si Si4 0.248275 0.047254 0.002558
Si Si5 0.997260 0.227339 0.256577
Si Si6 0.943310 0.507036 0.236158
Si Si7 0.188189 0.214832 0.624168
Si Si8 0.485100 0.679047 0.613072
O O1 0.630907 0.945686 0.871132
O O2 0.714038 0.800221 0.546973
O O3 0.519284 0.795373 0.679595
O O4 0.500000 0.000000 0.500000
O O5 0.593431 0.542022 0.691955
O O6 0.539359 0.347779 0.642283
O O7 0.500000 0.500000 0.000000
O O8 0.722029 0.319966 0.924039
O O9 0.107379 0.822604 0.784135
O O10 0.354280 0.714510 0.721873
O O11 0.257221 0.907207 0.999788
O O12 0.116089 0.147698 0.106687
O O13 0.243292 0.092697 0.765561
O O14 0.926565 0.378194 0.213304
O O15 0.061611 0.220001 0.498595
O O16 0.837142 0.653123 0.240069
O O17 0.000000 0.500000 0.500000
O O18 0.000000 0.500000 0.000000
#
# Coordination Sequence:
#
# PCOD9109979 Si02
#       8
#     2   2   2   2   2   2   2   2
#     4  11  24  41  64  94 130 168 218 274 329 403
#     4   9  21  41  62  89 125 160 208 260 317 392
#     4  11  23  39  64  93 125 169 215 265 326 402
#     4  11  23  41  64  90 125 171 214 266 334 396
#     4  10  23  41  61  93 131 166 213 274 334 398
#     4  10  20  41  68  96 136 174 226 284 341 409
#     4  10  23  40  64  93 128 167 219 275 336 404
#     4  10  22  41  63  92 127 165 211 266 329 386
#
# _framework density 20.96631
#
# number of rings (size 3 to 8) (size 9 to 14) (size 15 to 20)
#    0.000    1.750    1.250    1.875    0.000   10.500 
#    0.000    0.000    0.000    0.000    0.000    0.000 
#    0.000    0.000    0.000    0.000    0.000    0.000 
#
# Total GULP energy -89142.649837 kJ/mol
# GULP energy per Si atom -5571.415615 kJ/mol
# Density = 2.091859 g / cm^3
# Si number density = 20.966310 Si / 1000 Ang^3
#
#
#
# Elastic Constant Matrix: (Units=GPa)
#
#
# Indices 1 2 3 4 5 6 
#
# 1 93.8539 18.8611 36.4891 -1.9337 21.0014 7.7741
# 2 18.8611 74.5380 15.1916 2.6630 16.0164 7.7160
# 3 36.4891 15.1916 83.4193 -2.3921 16.6485 6.7107
# 4 -1.9337 2.6630 -2.3921 40.8283 -4.6064 0.4835
# 5 21.0014 16.0164 16.6485 -4.6064 27.7846 6.5603
# 6 7.7741 7.7160 6.7107 0.4835 6.5603 25.1257
#
#
#
# Elastic Compliance Matrix: (Units=1/GPa)
#
#
# Indices 1 2 3 4 5 6 
#
# 1 0.014350 -0.001007 -0.004555 -0.000340 -0.007360 -0.000986
# 2 -0.001007 0.015781 -0.000778 -0.001959 -0.007654 -0.002291
# 3 -0.004555 -0.000778 0.015200 0.000184 -0.004919 -0.001131
# 4 -0.000340 -0.001959 0.000184 0.025284 0.005784 -0.001339
# 5 -0.007360 -0.007654 -0.004919 0.005784 0.051682 -0.007664
# 6 -0.000986 -0.002291 -0.001131 -0.001339 -0.007664 0.043137
#
#
# Mechanical properties :
#
#
# Convention : Reuss Voigt Hill
#
# Bulk Modulus (GPa) = 30.62707 43.65499 37.14103
# Shear Modulus (GPa) = 26.45545 30.83235 28.64390
#
# Velocity S-wave (km/s) = 3.55605 3.83896 3.70021
# Velocity P-wave (km/s) = 5.61249 6.36528 6.00070
#
# Compressibility (1/GPa) = 0.03265086
#
# Stress axis : x y z
#
# Youngs Moduli (GPa) = 69.68746 63.36728 65.79113
#
# Poissons Ratio (x) = 0.06381 0.29968
# Poissons Ratio (y) = 0.07017 0.05117
# Poissons Ratio (z) = 0.31743 0.04929
#
# Static dielectric constant tensor:
#      x y z
#    x 1.756780 -0.007770 -0.002560 
#    y -0.007770 1.758680 -0.004960 
#    z -0.002560 -0.004960 1.820320 
# 
# From -- ./inp_files/71286.got.cif
#   From: 2010.05.17/outbox.cif.g08.bks.cpg/sg2_36_cif.got.tgz:71286.got - 2010.06.03 11:33:40.
