data_PCOD9109063
_publ_section_title
;
Structure prediction by ZEFSAII (Michael W. Deem and Ramdas Pophale) SiO2 
 PCOD9109063
Probable space group: P -1
;
_chemical_formula_sum "Si O2"
_cell_formula_units_Z 16
_cell_length_a 8.260398
_cell_length_b 11.569570
_cell_length_c 9.898919
_cell_angle_alpha 94.833626
_cell_angle_beta 93.759691
_cell_angle_gamma 43.560943
_cell_volume 649.602621
_symmetry_space_group_name_H-M "P -1"
_symmetry_group_IT_number 2
_symmetry_cell_setting 'triclinic'
loop_
_space_group_symop_operation_xyz
x,y,z
-x,-y,-z
loop_
_atom_site_type_symbol
_atom_site_label
_atom_site_fract_x
_atom_site_fract_y
_atom_site_fract_z
Si Si1 0.557084 0.008730 0.155411
Si Si2 0.785465 0.134882 0.144425
Si Si3 0.397960 0.157808 0.600837
Si Si4 0.955022 0.634887 0.812617
Si Si5 0.721295 0.515370 0.749007
Si Si6 0.773686 0.336299 0.966263
Si Si7 0.101239 0.030032 0.395280
Si Si8 0.928683 0.380485 0.467943
O O1 0.728113 0.029047 0.145223
O O2 0.301462 0.177985 0.215923
O O3 0.651128 0.867037 0.254306
O O4 0.500000 0.000000 0.000000
O O5 0.544135 0.315812 0.209072
O O6 0.821395 0.182423 0.008628
O O7 0.993507 0.061620 0.246993
O O8 0.165354 0.321121 0.530222
O O9 0.500000 0.000000 0.500000
O O10 0.618802 0.127742 0.613947
O O11 0.885687 0.535959 0.816331
O O12 0.119120 0.563549 0.683707
O O13 0.071758 0.650015 0.938963
O O14 0.743771 0.492566 0.587691
O O15 0.797619 0.358584 0.813802
O O16 0.500000 0.500000 0.000000
O O17 0.012278 0.203629 0.449179
O O18 0.000000 0.000000 0.500000
#
# Coordination Sequence:
#
# PCOD9109063 Si02
#       8
#     2   2   2   2   2   2   2   2
#     4  11  23  40  68  93 120 171 221 257 314 388
#     4  10  21  43  66  91 133 166 207 272 325 367
#     4  10  20  41  62  89 129 164 209 258 312 376
#     4  11  21  43  65  87 130 170 210 265 319 373
#     4  10  24  38  68  95 124 172 217 258 313 385
#     4  10  21  43  61  90 130 168 205 262 324 374
#     4  11  22  40  68  91 131 169 201 265 333 364
#     4  11  22  41  64  96 129 168 218 257 308 393
#
# _framework density 24.630443
#
# number of rings (size 3 to 8) (size 9 to 14) (size 15 to 20)
#    0.000    1.500    3.750    2.250    3.500    0.500 
#    2.250    1.250    0.000    0.000    0.000    0.000 
#    0.000    0.000    0.000    0.000    0.000    0.000 
#
# Total GULP energy -89556.551623 kJ/mol
# GULP energy per Si atom -5597.284476 kJ/mol
# Density = 2.457438 g / cm^3
# Si number density = 24.630443 Si / 1000 Ang^3
#
#
#
# Elastic Constant Matrix: (Units=GPa)
#
#
# Indices 1 2 3 4 5 6 
#
# 1 108.2318 15.5357 23.0594 -12.2373 -7.7358 -4.7466
# 2 15.5357 56.1894 9.0958 -10.0977 -4.6090 -0.4823
# 3 23.0594 9.0958 117.1068 -12.8279 -24.0971 5.3093
# 4 -12.2373 -10.0977 -12.8279 40.8860 4.9092 -3.0573
# 5 -7.7358 -4.6090 -24.0971 4.9092 47.3775 -7.6164
# 6 -4.7466 -0.4823 5.3093 -3.0573 -7.6164 31.3316
#
#
#
# Elastic Compliance Matrix: (Units=1/GPa)
#
#
# Indices 1 2 3 4 5 6 
#
# 1 0.010270 -0.002120 -0.001557 0.002128 0.000811 0.002192
# 2 -0.002120 0.019248 -0.000478 0.003901 0.000988 0.000677
# 3 -0.001557 -0.000478 0.010056 0.001981 0.004503 -0.000659
# 4 0.002128 0.003901 0.001981 0.026947 -0.000653 0.002518
# 5 0.000811 0.000988 0.004503 -0.000653 0.024542 0.005277
# 6 0.002192 0.000677 -0.000659 0.002518 0.005277 0.033899
#
#
# Mechanical properties :
#
#
# Convention : Reuss Voigt Hill
#
# Bulk Modulus (GPa) = 31.98371 41.87888 36.93130
# Shear Modulus (GPa) = 34.79617 39.50816 37.15217
#
# Velocity S-wave (km/s) = 3.76271 4.00939 3.88801
# Velocity P-wave (km/s) = 5.64721 6.20269 5.93146
#
# Compressibility (1/GPa) = 0.03126591
#
# Stress axis : x y z
#
# Youngs Moduli (GPa) = 97.36959 51.95256 99.43928
#
# Poissons Ratio (x) = 0.11013 0.15484
# Poissons Ratio (y) = 0.20640 0.04750
# Poissons Ratio (z) = 0.15161 0.02482
#
# Static dielectric constant tensor:
#      x y z
#    x 1.925420 0.133970 -0.151070 
#    y 0.133970 2.036460 0.098840 
#    z -0.151070 0.098840 1.782990 
# 
# From -- ./inp_files/188664.got.cif
#   From: 2010.05.17/outbox.cif.g08.bks.cpg/sg2_95_cif.got.tgz:188664.got - 2010.06.03 11:33:40.
