data_PCOD9109274
_publ_section_title
;
Structure prediction by ZEFSAII (Michael W. Deem and Ramdas Pophale) SiO2 
 PCOD9109274
Probable space group: P -1
;
_chemical_formula_sum "Si O2"
_cell_formula_units_Z 14
_cell_length_a 9.648520
_cell_length_b 5.851411
_cell_length_c 16.790256
_cell_angle_alpha 79.929083
_cell_angle_beta 59.215197
_cell_angle_gamma 47.854668
_cell_volume 582.281201
_symmetry_space_group_name_H-M "P -1"
_symmetry_group_IT_number 2
_symmetry_cell_setting 'triclinic'
loop_
_space_group_symop_operation_xyz
x,y,z
-x,-y,-z
loop_
_atom_site_type_symbol
_atom_site_label
_atom_site_fract_x
_atom_site_fract_y
_atom_site_fract_z
Si Si1 0.757998 0.229532 0.519588
Si Si2 0.958614 0.202896 0.188196
Si Si3 0.374836 0.321268 0.613172
Si Si4 0.275058 0.280648 0.098134
Si Si5 0.571269 0.164581 0.143482
Si Si6 0.206470 0.541504 0.944078
Si Si7 0.360350 0.865453 0.690623
O O1 0.639779 0.098166 0.550260
O O2 0.737655 0.391374 0.433140
O O3 0.569389 0.520828 0.615034
O O4 0.000000 0.000000 0.500000
O O5 0.746094 0.529935 0.274779
O O6 0.966066 0.229506 0.089248
O O7 0.878208 0.022884 0.239039
O O8 0.164413 0.146655 0.163598
O O9 0.329009 0.102045 0.623291
O O10 0.346136 0.368114 0.145560
O O11 0.132775 0.549110 0.054666
O O12 0.500000 0.000000 0.000000
O O13 0.660724 0.343228 0.094064
O O14 0.563435 0.151222 0.241402
O O15 0.687504 0.805768 0.100833
#
# Coordination Sequence:
#
# PCOD9109274 Si02
#       7
#     2   2   2   2   2   2   2
#     4  10  23  42  71 100 137 178 224 290 354 428
#     4  10  21  41  64  93 131 184 230 281 347 414
#     4  10  21  43  66  99 137 174 235 281 353 425
#     4  10  22  41  62  96 136 177 233 293 343 407
#     4  10  21  40  65  95 134 176 229 292 344 409
#     4  10  20  41  64  91 131 180 231 285 346 406
#     4  10  21  42  70  97 138 184 229 285 349 429
#
# _framework density 24.043365999999999
#
# number of rings (size 3 to 8) (size 9 to 14) (size 15 to 20)
#    0.000    2.000    1.429    1.286    0.000    1.714 
#   15.429    9.286    0.000    0.000    0.000    0.000 
#    0.000    0.000    0.000    0.000    0.000    0.000 
#
# Total GULP energy -77954.477559 kJ/mol
# GULP energy per Si atom -5568.176968 kJ/mol
# Density = 2.398864 g / cm^3
# Si number density = 24.043366 Si / 1000 Ang^3
#
#
#
# Elastic Constant Matrix: (Units=GPa)
#
#
# Indices 1 2 3 4 5 6 
#
# 1 165.6229 21.1507 51.0703 -19.3799 -21.6570 19.6345
# 2 21.1507 67.1862 30.6395 -3.0052 -18.3614 18.9463
# 3 51.0703 30.6395 111.1787 -12.3382 -9.7732 13.5547
# 4 -19.3799 -3.0052 -12.3382 34.8085 8.5228 -2.9504
# 5 -21.6570 -18.3614 -9.7732 8.5228 51.7743 3.7323
# 6 19.6345 18.9463 13.5547 -2.9504 3.7323 34.0486
#
#
#
# Elastic Compliance Matrix: (Units=1/GPa)
#
#
# Indices 1 2 3 4 5 6 
#
# 1 0.007968 0.000872 -0.002875 0.002416 0.002994 -0.004055
# 2 0.000872 0.022465 -0.004583 -0.002388 0.008750 -0.012346
# 3 -0.002875 -0.004583 0.011778 0.002407 -0.000989 -0.000164
# 4 0.002416 -0.002388 0.002407 0.032097 -0.004831 0.002288
# 5 0.002994 0.008750 -0.000989 -0.004831 0.024953 -0.009356
# 6 -0.004055 -0.012346 -0.000164 0.002288 -0.009356 0.039867
#
#
# Mechanical properties :
#
#
# Convention : Reuss Voigt Hill
#
# Bulk Modulus (GPa) = 34.43387 61.07875 47.75631
# Shear Modulus (GPa) = 30.86830 40.20142 35.53486
#
# Velocity S-wave (km/s) = 3.58699 4.09349 3.84858
# Velocity P-wave (km/s) = 5.61319 6.91382 6.29718
#
# Compressibility (1/GPa) = 0.02904118
#
# Stress axis : x y z
#
# Youngs Moduli (GPa) = 125.50644 44.51356 84.90273
#
# Poissons Ratio (x) = -0.03884 0.24408
# Poissons Ratio (y) = -0.10950 0.38907
# Poissons Ratio (z) = 0.36081 0.20399
#
# Static dielectric constant tensor:
#      x y z
#    x 2.036740 0.009970 0.017600 
#    y 0.009970 1.608680 0.116500 
#    z 0.017600 0.116500 1.853650 
# 
# From -- ./inp_files/552553.got.cif
#   From: 2010.05.17/outbox.cif.g08.bks.cpg/sg2_277_cif.got.tgz:552553.got - 2010.06.03 11:33:40.
