data_PCOD9109074
_publ_section_title
;
Structure prediction by ZEFSAII (Michael W. Deem and Ramdas Pophale) SiO2 
 PCOD9109074
Probable space group: P -1
;
_chemical_formula_sum "Si O2"
_cell_formula_units_Z 10
_cell_length_a 6.053361
_cell_length_b 12.138844
_cell_length_c 10.395591
_cell_angle_alpha 144.950678
_cell_angle_beta 85.131969
_cell_angle_gamma 80.849741
_cell_volume 400.735657
_symmetry_space_group_name_H-M "P -1"
_symmetry_group_IT_number 2
_symmetry_cell_setting 'triclinic'
loop_
_space_group_symop_operation_xyz
x,y,z
-x,-y,-z
loop_
_atom_site_type_symbol
_atom_site_label
_atom_site_fract_x
_atom_site_fract_y
_atom_site_fract_z
Si Si1 0.384580 0.834706 0.365804
Si Si2 0.691782 0.523037 0.230920
Si Si3 0.184284 0.204014 0.309746
Si Si4 0.347938 0.434979 0.339658
Si Si5 0.053578 0.908268 0.200587
O O1 0.605738 0.620994 0.189689
O O2 0.224218 0.854890 0.267462
O O3 0.500000 0.000000 0.500000
O O4 0.197628 0.913302 0.570256
O O5 0.702204 0.708667 0.496458
O O6 0.493073 0.437881 0.207959
O O7 0.942792 0.320984 0.044444
O O8 0.317513 0.228262 0.196128
O O9 0.913205 0.377667 0.473776
O O10 0.157103 0.996131 0.160830
O O11 0.500000 0.500000 0.500000
#
# Coordination Sequence:
#
# PCOD9109074 Si02
#       5
#     2   2   2   2   2
#     4  11  23  42  60  89 127 158 198 255 293 348
#     4  11  22  40  64  91 121 161 198 244 303 354
#     4  10  20  41  62  91 123 155 201 249 294 360
#     4   9  20  39  65  87 125 156 193 256 299 349
#     4  11  24  39  64  91 120 160 205 241 298 364
#
# _framework density 24.954104999999998
#
# number of rings (size 3 to 8) (size 9 to 14) (size 15 to 20)
#    0.000    1.600    4.000    0.600    0.000    3.200 
#    0.000    9.000    0.000    0.000    0.000    0.000 
#    0.000    0.000    0.000    0.000    0.000    0.000 
#
# Total GULP energy -55881.408147 kJ/mol
# GULP energy per Si atom -5588.140815 kJ/mol
# Density = 2.489731 g / cm^3
# Si number density = 24.954105 Si / 1000 Ang^3
#
#
#
# Elastic Constant Matrix: (Units=GPa)
#
#
# Indices 1 2 3 4 5 6 
#
# 1 66.5527 25.9520 -3.0285 2.3449 -9.5666 -4.0196
# 2 25.9520 135.9234 15.2621 38.8248 0.9956 12.0680
# 3 -3.0285 15.2621 44.1795 22.9786 -2.4197 4.9891
# 4 2.3449 38.8248 22.9786 50.6051 4.0383 -2.5146
# 5 -9.5666 0.9956 -2.4197 4.0383 26.7867 3.0619
# 6 -4.0196 12.0680 4.9891 -2.5146 3.0619 45.7907
#
#
#
# Elastic Compliance Matrix: (Units=1/GPa)
#
#
# Indices 1 2 3 4 5 6 
#
# 1 0.017740 -0.004127 0.002293 0.000898 0.006330 0.002021
# 2 -0.004127 0.010885 0.000952 -0.008779 -0.000033 -0.003814
# 3 0.002293 0.000952 0.031687 -0.015992 0.006608 -0.004822
# 4 0.000898 -0.008779 -0.015992 0.034577 -0.006751 0.006485
# 5 0.006330 -0.000033 0.006608 -0.006751 0.041587 -0.003307
# 6 0.002021 -0.003814 -0.004822 0.006485 -0.003307 0.024124
#
#
# Mechanical properties :
#
#
# Convention : Reuss Voigt Hill
#
# Bulk Modulus (GPa) = 17.08023 35.89188 26.48606
# Shear Modulus (GPa) = 27.49080 38.53450 33.01265
#
# Velocity S-wave (km/s) = 3.32272 3.93391 3.64116
# Velocity P-wave (km/s) = 4.64544 5.92019 5.32112
#
# Compressibility (1/GPa) = 0.05854721
#
# Stress axis : x y z
#
# Youngs Moduli (GPa) = 56.37114 91.87314 31.55819
#
# Poissons Ratio (x) = 0.37915 -0.07236
# Poissons Ratio (y) = 0.23264 -0.03004
# Poissons Ratio (z) = -0.12925 -0.08745
#
# Static dielectric constant tensor:
#      x y z
#    x 1.936800 0.025540 -0.003080 
#    y 0.025540 1.978320 -0.055100 
#    z -0.003080 -0.055100 2.187060 
# 
# From -- ./inp_files/1437.got.cif
#   From: 2010.05.17/outbox.cif.g08.bks.cpg/sg2_1_cif.got.tgz:1437.got - 2010.06.03 11:33:40.
