data_PCOD9109655
_publ_section_title
;
Structure prediction by ZEFSAII (Michael W. Deem and Ramdas Pophale) SiO2 
 PCOD9109655
Probable space group: P -1
;
_chemical_formula_sum "Si O2"
_cell_formula_units_Z 14
_cell_length_a 9.589140
_cell_length_b 16.643737
_cell_length_c 5.769574
_cell_angle_alpha 78.245793
_cell_angle_beta 96.108126
_cell_angle_gamma 37.254003
_cell_volume 486.485426
_symmetry_space_group_name_H-M "P -1"
_symmetry_group_IT_number 2
_symmetry_cell_setting 'triclinic'
loop_
_space_group_symop_operation_xyz
x,y,z
-x,-y,-z
loop_
_atom_site_type_symbol
_atom_site_label
_atom_site_fract_x
_atom_site_fract_y
_atom_site_fract_z
Si Si1 0.714180 0.281048 0.271450
Si Si2 0.437381 0.153317 0.547955
Si Si3 0.236890 0.590948 0.490290
Si Si4 0.114885 0.995941 0.807066
Si Si5 0.689277 0.757665 0.018830
Si Si6 0.253454 0.430088 0.359765
Si Si7 0.957810 0.829628 0.974397
O O1 0.803419 0.329366 0.344814
O O2 0.429605 0.396685 0.233129
O O3 0.786462 0.252873 0.034631
O O4 0.898036 0.118721 0.501574
O O5 0.339623 0.180516 0.774256
O O6 0.389653 0.275158 0.486838
O O7 0.310451 0.193699 0.255600
O O8 0.722007 0.973944 0.686482
O O9 0.500000 0.500000 0.500000
O O10 0.258056 0.482910 0.565762
O O11 0.049554 0.699200 0.171627
O O12 0.419991 0.836013 0.904157
O O13 0.000000 0.000000 0.000000
O O14 0.120306 0.085218 0.857267
O O15 0.948338 0.575628 0.170120
#
# Coordination Sequence:
#
# PCOD9109655 Si02
#       7
#     2   2   2   2   2   2   2
#     4  10  20  41  66  94 135 174 234 279 341 406
#     4  11  24  45  72  98 142 178 228 287 344 412
#     4   9  22  44  63  97 136 179 230 281 344 406
#     4  10  21  37  67  95 134 177 227 284 337 409
#     4  11  24  46  66 104 143 178 228 285 348 409
#     4  11  24  42  67 100 136 183 224 288 348 406
#     4  10  21  40  68  98 130 176 232 288 334 408
#
# _framework density 28.777844000000002
#
# number of rings (size 3 to 8) (size 9 to 14) (size 15 to 20)
#    0.000    1.714    1.429    2.571    2.000    3.429 
#   12.857    7.143    0.000    0.000    0.000    0.000 
#    0.000    0.000    0.000    0.000    0.000    0.000 
#
# Total GULP energy -78110.511210 kJ/mol
# GULP energy per Si atom -5579.322229 kJ/mol
# Density = 2.871234 g / cm^3
# Si number density = 28.777844 Si / 1000 Ang^3
#
#
#
# Elastic Constant Matrix: (Units=GPa)
#
#
# Indices 1 2 3 4 5 6 
#
# 1 116.6128 69.8102 46.7467 -18.4239 -7.3730 -45.8675
# 2 69.8102 175.4357 42.1562 -8.8707 -5.4141 -9.4972
# 3 46.7467 42.1562 134.1178 -7.1253 12.8029 -26.2450
# 4 -18.4239 -8.8707 -7.1253 44.2929 -0.0807 -1.2834
# 5 -7.3730 -5.4141 12.8029 -0.0807 40.8736 6.0114
# 6 -45.8675 -9.4972 -26.2450 -1.2834 6.0114 64.6515
#
#
#
# Elastic Compliance Matrix: (Units=1/GPa)
#
#
# Indices 1 2 3 4 5 6 
#
# 1 0.018604 -0.005874 -0.002209 0.006540 0.001603 0.011420
# 2 -0.005874 0.008145 -0.001381 -0.001138 0.000986 -0.003645
# 3 -0.002209 -0.001381 0.009542 0.000404 -0.003934 0.002477
# 4 0.006540 -0.001138 0.000404 0.025283 0.000199 0.005120
# 5 0.001603 0.000986 -0.003934 0.000199 0.026526 -0.002777
# 6 0.011420 -0.003645 0.002477 0.005120 -0.002777 0.024399
#
#
# Mechanical properties :
#
#
# Convention : Reuss Voigt Hill
#
# Bulk Modulus (GPa) = 57.59221 82.62138 70.10680
# Shear Modulus (GPa) = 36.43960 47.79381 42.11671
#
# Velocity S-wave (km/s) = 3.56228 4.07969 3.82974
# Velocity P-wave (km/s) = 6.08079 7.13893 6.63100
#
# Compressibility (1/GPa) = 0.01736346
#
# Stress axis : x y z
#
# Youngs Moduli (GPa) = 53.75327 122.77970 104.80219
#
# Poissons Ratio (x) = 0.72116 0.23150
# Poissons Ratio (y) = 0.31573 0.14470
# Poissons Ratio (z) = 0.11874 0.16952
#
# Static dielectric constant tensor:
#      x y z
#    x 2.329980 0.042520 0.131060 
#    y 0.042520 2.304140 -0.011540 
#    z 0.131060 -0.011540 2.373070 
# 
# From -- ./inp_files/100352.got.cif
#   From: 2010.05.17/outbox.cif.g08.bks.cpg/sg2_51_cif.got.tgz:100352.got - 2010.06.03 11:33:40.
