data_PCOD9109769
_publ_section_title
;
Structure prediction by ZEFSAII (Michael W. Deem and Ramdas Pophale) SiO2 
 PCOD9109769
Probable space group: P -1
;
_chemical_formula_sum "Si O2"
_cell_formula_units_Z 16
_cell_length_a 7.835046
_cell_length_b 5.480651
_cell_length_c 19.623128
_cell_angle_alpha 80.908578
_cell_angle_beta 66.029873
_cell_angle_gamma 59.565428
_cell_volume 662.650852
_symmetry_space_group_name_H-M "P -1"
_symmetry_group_IT_number 2
_symmetry_cell_setting 'triclinic'
loop_
_space_group_symop_operation_xyz
x,y,z
-x,-y,-z
loop_
_atom_site_type_symbol
_atom_site_label
_atom_site_fract_x
_atom_site_fract_y
_atom_site_fract_z
Si Si1 0.748799 0.657396 0.540736
Si Si2 0.146863 0.175069 0.716111
Si Si3 0.654035 0.445500 0.798705
Si Si4 0.530682 0.451256 0.311080
Si Si5 0.212090 0.786561 0.062937
Si Si6 0.251122 0.310803 0.978888
Si Si7 0.427257 0.279669 0.569439
Si Si8 0.275513 0.090045 0.844619
O O1 0.649462 0.629286 0.629308
O O2 0.659984 0.559259 0.494476
O O3 0.000000 0.500000 0.500000
O O4 0.646041 0.993325 0.532858
O O5 0.250621 0.193227 0.627840
O O6 0.894974 0.373644 0.744751
O O7 0.245205 0.836013 0.725781
O O8 0.225159 0.243598 0.772418
O O9 0.570315 0.362776 0.747873
O O10 0.698017 0.300010 0.871700
O O11 0.476204 0.775003 0.821437
O O12 0.558624 0.585165 0.368806
O O13 0.298877 0.511466 0.011519
O O14 0.276195 0.020530 0.019190
O O15 0.950490 0.911380 0.101731
O O16 0.000000 0.500000 0.000000
O O17 0.327869 0.240673 0.891591
#
# Coordination Sequence:
#
# PCOD9109769 Si02
#       8
#     2   2   2   2   2   2   2   2
#     4  10  21  37  61  91 122 154 201 255 307 370
#     4   9  20  40  56  83 123 159 209 253 315 376
#     4  10  21  41  58  89 123 162 211 266 313 383
#     4  10  21  39  60  87 122 162 206 251 313 377
#     4  10  22  42  63  94 127 171 214 270 331 392
#     4  10  20  41  67  91 127 172 213 269 335 390
#     4  10  21  38  60  87 118 164 199 252 311 375
#     4   9  19  38  61  86 121 164 207 266 320 384
#
# _framework density 24.145444999999999
#
# number of rings (size 3 to 8) (size 9 to 14) (size 15 to 20)
#    0.000    2.250    0.000    2.625    0.000    2.500 
#   31.500    0.000    0.000    0.000    0.000    0.000 
#    0.000    0.000    0.000    0.000    0.000    0.000 
#
# Total GULP energy -89321.369216 kJ/mol
# GULP energy per Si atom -5582.585576 kJ/mol
# Density = 2.409049 g / cm^3
# Si number density = 24.145445 Si / 1000 Ang^3
#
#
#
# Elastic Constant Matrix: (Units=GPa)
#
#
# Indices 1 2 3 4 5 6 
#
# 1 136.3189 61.6621 46.3796 18.5855 30.5890 -20.6161
# 2 61.6621 104.6782 56.4875 13.1560 4.2574 -21.1563
# 3 46.3796 56.4875 163.9131 -2.2324 22.1598 -10.0397
# 4 18.5855 13.1560 -2.2324 50.0033 -5.7638 -2.9542
# 5 30.5890 4.2574 22.1598 -5.7638 56.9499 11.8279
# 6 -20.6161 -21.1563 -10.0397 -2.9542 11.8279 47.0545
#
#
#
# Elastic Compliance Matrix: (Units=1/GPa)
#
#
# Indices 1 2 3 4 5 6 
#
# 1 0.013085 -0.005672 -0.000449 -0.004010 -0.007833 0.004804
# 2 -0.005672 0.015784 -0.004033 -0.001744 0.002641 0.002978
# 3 -0.000449 -0.004033 0.008002 0.001319 -0.002524 0.000414
# 4 -0.004010 -0.001744 0.001319 0.022403 0.004448 -0.001972
# 5 -0.007833 0.002641 -0.002524 0.004448 0.024817 -0.008742
# 6 0.004804 0.002978 0.000414 -0.001972 -0.008742 0.026858
#
#
# Mechanical properties :
#
#
# Convention : Reuss Voigt Hill
#
# Bulk Modulus (GPa) = 60.37437 81.55207 70.96322
# Shear Modulus (GPa) = 36.55506 46.82695 41.69101
#
# Velocity S-wave (km/s) = 3.89518 4.40861 4.15982
# Velocity P-wave (km/s) = 6.72968 7.73066 7.24747
#
# Compressibility (1/GPa) = 0.01656332
#
# Stress axis : x y z
#
# Youngs Moduli (GPa) = 76.42129 63.35389 124.96465
#
# Poissons Ratio (x) = 0.35935 0.05613
# Poissons Ratio (y) = 0.43347 0.50399
# Poissons Ratio (z) = 0.03433 0.25551
#
# Static dielectric constant tensor:
#      x y z
#    x 2.224700 0.120680 0.084270 
#    y 0.120680 1.936270 -0.046110 
#    z 0.084270 -0.046110 2.063230 
# 
# From -- ./inp_files/585204.got.cif
#   From: 2010.05.17/outbox.cif.g08.bks.cpg/sg2_293_cif.got.tgz:585204.got - 2010.06.03 11:33:40.
