data_PCOD9109493
_publ_section_title
;
Structure prediction by ZEFSAII (Michael W. Deem and Ramdas Pophale) SiO2 
 PCOD9109493
Probable space group: P -1
;
_chemical_formula_sum "Si O2"
_cell_formula_units_Z 16
_cell_length_a 20.543199
_cell_length_b 6.691271
_cell_length_c 7.788622
_cell_angle_alpha 93.982448
_cell_angle_beta 66.986902
_cell_angle_gamma 130.625665
_cell_volume 721.182160
_symmetry_space_group_name_H-M "P -1"
_symmetry_group_IT_number 2
_symmetry_cell_setting 'triclinic'
loop_
_space_group_symop_operation_xyz
x,y,z
-x,-y,-z
loop_
_atom_site_type_symbol
_atom_site_label
_atom_site_fract_x
_atom_site_fract_y
_atom_site_fract_z
Si Si1 0.084202 0.644109 0.781894
Si Si2 0.207931 0.829023 0.209252
Si Si3 0.523500 0.670364 0.262103
Si Si4 0.923839 0.694982 0.499121
Si Si5 0.370057 0.680314 0.457320
Si Si6 0.283493 0.884650 0.761832
Si Si7 0.188139 0.148944 0.467009
Si Si8 0.596697 0.914096 0.818796
O O1 0.046292 0.390034 0.689446
O O2 0.191819 0.789071 0.744859
O O3 0.109844 0.887084 0.652908
O O4 0.000000 0.500000 0.000000
O O5 0.111898 0.524981 0.333155
O O6 0.192315 0.033037 0.277403
O O7 0.291952 0.937007 0.265153
O O8 0.241804 0.815020 0.992350
O O9 0.461224 0.723362 0.420795
O O10 0.463469 0.359895 0.249078
O O11 0.616287 0.801399 0.292402
O O12 0.556562 0.825098 0.050248
O O13 0.837409 0.670866 0.527680
O O14 0.000000 0.000000 0.500000
O O15 0.320141 0.740757 0.643670
O O16 0.291378 0.363852 0.462971
O O17 0.401469 0.873080 0.270674
#
# Coordination Sequence:
#
# PCOD9109493 Si02
#       8
#     2   2   2   2   2   2   2   2
#     4  11  27  47  67  96 138 172 211 275 337 382
#     4  10  22  43  66  94 134 170 219 269 326 385
#     4  10  23  40  66  96 133 177 216 265 325 385
#     4  11  25  44  70  97 123 171 227 272 318 398
#     4  12  21  42  67  99 132 172 218 269 328 383
#     4  11  25  44  62 101 136 168 217 276 322 387
#     4  11  23  44  71  93 131 178 215 266 328 391
#     4  10  20  41  65  95 132 175 221 262 315 393
#
# _framework density 22.185796
#
# number of rings (size 3 to 8) (size 9 to 14) (size 15 to 20)
#    0.000    1.250    3.750    1.500    3.500    3.000 
#    2.250    0.000    0.000    0.000    0.000    0.000 
#    0.000    0.000    0.000    0.000    0.000    0.000 
#
# Total GULP energy -89305.669886 kJ/mol
# GULP energy per Si atom -5581.604368 kJ/mol
# Density = 2.213530 g / cm^3
# Si number density = 22.185796 Si / 1000 Ang^3
#
#
#
# Elastic Constant Matrix: (Units=GPa)
#
#
# Indices 1 2 3 4 5 6 
#
# 1 35.6183 1.8322 35.9493 -5.5219 -8.2047 -1.2392
# 2 1.8322 139.0596 61.6414 0.7391 3.2779 -0.4029
# 3 35.9493 61.6414 124.4636 13.1195 -8.5338 -3.3716
# 4 -5.5219 0.7391 13.1195 22.0130 4.5469 -5.7311
# 5 -8.2047 3.2779 -8.5338 4.5469 20.5527 4.0870
# 6 -1.2392 -0.4029 -3.3716 -5.7311 4.0870 34.2471
#
#
#
# Elastic Compliance Matrix: (Units=1/GPa)
#
#
# Indices 1 2 3 4 5 6 
#
# 1 0.057198 0.009580 -0.023855 0.028416 0.004304 0.004076
# 2 0.009580 0.011382 -0.009609 0.009040 -0.004291 0.001559
# 3 -0.023855 -0.009609 0.022271 -0.021090 0.006538 -0.003093
# 4 0.028416 0.009040 -0.021090 0.071832 -0.017362 0.013151
# 5 0.004304 -0.004291 0.006538 -0.017362 0.059453 -0.009252
# 6 0.004076 0.001559 -0.003093 0.013151 -0.009252 0.032366
#
#
# Mechanical properties :
#
#
# Convention : Reuss Voigt Hill
#
# Bulk Modulus (GPa) = 23.21094 55.33192 39.27143
# Shear Modulus (GPa) = 15.79129 28.67713 22.23421
#
# Velocity S-wave (km/s) = 2.67081 3.59916 3.16916
# Velocity P-wave (km/s) = 4.47166 6.50126 5.57952
#
# Compressibility (1/GPa) = 0.04308314
#
# Stress axis : x y z
#
# Youngs Moduli (GPa) = 17.48315 87.85899 44.90141
#
# Poissons Ratio (x) = -0.84169 1.07113
# Poissons Ratio (y) = -0.16749 0.43145
# Poissons Ratio (z) = 0.41706 0.84422
#
# Static dielectric constant tensor:
#      x y z
#    x 1.933580 0.061060 0.020270 
#    y 0.061060 1.775400 -0.021850 
#    z 0.020270 -0.021850 1.884670 
# 
# From -- ./inp_files/56902.got.cif
#   From: 2010.05.17/outbox.cif.g08.bks.cpg/sg2_29_cif.got.tgz:56902.got - 2010.06.03 11:33:40.
