data_PCOD9109657
_publ_section_title
;
Structure prediction by ZEFSAII (Michael W. Deem and Ramdas Pophale) SiO2 
 PCOD9109657
Probable space group: P -1
;
_chemical_formula_sum "Si O2"
_cell_formula_units_Z 16
_cell_length_a 10.643169
_cell_length_b 10.807634
_cell_length_c 9.431551
_cell_angle_alpha 127.841306
_cell_angle_beta 82.783587
_cell_angle_gamma 69.992597
_cell_volume 718.055236
_symmetry_space_group_name_H-M "P -1"
_symmetry_group_IT_number 2
_symmetry_cell_setting 'triclinic'
loop_
_space_group_symop_operation_xyz
x,y,z
-x,-y,-z
loop_
_atom_site_type_symbol
_atom_site_label
_atom_site_fract_x
_atom_site_fract_y
_atom_site_fract_z
Si Si1 0.394369 0.675965 0.739220
Si Si2 0.279859 0.103212 0.495962
Si Si3 0.630643 0.481730 0.068425
Si Si4 0.649088 0.720152 0.807807
Si Si5 0.175263 0.723141 0.584130
Si Si6 0.827407 0.157020 0.637930
Si Si7 0.614210 0.834114 0.216593
Si Si8 0.103262 0.291516 0.397468
O O1 0.500000 0.500000 0.500000
O O2 0.378386 0.595194 0.833004
O O3 0.481630 0.781692 0.826534
O O4 0.238485 0.775462 0.746013
O O5 0.271901 0.134936 0.688074
O O6 0.154681 0.273461 0.541166
O O7 0.258172 0.934310 0.349960
O O8 0.451104 0.023191 0.370731
O O9 0.609582 0.680891 0.207125
O O10 0.500000 0.500000 0.000000
O O11 0.784443 0.333304 0.863416
O O12 0.740903 0.500076 0.603782
O O13 0.739459 0.796767 0.768916
O O14 0.653123 0.755128 0.998095
O O15 0.216448 0.783569 0.476025
O O16 0.999294 0.794718 0.665725
O O17 0.000000 0.000000 0.500000
O O18 0.000000 0.500000 0.500000
#
# Coordination Sequence:
#
# PCOD9109657 Si02
#       8
#     2   2   2   2   2   2   2   2
#     4  10  21  35  67 104 123 168 232 283 324 396
#     4  11  25  41  67 101 134 173 221 291 341 395
#     4  12  21  42  73  98 133 179 236 282 332 413
#     4  10  20  41  66  95 127 171 223 273 330 402
#     4  10  21  41  65  98 127 179 221 271 337 406
#     4  12  23  44  69  95 139 179 226 282 342 407
#     4  11  24  41  68 103 130 170 231 287 338 393
#     4  10  23  42  62  92 139 180 211 268 346 415
#
# _framework density 22.282408
#
# number of rings (size 3 to 8) (size 9 to 14) (size 15 to 20)
#    0.000    1.250    5.000    0.750    5.250    1.500 
#    2.250    5.000    0.000    0.000    0.000    0.000 
#    0.000    0.000    0.000    0.000    0.000    0.000 
#
# Total GULP energy -89329.343612 kJ/mol
# GULP energy per Si atom -5583.083976 kJ/mol
# Density = 2.223169 g / cm^3
# Si number density = 22.282408 Si / 1000 Ang^3
#
#
#
# Elastic Constant Matrix: (Units=GPa)
#
#
# Indices 1 2 3 4 5 6 
#
# 1 105.8972 30.0034 44.9494 -19.8889 6.9837 -24.8136
# 2 30.0034 67.6975 31.6518 -14.9601 0.0457 -21.7348
# 3 44.9494 31.6518 95.6238 -17.8111 6.0318 -10.2728
# 4 -19.8889 -14.9601 -17.8111 47.8681 -2.5533 3.9468
# 5 6.9837 0.0457 6.0318 -2.5533 22.7168 -9.3125
# 6 -24.8136 -21.7348 -10.2728 3.9468 -9.3125 33.6796
#
#
#
# Elastic Compliance Matrix: (Units=1/GPa)
#
#
# Indices 1 2 3 4 5 6 
#
# 1 0.014289 -0.000520 -0.005083 0.003226 0.000798 0.008484
# 2 -0.000520 0.023247 -0.005606 0.004186 0.008079 0.014652
# 3 -0.005083 -0.005606 0.014837 0.001790 -0.003850 -0.004111
# 4 0.003226 0.004186 0.001790 0.024056 0.002682 0.003547
# 5 0.000798 0.008079 -0.003850 0.002682 0.052840 0.018923
# 6 0.008484 0.014652 -0.004111 0.003547 0.018923 0.048961
#
#
# Mechanical properties :
#
#
# Convention : Reuss Voigt Hill
#
# Bulk Modulus (GPa) = 33.38277 53.60307 43.49292
# Shear Modulus (GPa) = 23.73790 31.69382 27.71586
#
# Velocity S-wave (km/s) = 3.26747 3.77552 3.53064
# Velocity P-wave (km/s) = 5.40826 6.56617 6.01514
#
# Compressibility (1/GPa) = 0.02995557
#
# Stress axis : x y z
#
# Youngs Moduli (GPa) = 69.98276 43.01608 67.39843
#
# Poissons Ratio (x) = 0.02238 0.34256
# Poissons Ratio (y) = 0.03640 0.37785
# Poissons Ratio (z) = 0.35570 0.24116
#
# Static dielectric constant tensor:
#      x y z
#    x 1.893610 -0.020330 -0.021390 
#    y -0.020330 1.841640 0.011380 
#    z -0.021390 0.011380 1.820130 
# 
# From -- ./inp_files/260058.got.cif
#   From: 2010.05.17/outbox.cif.g08.bks.cpg/sg2_131_cif.got.tgz:260058.got - 2010.06.03 11:33:40.
