data_PCOD9109513
_publ_section_title
;
Structure prediction by ZEFSAII (Michael W. Deem and Ramdas Pophale) SiO2 
 PCOD9109513
Probable space group: P -1
;
_chemical_formula_sum "Si O2"
_cell_formula_units_Z 14
_cell_length_a 9.794862
_cell_length_b 7.843815
_cell_length_c 9.075857
_cell_angle_alpha 86.962699
_cell_angle_beta 107.349271
_cell_angle_gamma 63.934448
_cell_volume 583.942171
_symmetry_space_group_name_H-M "P -1"
_symmetry_group_IT_number 2
_symmetry_cell_setting 'triclinic'
loop_
_space_group_symop_operation_xyz
x,y,z
-x,-y,-z
loop_
_atom_site_type_symbol
_atom_site_label
_atom_site_fract_x
_atom_site_fract_y
_atom_site_fract_z
Si Si1 0.427717 0.375425 0.363875
Si Si2 0.329776 0.105143 0.858793
Si Si3 0.711503 0.195951 0.687789
Si Si4 0.761502 0.666083 0.433786
Si Si5 0.985738 0.354360 0.282712
Si Si6 0.061855 0.987677 0.688098
Si Si7 0.763208 0.790657 0.863743
O O1 0.604615 0.240753 0.499433
O O2 0.385224 0.588412 0.279843
O O3 0.307720 0.424289 0.465940
O O4 0.374283 0.259404 0.240266
O O5 0.373740 0.180951 0.720741
O O6 0.217349 0.015162 0.768467
O O7 0.223960 0.236156 0.956135
O O8 0.500000 0.000000 0.000000
O O9 0.898859 0.139602 0.715167
O O10 0.729229 0.007377 0.791623
O O11 0.879566 0.529609 0.349705
O O12 0.853239 0.755270 0.555571
O O13 0.071198 0.356907 0.159755
O O14 0.897262 0.226966 0.237200
O O15 0.000000 0.000000 0.500000
#
# Coordination Sequence:
#
# PCOD9109513 Si02
#       7
#     2   2   2   2   2   2   2
#     4  10  21  40  69  96 128 171 223 270 319 377
#     4  12  27  42  63  97 139 170 208 268 340 395
#     4  10  22  39  68  97 125 169 228 269 306 392
#     4  10  20  41  65  98 130 166 220 267 318 393
#     4   9  20  39  69  94 121 173 225 266 312 378
#     4  11  22  40  66  93 124 173 223 268 313 385
#     4  10  23  41  62  95 136 175 202 268 340 383
#
# _framework density 23.974979000000001
#
# number of rings (size 3 to 8) (size 9 to 14) (size 15 to 20)
#    0.000    1.714    1.429    2.143    6.000    2.857 
#    2.571    0.714    0.000    0.000    0.000    0.000 
#    0.000    0.000    0.000    0.000    0.000    0.000 
#
# Total GULP energy -78038.439786 kJ/mol
# GULP energy per Si atom -5574.174270 kJ/mol
# Density = 2.392041 g / cm^3
# Si number density = 23.974979 Si / 1000 Ang^3
#
#
#
# Elastic Constant Matrix: (Units=GPa)
#
#
# Indices 1 2 3 4 5 6 
#
# 1 79.9448 17.9029 25.4686 10.0622 17.2676 -4.6440
# 2 17.9029 80.3527 18.1521 3.2813 -0.7193 4.9203
# 3 25.4686 18.1521 99.8676 9.6853 -0.5057 11.5247
# 4 10.0622 3.2813 9.6853 29.6701 -3.8897 -3.6096
# 5 17.2676 -0.7193 -0.5057 -3.8897 30.8536 12.0618
# 6 -4.6440 4.9203 11.5247 -3.6096 12.0618 35.0487
#
#
#
# Elastic Compliance Matrix: (Units=1/GPa)
#
#
# Indices 1 2 3 4 5 6 
#
# 1 0.019500 -0.003726 -0.004940 -0.005463 -0.015483 0.009497
# 2 -0.003726 0.013767 -0.001174 0.000209 0.003700 -0.003292
# 3 -0.004940 -0.001174 0.012514 -0.002402 0.005242 -0.006656
# 4 -0.005463 0.000209 -0.002402 0.037433 0.007187 0.001418
# 5 -0.015483 0.003700 0.005242 0.007187 0.050313 -0.020869
# 6 0.009497 -0.003292 -0.006656 0.001418 -0.020869 0.039769
#
#
# Mechanical properties :
#
#
# Convention : Reuss Voigt Hill
#
# Bulk Modulus (GPa) = 38.31208 42.57915 40.44562
# Shear Modulus (GPa) = 24.79221 32.35725 28.57473
#
# Velocity S-wave (km/s) = 3.21921 3.67771 3.45607
# Velocity P-wave (km/s) = 5.46191 5.98602 5.72996
#
# Compressibility (1/GPa) = 0.02610143
#
# Stress axis : x y z
#
# Youngs Moduli (GPa) = 51.28097 72.63969 79.90950
#
# Poissons Ratio (x) = 0.27064 0.39479
# Poissons Ratio (y) = 0.19106 0.09379
# Poissons Ratio (z) = 0.25335 0.08525
#
# Static dielectric constant tensor:
#      x y z
#    x 2.005470 -0.049510 -0.015860 
#    y -0.049510 2.056020 -0.049940 
#    z -0.015860 -0.049940 1.895210 
# 
# From -- ./inp_files/244709.got.cif
#   From: 2010.05.17/outbox.cif.g08.bks.cpg/sg2_123_cif.got.tgz:244709.got - 2010.06.03 11:33:40.
