data_PCOD9109693
_publ_section_title
;
Structure prediction by ZEFSAII (Michael W. Deem and Ramdas Pophale) SiO2 
 PCOD9109693
Probable space group: P -1
;
_chemical_formula_sum "Si O2"
_cell_formula_units_Z 16
_cell_length_a 8.462741
_cell_length_b 12.207153
_cell_length_c 9.469704
_cell_angle_alpha 101.375279
_cell_angle_beta 51.425873
_cell_angle_gamma 84.660303
_cell_volume 719.391936
_symmetry_space_group_name_H-M "P -1"
_symmetry_group_IT_number 2
_symmetry_cell_setting 'triclinic'
loop_
_space_group_symop_operation_xyz
x,y,z
-x,-y,-z
loop_
_atom_site_type_symbol
_atom_site_label
_atom_site_fract_x
_atom_site_fract_y
_atom_site_fract_z
Si Si1 0.193444 0.417440 0.457170
Si Si2 0.518010 0.996833 0.323490
Si Si3 0.551987 0.504612 0.139713
Si Si4 0.672238 0.800640 0.860605
Si Si5 0.669281 0.730823 0.145115
Si Si6 0.995311 0.662993 0.198674
Si Si7 0.051415 0.096665 0.599340
Si Si8 0.229736 0.964634 0.055896
O O1 0.393841 0.461564 0.316441
O O2 0.248514 0.287391 0.331961
O O3 0.000000 0.500000 0.500000
O O4 0.124970 0.408210 0.654244
O O5 0.530153 0.863909 0.249923
O O6 0.500000 0.000000 0.500000
O O7 0.294292 0.079858 0.425921
O O8 0.700574 0.031761 0.144894
O O9 0.548092 0.635412 0.214672
O O10 0.500000 0.500000 0.000000
O O11 0.788994 0.421902 0.000377
O O12 0.421695 0.864890 0.995988
O O13 0.741135 0.718251 0.939037
O O14 0.766541 0.909353 0.855964
O O15 0.845440 0.718275 0.164333
O O16 0.045998 0.763771 0.294679
O O17 0.000000 0.000000 0.500000
O O18 0.986089 0.057247 0.779982
#
# Coordination Sequence:
#
# PCOD9109693 Si02
#       8
#     2   2   2   2   2   2   2   2
#     4  12  24  41  70  98 130 171 227 277 334 396
#     4  11  24  45  64 100 144 173 216 283 340 388
#     4  12  25  45  71  98 130 180 231 276 332 407
#     4  10  20  41  66  97 134 174 217 274 329 392
#     4  11  24  45  68  97 142 177 217 286 338 390
#     4  12  26  45  68 100 140 174 224 285 338 389
#     4  12  24  40  71 102 132 180 228 271 331 412
#     4  10  22  39  69  95 133 180 224 266 327 404
#
# _framework density 22.241002999999999
#
# number of rings (size 3 to 8) (size 9 to 14) (size 15 to 20)
#    0.000    0.750    3.750    4.875    1.750    2.000 
#    0.000    0.000    0.000    0.000    0.000    0.000 
#    0.000    0.000    0.000    0.000    0.000    0.000 
#
# Total GULP energy -89291.747427 kJ/mol
# GULP energy per Si atom -5580.734214 kJ/mol
# Density = 2.219038 g / cm^3
# Si number density = 22.241003 Si / 1000 Ang^3
#
#
#
# Elastic Constant Matrix: (Units=GPa)
#
#
# Indices 1 2 3 4 5 6 
#
# 1 46.3353 24.0659 29.6539 -15.5197 10.4289 -10.3933
# 2 24.0659 108.7116 54.2004 -16.0113 -8.3337 -9.2451
# 3 29.6539 54.2004 140.2858 -37.5133 -17.1190 4.1160
# 4 -15.5197 -16.0113 -37.5133 38.9005 -1.9002 -2.2797
# 5 10.4289 -8.3337 -17.1190 -1.9002 31.5861 -2.9355
# 6 -10.3933 -9.2451 4.1160 -2.2797 -2.9355 32.2930
#
#
#
# Elastic Compliance Matrix: (Units=1/GPa)
#
#
# Indices 1 2 3 4 5 6 
#
# 1 0.035494 -0.004030 -0.006414 0.006182 -0.014942 0.010166
# 2 -0.004030 0.012408 -0.003565 0.000383 0.002975 0.003007
# 3 -0.006414 -0.003565 0.013488 0.009210 0.008729 -0.003360
# 4 0.006182 0.000383 0.009210 0.037732 0.005703 0.004108
# 5 -0.014942 0.002975 0.008729 0.005703 0.042376 -0.000815
# 6 0.010166 0.003007 -0.003360 0.004108 -0.000815 0.035743
#
#
# Mechanical properties :
#
#
# Convention : Reuss Voigt Hill
#
# Bulk Modulus (GPa) = 29.96491 56.79699 43.38095
# Shear Modulus (GPa) = 23.10702 33.05009 28.07855
#
# Velocity S-wave (km/s) = 3.22675 3.85905 3.55698
# Velocity P-wave (km/s) = 5.23303 6.74157 6.03463
#
# Compressibility (1/GPa) = 0.03337237
#
# Stress axis : x y z
#
# Youngs Moduli (GPa) = 28.17387 80.59075 74.13847
#
# Poissons Ratio (x) = 0.32477 0.47554
# Poissons Ratio (y) = 0.11354 0.26430
# Poissons Ratio (z) = 0.18071 0.28730
#
# Static dielectric constant tensor:
#      x y z
#    x 1.889980 -0.017280 0.071470 
#    y -0.017280 1.796610 -0.054880 
#    z 0.071470 -0.054880 1.869310 
# 
# From -- ./inp_files/187259.got.cif
#   From: 2010.05.17/outbox.cif.g08.bks.cpg/sg2_94_cif.got.tgz:187259.got - 2010.06.03 11:33:40.
