data_PCOD9109477
_publ_section_title
;
Structure prediction by ZEFSAII (Michael W. Deem and Ramdas Pophale) SiO2 
 PCOD9109477
Probable space group: P -1
;
_chemical_formula_sum "Si O2"
_cell_formula_units_Z 10
_cell_length_a 10.068495
_cell_length_b 8.080503
_cell_length_c 9.311294
_cell_angle_alpha 83.071708
_cell_angle_beta 122.719181
_cell_angle_gamma 138.097029
_cell_volume 368.324237
_symmetry_space_group_name_H-M "P -1"
_symmetry_group_IT_number 2
_symmetry_cell_setting 'triclinic'
loop_
_space_group_symop_operation_xyz
x,y,z
-x,-y,-z
loop_
_atom_site_type_symbol
_atom_site_label
_atom_site_fract_x
_atom_site_fract_y
_atom_site_fract_z
Si Si1 0.224310 0.686931 0.806737
Si Si2 0.936458 0.757364 0.738690
Si Si3 0.444790 0.283966 0.176268
Si Si4 0.265925 0.935611 0.380145
Si Si5 0.613406 0.735313 0.360375
O O1 0.032205 0.682916 0.708667
O O2 0.337835 0.670140 0.746257
O O3 0.026987 0.385159 0.803690
O O4 0.500000 0.000000 0.000000
O O5 0.820714 0.793044 0.558799
O O6 0.686323 0.500085 0.722778
O O7 0.185362 0.035284 0.949921
O O8 0.552850 0.567501 0.204960
O O9 0.349422 0.155382 0.296547
O O10 0.500000 0.000000 0.500000
O O11 0.262809 0.983617 0.542478
#
# Coordination Sequence:
#
# PCOD9109477 Si02
#       5
#     2   2   2   2   2
#     4  10  24  43  63 100 131 165 219 267 316 388
#     4  10  20  41  65  94 131 167 212 264 318 382
#     4  11  23  42  71  91 131 176 206 266 334 369
#     4  12  23  42  67  97 131 169 218 266 320 388
#     4  11  21  40  67  97 128 167 221 266 310 392
#
# _framework density 27.149992999999998
#
# number of rings (size 3 to 8) (size 9 to 14) (size 15 to 20)
#    0.000    1.200    6.000    0.600    0.000    7.200 
#    0.000    4.000    0.000    0.000    0.000    0.000 
#    0.000    0.000    0.000    0.000    0.000    0.000 
#
# Total GULP energy -55845.398176 kJ/mol
# GULP energy per Si atom -5584.539818 kJ/mol
# Density = 2.708820 g / cm^3
# Si number density = 27.149993 Si / 1000 Ang^3
#
#
#
# Elastic Constant Matrix: (Units=GPa)
#
#
# Indices 1 2 3 4 5 6 
#
# 1 224.0568 33.1987 51.2030 9.0230 1.8260 -17.9862
# 2 33.1987 75.5116 43.2160 27.3401 -0.1427 19.9474
# 3 51.2030 43.2160 168.3056 34.7740 -5.3606 -0.1574
# 4 9.0230 27.3401 34.7740 40.5509 -5.6796 -3.4421
# 5 1.8260 -0.1427 -5.3606 -5.6796 50.1445 4.5080
# 6 -17.9862 19.9474 -0.1574 -3.4421 4.5080 32.6222
#
#
#
# Elastic Compliance Matrix: (Units=1/GPa)
#
#
# Indices 1 2 3 4 5 6 
#
# 1 0.005885 -0.004936 -0.001280 0.003608 -0.000560 0.006715
# 2 -0.004936 0.029511 -0.002205 -0.018848 -0.000061 -0.022757
# 3 -0.001280 -0.002205 0.007936 -0.004981 0.000315 0.000112
# 4 0.003608 -0.018848 -0.004981 0.042689 0.002531 0.017644
# 5 -0.000560 -0.000061 0.000315 0.002531 0.020538 -0.002841
# 6 0.006715 -0.022757 0.000112 0.017644 -0.002841 0.050526
#
#
# Mechanical properties :
#
#
# Convention : Reuss Voigt Hill
#
# Bulk Modulus (GPa) = 37.74932 80.34551 59.04741
# Shear Modulus (GPa) = 27.35862 47.34727 37.35294
#
# Velocity S-wave (km/s) = 3.17785 4.18055 3.71320
# Velocity P-wave (km/s) = 5.23442 7.27737 6.33874
#
# Compressibility (1/GPa) = 0.02649054
#
# Stress axis : x y z
#
# Youngs Moduli (GPa) = 169.91244 33.88609 126.00275
#
# Poissons Ratio (x) = 0.16726 0.16128
# Poissons Ratio (y) = 0.83870 0.27782
# Poissons Ratio (z) = 0.21748 0.07471
#
# Static dielectric constant tensor:
#      x y z
#    x 2.097830 0.020830 -0.071300 
#    y 0.020830 2.221610 0.000400 
#    z -0.071300 0.000400 2.097060 
# 
# From -- ./inp_files/415006.got.cif
#   From: 2010.05.17/outbox.cif.g08.bks.cpg/sg2_208_cif.got.tgz:415006.got - 2010.06.03 11:33:40.
