data_PCOD9109729
_publ_section_title
;
Structure prediction by ZEFSAII (Michael W. Deem and Ramdas Pophale) SiO2 
 PCOD9109729
Probable space group: P -1
;
_chemical_formula_sum "Si O2"
_cell_formula_units_Z 16
_cell_length_a 9.532410
_cell_length_b 12.291978
_cell_length_c 9.528182
_cell_angle_alpha 83.762384
_cell_angle_beta 46.193872
_cell_angle_gamma 68.397010
_cell_volume 731.122482
_symmetry_space_group_name_H-M "P -1"
_symmetry_group_IT_number 2
_symmetry_cell_setting 'triclinic'
loop_
_space_group_symop_operation_xyz
x,y,z
-x,-y,-z
loop_
_atom_site_type_symbol
_atom_site_label
_atom_site_fract_x
_atom_site_fract_y
_atom_site_fract_z
Si Si1 0.660382 0.295182 0.742524
Si Si2 0.497865 0.892245 0.773022
Si Si3 0.252521 0.216862 0.641329
Si Si4 0.916782 0.732383 0.676172
Si Si5 0.220987 0.748822 0.022052
Si Si6 0.363806 0.166449 0.889858
Si Si7 0.085466 0.485765 0.714368
Si Si8 0.301394 0.523723 0.829282
O O1 0.685551 0.317201 0.886011
O O2 0.539790 0.207392 0.825270
O O3 0.517868 0.416433 0.742574
O O4 0.892701 0.239237 0.520311
O O5 0.569970 0.878777 0.563470
O O6 0.705064 0.800358 0.724109
O O7 0.438668 0.024657 0.852173
O O8 0.308117 0.850025 0.927164
O O9 0.318930 0.215655 0.756365
O O10 0.198592 0.350305 0.601618
O O11 0.033452 0.199414 0.796036
O O12 0.000323 0.588793 0.643290
O O13 0.846757 0.774677 0.877931
O O14 0.294189 0.652044 0.859726
O O15 0.239735 0.512614 0.713533
O O16 0.883339 0.489935 0.944816
#
# Coordination Sequence:
#
# PCOD9109729 Si02
#       8
#     2   2   2   2   2   2   2   2
#     4  12  24  42  71 104 138 187 227 284 345 410
#     4  12  27  46  71 101 140 189 231 281 344 412
#     4  11  25  47  71 105 138 180 228 291 349 405
#     4  12  25  42  70 106 135 184 232 280 346 405
#     4  11  24  42  69 102 145 176 229 286 346 408
#     4  12  26  49  71  98 145 183 235 283 337 415
#     4  10  20  42  72  98 144 173 225 287 350 413
#     4  10  20  41  67 102 139 181 219 287 351 405
#
# _framework density 21.884159
#
# number of rings (size 3 to 8) (size 9 to 14) (size 15 to 20)
#    0.000    0.750    5.000    2.625    1.750    6.000 
#    0.000    0.000    0.000    0.000    0.000    0.000 
#    0.000    0.000    0.000    0.000    0.000    0.000 
#
# Total GULP energy -89589.648619 kJ/mol
# GULP energy per Si atom -5599.353039 kJ/mol
# Density = 2.183435 g / cm^3
# Si number density = 21.884159 Si / 1000 Ang^3
#
#
#
# Elastic Constant Matrix: (Units=GPa)
#
#
# Indices 1 2 3 4 5 6 
#
# 1 54.2388 -1.5523 -1.0475 -4.8810 -5.4939 -3.4867
# 2 -1.5523 84.8862 6.8483 -12.6570 -7.1194 3.0362
# 3 -1.0475 6.8483 63.3730 -3.0444 -7.5548 4.3637
# 4 -4.8810 -12.6570 -3.0444 9.3454 6.5523 3.4285
# 5 -5.4939 -7.1194 -7.5548 6.5523 29.7678 -8.0837
# 6 -3.4867 3.0362 4.3637 3.4285 -8.0837 19.9891
#
#
#
# Elastic Compliance Matrix: (Units=1/GPa)
#
#
# Indices 1 2 3 4 5 6 
#
# 1 0.019884 0.002053 0.000784 0.010829 0.002564 0.002165
# 2 0.002053 0.016168 -0.000240 0.029562 -0.004779 -0.009049
# 3 0.000784 -0.000240 0.016569 0.005189 0.002217 -0.003437
# 4 0.010829 0.029562 0.005189 0.215089 -0.053911 -0.062428
# 5 0.002564 -0.004779 0.002217 -0.053911 0.053979 0.031765
# 6 0.002165 -0.009049 -0.003437 -0.062428 0.031765 0.076084
#
#
# Mechanical properties :
#
#
# Convention : Reuss Voigt Hill
#
# Bulk Modulus (GPa) = 17.29694 23.44390 20.37042
# Shear Modulus (GPa) = 12.14032 25.03708 18.58870
#
# Velocity S-wave (km/s) = 2.35788 3.38608 2.91763
# Velocity P-wave (km/s) = 3.91584 5.10131 4.54737
#
# Compressibility (1/GPa) = 0.05781369
#
# Stress axis : x y z
#
# Youngs Moduli (GPa) = 50.29113 61.85072 60.35484
#
# Poissons Ratio (x) = -0.12695 -0.04730
# Poissons Ratio (y) = -0.10323 0.01447
# Poissons Ratio (z) = -0.03941 0.01483
#
# Static dielectric constant tensor:
#      x y z
#    x 1.785930 -0.010680 0.016320 
#    y -0.010680 1.781920 -0.015370 
#    z 0.016320 -0.015370 1.804380 
# 
# From -- ./inp_files/187224.got.cif
#   From: 2010.05.17/outbox.cif.g08.bks.cpg/sg2_94_cif.got.tgz:187224.got - 2010.06.03 11:33:40.
