data_PCOD9109688
_publ_section_title
;
Structure prediction by ZEFSAII (Michael W. Deem and Ramdas Pophale) SiO2 
 PCOD9109688
Probable space group: P -1
;
_chemical_formula_sum "Si O2"
_cell_formula_units_Z 14
_cell_length_a 7.727266
_cell_length_b 7.839125
_cell_length_c 14.924009
_cell_angle_alpha 51.174544
_cell_angle_beta 61.976944
_cell_angle_gamma 55.544842
_cell_volume 571.331602
_symmetry_space_group_name_H-M "P -1"
_symmetry_group_IT_number 2
_symmetry_cell_setting 'triclinic'
loop_
_space_group_symop_operation_xyz
x,y,z
-x,-y,-z
loop_
_atom_site_type_symbol
_atom_site_label
_atom_site_fract_x
_atom_site_fract_y
_atom_site_fract_z
Si Si1 0.801082 0.046684 0.922114
Si Si2 0.956158 0.476200 0.301972
Si Si3 0.387473 0.055578 0.684471
Si Si4 0.096753 0.573476 0.040891
Si Si5 0.431225 0.648429 0.559345
Si Si6 0.428450 0.093192 0.124010
Si Si7 0.381909 0.429260 0.271931
O O1 0.715212 0.329913 0.842494
O O2 0.745511 0.975523 0.861531
O O3 0.642854 0.993838 0.046667
O O4 0.036132 0.856788 0.953377
O O5 0.828955 0.724893 0.305653
O O6 0.992443 0.530339 0.172216
O O7 0.812723 0.321256 0.383518
O O8 0.181106 0.352767 0.338252
O O9 0.493861 0.139098 0.549213
O O10 0.529430 0.010613 0.753886
O O11 0.408343 0.789886 0.742559
O O12 0.336256 0.379850 0.051731
O O13 0.000000 0.500000 0.000000
O O14 0.500000 0.500000 0.500000
O O15 0.556415 0.521762 0.659960
#
# Coordination Sequence:
#
# PCOD9109688 Si02
#       7
#     2   2   2   2   2   2   2
#     4  10  22  38  67  95 140 180 220 279 338 402
#     4  11  24  47  68 102 141 177 230 283 333 406
#     4  11  23  45  68 100 140 175 232 282 335 406
#     4  10  21  39  67 100 136 180 230 269 334 413
#     4  10  25  47  75  96 135 183 228 285 340 399
#     4  10  20  41  66  96 137 181 224 277 338 400
#     4  12  26  44  69 106 136 178 230 277 348 405
#
# _framework density 24.504158
#
# number of rings (size 3 to 8) (size 9 to 14) (size 15 to 20)
#    0.000    1.429    2.857    2.143    4.000    5.143 
#    2.571    0.000    0.000    0.000    0.000    0.000 
#    0.000    0.000    0.000    0.000    0.000    0.000 
#
# Total GULP energy -78171.222138 kJ/mol
# GULP energy per Si atom -5583.658724 kJ/mol
# Density = 2.444839 g / cm^3
# Si number density = 24.504158 Si / 1000 Ang^3
#
#
#
# Elastic Constant Matrix: (Units=GPa)
#
#
# Indices 1 2 3 4 5 6 
#
# 1 62.1797 -0.7034 4.7812 26.9562 8.8141 -0.5304
# 2 -0.7034 132.8686 12.6704 -2.6357 10.2395 -7.0882
# 3 4.7812 12.6704 57.6941 12.8396 4.3548 4.3571
# 4 26.9562 -2.6357 12.8396 34.8714 3.0755 10.9518
# 5 8.8141 10.2395 4.3548 3.0755 20.9898 2.9764
# 6 -0.5304 -7.0882 4.3571 10.9518 2.9764 40.9656
#
#
#
# Elastic Compliance Matrix: (Units=1/GPa)
#
#
# Indices 1 2 3 4 5 6 
#
# 1 0.027703 0.000537 0.003120 -0.023910 -0.010066 0.007243
# 2 0.000537 0.008127 -0.001798 0.000687 -0.004162 0.001723
# 3 0.003120 -0.001798 0.019837 -0.009711 -0.003189 0.000447
# 4 -0.023910 0.000687 -0.009711 0.054746 0.005713 -0.014209
# 5 -0.010066 -0.004162 -0.003189 0.005713 0.054575 -0.006004
# 6 0.007243 0.001723 0.000447 -0.014209 -0.006004 0.028990
#
#
# Mechanical properties :
#
#
# Convention : Reuss Voigt Hill
#
# Bulk Modulus (GPa) = 16.83935 31.80432 24.32183
# Shear Modulus (GPa) = 23.80330 35.09832 29.45081
#
# Velocity S-wave (km/s) = 3.12011 3.78873 3.47056
# Velocity P-wave (km/s) = 4.45725 5.66980 5.09969
#
# Compressibility (1/GPa) = 0.05938473
#
# Stress axis : x y z
#
# Youngs Moduli (GPa) = 36.09750 123.04906 50.41027
#
# Poissons Ratio (x) = -0.06607 -0.15729
# Poissons Ratio (y) = -0.01938 0.09065
# Poissons Ratio (z) = -0.11263 0.22126
#
# Static dielectric constant tensor:
#      x y z
#    x 1.959090 0.073280 -0.096020 
#    y 0.073280 2.053640 -0.076670 
#    z -0.096020 -0.076670 1.986550 
# 
# From -- ./inp_files/491964.got.cif
#   From: 2010.05.17/outbox.cif.g08.bks.cpg/sg2_246_cif.got.tgz:491964.got - 2010.06.03 11:33:40.
