data_PCOD9109021
_publ_section_title
;
Structure prediction by ZEFSAII (Michael W. Deem and Ramdas Pophale) SiO2 
 PCOD9109021
Probable space group: P -1
;
_chemical_formula_sum "Si O2"
_cell_formula_units_Z 14
_cell_length_a 5.744552
_cell_length_b 23.267056
_cell_length_c 5.232097
_cell_angle_alpha 115.044565
_cell_angle_beta 105.970770
_cell_angle_gamma 62.234553
_cell_volume 557.962086
_symmetry_space_group_name_H-M "P -1"
_symmetry_group_IT_number 2
_symmetry_cell_setting 'triclinic'
loop_
_space_group_symop_operation_xyz
x,y,z
-x,-y,-z
loop_
_atom_site_type_symbol
_atom_site_label
_atom_site_fract_x
_atom_site_fract_y
_atom_site_fract_z
Si Si1 0.976233 0.324438 0.800477
Si Si2 0.889232 0.545696 0.802432
Si Si3 0.675091 0.203112 0.113207
Si Si4 0.349493 0.659082 0.775736
Si Si5 0.839890 0.061351 0.762441
Si Si6 0.310465 0.040161 0.239637
Si Si7 0.279318 0.185434 0.391670
O O1 0.825583 0.346317 0.524501
O O2 0.220052 0.252038 0.676737
O O3 0.028461 0.389557 0.033269
O O4 0.805644 0.311332 0.951910
O O5 0.000000 0.500000 0.500000
O O6 0.572625 0.584118 0.764127
O O7 0.000000 0.500000 0.000000
O O8 0.535518 0.285226 0.178589
O O9 0.492943 0.184965 0.238061
O O10 0.976851 0.199126 0.235748
O O11 0.734745 0.141661 0.805296
O O12 0.635991 0.028212 0.705394
O O13 0.000000 0.000000 0.500000
O O14 0.014557 0.061449 0.066944
O O15 0.343131 0.112016 0.410158
O O16 0.500000 0.000000 0.000000
#
# Coordination Sequence:
#
# PCOD9109021 Si02
#       7
#     2   2   2   2   2   2   2
#     4  11  27  48  76 112 153 203 251 321 384 466
#     4  12  28  48  81 115 153 196 253 316 389 471
#     4  10  23  44  69 104 148 199 250 319 376 457
#     4  11  27  48  76 111 156 200 258 311 391 460
#     4  10  22  39  63  97 142 187 254 305 378 433
#     4  10  20  41  61  93 138 191 244 312 366 440
#     4  10  23  43  72 100 148 196 256 312 384 450
#
# _framework density 25.091311999999999
#
# number of rings (size 3 to 8) (size 9 to 14) (size 15 to 20)
#    0.000    1.429    1.429    1.714   12.000    4.000 
#    2.571    0.000    0.000    0.000    0.000    0.000 
#    0.000    0.000    0.000    0.000    0.000    0.000 
#
# Total GULP energy -78031.224924 kJ/mol
# GULP energy per Si atom -5573.658923 kJ/mol
# Density = 2.503420 g / cm^3
# Si number density = 25.091312 Si / 1000 Ang^3
#
#
#
# Elastic Constant Matrix: (Units=GPa)
#
#
# Indices 1 2 3 4 5 6 
#
# 1 101.1672 18.9223 21.0651 9.8976 -11.4733 11.7831
# 2 18.9223 188.6336 40.7445 20.1037 -14.4790 1.2824
# 3 21.0651 40.7445 119.4979 38.0162 -7.7889 -5.1468
# 4 9.8976 20.1037 38.0162 56.4348 9.0904 4.7755
# 5 -11.4733 -14.4790 -7.7889 9.0904 64.3635 1.9706
# 6 11.7831 1.2824 -5.1468 4.7755 1.9706 40.3678
#
#
#
# Elastic Compliance Matrix: (Units=1/GPa)
#
#
# Indices 1 2 3 4 5 6 
#
# 1 0.010982 -0.000525 -0.001560 -0.000700 0.001854 -0.003395
# 2 -0.000525 0.005893 -0.001457 -0.001213 0.001231 -0.000136
# 3 -0.001560 -0.001457 0.011836 -0.007715 0.001829 0.002834
# 4 -0.000700 -0.001213 -0.007715 0.024515 -0.004689 -0.003412
# 5 0.001854 0.001231 0.001829 -0.004689 0.017047 -0.000624
# 6 -0.003395 -0.000136 0.002834 -0.003412 -0.000624 0.026563
#
#
# Mechanical properties :
#
#
# Convention : Reuss Voigt Hill
#
# Bulk Modulus (GPa) = 46.23603 63.41803 54.82703
# Shear Modulus (GPa) = 44.99328 54.13768 49.56548
#
# Velocity S-wave (km/s) = 4.23919 4.65007 4.44937
# Velocity P-wave (km/s) = 6.51369 7.35939 6.94941
#
# Compressibility (1/GPa) = 0.02162816
#
# Stress axis : x y z
#
# Youngs Moduli (GPa) = 91.06072 169.68525 84.49072
#
# Poissons Ratio (x) = 0.08905 0.13179
# Poissons Ratio (y) = 0.04779 0.12307
# Poissons Ratio (z) = 0.14204 0.24717
#
# Static dielectric constant tensor:
#      x y z
#    x 2.000220 -0.075780 0.021400 
#    y -0.075780 2.034440 -0.012610 
#    z 0.021400 -0.012610 1.902250 
# 
# From -- ./inp_files/13722.got.cif
#   From: 2010.05.17/outbox.cif.g08.bks.cpg/sg2_7_cif.got.tgz:13722.got - 2010.06.03 11:33:40.
