data_PCOD9109591
_publ_section_title
;
Structure prediction by ZEFSAII (Michael W. Deem and Ramdas Pophale) SiO2 
 PCOD9109591
Probable space group: P -1
;
_chemical_formula_sum "Si O2"
_cell_formula_units_Z 16
_cell_length_a 5.376822
_cell_length_b 8.476748
_cell_length_c 19.360890
_cell_angle_alpha 76.406065
_cell_angle_beta 97.142506
_cell_angle_gamma 130.813544
_cell_volume 648.634796
_symmetry_space_group_name_H-M "P -1"
_symmetry_group_IT_number 2
_symmetry_cell_setting 'triclinic'
loop_
_space_group_symop_operation_xyz
x,y,z
-x,-y,-z
loop_
_atom_site_type_symbol
_atom_site_label
_atom_site_fract_x
_atom_site_fract_y
_atom_site_fract_z
Si Si1 0.576442 0.530642 0.580906
Si Si2 0.960591 0.504038 0.700254
Si Si3 0.991166 0.164325 0.670522
Si Si4 0.316895 0.707931 0.083178
Si Si5 0.690544 0.930377 0.546888
Si Si6 0.306430 0.727837 0.826662
Si Si7 0.289590 0.079072 0.054771
Si Si8 0.690964 0.881888 0.203137
O O1 0.500000 0.500000 0.500000
O O2 0.899084 0.618467 0.628326
O O3 0.329398 0.293887 0.625885
O O4 0.497754 0.683672 0.577348
O O5 0.979843 0.341633 0.678574
O O6 0.630736 0.340432 0.752055
O O7 0.245638 0.648549 0.752938
O O8 0.749491 0.016968 0.617386
O O9 0.007612 0.060478 0.748511
O O10 0.646387 0.810179 0.129761
O O11 0.016111 0.473719 0.122841
O O12 0.259288 0.872418 0.083360
O O13 0.397865 0.742812 0.001801
O O14 0.500000 0.000000 0.500000
O O15 0.000000 0.000000 0.500000
O O16 0.613766 0.805035 0.879166
O O17 0.310590 0.925765 0.806551
O O18 0.000000 0.000000 0.000000
#
# Coordination Sequence:
#
# PCOD9109591 Si02
#       8
#     2   2   2   2   2   2   2   2
#     4  11  23  43  68  94 132 173 222 280 343 412
#     4  10  23  40  63  95 131 173 224 278 343 409
#     4  11  24  42  67  93 131 175 221 280 343 413
#     4   9  20  39  62  92 127 171 218 272 338 403
#     4  12  27  43  68 102 135 178 230 287 352 418
#     4  10  20  41  66  90 130 173 219 277 339 414
#     4  10  21  38  62  94 131 169 216 277 335 405
#     4   9  21  40  62  90 129 169 218 279 334 406
#
# _framework density 24.667190999999999
#
# number of rings (size 3 to 8) (size 9 to 14) (size 15 to 20)
#    0.000    1.750    1.250    1.875    3.500    5.500 
#    0.000   12.500    0.000    0.000    0.000    0.000 
#    0.000    0.000    0.000    0.000    0.000    0.000 
#
# Total GULP energy -89189.688494 kJ/mol
# GULP energy per Si atom -5574.355531 kJ/mol
# Density = 2.461105 g / cm^3
# Si number density = 24.667191 Si / 1000 Ang^3
#
#
#
# Elastic Constant Matrix: (Units=GPa)
#
#
# Indices 1 2 3 4 5 6 
#
# 1 71.1511 24.8502 60.8877 11.7029 25.8040 -6.7472
# 2 24.8502 88.2098 91.5047 26.7292 26.9576 5.2709
# 3 60.8877 91.5047 215.5597 45.8019 26.3636 -7.9392
# 4 11.7029 26.7292 45.8019 65.1077 6.8899 0.2324
# 5 25.8040 26.9576 26.3636 6.8899 46.3101 -3.1219
# 6 -6.7472 5.2709 -7.9392 0.2324 -3.1219 28.8034
#
#
#
# Elastic Compliance Matrix: (Units=1/GPa)
#
#
# Indices 1 2 3 4 5 6 
#
# 1 0.022411 0.003578 -0.006518 0.000223 -0.010783 0.001628
# 2 0.003578 0.025709 -0.010252 -0.002768 -0.011243 -0.007888
# 3 -0.006518 -0.010252 0.011096 -0.002860 0.003968 0.003861
# 4 0.000223 -0.002768 -0.002860 0.018431 0.000350 -0.000340
# 5 -0.010783 -0.011243 0.003968 0.000350 0.032113 0.004103
# 6 0.001628 -0.007888 0.003861 -0.000340 0.004103 0.038055
#
#
# Mechanical properties :
#
#
# Convention : Reuss Voigt Hill
#
# Bulk Modulus (GPa) = 30.45572 81.04509 55.75040
# Shear Modulus (GPa) = 27.00627 41.22278 34.11453
#
# Velocity S-wave (km/s) = 3.31240 4.09242 3.72289
# Velocity P-wave (km/s) = 5.19642 7.43352 6.41327
#
# Compressibility (1/GPa) = 0.03283455
#
# Stress axis : x y z
#
# Youngs Moduli (GPa) = 44.62100 38.89649 90.11896
#
# Poissons Ratio (x) = -0.13919 0.58739
# Poissons Ratio (y) = -0.15968 0.92386
# Poissons Ratio (z) = 0.29084 0.39875
#
# Static dielectric constant tensor:
#      x y z
#    x 2.144080 0.186340 -0.052720 
#    y 0.186340 1.928620 -0.060820 
#    z -0.052720 -0.060820 2.068940 
# 
# From -- ./inp_files/548051.got.cif
#   From: 2010.05.17/outbox.cif.g08.bks.cpg/sg2_275_cif.got.tgz:548051.got - 2010.06.03 11:33:40.
