data_PCOD9109997
_publ_section_title
;
Structure prediction by ZEFSAII (Michael W. Deem and Ramdas Pophale) SiO2 
 PCOD9109997
Probable space group: P -1
;
_chemical_formula_sum "Si O2"
_cell_formula_units_Z 16
_cell_length_a 20.462009
_cell_length_b 8.297195
_cell_length_c 8.345936
_cell_angle_alpha 63.434504
_cell_angle_beta 119.441078
_cell_angle_gamma 147.910119
_cell_volume 654.090653
_symmetry_space_group_name_H-M "P -1"
_symmetry_group_IT_number 2
_symmetry_cell_setting 'triclinic'
loop_
_space_group_symop_operation_xyz
x,y,z
-x,-y,-z
loop_
_atom_site_type_symbol
_atom_site_label
_atom_site_fract_x
_atom_site_fract_y
_atom_site_fract_z
Si Si1 0.084425 0.172900 0.368272
Si Si2 0.739232 0.525217 0.991411
Si Si3 0.350469 0.229166 0.921620
Si Si4 0.845979 0.404333 0.964927
Si Si5 0.083300 0.859483 0.244085
Si Si6 0.479753 0.756307 0.349294
Si Si7 0.687838 0.874454 0.440359
Si Si8 0.682236 0.417502 0.318812
O O1 0.079930 0.356889 0.195902
O O2 0.226723 0.431781 0.489817
O O3 0.055376 0.955467 0.305666
O O4 0.000000 0.000000 0.500000
O O5 0.774524 0.431959 0.955074
O O6 0.603042 0.346717 0.859279
O O7 0.839757 0.876094 0.914483
O O8 0.737348 0.447248 0.203881
O O9 0.308204 0.078301 0.763109
O O10 0.322928 0.384849 0.820671
O O11 0.500000 0.500000 0.000000
O O12 0.260759 0.944443 0.058937
O O13 0.954357 0.539367 0.153760
O O14 0.177071 0.892440 0.417115
O O15 0.595770 0.843930 0.419929
O O16 0.383944 0.457763 0.476492
O O17 0.547135 0.068457 0.346862
#
# Coordination Sequence:
#
# PCOD9109997 Si02
#       8
#     2   2   2   2   2   2   2   2
#     4  11  23  43  68 104 133 171 228 285 341 398
#     4  10  20  41  68  98 129 179 229 272 330 416
#     4  12  26  42  65 101 144 170 224 284 345 397
#     4  11  24  44  71  97 134 189 220 275 343 406
#     4  10  21  44  70  94 134 177 231 270 337 415
#     4  10  22  39  69  97 133 183 230 273 337 405
#     4  10  22  43  65 100 134 178 229 280 330 412
#     4  12  23  40  66  99 136 172 225 280 339 391
#
# _framework density 24.46144
#
# number of rings (size 3 to 8) (size 9 to 14) (size 15 to 20)
#    0.000    1.250    1.250    5.625    1.750    1.000 
#    2.250    1.250    0.000    0.000    0.000    0.000 
#    0.000    0.000    0.000    0.000    0.000    0.000 
#
# Total GULP energy -89597.455165 kJ/mol
# GULP energy per Si atom -5599.840948 kJ/mol
# Density = 2.440576 g / cm^3
# Si number density = 24.461440 Si / 1000 Ang^3
#
#
#
# Elastic Constant Matrix: (Units=GPa)
#
#
# Indices 1 2 3 4 5 6 
#
# 1 51.2323 22.5309 25.2315 5.5961 4.1201 15.2851
# 2 22.5309 134.9125 35.1860 10.9275 17.1525 25.8210
# 3 25.2315 35.1860 89.3545 6.0853 -4.8809 13.9852
# 4 5.5961 10.9275 6.0853 25.6601 7.8850 11.4640
# 5 4.1201 17.1525 -4.8809 7.8850 39.4444 5.3812
# 6 15.2851 25.8210 13.9852 11.4640 5.3812 28.9930
#
#
#
# Elastic Compliance Matrix: (Units=1/GPa)
#
#
# Indices 1 2 3 4 5 6 
#
# 1 0.025667 -0.000722 -0.005529 0.001227 -0.001883 -0.010357
# 2 -0.000722 0.010018 -0.002958 0.000782 -0.003889 -0.006702
# 3 -0.005529 -0.002958 0.014504 -0.001539 0.004186 -0.001616
# 4 0.001227 0.000782 -0.001539 0.049556 -0.008013 -0.018709
# 5 -0.001883 -0.003889 0.004186 -0.008013 0.029338 0.000160
# 6 -0.010357 -0.006702 -0.001616 -0.018709 0.000160 0.054067
#
#
# Mechanical properties :
#
#
# Convention : Reuss Voigt Hill
#
# Bulk Modulus (GPa) = 31.47502 49.04400 40.25951
# Shear Modulus (GPa) = 23.56746 31.65622 27.61184
#
# Velocity S-wave (km/s) = 3.10732 3.60130 3.36339
# Velocity P-wave (km/s) = 5.07632 6.11437 5.61937
#
# Compressibility (1/GPa) = 0.03177122
#
# Stress axis : x y z
#
# Youngs Moduli (GPa) = 38.96075 99.82051 68.94848
#
# Poissons Ratio (x) = 0.07209 0.38120
# Poissons Ratio (y) = 0.02814 0.20393
# Poissons Ratio (z) = 0.21540 0.29524
#
# Static dielectric constant tensor:
#      x y z
#    x 1.991060 -0.006580 -0.043210 
#    y -0.006580 1.964210 -0.026000 
#    z -0.043210 -0.026000 1.979190 
# 
# From -- ./inp_files/352043.got.cif
#   From: 2010.05.17/outbox.cif.g08.bks.cpg/sg2_177_cif.got.tgz:352043.got - 2010.06.03 11:33:40.
