data_PCOD9109593
_publ_section_title
;
Structure prediction by ZEFSAII (Michael W. Deem and Ramdas Pophale) SiO2 
 PCOD9109593
Probable space group: P -1
;
_chemical_formula_sum "Si O2"
_cell_formula_units_Z 14
_cell_length_a 9.639361
_cell_length_b 8.159019
_cell_length_c 8.245620
_cell_angle_alpha 82.968408
_cell_angle_beta 64.993890
_cell_angle_gamma 67.443708
_cell_volume 542.140707
_symmetry_space_group_name_H-M "P -1"
_symmetry_group_IT_number 2
_symmetry_cell_setting 'triclinic'
loop_
_space_group_symop_operation_xyz
x,y,z
-x,-y,-z
loop_
_atom_site_type_symbol
_atom_site_label
_atom_site_fract_x
_atom_site_fract_y
_atom_site_fract_z
Si Si1 0.512815 0.803183 0.196804
Si Si2 0.151833 0.423107 0.805800
Si Si3 0.610486 0.116071 0.251045
Si Si4 0.192340 0.947919 0.159896
Si Si5 0.140521 0.114321 0.631124
Si Si6 0.904950 0.677912 0.705024
Si Si7 0.605339 0.608656 0.861461
O O1 0.660570 0.629604 0.217626
O O2 0.319664 0.844350 0.253386
O O3 0.536093 0.968918 0.252190
O O4 0.561329 0.776976 0.985058
O O5 0.143708 0.242679 0.761087
O O6 0.092023 0.565803 0.673141
O O7 0.000000 0.500000 0.000000
O O8 0.467047 0.308651 0.285528
O O9 0.701571 0.061139 0.382521
O O10 0.738955 0.117975 0.045622
O O11 0.021475 0.928893 0.277056
O O12 0.157618 0.156866 0.160351
O O13 0.133250 0.222210 0.458609
O O14 0.802006 0.545722 0.774816
O O15 0.500000 0.500000 0.000000
#
# Coordination Sequence:
#
# PCOD9109593 Si02
#       7
#     2   2   2   2   2   2   2
#     4  10  20  41  66  91 121 172 224 266 317 375
#     4  11  23  43  67  92 132 178 216 268 328 392
#     4  10  20  42  65  92 127 170 229 265 316 389
#     4  11  21  42  69  94 130 173 226 268 314 399
#     4  11  26  40  67 101 131 176 220 267 336 389
#     4  12  23  43  66  96 142 170 211 283 334 378
#     4  11  22  37  67 100 126 167 225 273 322 388
#
# _framework density 25.823554999999999
#
# number of rings (size 3 to 8) (size 9 to 14) (size 15 to 20)
#    0.000    1.143    4.286    3.000    4.000    1.714 
#    0.000    0.714    0.000    0.000    0.000    0.000 
#    0.000    0.000    0.000    0.000    0.000    0.000 
#
# Total GULP energy -78174.118705 kJ/mol
# GULP energy per Si atom -5583.865622 kJ/mol
# Density = 2.576478 g / cm^3
# Si number density = 25.823555 Si / 1000 Ang^3
#
#
#
# Elastic Constant Matrix: (Units=GPa)
#
#
# Indices 1 2 3 4 5 6 
#
# 1 173.2340 48.1648 28.7558 -41.3873 7.8711 -42.8598
# 2 48.1648 76.5920 5.7437 -19.3228 5.5657 -38.4643
# 3 28.7558 5.7437 68.1467 -25.5239 12.2291 -8.7891
# 4 -41.3873 -19.3228 -25.5239 35.1080 -2.8542 13.7811
# 5 7.8711 5.5657 12.2291 -2.8542 38.2784 -22.6435
# 6 -42.8598 -38.4643 -8.7891 13.7811 -22.6435 57.6498
#
#
#
# Elastic Compliance Matrix: (Units=1/GPa)
#
#
# Indices 1 2 3 4 5 6 
#
# 1 0.009259 -0.001634 -0.000492 0.008041 0.001741 0.004480
# 2 -0.001634 0.022674 0.002238 0.006816 0.005603 0.014826
# 3 -0.000492 0.002238 0.022131 0.017130 -0.007525 -0.002549
# 4 0.008041 0.006816 0.017130 0.054504 -0.005196 -0.001933
# 5 0.001741 0.005603 -0.007525 -0.005196 0.039082 0.020477
# 6 0.004480 0.014826 -0.002549 -0.001933 0.020477 0.038685
#
#
# Mechanical properties :
#
#
# Convention : Reuss Voigt Hill
#
# Bulk Modulus (GPa) = 18.42037 53.70015 36.06026
# Shear Modulus (GPa) = 24.48520 41.89449 33.18985
#
# Velocity S-wave (km/s) = 3.08258 4.03219 3.58893
# Velocity P-wave (km/s) = 4.45179 6.52060 5.58286
#
# Compressibility (1/GPa) = 0.05428773
#
# Stress axis : x y z
#
# Youngs Moduli (GPa) = 108.00597 44.10417 45.18607
#
# Poissons Ratio (x) = 0.07205 0.02224
# Poissons Ratio (y) = 0.17643 -0.10113
# Poissons Ratio (z) = 0.05315 -0.09871
#
# Static dielectric constant tensor:
#      x y z
#    x 2.076630 -0.098440 0.008320 
#    y -0.098440 2.126780 0.035090 
#    z 0.008320 0.035090 2.093210 
# 
# From -- ./inp_files/157958.got.cif
#   From: 2010.05.17/outbox.cif.g08.bks.cpg/sg2_79_cif.got.tgz:157958.got - 2010.06.03 11:33:40.
