data_PCOD9109511
_publ_section_title
;
Structure prediction by ZEFSAII (Michael W. Deem and Ramdas Pophale) SiO2 
 PCOD9109511
Probable space group: P -1
;
_chemical_formula_sum "Si O2"
_cell_formula_units_Z 14
_cell_length_a 9.693789
_cell_length_b 19.771411
_cell_length_c 8.022878
_cell_angle_alpha 147.047259
_cell_angle_beta 45.256307
_cell_angle_gamma 122.916247
_cell_volume 589.605219
_symmetry_space_group_name_H-M "P -1"
_symmetry_group_IT_number 2
_symmetry_cell_setting 'triclinic'
loop_
_space_group_symop_operation_xyz
x,y,z
-x,-y,-z
loop_
_atom_site_type_symbol
_atom_site_label
_atom_site_fract_x
_atom_site_fract_y
_atom_site_fract_z
Si Si1 0.242127 0.698123 0.514250
Si Si2 0.111076 0.185678 0.734465
Si Si3 0.773129 0.553145 0.827162
Si Si4 0.974950 0.682016 0.384417
Si Si5 0.512470 0.907183 0.637956
Si Si6 0.712347 0.498436 0.393033
Si Si7 0.834613 0.943034 0.916841
O O1 0.305422 0.553805 0.214398
O O2 0.105629 0.698563 0.469713
O O3 0.409132 0.784738 0.516165
O O4 0.101356 0.763879 0.913256
O O5 0.254705 0.132177 0.652941
O O6 0.103196 0.084789 0.386739
O O7 0.215864 0.305570 0.827544
O O8 0.694058 0.551863 0.704308
O O9 0.000000 0.500000 0.500000
O O10 0.830160 0.582716 0.348632
O O11 0.839962 0.806446 0.707017
O O12 0.140628 0.631743 0.003404
O O13 0.500000 0.000000 0.000000
O O14 0.377731 0.975918 0.749424
O O15 0.500000 0.500000 0.500000
O O16 0.000000 0.000000 0.000000
#
# Coordination Sequence:
#
# PCOD9109511 Si02
#       7
#     2   2   2   2   2   2   2
#     4  11  22  41  70  95 125 176 209 256 332 379
#     4  10  23  42  68  91 133 161 216 271 312 385
#     4  10  20  41  65  98 127 165 209 256 329 391
#     4  11  23  42  67  92 134 168 208 263 324 378
#     4  10  24  43  63  94 128 167 224 261 306 378
#     4  11  25  41  66 100 133 162 208 267 327 382
#     4  11  23  43  66  92 127 176 215 263 317 371
#
# _framework density 23.744703999999999
#
# number of rings (size 3 to 8) (size 9 to 14) (size 15 to 20)
#    0.000    1.429    4.286    1.714    4.000    5.143 
#    0.000    2.143    0.000    0.000    0.000    0.000 
#    0.000    0.000    0.000    0.000    0.000    0.000 
#
# Total GULP energy -78265.551900 kJ/mol
# GULP energy per Si atom -5590.396564 kJ/mol
# Density = 2.369066 g / cm^3
# Si number density = 23.744704 Si / 1000 Ang^3
#
#
#
# Elastic Constant Matrix: (Units=GPa)
#
#
# Indices 1 2 3 4 5 6 
#
# 1 182.5668 34.9618 42.9724 3.5389 -8.8136 12.5337
# 2 34.9618 66.7200 31.9013 5.8593 -11.4246 8.4456
# 3 42.9724 31.9013 78.7383 7.0069 -9.9899 0.4126
# 4 3.5389 5.8593 7.0069 33.1786 -7.1278 -2.4856
# 5 -8.8136 -11.4246 -9.9899 -7.1278 52.9799 5.0577
# 6 12.5337 8.4456 0.4126 -2.4856 5.0577 32.1281
#
#
#
# Elastic Compliance Matrix: (Units=1/GPa)
#
#
# Indices 1 2 3 4 5 6 
#
# 1 0.006657 -0.001795 -0.002856 0.000136 0.000405 -0.002142
# 2 -0.001795 0.020503 -0.006751 -0.001726 0.003117 -0.005227
# 3 -0.002856 -0.006751 0.017249 -0.001783 0.000853 0.002395
# 4 0.000136 -0.001726 -0.001783 0.031703 0.003356 0.002348
# 5 0.000405 0.003117 0.000853 0.003356 0.020606 -0.003972
# 6 -0.002142 -0.005227 0.002395 0.002348 -0.003972 0.034111
#
#
# Mechanical properties :
#
#
# Convention : Reuss Voigt Hill
#
# Bulk Modulus (GPa) = 46.28357 60.85512 53.56934
# Shear Modulus (GPa) = 31.08780 38.20329 34.64554
#
# Velocity S-wave (km/s) = 3.62228 4.01548 3.82394
# Velocity P-wave (km/s) = 6.08515 6.86902 6.48893
#
# Compressibility (1/GPa) = 0.02160594
#
# Stress axis : x y z
#
# Youngs Moduli (GPa) = 150.21257 48.77270 57.97599
#
# Poissons Ratio (x) = 0.08752 0.16556
# Poissons Ratio (y) = 0.26956 0.39141
# Poissons Ratio (z) = 0.42897 0.32928
#
# Static dielectric constant tensor:
#      x y z
#    x 1.911850 -0.038050 -0.028510 
#    y -0.038050 1.932430 0.033220 
#    z -0.028510 0.033220 2.011860 
# 
# From -- ./inp_files/224313.got.cif
#   From: 2010.05.17/outbox.cif.g08.bks.cpg/sg2_113_cif.got.tgz:224313.got - 2010.06.03 11:33:40.
