data_PCOD9109100
_publ_section_title
;
Structure prediction by ZEFSAII (Michael W. Deem and Ramdas Pophale) SiO2 
 PCOD9109100
Probable space group: P -1
;
_chemical_formula_sum "Si O2"
_cell_formula_units_Z 16
_cell_length_a 17.648591
_cell_length_b 6.374349
_cell_length_c 8.392689
_cell_angle_alpha 66.375112
_cell_angle_beta 64.527267
_cell_angle_gamma 55.221828
_cell_volume 684.564655
_symmetry_space_group_name_H-M "P -1"
_symmetry_group_IT_number 2
_symmetry_cell_setting 'triclinic'
loop_
_space_group_symop_operation_xyz
x,y,z
-x,-y,-z
loop_
_atom_site_type_symbol
_atom_site_label
_atom_site_fract_x
_atom_site_fract_y
_atom_site_fract_z
Si Si1 0.399764 0.587832 0.983263
Si Si2 0.861565 0.221251 0.575307
Si Si3 0.771015 0.922046 0.855226
Si Si4 0.951469 0.505950 0.290391
Si Si5 0.896458 0.410703 0.024298
Si Si6 0.313812 0.254454 0.296299
Si Si7 0.182952 0.914932 0.687531
Si Si8 0.399239 0.740345 0.575167
O O1 0.401792 0.700811 0.774192
O O2 0.500000 0.500000 0.000000
O O3 0.321515 0.826440 0.081289
O O4 0.371684 0.355987 0.098973
O O5 0.855305 0.002586 0.754412
O O6 0.945305 0.300581 0.479982
O O7 0.763697 0.489480 0.618511
O O8 0.854018 0.128326 0.434038
O O9 0.746169 0.838963 0.734399
O O10 0.800260 0.684792 0.020082
O O11 0.943706 0.404637 0.152765
O O12 0.858066 0.783076 0.325770
O O13 0.038306 0.571942 0.180962
O O14 0.864777 0.191626 0.106686
O O15 0.380678 0.014367 0.426402
O O16 0.297584 0.750766 0.625003
O O17 0.500000 0.500000 0.500000
#
# Coordination Sequence:
#
# PCOD9109100 Si02
#       8
#     2   2   2   2   2   2   2   2
#     4  11  27  44  66 100 134 172 222 277 329 396
#     4  10  21  39  67  88 130 176 210 271 328 390
#     4  11  22  42  64  96 130 174 216 273 332 385
#     4  10  20  41  62  98 128 172 222 267 328 403
#     4  10  23  36  67  95 131 173 217 273 334 389
#     4  11  24  46  67  94 139 173 219 275 331 398
#     4  11  21  41  64  92 132 171 220 271 327 394
#     4  12  25  43  72  99 128 180 223 267 336 394
#
# _framework density 23.372516999999998
#
# number of rings (size 3 to 8) (size 9 to 14) (size 15 to 20)
#    0.000    1.250    2.500    2.625    3.500    5.000 
#    0.000    2.500    0.000    0.000    0.000    0.000 
#    0.000    0.000    0.000    0.000    0.000    0.000 
#
# Total GULP energy -89355.250880 kJ/mol
# GULP energy per Si atom -5584.703180 kJ/mol
# Density = 2.331932 g / cm^3
# Si number density = 23.372517 Si / 1000 Ang^3
#
#
#
# Elastic Constant Matrix: (Units=GPa)
#
#
# Indices 1 2 3 4 5 6 
#
# 1 80.5455 30.3853 31.5387 -2.3507 -10.2362 -11.5896
# 2 30.3853 89.2711 33.9498 -19.2890 -2.5331 -4.0117
# 3 31.5387 33.9498 74.8862 -11.3496 -0.6669 9.7696
# 4 -2.3507 -19.2890 -11.3496 45.8646 -3.2290 -4.2953
# 5 -10.2362 -2.5331 -0.6669 -3.2290 43.1543 -3.3536
# 6 -11.5896 -4.0117 9.7696 -4.2953 -3.3536 33.4248
#
#
#
# Elastic Compliance Matrix: (Units=1/GPa)
#
#
# Indices 1 2 3 4 5 6 
#
# 1 0.018317 -0.003088 -0.007551 -0.001106 0.004625 0.008509
# 2 -0.003088 0.015631 -0.005366 0.005436 0.000753 0.003148
# 3 -0.007551 -0.005366 0.020361 0.001356 -0.002411 -0.009281
# 4 -0.001106 0.005436 0.001356 0.024830 0.002191 0.003283
# 5 0.004625 0.000753 -0.002411 0.002191 0.024843 0.005173
# 6 0.008509 0.003148 -0.009281 0.003283 0.005173 0.036900
#
#
# Mechanical properties :
#
#
# Convention : Reuss Voigt Hill
#
# Bulk Modulus (GPa) = 44.84464 48.49449 46.66957
# Shear Modulus (GPa) = 27.72785 34.41065 31.06925
#
# Velocity S-wave (km/s) = 3.44807 3.84118 3.64992
# Velocity P-wave (km/s) = 5.92291 6.36132 6.14603
#
# Compressibility (1/GPa) = 0.02229921
#
# Stress axis : x y z
#
# Youngs Moduli (GPa) = 54.59426 63.97574 49.11338
#
# Poissons Ratio (x) = 0.19758 0.37084
# Poissons Ratio (y) = 0.16861 0.26353
# Poissons Ratio (z) = 0.41223 0.34328
#
# Static dielectric constant tensor:
#      x y z
#    x 1.882330 0.004910 -0.058660 
#    y 0.004910 1.863970 -0.034360 
#    z -0.058660 -0.034360 1.971110 
# 
# From -- ./inp_files/56956.got.cif
#   From: 2010.05.17/outbox.cif.g08.bks.cpg/sg2_29_cif.got.tgz:56956.got - 2010.06.03 11:33:40.
