data_PCOD9109929
_publ_section_title
;
Structure prediction by ZEFSAII (Michael W. Deem and Ramdas Pophale) SiO2 
 PCOD9109929
Probable space group: P -1
;
_chemical_formula_sum "Si O2"
_cell_formula_units_Z 16
_cell_length_a 11.778072
_cell_length_b 14.062943
_cell_length_c 9.427222
_cell_angle_alpha 48.776804
_cell_angle_beta 120.014715
_cell_angle_gamma 82.564878
_cell_volume 721.401914
_symmetry_space_group_name_H-M "P -1"
_symmetry_group_IT_number 2
_symmetry_cell_setting 'triclinic'
loop_
_space_group_symop_operation_xyz
x,y,z
-x,-y,-z
loop_
_atom_site_type_symbol
_atom_site_label
_atom_site_fract_x
_atom_site_fract_y
_atom_site_fract_z
Si Si1 0.264458 0.617186 0.070002
Si Si2 0.893047 0.196698 0.786993
Si Si3 0.800877 0.429570 0.239528
Si Si4 0.201773 0.285028 0.597306
Si Si5 0.617080 0.802983 0.710174
Si Si6 0.000857 0.322098 0.944837
Si Si7 0.522456 0.081989 0.779382
Si Si8 0.623273 0.259973 0.786649
O O1 0.417688 0.437283 0.434838
O O2 0.313831 0.727547 0.035353
O O3 0.074765 0.699195 0.943505
O O4 0.264350 0.585891 0.935438
O O5 0.804873 0.326920 0.469688
O O6 0.747217 0.248736 0.760627
O O7 0.018668 0.212398 0.934304
O O8 0.000000 0.000000 0.000000
O O9 0.011194 0.336913 0.436738
O O10 0.675083 0.637689 0.993026
O O11 0.326095 0.189355 0.626268
O O12 0.142829 0.470268 0.395402
O O13 0.349597 0.127474 0.955110
O O14 0.512329 0.828406 0.479002
O O15 0.500000 0.000000 0.500000
O O16 0.810655 0.733924 0.853097
O O17 0.633847 0.103204 0.928435
#
# Coordination Sequence:
#
# PCOD9109929 Si02
#       8
#     2   2   2   2   2   2   2   2
#     4  10  20  41  68  93 119 172 223 265 315 381
#     4  11  26  42  64  93 134 182 213 266 323 392
#     4  11  23  43  68  94 132 172 219 268 328 387
#     4  10  22  37  69  95 125 169 214 274 327 383
#     4  11  25  38  65  98 134 167 211 273 326 394
#     4  10  22  43  66  92 130 172 217 264 332 386
#     4  11  21  41  65  99 130 163 217 276 322 382
#     4  10  21  40  67  90 130 171 216 269 317 381
#
# _framework density 22.179037000000001
#
# number of rings (size 3 to 8) (size 9 to 14) (size 15 to 20)
#    0.000    1.500    2.500    1.500    5.250    3.500 
#    0.000    8.125    0.000    0.000    0.000    0.000 
#    0.000    0.000    0.000    0.000    0.000    0.000 
#
# Total GULP energy -89337.397733 kJ/mol
# GULP energy per Si atom -5583.587358 kJ/mol
# Density = 2.212856 g / cm^3
# Si number density = 22.179037 Si / 1000 Ang^3
#
#
#
# Elastic Constant Matrix: (Units=GPa)
#
#
# Indices 1 2 3 4 5 6 
#
# 1 46.7439 16.8419 10.0433 -3.4872 -4.8062 8.0392
# 2 16.8419 110.3729 36.8288 -10.0245 -12.4360 19.1540
# 3 10.0433 36.8288 83.3134 -23.8502 -16.4115 0.7307
# 4 -3.4872 -10.0245 -23.8502 33.1476 0.5477 -2.6784
# 5 -4.8062 -12.4360 -16.4115 0.5477 29.0201 -1.9583
# 6 8.0392 19.1540 0.7307 -2.6784 -1.9583 26.2585
#
#
#
# Elastic Compliance Matrix: (Units=1/GPa)
#
#
# Indices 1 2 3 4 5 6 
#
# 1 0.023578 -0.001880 -0.001493 0.000352 0.001868 -0.005630
# 2 -0.001880 0.012667 -0.005221 -0.000836 0.001607 -0.008484
# 3 -0.001493 -0.005221 0.019882 0.012882 0.008900 0.005690
# 4 0.000352 -0.000836 0.012882 0.039489 0.006554 0.004660
# 5 0.001868 0.001607 0.008900 0.006554 0.040481 0.001695
# 6 -0.005630 -0.008484 0.005690 0.004660 0.001695 0.046439
#
#
# Mechanical properties :
#
#
# Convention : Reuss Voigt Hill
#
# Bulk Modulus (GPa) = 25.68161 40.87313 33.27737
# Shear Modulus (GPa) = 23.50697 29.46632 26.48664
#
# Velocity S-wave (km/s) = 3.25910 3.64890 3.45950
# Velocity P-wave (km/s) = 5.07609 6.01842 5.56723
#
# Compressibility (1/GPa) = 0.03893836
#
# Stress axis : x y z
#
# Youngs Moduli (GPa) = 42.41234 78.94735 50.29752
#
# Poissons Ratio (x) = 0.14842 0.07510
# Poissons Ratio (y) = 0.07974 0.26260
# Poissons Ratio (z) = 0.06333 0.41217
#
# Static dielectric constant tensor:
#      x y z
#    x 1.826070 0.000290 0.004650 
#    y 0.000290 1.878450 -0.046750 
#    z 0.004650 -0.046750 1.846310 
# 
# From -- ./inp_files/271857.got.cif
#   From: 2010.05.17/outbox.cif.g08.bks.cpg/sg2_136_cif.got.tgz:271857.got - 2010.06.03 11:33:40.
