data_PCOD9109244
_publ_section_title
;
Structure prediction by ZEFSAII (Michael W. Deem and Ramdas Pophale) SiO2 
 PCOD9109244
Probable space group: P -1
;
_chemical_formula_sum "Si O2"
_cell_formula_units_Z 16
_cell_length_a 7.068298
_cell_length_b 18.975272
_cell_length_c 14.521431
_cell_angle_alpha 25.487254
_cell_angle_beta 80.758816
_cell_angle_gamma 67.075441
_cell_volume 676.326734
_symmetry_space_group_name_H-M "P -1"
_symmetry_group_IT_number 2
_symmetry_cell_setting 'triclinic'
loop_
_space_group_symop_operation_xyz
x,y,z
-x,-y,-z
loop_
_atom_site_type_symbol
_atom_site_label
_atom_site_fract_x
_atom_site_fract_y
_atom_site_fract_z
Si Si1 0.006980 0.711259 0.708716
Si Si2 0.666552 0.606000 0.819562
Si Si3 0.744499 0.060048 0.871908
Si Si4 0.408827 0.185067 0.584649
Si Si5 0.715418 0.074428 0.201037
Si Si6 0.489535 0.324920 0.750443
Si Si7 0.032090 0.697732 0.398187
Si Si8 0.740008 0.073491 0.401147
O O1 0.910141 0.592932 0.812232
O O2 0.971745 0.873154 0.445952
O O3 0.801425 0.856424 0.627258
O O4 0.247152 0.579872 0.900178
O O5 0.599664 0.641872 0.676035
O O6 0.452408 0.796662 0.662782
O O7 0.614035 0.085459 0.759058
O O8 0.568489 0.166343 0.848852
O O9 0.861235 0.183432 0.710774
O O10 0.919614 0.828150 0.159925
O O11 0.171297 0.269446 0.559934
O O12 0.424051 0.022305 0.705141
O O13 0.655052 0.180073 0.181145
O O14 0.665109 0.213688 0.954120
O O15 0.500000 0.500000 0.500000
O O16 0.223870 0.461756 0.646384
O O17 0.000000 0.000000 0.500000
#
# Coordination Sequence:
#
# PCOD9109244 Si02
#       8
#     2   2   2   2   2   2   2   2
#     4   8  20  39  61  86 121 161 209 258 307 376
#     4  10  20  41  64  89 125 164 212 263 313 380
#     4  10  22  43  62  92 133 163 214 264 314 381
#     4  11  22  40  66  96 127 169 212 260 321 380
#     4   9  21  39  62  91 123 167 213 251 320 377
#     4  10  21  41  63  92 129 163 211 267 309 382
#     4  10  22  40  65  87 130 172 205 264 319 372
#     4  10  22  41  63  91 128 167 208 265 319 379
#
# _framework density 23.657204
#
# number of rings (size 3 to 8) (size 9 to 14) (size 15 to 20)
#    0.750    1.500    1.250    0.750    0.000    5.000 
#    4.500    0.000    0.000    0.000    0.000    0.000 
#    0.000    0.000    0.000    0.000    0.000    0.000 
#
# Total GULP energy -89085.367134 kJ/mol
# GULP energy per Si atom -5567.835446 kJ/mol
# Density = 2.360336 g / cm^3
# Si number density = 23.657204 Si / 1000 Ang^3
#
#
#
# Elastic Constant Matrix: (Units=GPa)
#
#
# Indices 1 2 3 4 5 6 
#
# 1 79.7080 31.1674 28.7162 19.4847 20.9564 7.9090
# 2 31.1674 89.2356 61.9939 31.6414 22.4935 -3.7422
# 3 28.7162 61.9939 174.4538 32.4497 29.8425 -1.3917
# 4 19.4847 31.6414 32.4497 47.7894 5.2668 12.6596
# 5 20.9564 22.4935 29.8425 5.2668 33.7181 6.4962
# 6 7.9090 -3.7422 -1.3917 12.6596 6.4962 27.9450
#
#
#
# Elastic Compliance Matrix: (Units=1/GPa)
#
#
# Indices 1 2 3 4 5 6 
#
# 1 0.016691 -0.002677 0.000293 -0.003981 -0.007954 -0.001415
# 2 -0.002677 0.022338 -0.002991 -0.013745 -0.010822 0.012342
# 3 0.000293 -0.002991 0.008509 -0.004119 -0.005677 0.003126
# 4 -0.003981 -0.013745 -0.004119 0.038679 0.013401 -0.021557
# 5 -0.007954 -0.010822 -0.005677 0.013401 0.047969 -0.016703
# 6 -0.001415 0.012342 0.003126 -0.021557 -0.016703 0.051642
#
#
# Mechanical properties :
#
#
# Convention : Reuss Voigt Hill
#
# Bulk Modulus (GPa) = 27.18136 65.23917 46.21027
# Shear Modulus (GPa) = 23.94160 36.65849 30.30004
#
# Velocity S-wave (km/s) = 3.18468 3.94073 3.58270
# Velocity P-wave (km/s) = 5.00375 6.95288 6.05723
#
# Compressibility (1/GPa) = 0.03678991
#
# Stress axis : x y z
#
# Youngs Moduli (GPa) = 59.91106 44.76611 117.52123
#
# Poissons Ratio (x) = 0.11982 -0.03448
# Poissons Ratio (y) = 0.16036 0.35154
# Poissons Ratio (z) = -0.01758 0.13391
#
# Static dielectric constant tensor:
#      x y z
#    x 1.969270 0.003650 -0.008760 
#    y 0.003650 1.946820 -0.000070 
#    z -0.008760 -0.000070 1.955840 
# 
# From -- ./inp_files/507656.got.cif
#   From: 2010.05.17/outbox.cif.g08.bks.cpg/sg2_254_cif.got.tgz:507656.got - 2010.06.03 11:33:40.
