data_PCOD9109981
_publ_section_title
;
Structure prediction by ZEFSAII (Michael W. Deem and Ramdas Pophale) SiO2 
 PCOD9109981
Probable space group: P -1
;
_chemical_formula_sum "Si O2"
_cell_formula_units_Z 12
_cell_length_a 21.188665
_cell_length_b 12.146973
_cell_length_c 7.481651
_cell_angle_alpha 47.679372
_cell_angle_beta 144.112976
_cell_angle_gamma 152.803539
_cell_volume 507.784871
_symmetry_space_group_name_H-M "P -1"
_symmetry_group_IT_number 2
_symmetry_cell_setting 'triclinic'
loop_
_space_group_symop_operation_xyz
x,y,z
-x,-y,-z
loop_
_atom_site_type_symbol
_atom_site_label
_atom_site_fract_x
_atom_site_fract_y
_atom_site_fract_z
Si Si1 0.761501 0.408183 0.779414
Si Si2 0.597003 0.762526 0.400862
Si Si3 0.583443 0.974349 0.425353
Si Si4 0.958429 0.507936 0.603007
Si Si5 0.993468 0.165333 0.842350
Si Si6 0.485329 0.311995 0.112649
O O1 0.590683 0.138257 0.770240
O O2 0.671811 0.424814 0.418195
O O3 0.854947 0.615578 0.914116
O O4 0.904989 0.441490 0.024736
O O5 0.500000 0.500000 0.500000
O O6 0.518223 0.810375 0.282570
O O7 0.592632 0.781254 0.159945
O O8 0.801672 0.983936 0.686294
O O9 0.622004 0.893969 0.755638
O O10 0.757649 0.255047 0.471664
O O11 0.990492 0.718127 0.427483
O O12 0.000000 0.500000 0.500000
O O13 0.000000 0.000000 0.000000
O O14 0.500000 0.500000 0.000000
#
# Coordination Sequence:
#
# PCOD9109981 Si02
#       6
#     2   2   2   2   2   2
#     4   9  21  41  67  95 136 179 228 271 348 399
#     4  12  21  40  68  99 137 177 229 282 339 403
#     4  10  21  41  68  95 140 179 223 277 352 380
#     4  10  20  41  68  96 136 182 226 279 341 415
#     4  11  22  40  67 101 134 174 232 283 332 414
#     4  10  21  39  64 100 143 176 229 282 333 409
#
# _framework density 23.632054
#
# number of rings (size 3 to 8) (size 9 to 14) (size 15 to 20)
#    1.000    0.667    5.000    2.000    0.000    2.667 
#    3.000    8.333    0.000    0.000    0.000    0.000 
#    0.000    0.000    0.000    0.000    0.000    0.000 
#
# Total GULP energy -67070.303134 kJ/mol
# GULP energy per Si atom -5589.191928 kJ/mol
# Density = 2.357827 g / cm^3
# Si number density = 23.632054 Si / 1000 Ang^3
#
#
#
# Elastic Constant Matrix: (Units=GPa)
#
#
# Indices 1 2 3 4 5 6 
#
# 1 84.6511 33.1697 30.2336 0.2137 -3.3401 -0.8878
# 2 33.1697 178.5899 49.0475 -3.7678 17.9757 11.6570
# 3 30.2336 49.0475 100.8253 0.7484 10.2682 -0.3656
# 4 0.2137 -3.7678 0.7484 45.4500 2.8357 13.7676
# 5 -3.3401 17.9757 10.2682 2.8357 41.2097 -1.8600
# 6 -0.8878 11.6570 -0.3656 13.7676 -1.8600 38.7899
#
#
#
# Elastic Compliance Matrix: (Units=1/GPa)
#
#
# Indices 1 2 3 4 5 6 
#
# 1 0.013998 -0.002044 -0.003499 -0.000764 0.003010 0.001317
# 2 -0.002044 0.007228 -0.002630 0.001744 -0.002919 -0.003002
# 3 -0.003499 -0.002630 0.012475 -0.000550 -0.002165 0.000919
# 4 -0.000764 0.001744 -0.000550 0.025261 -0.002859 -0.009650
# 5 0.003010 -0.002919 -0.002165 -0.002859 0.026665 0.003219
# 6 0.001317 -0.003002 0.000919 -0.009650 0.003219 0.030300
#
#
# Mechanical properties :
#
#
# Convention : Reuss Voigt Hill
#
# Bulk Modulus (GPa) = 57.62103 65.44088 61.53095
# Shear Modulus (GPa) = 36.21667 41.86429 39.04048
#
# Velocity S-wave (km/s) = 3.91899 4.21349 4.06891
# Velocity P-wave (km/s) = 6.70175 7.17098 6.94034
#
# Compressibility (1/GPa) = 0.01735478
#
# Stress axis : x y z
#
# Youngs Moduli (GPa) = 71.43647 138.35425 80.16231
#
# Poissons Ratio (x) = 0.28279 0.28052
# Poissons Ratio (y) = 0.14602 0.21080
# Poissons Ratio (z) = 0.24998 0.36383
#
# Static dielectric constant tensor:
#      x y z
#    x 1.966000 -0.002800 0.021910 
#    y -0.002800 1.872150 -0.018980 
#    z 0.021910 -0.018980 1.950880 
# 
# From -- ./inp_files/357143.got.cif
#   From: 2010.05.17/outbox.cif.g08.bks.cpg/sg2_179_cif.got.tgz:357143.got - 2010.06.03 11:33:40.
