data_PCOD9109518
_publ_section_title
;
Structure prediction by ZEFSAII (Michael W. Deem and Ramdas Pophale) SiO2 
 PCOD9109518
Probable space group: P -1
;
_chemical_formula_sum "Si O2"
_cell_formula_units_Z 16
_cell_length_a 11.011551
_cell_length_b 18.497592
_cell_length_c 5.581367
_cell_angle_alpha 121.679379
_cell_angle_beta 65.176078
_cell_angle_gamma 139.179303
_cell_volume 631.910870
_symmetry_space_group_name_H-M "P -1"
_symmetry_group_IT_number 2
_symmetry_cell_setting 'triclinic'
loop_
_space_group_symop_operation_xyz
x,y,z
-x,-y,-z
loop_
_atom_site_type_symbol
_atom_site_label
_atom_site_fract_x
_atom_site_fract_y
_atom_site_fract_z
Si Si1 0.757812 0.192686 0.582027
Si Si2 0.233836 0.664244 0.543444
Si Si3 0.056134 0.375242 0.994404
Si Si4 0.872640 0.067383 0.134374
Si Si5 0.064832 0.123595 0.587408
Si Si6 0.680017 0.636495 0.025394
Si Si7 0.484482 0.179059 0.053386
Si Si8 0.394233 0.603766 0.943088
O O1 0.834263 0.303764 0.553266
O O2 0.755576 0.102501 0.300261
O O3 0.563557 0.142668 0.747223
O O4 0.897863 0.247771 0.784615
O O5 0.317571 0.616049 0.273840
O O6 0.067435 0.599198 0.762960
O O7 0.417484 0.790615 0.721663
O O8 0.214653 0.465234 0.820066
O O9 0.160927 0.365168 0.088754
O O10 0.972187 0.098380 0.361314
O O11 0.734670 0.927045 0.957769
O O12 0.999830 0.136258 0.917997
O O13 0.264994 0.260552 0.662258
O O14 0.000000 0.000000 0.500000
O O15 0.590965 0.644130 0.882959
O O16 0.500000 0.500000 0.000000
O O17 0.570332 0.305371 0.112219
#
# Coordination Sequence:
#
# PCOD9109518 Si02
#       8
#     2   2   2   2   2   2   2   2
#     4  10  22  40  66  98 137 181 236 288 361 424
#     4  10  22  38  65  96 138 178 235 288 362 419
#     4  10  20  41  65  98 134 180 234 288 356 429
#     4  12  26  45  74  98 146 182 245 295 359 426
#     4  12  27  47  74 105 144 195 239 297 360 434
#     4  10  22  45  72 101 143 185 239 293 361 425
#     4  10  24  40  63 102 135 184 230 297 354 429
#     4  10  22  40  65  96 138 178 233 292 358 426
#
# _framework density 25.320027
#
# number of rings (size 3 to 8) (size 9 to 14) (size 15 to 20)
#    0.000    1.500    1.250    2.625    7.000    6.000 
#    0.000    0.625    0.000    0.000    0.000    0.000 
#    0.000    0.000    0.000    0.000    0.000    0.000 
#
# Total GULP energy -89172.057760 kJ/mol
# GULP energy per Si atom -5573.253610 kJ/mol
# Density = 2.526240 g / cm^3
# Si number density = 25.320027 Si / 1000 Ang^3
#
#
#
# Elastic Constant Matrix: (Units=GPa)
#
#
# Indices 1 2 3 4 5 6 
#
# 1 121.4855 30.5075 16.5837 -8.6369 8.6128 -1.5251
# 2 30.5075 99.2006 21.2145 8.9135 3.5239 12.3175
# 3 16.5837 21.2145 49.9841 -10.0255 11.7738 -5.0928
# 4 -8.6369 8.9135 -10.0255 35.2137 -5.6060 -4.0776
# 5 8.6128 3.5239 11.7738 -5.6060 36.1034 16.3448
# 6 -1.5251 12.3175 -5.0928 -4.0776 16.3448 31.3696
#
#
#
# Elastic Compliance Matrix: (Units=1/GPa)
#
#
# Indices 1 2 3 4 5 6 
#
# 1 0.009661 -0.003729 0.000276 0.003334 -0.003409 0.004188
# 2 -0.003729 0.015324 -0.009768 -0.007904 0.006990 -0.012454
# 3 0.000276 -0.009768 0.032165 0.011285 -0.016516 0.019143
# 4 0.003334 -0.007904 0.011285 0.035211 -0.003424 0.011459
# 5 -0.003409 0.006990 -0.016516 -0.003424 0.046350 -0.030187
# 6 0.004188 -0.012454 0.019143 0.011459 -0.030187 0.057297
#
#
# Mechanical properties :
#
#
# Convention : Reuss Voigt Hill
#
# Bulk Modulus (GPa) = 32.56351 45.25351 38.90851
# Shear Modulus (GPa) = 21.48813 34.02831 27.75822
#
# Velocity S-wave (km/s) = 2.91634 3.66994 3.31463
# Velocity P-wave (km/s) = 4.92227 5.98910 5.48170
#
# Compressibility (1/GPa) = 0.03070922
#
# Stress axis : x y z
#
# Youngs Moduli (GPa) = 103.50372 65.25561 31.08997
#
# Poissons Ratio (x) = 0.24332 -0.00857
# Poissons Ratio (y) = 0.38594 0.30367
# Poissons Ratio (z) = -0.02853 0.63739
#
# Static dielectric constant tensor:
#      x y z
#    x 2.037040 0.028200 -0.076180 
#    y 0.028200 2.119710 0.045800 
#    z -0.076180 0.045800 2.034910 
# 
# From -- ./inp_files/82854.got.cif
#   From: 2010.05.17/outbox.cif.g08.bks.cpg/sg2_42_cif.got.tgz:82854.got - 2010.06.03 11:33:40.
