data_PCOD9109098
_publ_section_title
;
Structure prediction by ZEFSAII (Michael W. Deem and Ramdas Pophale) SiO2 
 PCOD9109098
Probable space group: P -1
;
_chemical_formula_sum "Si O2"
_cell_formula_units_Z 16
_cell_length_a 20.893194
_cell_length_b 8.134116
_cell_length_c 5.300789
_cell_angle_alpha 105.388013
_cell_angle_beta 109.674786
_cell_angle_gamma 53.341689
_cell_volume 678.012688
_symmetry_space_group_name_H-M "P -1"
_symmetry_group_IT_number 2
_symmetry_cell_setting 'triclinic'
loop_
_space_group_symop_operation_xyz
x,y,z
-x,-y,-z
loop_
_atom_site_type_symbol
_atom_site_label
_atom_site_fract_x
_atom_site_fract_y
_atom_site_fract_z
Si Si1 0.071879 0.373110 0.840950
Si Si2 0.114276 0.887979 0.018401
Si Si3 0.322245 0.600346 0.774691
Si Si4 0.527891 0.817603 0.162983
Si Si5 0.763217 0.988673 0.905183
Si Si6 0.261510 0.508924 0.153945
Si Si7 0.366210 0.071360 0.320953
Si Si8 0.987154 0.227642 0.366536
O O1 0.061826 0.533909 0.684748
O O2 0.050785 0.214484 0.643979
O O3 0.164065 0.238107 0.005049
O O4 0.000000 0.500000 0.000000
O O5 0.164229 0.666570 0.137879
O O6 0.183302 0.936540 0.115863
O O7 0.076045 0.839088 0.708475
O O8 0.042316 0.081123 0.151672
O O9 0.274955 0.549318 0.898874
O O10 0.288296 0.837712 0.877741
O O11 0.415988 0.426569 0.910402
O O12 0.303756 0.568493 0.450726
O O13 0.589354 0.848394 0.421186
O O14 0.443825 0.879350 0.208106
O O15 0.500000 0.000000 0.000000
O O16 0.694382 0.981487 0.658155
O O17 0.306427 0.265247 0.140954
#
# Coordination Sequence:
#
# PCOD9109098 Si02
#       8
#     2   2   2   2   2   2   2   2
#     4  11  22  42  61  93 128 167 221 270 326 382
#     4  10  21  41  63  93 129 170 225 265 336 387
#     4  10  22  40  67  92 134 166 218 266 333 388
#     4  10  20  43  66  93 123 171 216 264 327 405
#     4  11  23  42  61  99 128 169 214 276 324 393
#     4  10  20  41  62  97 126 178 212 271 317 399
#     4  10  22  40  68  92 131 166 217 267 331 389
#     4  10  22  41  64  88 126 176 216 276 325 389
#
# _framework density 23.598378
#
# number of rings (size 3 to 8) (size 9 to 14) (size 15 to 20)
#    0.000    1.750    2.500    1.500    0.000    1.000 
#   20.250    0.625    0.000    0.000    0.000    0.000 
#    0.000    0.000    0.000    0.000    0.000    0.000 
#
# Total GULP energy -89094.505434 kJ/mol
# GULP energy per Si atom -5568.406590 kJ/mol
# Density = 2.354467 g / cm^3
# Si number density = 23.598378 Si / 1000 Ang^3
#
#
#
# Elastic Constant Matrix: (Units=GPa)
#
#
# Indices 1 2 3 4 5 6 
#
# 1 101.1892 26.2337 34.0888 -2.1296 35.4886 3.3478
# 2 26.2337 128.7906 -7.6441 -0.3529 8.1532 -27.4547
# 3 34.0888 -7.6441 49.0239 1.8636 18.8273 -3.3580
# 4 -2.1296 -0.3529 1.8636 35.7225 -3.5716 3.0302
# 5 35.4886 8.1532 18.8273 -3.5716 33.8177 -0.2711
# 6 3.3478 -27.4547 -3.3580 3.0302 -0.2711 27.9843
#
#
#
# Elastic Compliance Matrix: (Units=1/GPa)
#
#
# Indices 1 2 3 4 5 6 
#
# 1 0.020072 -0.005866 -0.010229 0.001099 -0.013915 -0.009638
# 2 -0.005866 0.012455 0.007476 -0.001915 -0.001099 0.014015
# 3 -0.010229 0.007476 0.033632 -0.004406 -0.010153 0.012973
# 4 0.001099 -0.001915 -0.004406 0.029230 0.004804 -0.005658
# 5 -0.013915 -0.001099 -0.010153 0.004804 0.050593 -0.000662
# 6 -0.009638 0.014015 0.012973 -0.005658 -0.000662 0.052800
#
#
# Mechanical properties :
#
#
# Convention : Reuss Voigt Hill
#
# Bulk Modulus (GPa) = 20.44165 42.70671 31.57418
# Shear Modulus (GPa) = 21.52134 34.59326 28.05730
#
# Velocity S-wave (km/s) = 3.02318 3.83288 3.45186
# Velocity P-wave (km/s) = 4.56807 6.14203 5.41257
#
# Compressibility (1/GPa) = 0.04891973
#
# Stress axis : x y z
#
# Youngs Moduli (GPa) = 49.82132 80.28856 29.73348
#
# Poissons Ratio (x) = 0.47098 0.30415
# Poissons Ratio (y) = 0.29226 -0.22228
# Poissons Ratio (z) = 0.50964 -0.60023
#
# Static dielectric constant tensor:
#      x y z
#    x 1.958230 0.017450 -0.000710 
#    y 0.017450 2.062650 -0.012780 
#    z -0.000710 -0.012780 1.955470 
# 
# From -- ./inp_files/117480.got.cif
#   From: 2010.05.17/outbox.cif.g08.bks.cpg/sg2_59_cif.got.tgz:117480.got - 2010.06.03 11:33:40.
