data_PCOD9109897
_publ_section_title
;
Structure prediction by ZEFSAII (Michael W. Deem and Ramdas Pophale) SiO2 
 PCOD9109897
Probable space group: P -1
;
_chemical_formula_sum "Si O2"
_cell_formula_units_Z 14
_cell_length_a 7.560591
_cell_length_b 5.078734
_cell_length_c 17.087547
_cell_angle_alpha 81.731404
_cell_angle_beta 95.289780
_cell_angle_gamma 123.984971
_cell_volume 538.342661
_symmetry_space_group_name_H-M "P -1"
_symmetry_group_IT_number 2
_symmetry_cell_setting 'triclinic'
loop_
_space_group_symop_operation_xyz
x,y,z
-x,-y,-z
loop_
_atom_site_type_symbol
_atom_site_label
_atom_site_fract_x
_atom_site_fract_y
_atom_site_fract_z
Si Si1 0.481482 0.545712 0.762952
Si Si2 0.187299 0.454645 0.032728
Si Si3 0.849299 0.486012 0.361530
Si Si4 0.718426 0.235961 0.823024
Si Si5 0.886191 0.760992 0.124361
Si Si6 0.357247 0.640447 0.482570
Si Si7 0.035751 0.114833 0.402952
O O1 0.363755 0.569194 0.682155
O O2 0.648029 0.444269 0.766514
O O3 0.277905 0.274453 0.816785
O O4 0.588553 0.879822 0.799572
O O5 0.331312 0.727351 0.089516
O O6 0.068227 0.115504 0.087345
O O7 0.000000 0.500000 0.000000
O O8 0.256322 0.417902 0.951311
O O9 0.814962 0.465736 0.452923
O O10 0.868372 0.189392 0.357675
O O11 0.038190 0.868230 0.353465
O O12 0.970824 0.364110 0.829288
O O13 0.500000 0.500000 0.500000
O O14 0.235620 0.481816 0.404216
O O15 0.500000 0.000000 0.500000
O O16 0.000000 0.000000 0.500000
#
# Coordination Sequence:
#
# PCOD9109897 Si02
#       7
#     2   2   2   2   2   2   2
#     4  12  27  43  69  95 141 184 217 272 341 409
#     4   9  20  43  70  97 135 167 232 292 318 390
#     4  11  23  44  60  95 130 167 219 255 325 406
#     4  11  24  45  65 100 133 177 229 279 324 403
#     4  10  23  46  67  98 135 177 225 283 338 389
#     4  11  21  38  65  96 123 155 210 271 315 366
#     4  10  20  41  68  86 125 168 207 264 313 380
#
# _framework density 26.005741
#
# number of rings (size 3 to 8) (size 9 to 14) (size 15 to 20)
#    0.000    1.429    1.429    5.143    4.000    1.143 
#    7.714    0.000    0.000    0.000    0.000    0.000 
#    0.000    0.000    0.000    0.000    0.000    0.000 
#
# Total GULP energy -78035.642041 kJ/mol
# GULP energy per Si atom -5573.974431 kJ/mol
# Density = 2.594655 g / cm^3
# Si number density = 26.005741 Si / 1000 Ang^3
#
#
#
# Elastic Constant Matrix: (Units=GPa)
#
#
# Indices 1 2 3 4 5 6 
#
# 1 97.4367 17.4397 35.4720 -16.1867 32.7039 -33.3044
# 2 17.4397 132.3622 41.0971 29.3289 12.3715 -30.5328
# 3 35.4720 41.0971 113.6563 13.1181 26.1828 -4.0562
# 4 -16.1867 29.3289 13.1181 37.2002 1.3313 9.0332
# 5 32.7039 12.3715 26.1828 1.3313 50.7262 -8.5891
# 6 -33.3044 -30.5328 -4.0562 9.0332 -8.5891 42.5739
#
#
#
# Elastic Compliance Matrix: (Units=1/GPa)
#
#
# Indices 1 2 3 4 5 6 
#
# 1 0.020544 0.001247 -0.005150 0.006874 -0.008831 0.013235
# 2 0.001247 0.014642 -0.003736 -0.013080 0.000258 0.013948
# 3 -0.005150 -0.003736 0.012534 -0.002225 -0.003141 -0.005675
# 4 0.006874 -0.013080 -0.002225 0.044606 -0.003707 -0.014427
# 5 -0.008831 0.000258 -0.003141 -0.003707 0.026927 -0.000804
# 6 0.013235 0.013948 -0.005675 -0.014427 -0.000804 0.046204
#
#
# Mechanical properties :
#
#
# Convention : Reuss Voigt Hill
#
# Bulk Modulus (GPa) = 30.82158 59.05253 44.93705
# Shear Modulus (GPa) = 26.10311 42.72983 34.41647
#
# Velocity S-wave (km/s) = 3.17163 4.05790 3.64183
# Velocity P-wave (km/s) = 5.02890 6.68672 5.91617
#
# Compressibility (1/GPa) = 0.03244480
#
# Stress axis : x y z
#
# Youngs Moduli (GPa) = 48.67537 68.29512 79.78084
#
# Poissons Ratio (x) = -0.08518 0.41084
# Poissons Ratio (y) = -0.06071 0.29804
# Poissons Ratio (z) = 0.25066 0.25513
#
# Static dielectric constant tensor:
#      x y z
#    x 2.217810 -0.061850 0.048080 
#    y -0.061850 2.484770 -0.134420 
#    z 0.048080 -0.134420 2.134920 
# 
# From -- ./inp_files/552609.got.cif
#   From: 2010.05.17/outbox.cif.g08.bks.cpg/sg2_277_cif.got.tgz:552609.got - 2010.06.03 11:33:40.
