data_PCOD9109413
_publ_section_title
;
Structure prediction by ZEFSAII (Michael W. Deem and Ramdas Pophale) SiO2 
 PCOD9109413
Probable space group: P -1
;
_chemical_formula_sum "Si O2"
_cell_formula_units_Z 14
_cell_length_a 13.730507
_cell_length_b 16.084019
_cell_length_c 8.582435
_cell_angle_alpha 54.189128
_cell_angle_beta 124.889876
_cell_angle_gamma 156.882132
_cell_volume 600.056572
_symmetry_space_group_name_H-M "P -1"
_symmetry_group_IT_number 2
_symmetry_cell_setting 'triclinic'
loop_
_space_group_symop_operation_xyz
x,y,z
-x,-y,-z
loop_
_atom_site_type_symbol
_atom_site_label
_atom_site_fract_x
_atom_site_fract_y
_atom_site_fract_z
Si Si1 0.992287 0.572772 0.268020
Si Si2 0.636194 0.683890 0.812586
Si Si3 0.553712 0.327244 0.606119
Si Si4 0.415285 0.159345 0.215312
Si Si5 0.472424 0.052593 0.649685
Si Si6 0.029173 0.666137 0.884654
Si Si7 0.866735 0.046810 0.143179
O O1 0.715398 0.410384 0.210979
O O2 0.000000 0.500000 0.500000
O O3 0.280177 0.827130 0.268868
O O4 0.992107 0.548658 0.107716
O O5 0.451361 0.584692 0.617981
O O6 0.705952 0.838528 0.804382
O O7 0.879995 0.818312 0.815558
O O8 0.500000 0.500000 0.000000
O O9 0.543932 0.212182 0.630651
O O10 0.789533 0.504222 0.738873
O O11 0.304203 0.143170 0.682147
O O12 0.381421 0.029248 0.427334
O O13 0.295904 0.065018 0.039860
O O14 0.267907 0.841969 0.798522
O O15 0.066639 0.794856 0.887691
#
# Coordination Sequence:
#
# PCOD9109413 Si02
#       7
#     2   2   2   2   2   2   2
#     4  10  20  41  65  90 126 161 202 253 308 361
#     4  11  24  40  66  93 120 166 209 250 308 365
#     4  10  23  43  63  89 129 160 202 258 301 364
#     4  10  21  43  62  90 129 160 201 262 301 361
#     4   9  22  40  65  91 123 162 205 250 307 361
#     4  11  22  41  64  93 124 161 208 248 304 371
#     4  11  23  42  64  90 127 163 204 253 310 359
#
# _framework density 23.331135
#
# number of rings (size 3 to 8) (size 9 to 14) (size 15 to 20)
#    0.000    1.714    1.429    2.143    2.000    1.143 
#    5.143    1.429    0.000    0.000    0.000    0.000 
#    0.000    0.000    0.000    0.000    0.000    0.000 
#
# Total GULP energy -78221.794298 kJ/mol
# GULP energy per Si atom -5587.271021 kJ/mol
# Density = 2.327803 g / cm^3
# Si number density = 23.331135 Si / 1000 Ang^3
#
#
#
# Elastic Constant Matrix: (Units=GPa)
#
#
# Indices 1 2 3 4 5 6 
#
# 1 86.9322 67.3388 38.7021 -3.0446 -4.2782 9.1364
# 2 67.3388 98.8042 54.4573 10.5111 -5.0998 16.8591
# 3 38.7021 54.4573 194.3269 10.3702 -19.2240 -5.9339
# 4 -3.0446 10.5111 10.3702 38.0322 3.8740 -15.3852
# 5 -4.2782 -5.0998 -19.2240 3.8740 36.8781 1.0162
# 6 9.1364 16.8591 -5.9339 -15.3852 1.0162 42.6313
#
#
#
# Elastic Compliance Matrix: (Units=1/GPa)
#
#
# Indices 1 2 3 4 5 6 
#
# 1 0.027340 -0.020824 -0.000087 0.010585 -0.001036 0.006208
# 2 -0.020824 0.030339 -0.003817 -0.014593 0.001691 -0.013373
# 3 -0.000087 -0.003817 0.006591 -0.000090 0.002842 0.002345
# 4 0.010585 -0.014593 -0.000090 0.038891 -0.005409 0.017655
# 5 -0.001036 0.001691 0.002842 -0.005409 0.029354 -0.002703
# 6 0.006208 -0.013373 0.002345 0.017655 -0.002703 0.034177
#
#
# Mechanical properties :
#
#
# Convention : Reuss Voigt Hill
#
# Bulk Modulus (GPa) = 67.50831 77.89554 72.70192
# Shear Modulus (GPa) = 22.61569 38.14599 30.38084
#
# Velocity S-wave (km/s) = 3.11679 4.04788 3.61246
# Velocity P-wave (km/s) = 6.47690 7.43683 6.97340
#
# Compressibility (1/GPa) = 0.01481299
#
# Stress axis : x y z
#
# Youngs Moduli (GPa) = 36.57698 32.96125 151.73148
#
# Poissons Ratio (x) = 0.68638 0.01323
# Poissons Ratio (y) = 0.76167 0.57915
# Poissons Ratio (z) = 0.00319 0.12581
#
# Static dielectric constant tensor:
#      x y z
#    x 1.896780 -0.021350 0.005720 
#    y -0.021350 1.864000 -0.043680 
#    z 0.005720 -0.043680 1.919940 
# 
# From -- ./inp_files/27264.got.cif
#   From: 2010.05.17/outbox.cif.g08.bks.cpg/sg2_14_cif.got.tgz:27264.got - 2010.06.03 11:33:40.
