data_PCOD9109737
_publ_section_title
;
Structure prediction by ZEFSAII (Michael W. Deem and Ramdas Pophale) SiO2 
 PCOD9109737
Probable space group: P -1
;
_chemical_formula_sum "Si O2"
_cell_formula_units_Z 16
_cell_length_a 12.132647
_cell_length_b 22.750161
_cell_length_c 7.511580
_cell_angle_alpha 47.516794
_cell_angle_beta 123.159824
_cell_angle_gamma 155.515034
_cell_volume 617.994992
_symmetry_space_group_name_H-M "P -1"
_symmetry_group_IT_number 2
_symmetry_cell_setting 'triclinic'
loop_
_space_group_symop_operation_xyz
x,y,z
-x,-y,-z
loop_
_atom_site_type_symbol
_atom_site_label
_atom_site_fract_x
_atom_site_fract_y
_atom_site_fract_z
Si Si1 0.965919 0.596964 0.290120
Si Si2 0.451621 0.539632 0.228270
Si Si3 0.847775 0.078370 0.074424
Si Si4 0.832890 0.695902 0.816993
Si Si5 0.440825 0.736304 0.292335
Si Si6 0.286317 0.163471 0.023082
Si Si7 0.351267 0.032612 0.506533
Si Si8 0.092008 0.732906 0.500879
O O1 0.670957 0.397958 0.419725
O O2 0.194927 0.668226 0.244516
O O3 0.031840 0.642084 0.465471
O O4 0.947227 0.674609 0.039433
O O5 0.500000 0.500000 0.500000
O O6 0.435183 0.474037 0.173262
O O7 0.655802 0.720442 0.075865
O O8 0.144590 0.405335 0.280583
O O9 0.109669 0.210369 0.167360
O O10 0.718646 0.928811 0.195154
O O11 0.633479 0.986472 0.233606
O O12 0.886791 0.167740 0.778137
O O13 0.057496 0.845289 0.565117
O O14 0.488782 0.731546 0.146002
O O15 0.332548 0.117267 0.298782
O O16 0.000000 0.000000 0.000000
O O17 0.613514 0.136047 0.432439
#
# Coordination Sequence:
#
# PCOD9109737 Si02
#       8
#     2   2   2   2   2   2   2   2
#     4  10  20  41  67 107 132 172 227 288 337 390
#     4  12  28  47  66  93 139 190 226 277 340 408
#     4   9  21  39  68 104 132 171 215 284 337 397
#     4   9  22  41  67  97 137 171 224 274 334 406
#     4  11  22  39  71  97 141 174 217 283 347 389
#     4  12  29  47  66  99 143 183 227 277 343 414
#     4  10  22  42  69 106 134 171 224 285 342 398
#     4  11  21  43  72 102 137 174 233 282 335 408
#
# _framework density 25.890177999999999
#
# number of rings (size 3 to 8) (size 9 to 14) (size 15 to 20)
#    0.750    0.750    2.500    1.875    7.000    1.000 
#    0.000    4.375    0.000    0.000    0.000    0.000 
#    0.000    0.000    0.000    0.000    0.000    0.000 
#
# Total GULP energy -89352.969378 kJ/mol
# GULP energy per Si atom -5584.560586 kJ/mol
# Density = 2.583125 g / cm^3
# Si number density = 25.890178 Si / 1000 Ang^3
#
#
#
# Elastic Constant Matrix: (Units=GPa)
#
#
# Indices 1 2 3 4 5 6 
#
# 1 125.4607 36.8590 31.0043 -9.4056 -8.9915 -29.9326
# 2 36.8590 132.4832 55.0656 -44.3629 11.9340 -35.6464
# 3 31.0043 55.0656 116.8790 -29.7094 18.9519 -11.3945
# 4 -9.4056 -44.3629 -29.7094 52.4389 -2.4015 0.4215
# 5 -8.9915 11.9340 18.9519 -2.4015 39.0990 -8.0539
# 6 -29.9326 -35.6464 -11.3945 0.4215 -8.0539 44.5420
#
#
#
# Elastic Compliance Matrix: (Units=1/GPa)
#
#
# Indices 1 2 3 4 5 6 
#
# 1 0.010946 -0.000242 -0.002883 0.000320 0.005537 0.007423
# 2 -0.000242 0.016027 -0.003400 0.011487 -0.000194 0.011650
# 3 -0.002883 -0.003400 0.012522 0.003447 -0.006014 -0.002574
# 4 0.000320 0.011487 0.003447 0.030664 -0.001205 0.009781
# 5 0.005537 -0.000194 -0.006014 -0.001205 0.031337 0.007705
# 6 0.007423 0.011650 -0.002574 0.009781 0.007705 0.037405
#
#
# Mechanical properties :
#
#
# Convention : Reuss Voigt Hill
#
# Bulk Modulus (GPa) = 37.81102 68.96452 53.38777
# Shear Modulus (GPa) = 31.10154 44.00892 37.55523
#
# Velocity S-wave (km/s) = 3.46972 4.12737 3.81275
# Velocity P-wave (km/s) = 5.53968 7.02914 6.32838
#
# Compressibility (1/GPa) = 0.02644732
#
# Stress axis : x y z
#
# Youngs Moduli (GPa) = 91.35993 62.39487 79.85630
#
# Poissons Ratio (x) = 0.01508 0.23019
# Poissons Ratio (y) = 0.02208 0.27148
# Poissons Ratio (z) = 0.26335 0.21212
#
# Static dielectric constant tensor:
#      x y z
#    x 2.303380 0.068020 -0.199230 
#    y 0.068020 2.143950 -0.089900 
#    z -0.199230 -0.089900 2.095600 
# 
# From -- ./inp_files/320674.got.cif
#   From: 2010.05.17/outbox.cif.g08.bks.cpg/sg2_161_cif.got.tgz:320674.got - 2010.06.03 11:33:40.
