data_PCOD9109626
_publ_section_title
;
Structure prediction by ZEFSAII (Michael W. Deem and Ramdas Pophale) SiO2 
 PCOD9109626
Probable space group: P -1
;
_chemical_formula_sum "Si O2"
_cell_formula_units_Z 16
_cell_length_a 8.680973
_cell_length_b 19.019410
_cell_length_c 9.605229
_cell_angle_alpha 44.606516
_cell_angle_beta 43.541885
_cell_angle_gamma 38.787858
_cell_volume 643.491779
_symmetry_space_group_name_H-M "P -1"
_symmetry_group_IT_number 2
_symmetry_cell_setting 'triclinic'
loop_
_space_group_symop_operation_xyz
x,y,z
-x,-y,-z
loop_
_atom_site_type_symbol
_atom_site_label
_atom_site_fract_x
_atom_site_fract_y
_atom_site_fract_z
Si Si1 0.061260 0.523724 0.583365
Si Si2 0.654292 0.190535 0.990973
Si Si3 0.181196 0.089951 0.072466
Si Si4 0.457843 0.384890 0.089371
Si Si5 0.561483 0.396798 0.311797
Si Si6 0.253999 0.970037 0.609332
Si Si7 0.873684 0.798015 0.349872
Si Si8 0.856964 0.789416 0.792986
O O1 0.368989 0.419270 0.534954
O O2 0.000000 0.500000 0.500000
O O3 0.860369 0.522110 0.824374
O O4 0.980660 0.658877 0.467973
O O5 0.555194 0.281966 0.058355
O O6 0.753245 0.063240 0.178186
O O7 0.392505 0.223041 0.034674
O O8 0.885400 0.193899 0.755241
O O9 0.112334 0.181428 0.111335
O O10 0.985318 0.041107 0.281563
O O11 0.134022 0.152899 0.867614
O O12 0.500000 0.000000 0.000000
O O13 0.538405 0.340533 0.259779
O O14 0.554701 0.468504 0.855459
O O15 0.860508 0.325433 0.269944
O O16 0.566112 0.875009 0.494788
O O17 0.200259 0.096638 0.420542
#
# Coordination Sequence:
#
# PCOD9109626 Si02
#       8
#     2   2   2   2   2   2   2   2
#     4  10  21  35  67  96 118 166 222 270 312 378
#     4  11  24  44  66  94 136 176 215 267 328 400
#     4  11  25  43  67 100 129 166 218 279 322 379
#     4  10  20  41  66  93 125 172 219 262 324 386
#     4  10  22  40  64  94 128 165 221 271 315 382
#     4  11  24  46  70  93 130 175 223 265 322 396
#     4  11  22  43  70  93 130 174 221 267 327 384
#     4  12  26  43  64 100 137 171 213 275 334 384
#
# _framework density 24.864342000000001
#
# number of rings (size 3 to 8) (size 9 to 14) (size 15 to 20)
#    0.000    1.250    3.750    2.250    5.250    1.000 
#    2.250    0.625    0.000    0.000    0.000    0.000 
#    0.000    0.000    0.000    0.000    0.000    0.000 
#
# Total GULP energy -89402.562765 kJ/mol
# GULP energy per Si atom -5587.660173 kJ/mol
# Density = 2.480775 g / cm^3
# Si number density = 24.864342 Si / 1000 Ang^3
#
#
#
# Elastic Constant Matrix: (Units=GPa)
#
#
# Indices 1 2 3 4 5 6 
#
# 1 79.9116 39.7048 45.8596 16.0009 -41.6373 -18.6856
# 2 39.7048 143.9291 47.2647 38.6054 -27.3967 -18.0028
# 3 45.8596 47.2647 133.1049 24.6492 -33.7310 -4.0147
# 4 16.0009 38.6054 24.6492 45.7523 -6.8226 -10.7721
# 5 -41.6373 -27.3967 -33.7310 -6.8226 45.3834 14.3198
# 6 -18.6856 -18.0028 -4.0147 -10.7721 14.3198 37.6260
#
#
#
# Elastic Compliance Matrix: (Units=1/GPa)
#
#
# Indices 1 2 3 4 5 6 
#
# 1 0.026720 -0.001398 -0.003116 -0.002602 0.019692 0.004029
# 2 -0.001398 0.010186 -0.001175 -0.006822 0.002619 0.001104
# 3 -0.003116 -0.001175 0.010954 -0.003998 0.005263 -0.004088
# 4 -0.002602 -0.006822 -0.003998 0.031199 -0.006856 0.006559
# 5 0.019692 0.002619 0.005263 -0.006856 0.047191 -0.008329
# 6 0.004029 0.001104 -0.004088 0.006559 -0.008329 0.033718
#
#
# Mechanical properties :
#
#
# Convention : Reuss Voigt Hill
#
# Bulk Modulus (GPa) = 27.40983 69.17820 48.29401
# Shear Modulus (GPa) = 27.24688 40.69345 33.97016
#
# Velocity S-wave (km/s) = 3.31391 4.04990 3.70025
# Velocity P-wave (km/s) = 5.06856 7.05348 6.14174
#
# Compressibility (1/GPa) = 0.03648327
#
# Stress axis : x y z
#
# Youngs Moduli (GPa) = 37.42497 98.17507 91.28704
#
# Poissons Ratio (x) = 0.13721 0.28446
# Poissons Ratio (y) = 0.05231 0.10725
# Poissons Ratio (z) = 0.11662 0.11534
#
# Static dielectric constant tensor:
#      x y z
#    x 2.056440 -0.033880 -0.073850 
#    y -0.033880 2.048260 0.045080 
#    z -0.073850 0.045080 2.012300 
# 
# From -- ./inp_files/405360.got.cif
#   From: 2010.05.17/outbox.cif.g08.bks.cpg/sg2_203_cif.got.tgz:405360.got - 2010.06.03 11:33:40.
