data_PCOD9109446
_publ_section_title
;
Structure prediction by ZEFSAII (Michael W. Deem and Ramdas Pophale) SiO2 
 PCOD9109446
Probable space group: P -1
;
_chemical_formula_sum "Si O2"
_cell_formula_units_Z 15
_cell_length_a 18.617809
_cell_length_b 6.254710
_cell_length_c 15.008548
_cell_angle_alpha 65.051315
_cell_angle_beta 150.144807
_cell_angle_gamma 94.750237
_cell_volume 614.510271
_symmetry_space_group_name_H-M "P -1"
_symmetry_group_IT_number 2
_symmetry_cell_setting 'triclinic'
loop_
_space_group_symop_operation_xyz
x,y,z
-x,-y,-z
loop_
_atom_site_type_symbol
_atom_site_label
_atom_site_fract_x
_atom_site_fract_y
_atom_site_fract_z
Si Si1 0.733310 0.531783 0.794511
Si Si2 0.901553 0.697711 0.683035
Si Si3 0.457859 0.804388 0.602960
Si Si4 0.795765 0.311592 0.716085
Si Si5 0.126422 0.714358 0.623082
Si Si6 0.500000 0.000000 0.000000
Si Si7 0.489150 0.797453 0.839128
Si Si8 0.049622 0.513002 0.421133
O O1 0.625295 0.567980 0.759809
O O2 0.709571 0.390375 0.708463
O O3 0.654658 0.867636 0.621453
O O4 0.946322 0.344530 0.082802
O O5 0.814235 0.561972 0.662751
O O6 0.990727 0.496899 0.724216
O O7 0.727617 0.047944 0.417079
O O8 0.323251 0.717843 0.475232
O O9 0.523503 0.809221 0.770354
O O10 0.000000 0.000000 0.000000
O O11 0.050620 0.759105 0.433305
O O12 0.094530 0.495247 0.675855
O O13 0.345201 0.549934 0.892957
O O14 0.000000 0.000000 0.500000
O O15 0.268425 0.221778 0.713576
O O16 0.500324 0.985228 0.893426
#
# Coordination Sequence:
#
# PCOD9109446 Si02
#       8
#     2   2   2   2   2   1   2   2
#     4  11  23  42  64  90 134 173 209 265 319 374
#     4  11  21  42  67  91 129 176 211 261 317 377
#     4  11  23  41  64  96 129 170 215 261 320 380
#     4  12  23  41  63  96 132 170 217 267 309 372
#     4  10  21  43  64  93 125 160 207 267 320 379
#     4   8  18  38  66  86 116 162 204 256 312 372
#     4  10  20  41  65  92 124 168 208 259 322 379
#     4   9  20  41  64  88 126 163 205 258 321 377
#
# _framework density 24.409680999999999
#
# number of rings (size 3 to 8) (size 9 to 14) (size 15 to 20)
#    0.000    1.600    2.667    2.400    0.000    0.000 
#   19.200    3.333    0.000    0.000    0.000    0.000 
#    0.000    0.000    0.000    0.000    0.000    0.000 
#
# Total GULP energy -83527.855791 kJ/mol
# GULP energy per Si atom -5568.523719 kJ/mol
# Density = 2.435412 g / cm^3
# Si number density = 24.409681 Si / 1000 Ang^3
#
#
#
# Elastic Constant Matrix: (Units=GPa)
#
#
# Indices 1 2 3 4 5 6 
#
# 1 111.2756 34.9842 12.0182 8.4446 -1.9515 -38.5713
# 2 34.9842 70.1514 33.0044 9.6477 2.4147 -35.4083
# 3 12.0182 33.0044 110.7147 9.9825 4.3187 -1.3646
# 4 8.4446 9.6477 9.9825 38.8842 -15.7371 -7.0468
# 5 -1.9515 2.4147 4.3187 -15.7371 35.8047 6.7014
# 6 -38.5713 -35.4083 -1.3646 -7.0468 6.7014 55.8117
#
#
#
# Elastic Compliance Matrix: (Units=1/GPa)
#
#
# Indices 1 2 3 4 5 6 
#
# 1 0.012220 -0.002126 -0.000469 -0.001108 -0.000942 0.007058
# 2 -0.002126 0.027538 -0.007193 -0.003992 -0.005859 0.016025
# 3 -0.000469 -0.007193 0.011420 -0.002336 -0.001051 -0.004777
# 4 -0.001108 -0.003992 -0.002336 0.033627 0.015451 -0.000965
# 5 -0.000942 -0.005859 -0.001051 0.015451 0.036468 -0.006822
# 6 0.007058 0.016025 -0.004777 -0.000965 -0.006822 0.033543
#
#
# Mechanical properties :
#
#
# Convention : Reuss Voigt Hill
#
# Bulk Modulus (GPa) = 31.64247 50.23948 40.94098
# Shear Modulus (GPa) = 27.03802 40.24245 33.64023
#
# Velocity S-wave (km/s) = 3.33179 4.06473 3.71637
# Velocity P-wave (km/s) = 5.27184 6.53115 5.93499
#
# Compressibility (1/GPa) = 0.03160310
#
# Stress axis : x y z
#
# Youngs Moduli (GPa) = 81.83408 36.31299 87.56555
#
# Poissons Ratio (x) = 0.07720 0.04107
# Poissons Ratio (y) = 0.17398 0.62982
# Poissons Ratio (z) = 0.03839 0.26118
#
# Static dielectric constant tensor:
#      x y z
#    x 1.951760 0.039140 0.003520 
#    y 0.039140 2.009880 -0.080410 
#    z 0.003520 -0.080410 1.914750 
# 
# From -- ./inp_files/139071.got.cif
#   From: 2010.05.17/outbox.cif.g08.bks.cpg/sg2_70_cif.got.tgz:139071.got - 2010.06.03 11:33:40.
