data_PCOD9109457
_publ_section_title
;
Structure prediction by ZEFSAII (Michael W. Deem and Ramdas Pophale) SiO2 
 PCOD9109457
Probable space group: P -1
;
_chemical_formula_sum "Si O2"
_cell_formula_units_Z 12
_cell_length_a 8.573372
_cell_length_b 9.864938
_cell_length_c 10.848184
_cell_angle_alpha 138.575431
_cell_angle_beta 49.492810
_cell_angle_gamma 105.425550
_cell_volume 414.599684
_symmetry_space_group_name_H-M "P -1"
_symmetry_group_IT_number 2
_symmetry_cell_setting 'triclinic'
loop_
_space_group_symop_operation_xyz
x,y,z
-x,-y,-z
loop_
_atom_site_type_symbol
_atom_site_label
_atom_site_fract_x
_atom_site_fract_y
_atom_site_fract_z
Si Si1 0.693879 0.243773 0.073008
Si Si2 0.469615 0.091513 0.751429
Si Si3 0.876844 0.077164 0.248769
Si Si4 0.864830 0.588790 0.259897
Si Si5 0.803776 0.250043 0.742095
Si Si6 0.268598 0.406465 0.304571
O O1 0.761335 0.416257 0.231424
O O2 0.441189 0.265499 0.231125
O O3 0.691279 0.314508 0.979175
O O4 0.911309 0.005510 0.821699
O O5 0.617208 0.230224 0.734722
O O6 0.282412 0.055190 0.741581
O O7 0.660437 0.837672 0.511914
O O8 0.348012 0.226254 0.028423
O O9 0.727553 0.346231 0.515669
O O10 0.000000 0.000000 0.000000
O O11 0.059756 0.603257 0.257005
O O12 0.000000 0.500000 0.000000
O O13 0.000000 0.000000 0.500000
O O14 0.000000 0.500000 0.500000
#
# Coordination Sequence:
#
# PCOD9109457 Si02
#       6
#     2   2   2   2   2   2
#     4  10  22  40  69  95 129 181 211 267 343 381
#     4  10  20  41  65  92 137 167 211 282 317 380
#     4  12  25  44  63  97 135 174 225 272 320 397
#     4   9  17  38  70  93 125 171 212 268 329 388
#     4   8  17  37  65  93 125 165 212 267 320 385
#     4  11  23  44  63  94 132 172 225 277 318 391
#
# _framework density 28.943583
#
# number of rings (size 3 to 8) (size 9 to 14) (size 15 to 20)
#    0.000    2.000    3.333    0.000    0.000    1.333 
#    9.000    8.333    0.000    0.000    0.000    0.000 
#    0.000    0.000    0.000    0.000    0.000    0.000 
#
# Total GULP energy -67153.614229 kJ/mol
# GULP energy per Si atom -5596.134519 kJ/mol
# Density = 2.887771 g / cm^3
# Si number density = 28.943583 Si / 1000 Ang^3
#
#
#
# Elastic Constant Matrix: (Units=GPa)
#
#
# Indices 1 2 3 4 5 6 
#
# 1 198.5496 60.5618 52.3987 -6.3751 -28.0197 46.9594
# 2 60.5618 67.7228 21.6615 12.2389 -2.1528 10.6357
# 3 52.3987 21.6615 241.8315 15.3596 -6.2396 -7.6451
# 4 -6.3751 12.2389 15.3596 42.1543 4.1429 2.1445
# 5 -28.0197 -2.1528 -6.2396 4.1429 67.5367 -6.4578
# 6 46.9594 10.6357 -7.6451 2.1445 -6.4578 68.3710
#
#
#
# Elastic Compliance Matrix: (Units=1/GPa)
#
#
# Indices 1 2 3 4 5 6 
#
# 1 0.009835 -0.008066 -0.001796 0.004487 0.002849 -0.005573
# 2 -0.008066 0.022951 0.000208 -0.007876 -0.001916 0.002059
# 3 -0.001796 0.000208 0.004698 -0.002135 -0.000002 0.001793
# 4 0.004487 -0.007876 -0.002135 0.027675 -0.000573 -0.003018
# 5 0.002849 -0.001916 -0.000002 -0.000573 0.015950 -0.000135
# 6 -0.005573 0.002059 0.001793 -0.003018 -0.000135 0.018416
#
#
# Mechanical properties :
#
#
# Convention : Reuss Voigt Hill
#
# Bulk Modulus (GPa) = 55.01736 86.37199 70.69467
# Shear Modulus (GPa) = 40.03460 60.51119 50.27289
#
# Velocity S-wave (km/s) = 3.72317 4.57733 4.17217
# Velocity P-wave (km/s) = 6.12637 7.60541 6.90560
#
# Compressibility (1/GPa) = 0.01817608
#
# Stress axis : x y z
#
# Youngs Moduli (GPa) = 101.67896 43.57019 212.86028
#
# Poissons Ratio (x) = 0.35142 0.38233
# Poissons Ratio (y) = 0.82010 -0.04420
# Poissons Ratio (z) = 0.18263 -0.00905
#
# Static dielectric constant tensor:
#      x y z
#    x 2.296740 0.070320 -0.025700 
#    y 0.070320 2.532840 -0.184830 
#    z -0.025700 -0.184830 2.271440 
# 
# From -- ./inp_files/455310.got.cif
#   From: 2010.05.17/outbox.cif.g08.bks.cpg/sg2_228_cif.got.tgz:455310.got - 2010.06.03 11:33:40.
