data_PCOD9109084
_publ_section_title
;
Structure prediction by ZEFSAII (Michael W. Deem and Ramdas Pophale) SiO2 
 PCOD9109084
Probable space group: P -1
;
_chemical_formula_sum "Si O2"
_cell_formula_units_Z 14
_cell_length_a 22.487586
_cell_length_b 10.167808
_cell_length_c 5.316471
_cell_angle_alpha 73.579724
_cell_angle_beta 83.807997
_cell_angle_gamma 39.461352
_cell_volume 728.828907
_symmetry_space_group_name_H-M "P -1"
_symmetry_group_IT_number 2
_symmetry_cell_setting 'triclinic'
loop_
_space_group_symop_operation_xyz
x,y,z
-x,-y,-z
loop_
_atom_site_type_symbol
_atom_site_label
_atom_site_fract_x
_atom_site_fract_y
_atom_site_fract_z
Si Si1 0.312356 0.141313 0.819938
Si Si2 0.700634 0.255724 0.580675
Si Si3 0.625410 0.678268 0.532540
Si Si4 0.896818 0.777842 0.613631
Si Si5 0.612109 0.280989 0.112252
Si Si6 0.106803 0.396777 0.790318
Si Si7 0.430709 0.049452 0.198930
O O1 0.341036 0.239041 0.651816
O O2 0.199781 0.324385 0.775834
O O3 0.357013 0.933048 0.766899
O O4 0.363983 0.052072 0.116197
O O5 0.681242 0.449435 0.535157
O O6 0.641684 0.306354 0.339681
O O7 0.809944 0.030851 0.584023
O O8 0.667811 0.238562 0.862590
O O9 0.632749 0.711996 0.798964
O O10 0.512036 0.849500 0.458848
O O11 0.883442 0.733305 0.368717
O O12 0.003620 0.647259 0.651459
O O13 0.894350 0.668414 0.896601
O O14 0.500000 0.500000 0.000000
O O15 0.500000 0.000000 0.000000
#
# Coordination Sequence:
#
# PCOD9109084 Si02
#       7
#     2   2   2   2   2   2   2
#     4  11  22  39  62  91 118 165 208 261 295 373
#     4  12  24  43  61  92 129 165 200 259 321 366
#     4  10  24  37  62  84 127 170 205 247 312 378
#     4  10  20  41  62  93 121 161 201 257 323 366
#     4  12  27  39  62  94 128 160 210 262 306 360
#     4  10  21  38  67  90 121 157 209 258 310 374
#     4   9  21  39  58  82 122 171 210 239 302 378
#
# _framework density 19.208898000000001
#
# number of rings (size 3 to 8) (size 9 to 14) (size 15 to 20)
#    0.000    1.429    2.857    1.286   14.000    0.000 
#    0.000    0.714    0.000    0.857    0.000    0.000 
#    0.000    0.000    0.000    0.000    0.000    0.000 
#
# Total GULP energy -78048.982913 kJ/mol
# GULP energy per Si atom -5574.927351 kJ/mol
# Density = 1.916518 g / cm^3
# Si number density = 19.208898 Si / 1000 Ang^3
#
#
#
# Elastic Constant Matrix: (Units=GPa)
#
#
# Indices 1 2 3 4 5 6 
#
# 1 114.5318 48.2367 14.7845 -8.1853 2.1883 -19.7348
# 2 48.2367 133.3300 0.5431 -1.8889 -4.1562 -11.4831
# 3 14.7845 0.5431 54.8877 15.6953 -6.4014 -2.6145
# 4 -8.1853 -1.8889 15.6953 29.4789 -0.0438 5.8037
# 5 2.1883 -4.1562 -6.4014 -0.0438 24.4551 -7.3982
# 6 -19.7348 -11.4831 -2.6145 5.8037 -7.3982 40.8488
#
#
#
# Elastic Compliance Matrix: (Units=1/GPa)
#
#
# Indices 1 2 3 4 5 6 
#
# 1 0.011985 -0.004024 -0.004661 0.004897 -0.001967 0.003309
# 2 -0.004024 0.009144 0.001934 -0.001860 0.002882 0.001536
# 3 -0.004661 0.001934 0.024917 -0.015121 0.008312 0.003541
# 4 0.004897 -0.001860 -0.015121 0.044514 -0.006645 -0.006653
# 5 -0.001967 0.002882 0.008312 -0.006645 0.046683 0.009791
# 6 0.003309 0.001536 0.003541 -0.006653 0.009791 0.029456
#
#
# Mechanical properties :
#
#
# Convention : Reuss Voigt Hill
#
# Bulk Modulus (GPa) = 30.72551 47.76423 39.24487
# Shear Modulus (GPa) = 26.17132 34.90224 30.53678
#
# Velocity S-wave (km/s) = 3.69515 4.26723 3.99146
# Velocity P-wave (km/s) = 5.85113 7.01418 6.45889
#
# Compressibility (1/GPa) = 0.03254625
#
# Stress axis : x y z
#
# Youngs Moduli (GPa) = 83.43540 109.36178 40.13267
#
# Poissons Ratio (x) = 0.44008 0.18704
# Poissons Ratio (y) = 0.33575 -0.07764
# Poissons Ratio (z) = 0.38886 -0.21156
#
# Static dielectric constant tensor:
#      x y z
#    x 1.649870 -0.008610 0.007480 
#    y -0.008610 1.682780 0.024500 
#    z 0.007480 0.024500 1.889530 
# 
# From -- ./inp_files/42844.got.cif
#   From: 2010.05.17/outbox.cif.g08.bks.cpg/sg2_22_cif.got.tgz:42844.got - 2010.06.03 11:33:40.
