data_PCOD9109547
_publ_section_title
;
Structure prediction by ZEFSAII (Michael W. Deem and Ramdas Pophale) SiO2 
 PCOD9109547
Probable space group: P -1
;
_chemical_formula_sum "Si O2"
_cell_formula_units_Z 14
_cell_length_a 6.819506
_cell_length_b 14.511419
_cell_length_c 8.285267
_cell_angle_alpha 122.326242
_cell_angle_beta 57.479082
_cell_angle_gamma 91.533169
_cell_volume 543.684923
_symmetry_space_group_name_H-M "P -1"
_symmetry_group_IT_number 2
_symmetry_cell_setting 'triclinic'
loop_
_space_group_symop_operation_xyz
x,y,z
-x,-y,-z
loop_
_atom_site_type_symbol
_atom_site_label
_atom_site_fract_x
_atom_site_fract_y
_atom_site_fract_z
Si Si1 0.015130 0.661988 0.753445
Si Si2 0.950620 0.056681 0.754254
Si Si3 0.667238 0.588602 0.613473
Si Si4 0.155443 0.259187 0.772245
Si Si5 0.443078 0.181671 0.281606
Si Si6 0.679792 0.382935 0.903214
Si Si7 0.073161 0.826483 0.635103
O O1 0.246438 0.547059 0.595222
O O2 0.071503 0.772467 0.762441
O O3 0.903502 0.616454 0.607119
O O4 0.827767 0.687334 0.011199
O O5 0.029428 0.167237 0.795507
O O6 0.673377 0.104259 0.998146
O O7 0.000000 0.000000 0.500000
O O8 0.097666 0.950851 0.711742
O O9 0.574298 0.685436 0.610645
O O10 0.472890 0.620870 0.874317
O O11 0.402216 0.183617 0.493909
O O12 0.958986 0.357624 0.833557
O O13 0.202236 0.157676 0.298498
O O14 0.737805 0.275314 0.653544
O O15 0.500000 0.500000 0.000000
#
# Coordination Sequence:
#
# PCOD9109547 Si02
#       7
#     2   2   2   2   2   2   2
#     4  10  23  41  60  93 130 169 210 265 319 377
#     4  12  21  40  70  93 122 173 217 258 316 378
#     4  10  20  41  66  85 130 176 206 253 332 379
#     4  11  25  41  63  98 131 160 219 268 308 375
#     4  10  21  40  64  95 123 167 215 257 313 381
#     4  11  20  40  64  97 123 167 215 259 319 381
#     4  10  21  38  66  89 128 169 210 261 312 383
#
# _framework density 25.750205999999999
#
# number of rings (size 3 to 8) (size 9 to 14) (size 15 to 20)
#    0.000    1.429    5.714    0.429    2.000    1.714 
#    2.571    0.714    0.000    0.000    0.000    0.000 
#    0.000    0.000    0.000    0.000    0.000    0.000 
#
# Total GULP energy -78222.364335 kJ/mol
# GULP energy per Si atom -5587.311738 kJ/mol
# Density = 2.569160 g / cm^3
# Si number density = 25.750206 Si / 1000 Ang^3
#
#
#
# Elastic Constant Matrix: (Units=GPa)
#
#
# Indices 1 2 3 4 5 6 
#
# 1 71.1198 29.5201 22.9094 6.3738 -3.1013 -14.3579
# 2 29.5201 157.5232 61.6578 -0.6628 -20.7440 -17.6726
# 3 22.9094 61.6578 198.7780 -29.7313 -26.2962 -9.4010
# 4 6.3738 -0.6628 -29.7313 51.6074 -3.8984 1.9088
# 5 -3.1013 -20.7440 -26.2962 -3.8984 43.6634 -1.8569
# 6 -14.3579 -17.6726 -9.4010 1.9088 -1.8569 28.0891
#
#
#
# Elastic Compliance Matrix: (Units=1/GPa)
#
#
# Indices 1 2 3 4 5 6 
#
# 1 0.017092 -0.001849 -0.001651 -0.003402 -0.000656 0.007209
# 2 -0.001849 0.008224 -0.001900 -0.000695 0.002732 0.003821
# 3 -0.001651 -0.001900 0.006960 0.004451 0.003579 0.000224
# 4 -0.003402 -0.000695 0.004451 0.022732 0.004055 -0.001963
# 5 -0.000656 0.002732 0.003579 0.004055 0.026845 0.004081
# 6 0.007209 0.003821 0.000224 -0.001963 0.004081 0.042168
#
#
# Mechanical properties :
#
#
# Convention : Reuss Voigt Hill
#
# Bulk Modulus (GPa) = 46.56230 72.84396 59.70313
# Shear Modulus (GPa) = 35.21675 45.56092 40.38883
#
# Velocity S-wave (km/s) = 3.70216 4.21092 3.96471
# Velocity P-wave (km/s) = 6.03293 7.21059 6.64788
#
# Compressibility (1/GPa) = 0.02147660
#
# Stress axis : x y z
#
# Youngs Moduli (GPa) = 58.50850 121.59729 143.67528
#
# Poissons Ratio (x) = 0.22479 0.23722
# Poissons Ratio (y) = 0.10816 0.27294
# Poissons Ratio (z) = 0.09660 0.23100
#
# Static dielectric constant tensor:
#      x y z
#    x 2.176270 -0.025220 -0.019230 
#    y -0.025220 2.015640 0.023720 
#    z -0.019230 0.023720 2.008120 
# 
# From -- ./inp_files/203485.got.cif
#   From: 2010.05.17/outbox.cif.g08.bks.cpg/sg2_102_cif.got.tgz:203485.got - 2010.06.03 11:33:40.
