data_PCOD9109453
_publ_section_title
;
Structure prediction by ZEFSAII (Michael W. Deem and Ramdas Pophale) SiO2 
 PCOD9109453
Probable space group: P -1
;
_chemical_formula_sum "Si O2"
_cell_formula_units_Z 15
_cell_length_a 8.185180
_cell_length_b 19.711194
_cell_length_c 16.184156
_cell_angle_alpha 20.853836
_cell_angle_beta 119.746517
_cell_angle_gamma 132.414411
_cell_volume 590.143574
_symmetry_space_group_name_H-M "P -1"
_symmetry_group_IT_number 2
_symmetry_cell_setting 'triclinic'
loop_
_space_group_symop_operation_xyz
x,y,z
-x,-y,-z
loop_
_atom_site_type_symbol
_atom_site_label
_atom_site_fract_x
_atom_site_fract_y
_atom_site_fract_z
Si Si1 0.755633 0.582850 0.125061
Si Si2 0.000000 0.500000 0.000000
Si Si3 0.547984 0.700308 0.386955
Si Si4 0.879392 0.380586 0.927644
Si Si5 0.963405 0.105402 0.616309
Si Si6 0.806768 0.756066 0.669614
Si Si7 0.398935 0.193875 0.913365
Si Si8 0.811454 0.324687 0.577164
O O1 0.980629 0.705899 0.975325
O O2 0.474607 0.348185 0.286062
O O3 0.833874 0.489922 0.321726
O O4 0.749926 0.795101 0.915647
O O5 0.180545 0.669482 0.933924
O O6 0.199603 0.471409 0.048972
O O7 0.365166 0.389106 0.710306
O O8 0.535536 0.743417 0.238906
O O9 0.465182 0.818814 0.287940
O O10 0.824561 0.819771 0.350418
O O11 0.630028 0.265830 0.943148
O O12 0.077818 0.698475 0.605079
O O13 0.079154 0.179837 0.467683
O O14 0.000000 0.000000 0.500000
O O15 0.174998 0.882177 0.215452
O O16 0.000000 0.500000 0.500000
#
# Coordination Sequence:
#
# PCOD9109453 Si02
#       8
#     2   1   2   2   2   2   2   2
#     4  12  25  41  69 101 134 173 222 279 331 395
#     4  10  24  44  72  90 128 176 224 270 338 390
#     4  10  20  41  65  92 131 183 215 269 332 388
#     4  10  23  43  68  99 128 176 224 276 334 395
#     4  10  22  44  64  94 136 174 221 270 334 398
#     4  11  25  44  68  96 131 178 221 278 335 391
#     4  10  22  39  68  92 134 180 220 268 331 396
#     4  12  24  37  62 103 137 174 219 272 328 396
#
# _framework density 25.417545
#
# number of rings (size 3 to 8) (size 9 to 14) (size 15 to 20)
#    0.000    1.333    1.333    3.600    1.867    4.800 
#    0.000    2.667    0.000    0.000    0.000    0.000 
#    0.000    0.000    0.000    0.000    0.000    0.000 
#
# Total GULP energy -83668.733785 kJ/mol
# GULP energy per Si atom -5577.915586 kJ/mol
# Density = 2.535969 g / cm^3
# Si number density = 25.417545 Si / 1000 Ang^3
#
#
#
# Elastic Constant Matrix: (Units=GPa)
#
#
# Indices 1 2 3 4 5 6 
#
# 1 45.0600 3.1958 -13.8008 -3.1624 12.8880 -11.6702
# 2 3.1958 140.3942 4.2373 -18.6476 -1.2005 -6.6504
# 3 -13.8008 4.2373 98.1655 -21.7362 28.9286 3.6811
# 4 -3.1624 -18.6476 -21.7362 33.4397 -7.4343 -2.4160
# 5 12.8880 -1.2005 28.9286 -7.4343 31.1974 3.1289
# 6 -11.6702 -6.6504 3.6811 -2.4160 3.1289 34.9928
#
#
#
# Elastic Compliance Matrix: (Units=1/GPa)
#
#
# Indices 1 2 3 4 5 6 
#
# 1 0.040756 0.000191 0.016339 0.008698 -0.031444 0.015322
# 2 0.000191 0.007863 0.000507 0.005033 0.000774 0.001783
# 3 0.016339 0.000507 0.022106 0.011040 -0.025223 0.006238
# 4 0.008698 0.005033 0.011040 0.040096 -0.004672 0.005882
# 5 -0.031444 0.000774 -0.025223 -0.004672 0.068769 -0.014158
# 6 0.015322 0.001783 0.006238 0.005882 -0.014158 0.035042
#
#
# Mechanical properties :
#
#
# Convention : Reuss Voigt Hill
#
# Bulk Modulus (GPa) = 9.54202 30.09825 19.82014
# Shear Modulus (GPa) = 23.20293 39.25848 31.23070
#
# Velocity S-wave (km/s) = 3.02465 3.93433 3.50909
# Velocity P-wave (km/s) = 3.99503 5.70139 4.92271
#
# Compressibility (1/GPa) = 0.10479960
#
# Stress axis : x y z
#
# Youngs Moduli (GPa) = 24.53644 127.18198 45.23688
#
# Poissons Ratio (x) = -0.02434 -0.73914
# Poissons Ratio (y) = -0.00469 -0.02294
# Poissons Ratio (z) = -0.40091 -0.06449
#
# Static dielectric constant tensor:
#      x y z
#    x 1.917660 0.050060 0.048000 
#    y 0.050060 1.970470 -0.045010 
#    z 0.048000 -0.045010 1.990910 
# 
# From -- ./inp_files/49132.got.cif
#   From: 2010.05.17/outbox.cif.g08.bks.cpg/sg2_25_cif.got.tgz:49132.got - 2010.06.03 11:33:40.
