data_PCOD9109525
_publ_section_title
;
Structure prediction by ZEFSAII (Michael W. Deem and Ramdas Pophale) SiO2 
 PCOD9109525
Probable space group: P -1
;
_chemical_formula_sum "Si O2"
_cell_formula_units_Z 14
_cell_length_a 5.635747
_cell_length_b 5.539473
_cell_length_c 20.367851
_cell_angle_alpha 89.620852
_cell_angle_beta 63.477173
_cell_angle_gamma 75.336127
_cell_volume 546.236686
_symmetry_space_group_name_H-M "P -1"
_symmetry_group_IT_number 2
_symmetry_cell_setting 'triclinic'
loop_
_space_group_symop_operation_xyz
x,y,z
-x,-y,-z
loop_
_atom_site_type_symbol
_atom_site_label
_atom_site_fract_x
_atom_site_fract_y
_atom_site_fract_z
Si Si1 0.502355 0.544166 0.165821
Si Si2 0.413415 0.771336 0.044615
Si Si3 0.484856 0.202409 0.713870
Si Si4 0.037003 0.604733 0.589937
Si Si5 0.948168 0.667350 0.749495
Si Si6 0.654806 0.300457 0.563101
Si Si7 0.127714 0.940133 0.832689
O O1 0.531283 0.724244 0.104126
O O2 0.372496 0.656579 0.251762
O O3 0.285627 0.391743 0.175858
O O4 0.784584 0.331497 0.144328
O O5 0.500000 0.500000 0.000000
O O6 0.084135 0.865429 0.096646
O O7 0.500000 0.000000 0.000000
O O8 0.623241 0.119331 0.627150
O O9 0.212757 0.426035 0.727202
O O10 0.390823 0.020121 0.775706
O O11 0.341373 0.408911 0.572029
O O12 0.146739 0.776087 0.524001
O O13 0.924718 0.713725 0.674441
O O14 0.808330 0.489173 0.582428
O O15 0.001472 0.906225 0.777796
#
# Coordination Sequence:
#
# PCOD9109525 Si02
#       7
#     2   2   2   2   2   2   2
#     4  11  24  44  73  98 140 188 238 299 370 446
#     4  12  29  51  74 107 147 187 238 308 387 465
#     4  10  21  39  67 100 132 186 249 293 364 441
#     4   9  17  32  59  95 145 189 250 303 374 428
#     4  10  20  41  65  99 138 191 241 302 356 443
#     4   9  17  32  59  99 137 196 244 310 365 439
#     4  11  26  43  71 104 138 184 249 300 370 453
#
# _framework density 25.629912000000001
#
# number of rings (size 3 to 8) (size 9 to 14) (size 15 to 20)
#    0.000    1.714    2.857    0.857    6.000    1.143 
#    0.000    0.714    0.000    0.857    0.000    0.000 
#    0.000    0.000    0.000    0.000    0.000    0.000 
#
# Total GULP energy -78104.325352 kJ/mol
# GULP energy per Si atom -5578.880382 kJ/mol
# Density = 2.557158 g / cm^3
# Si number density = 25.629912 Si / 1000 Ang^3
#
#
#
# Elastic Constant Matrix: (Units=GPa)
#
#
# Indices 1 2 3 4 5 6 
#
# 1 87.0069 9.0731 17.8436 2.4652 -3.2188 -11.5351
# 2 9.0731 73.4302 68.5139 -20.1696 -3.9081 -25.5179
# 3 17.8436 68.5139 184.3339 -13.9407 -3.0413 -10.8958
# 4 2.4652 -20.1696 -13.9407 62.5726 -11.4802 4.6018
# 5 -3.2188 -3.9081 -3.0413 -11.4802 36.0731 -7.1590
# 6 -11.5351 -25.5179 -10.8958 4.6018 -7.1590 43.4211
#
#
#
# Elastic Compliance Matrix: (Units=1/GPa)
#
#
# Indices 1 2 3 4 5 6 
#
# 1 0.012250 0.001089 -0.001363 -0.000402 0.001739 0.003881
# 2 0.001089 0.031336 -0.010004 0.008171 0.008572 0.016742
# 3 -0.001363 -0.010004 0.008913 -0.001183 -0.001655 -0.004152
# 4 -0.000402 0.008171 -0.001183 0.019511 0.007672 0.003595
# 5 0.001739 0.008572 -0.001655 0.007672 0.033036 0.009718
# 6 0.003881 0.016742 -0.004152 0.003595 0.009718 0.034080
#
#
# Mechanical properties :
#
#
# Convention : Reuss Voigt Hill
#
# Bulk Modulus (GPa) = 31.30487 59.51469 45.40978
# Shear Modulus (GPa) = 29.35512 45.03605 37.19558
#
# Velocity S-wave (km/s) = 3.38797 4.19641 3.81367
# Velocity P-wave (km/s) = 5.24835 6.83747 6.09492
#
# Compressibility (1/GPa) = 0.03194391
#
# Stress axis : x y z
#
# Youngs Moduli (GPa) = 81.63567 31.91182 112.19753
#
# Poissons Ratio (x) = -0.03475 0.15290
# Poissons Ratio (y) = -0.08891 1.12239
# Poissons Ratio (z) = 0.11125 0.31924
#
# Static dielectric constant tensor:
#      x y z
#    x 2.057950 -0.030710 0.017180 
#    y -0.030710 2.091320 -0.011570 
#    z 0.017180 -0.011570 1.964830 
# 
# From -- ./inp_files/11047.got.cif
#   From: 2010.05.17/outbox.cif.g08.bks.cpg/sg2_6_cif.got.tgz:11047.got - 2010.06.03 11:33:40.
