data_PCOD9109287
_publ_section_title
;
Structure prediction by ZEFSAII (Michael W. Deem and Ramdas Pophale) SiO2 
 PCOD9109287
Probable space group: P -1
;
_chemical_formula_sum "Si O2"
_cell_formula_units_Z 16
_cell_length_a 9.439435
_cell_length_b 7.596545
_cell_length_c 11.929928
_cell_angle_alpha 115.140255
_cell_angle_beta 81.125413
_cell_angle_gamma 112.401004
_cell_volume 715.954949
_symmetry_space_group_name_H-M "P -1"
_symmetry_group_IT_number 2
_symmetry_cell_setting 'triclinic'
loop_
_space_group_symop_operation_xyz
x,y,z
-x,-y,-z
loop_
_atom_site_type_symbol
_atom_site_label
_atom_site_fract_x
_atom_site_fract_y
_atom_site_fract_z
Si Si1 0.582155 0.430017 0.130721
Si Si2 0.054188 0.347171 0.876723
Si Si3 0.527453 0.809520 0.129693
Si Si4 0.966592 0.534060 0.334379
Si Si5 0.617740 0.442414 0.389110
Si Si6 0.552970 0.965431 0.607642
Si Si7 0.858552 0.056529 0.487954
Si Si8 0.131233 0.960371 0.778618
O O1 0.763527 0.537558 0.124358
O O2 0.513266 0.591673 0.130251
O O3 0.553576 0.411368 0.261695
O O4 0.525978 0.231126 0.002917
O O5 0.990799 0.359951 0.764095
O O6 0.034189 0.112938 0.856759
O O7 0.000000 0.500000 0.000000
O O8 0.425321 0.885135 0.248312
O O9 0.707496 0.953947 0.151625
O O10 0.800685 0.549178 0.389783
O O11 0.948468 0.290264 0.266215
O O12 0.093341 0.692211 0.441769
O O13 0.500000 0.500000 0.500000
O O14 0.593192 0.219718 0.381739
O O15 0.500000 0.000000 0.500000
O O16 0.713430 0.942118 0.552652
O O17 0.828249 0.993471 0.345580
O O18 0.000000 0.000000 0.500000
#
# Coordination Sequence:
#
# PCOD9109287 Si02
#       8
#     2   2   2   2   2   2   2   2
#     4   9  22  39  66  93 130 172 223 281 336 402
#     4  10  23  42  65  94 134 177 221 275 347 411
#     4  10  20  41  64  92 129 172 226 278 337 393
#     4  11  23  43  67  99 135 179 221 282 346 406
#     4  11  22  40  66 100 133 171 227 285 340 403
#     4  12  23  39  68  98 129 176 230 275 336 409
#     4  12  24  41  67 100 138 180 224 283 354 404
#     4  11  22  43  68  93 135 178 225 286 340 404
#
# _framework density 22.347774000000001
#
# number of rings (size 3 to 8) (size 9 to 14) (size 15 to 20)
#    0.000    1.250    3.750    1.875    3.500    1.000 
#    0.000    1.250    0.000    0.000    0.000    0.000 
#    0.000    0.000    0.000    0.000    0.000    0.000 
#
# Total GULP energy -89223.472166 kJ/mol
# GULP energy per Si atom -5576.467010 kJ/mol
# Density = 2.229691 g / cm^3
# Si number density = 22.347774 Si / 1000 Ang^3
#
#
#
# Elastic Constant Matrix: (Units=GPa)
#
#
# Indices 1 2 3 4 5 6 
#
# 1 52.1461 3.3226 23.3480 2.5210 -10.5773 -2.1285
# 2 3.3226 83.5449 8.9723 11.1702 2.6952 -5.2628
# 3 23.3480 8.9723 121.0887 6.6474 -0.5182 1.1977
# 4 2.5210 11.1702 6.6474 34.0784 -1.3735 -1.8634
# 5 -10.5773 2.6952 -0.5182 -1.3735 44.1378 11.3731
# 6 -2.1285 -5.2628 1.1977 -1.8634 11.3731 27.2121
#
#
#
# Elastic Compliance Matrix: (Units=1/GPa)
#
#
# Indices 1 2 3 4 5 6 
#
# 1 0.022186 -0.000579 -0.004183 -0.000444 0.005414 -0.000486
# 2 -0.000579 0.012836 -0.000660 -0.003947 -0.001814 0.002954
# 3 -0.004183 -0.000660 0.009190 -0.001332 -0.000729 -0.000646
# 4 -0.000444 -0.003947 -0.001332 0.031021 0.000815 0.001044
# 5 0.005414 -0.001814 -0.000729 0.000815 0.026941 -0.011099
# 6 -0.000486 0.002954 -0.000646 0.001044 -0.011099 0.042020
#
#
# Mechanical properties :
#
#
# Convention : Reuss Voigt Hill
#
# Bulk Modulus (GPa) = 29.96747 36.45172 33.20960
# Shear Modulus (GPa) = 30.09128 35.82810 32.95969
#
# Velocity S-wave (km/s) = 3.67345 4.00835 3.84455
# Velocity P-wave (km/s) = 5.60634 6.14565 5.88218
#
# Compressibility (1/GPa) = 0.03336952
#
# Stress axis : x y z
#
# Youngs Moduli (GPa) = 45.07264 77.90644 108.81207
#
# Poissons Ratio (x) = 0.04511 0.45512
# Poissons Ratio (y) = 0.02610 0.07179
# Poissons Ratio (z) = 0.18852 0.05140
#
# Static dielectric constant tensor:
#      x y z
#    x 1.851370 -0.057530 -0.007040 
#    y -0.057530 0.592460 -1.971570 
#    z -0.007040 -1.971570 -1.311450 
# 
# From -- ./inp_files/383184.got.cif
#   From: 2010.05.17/outbox.cif.g08.bks.cpg/sg2_192_cif.got.tgz:383184.got - 2010.06.03 11:33:40.
