data_PCOD9109501
_publ_section_title
;
Structure prediction by ZEFSAII (Michael W. Deem and Ramdas Pophale) SiO2 
 PCOD9109501
Probable space group: P -1
;
_chemical_formula_sum "Si O2"
_cell_formula_units_Z 14
_cell_length_a 7.072580
_cell_length_b 14.167257
_cell_length_c 14.826948
_cell_angle_alpha 26.926773
_cell_angle_beta 51.518895
_cell_angle_gamma 56.891412
_cell_volume 526.504971
_symmetry_space_group_name_H-M "P -1"
_symmetry_group_IT_number 2
_symmetry_cell_setting 'triclinic'
loop_
_space_group_symop_operation_xyz
x,y,z
-x,-y,-z
loop_
_atom_site_type_symbol
_atom_site_label
_atom_site_fract_x
_atom_site_fract_y
_atom_site_fract_z
Si Si1 0.528280 0.384701 0.775739
Si Si2 0.609321 0.951383 0.106449
Si Si3 0.817280 0.764192 0.852847
Si Si4 0.841211 0.599381 0.731493
Si Si5 0.865319 0.540573 0.409630
Si Si6 0.685034 0.332399 0.158741
Si Si7 0.682072 0.196184 0.515555
O O1 0.608401 0.430244 0.610375
O O2 0.498674 0.624153 0.615736
O O3 0.277716 0.286226 0.973412
O O4 0.684652 0.181720 0.927204
O O5 0.809814 0.777356 0.197935
O O6 0.404406 0.855302 0.313692
O O7 0.500000 0.000000 0.000000
O O8 0.103786 0.800811 0.747388
O O9 0.695098 0.962367 0.675082
O O10 0.737638 0.556746 0.000528
O O11 0.593930 0.727494 0.692320
O O12 0.973789 0.554465 0.636143
O O13 0.050590 0.705466 0.639770
O O14 0.747338 0.386877 0.990045
O O15 0.000000 0.500000 0.500000
#
# Coordination Sequence:
#
# PCOD9109501 Si02
#       7
#     2   2   2   2   2   2   2
#     4  10  20  41  65  96 130 170 224 279 337 405
#     4  10  21  37  66  99 132 177 224 278 344 408
#     4  10  21  42  68  96 131 181 225 278 347 405
#     4  11  22  42  65  97 138 177 225 284 337 398
#     4  11  24  40  66 100 141 179 223 282 347 411
#     4  10  23  41  65  93 138 181 226 280 336 407
#     4  10  21  37  69 100 130 172 231 285 335 410
#
# _framework density 26.590440999999998
#
# number of rings (size 3 to 8) (size 9 to 14) (size 15 to 20)
#    0.000    1.714    1.429    2.571    2.000    4.000 
#    0.000    1.429    9.429    0.000    0.000    0.000 
#    0.000    0.000    0.000    0.000    0.000    0.000 
#
# Total GULP energy -78027.408061 kJ/mol
# GULP energy per Si atom -5573.386290 kJ/mol
# Density = 2.652992 g / cm^3
# Si number density = 26.590441 Si / 1000 Ang^3
#
#
#
# Elastic Constant Matrix: (Units=GPa)
#
#
# Indices 1 2 3 4 5 6 
#
# 1 88.9950 32.2969 26.1758 8.0034 9.9272 -15.3363
# 2 32.2969 138.2663 71.8571 14.2502 1.9521 -16.5598
# 3 26.1758 71.8571 160.7272 -1.1252 17.9387 -10.5930
# 4 8.0034 14.2502 -1.1252 74.8429 -1.8630 11.2082
# 5 9.9272 1.9521 17.9387 -1.8630 32.0714 8.0140
# 6 -15.3363 -16.5598 -10.5930 11.2082 8.0140 40.4932
#
#
#
# Elastic Compliance Matrix: (Units=1/GPa)
#
#
# Indices 1 2 3 4 5 6 
#
# 1 0.013951 -0.002054 -0.000339 -0.002155 -0.005646 0.006069
# 2 -0.002054 0.010517 -0.004393 -0.002205 0.001661 0.002655
# 3 -0.000339 -0.004393 0.008861 0.000713 -0.004830 0.001152
# 4 -0.002155 -0.002205 0.000713 0.015030 0.002838 -0.006253
# 5 -0.005646 0.001661 -0.004830 0.002838 0.038473 -0.011122
# 6 0.006069 0.002655 0.001152 -0.006253 -0.011122 0.032313
#
#
# Mechanical properties :
#
#
# Convention : Reuss Voigt Hill
#
# Bulk Modulus (GPa) = 50.61440 72.07203 61.34322
# Shear Modulus (GPa) = 35.89299 46.65874 41.27587
#
# Velocity S-wave (km/s) = 3.67801 4.19348 3.94418
# Velocity P-wave (km/s) = 6.09206 7.11410 6.62282
#
# Compressibility (1/GPa) = 0.01975722
#
# Stress axis : x y z
#
# Youngs Moduli (GPa) = 71.67895 95.08150 112.85329
#
# Poissons Ratio (x) = 0.19530 0.03823
# Poissons Ratio (y) = 0.14723 0.49580
# Poissons Ratio (z) = 0.02428 0.41773
#
# Static dielectric constant tensor:
#      x y z
#    x 2.310720 -0.009110 -0.084230 
#    y -0.009110 2.230950 0.009980 
#    z -0.084230 0.009980 2.089910 
# 
# From -- ./inp_files/561999.got.cif
#   From: 2010.05.17/outbox.cif.g08.bks.cpg/sg2_281_cif.got.tgz:561999.got - 2010.06.03 11:33:40.
