data_PCOD9109510
_publ_section_title
;
Structure prediction by ZEFSAII (Michael W. Deem and Ramdas Pophale) SiO2 
 PCOD9109510
Probable space group: P -1
;
_chemical_formula_sum "Si O2"
_cell_formula_units_Z 14
_cell_length_a 13.062167
_cell_length_b 20.677073
_cell_length_c 25.876168
_cell_angle_alpha 12.408446
_cell_angle_beta 22.008471
_cell_angle_gamma 23.757970
_cell_volume 558.603169
_symmetry_space_group_name_H-M "P -1"
_symmetry_group_IT_number 2
_symmetry_cell_setting 'triclinic'
loop_
_space_group_symop_operation_xyz
x,y,z
-x,-y,-z
loop_
_atom_site_type_symbol
_atom_site_label
_atom_site_fract_x
_atom_site_fract_y
_atom_site_fract_z
Si Si1 0.431019 0.163850 0.083025
Si Si2 0.905703 0.266662 0.651377
Si Si3 0.290947 0.602456 0.897465
Si Si4 0.259090 0.280275 0.784163
Si Si5 0.843890 0.759752 0.559578
Si Si6 0.416994 0.285758 0.475378
Si Si7 0.940595 0.857432 0.583745
O O1 0.691974 0.934364 0.122260
O O2 0.428411 0.331119 0.008586
O O3 0.413407 0.443589 0.833616
O O4 0.175494 0.971912 0.350215
O O5 0.724296 0.577513 0.512420
O O6 0.995583 0.274791 0.543668
O O7 0.178664 0.249650 0.573406
O O8 0.755153 0.973585 0.966638
O O9 0.531281 0.705211 0.739384
O O10 0.167723 0.884890 0.700053
O O11 0.061712 0.490449 0.129014
O O12 0.500000 0.500000 0.500000
O O13 0.984178 0.511183 0.726751
O O14 0.633206 0.989945 0.608588
O O15 0.000000 0.000000 0.500000
#
# Coordination Sequence:
#
# PCOD9109510 Si02
#       7
#     2   2   2   2   2   2   2
#     4  10  22  43  65  94 131 171 213 265 322 384
#     4  10  23  42  69  95 127 173 217 271 326 374
#     4  10  23  43  64 101 120 173 225 254 330 382
#     4  11  27  44  65 101 131 170 217 266 330 389
#     4  11  24  45  70  91 138 167 215 281 315 382
#     4  10  20  41  65  98 126 166 225 266 316 390
#     4  10  22  36  63  94 130 167 212 261 321 384
#
# _framework density 25.062514
#
# number of rings (size 3 to 8) (size 9 to 14) (size 15 to 20)
#    0.000    1.714    1.429    1.286    6.000    6.857 
#    0.000    2.143    0.000    0.000    0.000    0.000 
#    0.000    0.000    0.000    0.000    0.000    0.000 
#
# Total GULP energy -78297.658982 kJ/mol
# GULP energy per Si atom -5592.689927 kJ/mol
# Density = 2.500547 g / cm^3
# Si number density = 25.062514 Si / 1000 Ang^3
#
#
#
# Elastic Constant Matrix: (Units=GPa)
#
#
# Indices 1 2 3 4 5 6 
#
# 1 39.1988 -7.8781 5.1658 1.3466 -0.6700 13.0067
# 2 -7.8781 56.4660 8.0748 -15.6591 -9.4603 5.7329
# 3 5.1658 8.0748 118.3335 1.8838 -0.5153 15.4127
# 4 1.3466 -15.6591 1.8838 48.2456 4.7226 6.3194
# 5 -0.6700 -9.4603 -0.5153 4.7226 23.8316 -5.3294
# 6 13.0067 5.7329 15.4127 6.3194 -5.3294 32.9691
#
#
#
# Elastic Compliance Matrix: (Units=1/GPa)
#
#
# Indices 1 2 3 4 5 6 
#
# 1 0.031457 0.006670 -0.000029 0.003176 -0.000275 -0.014210
# 2 0.006670 0.022546 -0.001078 0.007414 0.006199 -0.006467
# 3 -0.000029 -0.001078 0.009071 -0.000036 -0.001170 -0.004224
# 4 0.003176 0.007414 -0.000036 0.024412 -0.003546 -0.007778
# 5 -0.000275 0.006199 -0.001170 -0.003546 0.046842 0.007829
# 6 -0.014210 -0.006467 -0.004224 -0.007778 0.007829 0.041793
#
#
# Mechanical properties :
#
#
# Convention : Reuss Voigt Hill
#
# Bulk Modulus (GPa) = 13.47734 24.96927 19.22330
# Shear Modulus (GPa) = 26.35344 34.91830 30.63587
#
# Velocity S-wave (km/s) = 3.24621 3.73667 3.50005
# Velocity P-wave (km/s) = 4.40905 5.34803 4.90108
#
# Compressibility (1/GPa) = 0.07419863
#
# Stress axis : x y z
#
# Youngs Moduli (GPa) = 31.78987 44.35427 110.23913
#
# Poissons Ratio (x) = -0.29586 0.00324
# Poissons Ratio (y) = -0.21205 0.11888
# Poissons Ratio (z) = 0.00093 0.04783
#
# Static dielectric constant tensor:
#      x y z
#    x 1.976620 0.051070 0.004940 
#    y 0.051070 1.990350 -0.004650 
#    z 0.004940 -0.004650 2.012740 
# 
# From -- ./inp_files/390136.got.cif
#   From: 2010.05.17/outbox.cif.g08.bks.cpg/sg2_196_cif.got.tgz:390136.got - 2010.06.03 11:33:40.
