data_PCOD9109940
_publ_section_title
;
Structure prediction by ZEFSAII (Michael W. Deem and Ramdas Pophale) SiO2 
 PCOD9109940
Probable space group: P -1
;
_chemical_formula_sum "Si O2"
_cell_formula_units_Z 16
_cell_length_a 7.547493
_cell_length_b 16.094573
_cell_length_c 7.083002
_cell_angle_alpha 107.001394
_cell_angle_beta 82.510333
_cell_angle_gamma 124.211815
_cell_volume 679.792821
_symmetry_space_group_name_H-M "P -1"
_symmetry_group_IT_number 2
_symmetry_cell_setting 'triclinic'
loop_
_space_group_symop_operation_xyz
x,y,z
-x,-y,-z
loop_
_atom_site_type_symbol
_atom_site_label
_atom_site_fract_x
_atom_site_fract_y
_atom_site_fract_z
Si Si1 0.563616 0.562111 0.228742
Si Si2 0.275336 0.536098 0.574981
Si Si3 0.001137 0.956586 0.675803
Si Si4 0.691920 0.847643 0.963973
Si Si5 0.369744 0.892762 0.182607
Si Si6 0.113535 0.263528 0.947443
Si Si7 0.904403 0.337788 0.301662
Si Si8 0.314106 0.880588 0.613474
O O1 0.396169 0.573855 0.381308
O O2 0.605534 0.492936 0.314618
O O3 0.767507 0.675835 0.219530
O O4 0.500000 0.500000 0.000000
O O5 0.239076 0.621182 0.721747
O O6 0.054768 0.426014 0.492051
O O7 0.119835 0.895952 0.618213
O O8 0.145775 0.054747 0.857931
O O9 0.000000 0.000000 0.500000
O O10 0.774291 0.881961 0.761565
O O11 0.469236 0.836616 0.025764
O O12 0.736161 0.761561 0.971552
O O13 0.396297 0.880164 0.393531
O O14 0.122120 0.840061 0.128485
O O15 0.490695 0.982185 0.774139
O O16 0.056180 0.333460 0.123629
O O17 0.772398 0.226531 0.343457
#
# Coordination Sequence:
#
# PCOD9109940 Si02
#       8
#     2   2   2   2   2   2   2   2
#     4  11  24  48  78 102 139 185 238 301 369 428
#     4  10  25  47  73 107 142 180 239 306 362 430
#     4  10  20  41  68  93 137 189 231 290 347 408
#     4  10  23  43  64  99 138 178 240 287 338 423
#     4  10  24  43  67 104 144 190 238 289 347 427
#     4  12  24  44  72 105 142 188 239 295 354 428
#     4  11  23  45  71 105 144 186 236 301 360 427
#     4  10  21  44  67 100 147 189 237 287 359 423
#
# _framework density 23.536583
#
# number of rings (size 3 to 8) (size 9 to 14) (size 15 to 20)
#    0.000    1.500    2.500    1.500    1.750    2.000 
#    6.750    0.000    5.500    0.000    0.000    0.000 
#    0.000    0.000    0.000    0.000    0.000    0.000 
#
# Total GULP energy -89566.050284 kJ/mol
# GULP energy per Si atom -5597.878143 kJ/mol
# Density = 2.348301 g / cm^3
# Si number density = 23.536583 Si / 1000 Ang^3
#
#
#
# Elastic Constant Matrix: (Units=GPa)
#
#
# Indices 1 2 3 4 5 6 
#
# 1 111.0223 63.9908 36.4244 -5.5227 -20.0769 -9.7227
# 2 63.9908 147.3625 51.8505 -6.4162 -20.7267 -6.4605
# 3 36.4244 51.8505 118.4814 -14.0010 -12.6334 -8.3696
# 4 -5.5227 -6.4162 -14.0010 37.4640 3.6174 -2.6573
# 5 -20.0769 -20.7267 -12.6334 3.6174 40.8816 3.8918
# 6 -9.7227 -6.4605 -8.3696 -2.6573 3.8918 41.1612
#
#
#
# Elastic Compliance Matrix: (Units=1/GPa)
#
#
# Indices 1 2 3 4 5 6 
#
# 1 0.012865 -0.004506 -0.001455 0.000378 0.003385 0.001740
# 2 -0.004506 0.009999 -0.002819 -0.000221 0.002031 -0.000275
# 3 -0.001455 -0.002819 0.010702 0.003341 0.000721 0.001537
# 4 0.000378 -0.000221 0.003341 0.028312 -0.001658 0.002719
# 5 0.003385 0.002031 0.000721 -0.001658 0.027661 -0.001457
# 6 0.001740 -0.000275 0.001537 0.002719 -0.001457 0.025289
#
#
# Mechanical properties :
#
#
# Convention : Reuss Voigt Hill
#
# Bulk Modulus (GPa) = 62.47954 75.71086 69.09520
# Shear Modulus (GPa) = 36.30524 38.87472 37.58998
#
# Velocity S-wave (km/s) = 3.93173 4.06849 4.00069
# Velocity P-wave (km/s) = 6.87129 7.36935 7.12467
#
# Compressibility (1/GPa) = 0.01600524
#
# Stress axis : x y z
#
# Youngs Moduli (GPa) = 77.73176 100.01417 93.44427
#
# Poissons Ratio (x) = 0.45064 0.13593
# Poissons Ratio (y) = 0.35024 0.26346
# Poissons Ratio (z) = 0.11307 0.28198
#
# Static dielectric constant tensor:
#      x y z
#    x 1.957910 0.044370 -0.008460 
#    y 0.044370 1.904650 0.026990 
#    z -0.008460 0.026990 1.892850 
# 
# From -- ./inp_files/39293.got.cif
#   From: 2010.05.17/outbox.cif.g08.bks.cpg/sg2_20_cif.got.tgz:39293.got - 2010.06.03 11:33:40.
