data_PCOD9109634
_publ_section_title
;
Structure prediction by ZEFSAII (Michael W. Deem and Ramdas Pophale) SiO2 
 PCOD9109634
Probable space group: P -1
;
_chemical_formula_sum "Si O2"
_cell_formula_units_Z 14
_cell_length_a 21.380257
_cell_length_b 12.956954
_cell_length_c 9.013931
_cell_angle_alpha 145.893744
_cell_angle_beta 30.358355
_cell_angle_gamma 142.707774
_cell_volume 678.071018
_symmetry_space_group_name_H-M "P -1"
_symmetry_group_IT_number 2
_symmetry_cell_setting 'triclinic'
loop_
_space_group_symop_operation_xyz
x,y,z
-x,-y,-z
loop_
_atom_site_type_symbol
_atom_site_label
_atom_site_fract_x
_atom_site_fract_y
_atom_site_fract_z
Si Si1 0.216102 0.841656 0.195064
Si Si2 0.639224 0.539646 0.180518
Si Si3 0.501407 0.074785 0.254608
Si Si4 0.980148 0.969447 0.329702
Si Si5 0.473860 0.482177 0.205229
Si Si6 0.787382 0.567363 0.199821
Si Si7 0.765275 0.966304 0.302486
O O1 0.198019 0.892653 0.464851
O O2 0.115907 0.912870 0.389874
O O3 0.194467 0.613788 0.964137
O O4 0.367061 0.948805 0.973718
O O5 0.500000 0.500000 0.500000
O O6 0.587632 0.428983 0.000649
O O7 0.735201 0.499210 0.059158
O O8 0.707214 0.758234 0.252097
O O9 0.351186 0.991300 0.504698
O O10 0.523626 0.303118 0.491601
O O11 0.500000 0.000000 0.000000
O O12 0.911981 0.747569 0.162750
O O13 0.000000 0.000000 0.500000
O O14 0.114997 0.034519 0.044464
O O15 0.329347 0.364447 0.404850
O O16 0.500000 0.500000 0.000000
#
# Coordination Sequence:
#
# PCOD9109634 Si02
#       7
#     2   2   2   2   2   2   2
#     4  10  21  43  68  90 127 168 223 286 315 382
#     4   9  18  36  63  95 123 166 217 263 323 394
#     4   8  17  35  65  90 120 166 212 265 324 374
#     4  12  27  42  63  93 137 181 215 265 336 398
#     4   9  18  33  62  97 130 169 211 273 334 378
#     4  10  22  40  64  94 128 172 228 264 326 399
#     4  10  20  41  66  93 130 169 218 268 323 394
#
# _framework density 20.646805000000001
#
# number of rings (size 3 to 8) (size 9 to 14) (size 15 to 20)
#    0.000    2.286    1.429    1.286    4.000    1.143 
#    0.000    3.571    0.000    0.000    0.000    0.000 
#    0.000    0.000    0.000    0.000    0.000    0.000 
#
# Total GULP energy -77979.994076 kJ/mol
# GULP energy per Si atom -5569.999577 kJ/mol
# Density = 2.059981 g / cm^3
# Si number density = 20.646805 Si / 1000 Ang^3
#
#
#
# Elastic Constant Matrix: (Units=GPa)
#
#
# Indices 1 2 3 4 5 6 
#
# 1 131.1814 41.8866 66.9080 -14.6836 -23.7356 -6.7346
# 2 41.8866 95.2060 43.0993 -7.7010 -10.0138 2.9989
# 3 66.9080 43.0993 84.3159 -12.7046 -30.7967 0.1145
# 4 -14.6836 -7.7010 -12.7046 28.8105 -0.0707 -4.8482
# 5 -23.7356 -10.0138 -30.7967 -0.0707 34.7783 -1.8182
# 6 -6.7346 2.9989 0.1145 -4.8482 -1.8182 18.8850
#
#
#
# Elastic Compliance Matrix: (Units=1/GPa)
#
#
# Indices 1 2 3 4 5 6 
#
# 1 0.013726 -0.001728 -0.009033 0.003608 0.001206 0.006266
# 2 -0.001728 0.014274 -0.007479 -0.000955 -0.003875 -0.003456
# 3 -0.009033 -0.007479 0.030971 0.007357 0.019201 0.001516
# 4 0.003608 -0.000955 0.007357 0.041752 0.009467 0.013024
# 5 0.001206 -0.003875 0.019201 0.009467 0.045890 0.007778
# 6 0.006266 -0.003456 0.001516 0.013024 0.007778 0.059819
#
#
# Mechanical properties :
#
#
# Convention : Reuss Voigt Hill
#
# Bulk Modulus (GPa) = 44.46541 68.27677 56.37109
# Shear Modulus (GPa) = 19.96739 27.08207 23.52473
#
# Velocity S-wave (km/s) = 3.11319 3.62565 3.37914
# Velocity P-wave (km/s) = 5.87414 7.11813 6.52585
#
# Compressibility (1/GPa) = 0.02248939
#
# Stress axis : x y z
#
# Youngs Moduli (GPa) = 72.85566 70.05813 32.28835
#
# Poissons Ratio (x) = 0.12109 0.29165
# Poissons Ratio (y) = 0.12592 0.24150
# Poissons Ratio (z) = 0.65809 0.52400
#
# Static dielectric constant tensor:
#      x y z
#    x 1.844770 -0.086420 -0.081700 
#    y -0.086420 1.899750 0.061170 
#    z -0.081700 0.061170 1.784160 
# 
# From -- ./inp_files/312378.got.cif
#   From: 2010.05.17/outbox.cif.g08.bks.cpg/sg2_157_cif.got.tgz:312378.got - 2010.06.03 11:33:40.
