data_PCOD9109058
_publ_section_title
;
Structure prediction by ZEFSAII (Michael W. Deem and Ramdas Pophale) SiO2 
 PCOD9109058
Probable space group: P -1
;
_chemical_formula_sum "Si O2"
_cell_formula_units_Z 16
_cell_length_a 20.581174
_cell_length_b 19.511292
_cell_length_c 7.611969
_cell_angle_alpha 133.375042
_cell_angle_beta 37.138323
_cell_angle_gamma 160.897641
_cell_volume 568.688599
_symmetry_space_group_name_H-M "P -1"
_symmetry_group_IT_number 2
_symmetry_cell_setting 'triclinic'
loop_
_space_group_symop_operation_xyz
x,y,z
-x,-y,-z
loop_
_atom_site_type_symbol
_atom_site_label
_atom_site_fract_x
_atom_site_fract_y
_atom_site_fract_z
Si Si1 0.371209 0.680986 0.350016
Si Si2 0.871121 0.842644 0.842459
Si Si3 0.562703 0.358582 0.500528
Si Si4 0.825239 0.727594 0.390085
Si Si5 0.254112 0.872573 0.796657
Si Si6 0.124790 0.691162 0.407445
Si Si7 0.354477 0.011952 0.201569
Si Si8 0.283938 0.403281 0.970458
O O1 0.350756 0.641276 0.529256
O O2 0.630797 0.939823 0.203922
O O3 0.127477 0.543538 0.560300
O O4 0.353697 0.567068 0.088937
O O5 0.616173 0.703417 0.134446
O O6 0.834865 0.713371 0.789830
O O7 0.967867 0.899775 0.537756
O O8 0.000000 0.000000 0.000000
O O9 0.768507 0.579651 0.334113
O O10 0.400790 0.160299 0.375649
O O11 0.544075 0.550529 0.671386
O O12 0.893583 0.772224 0.117123
O O13 0.500000 0.000000 0.500000
O O14 0.080153 0.685311 0.694911
O O15 0.208653 0.860486 0.076257
O O16 0.213567 0.854228 0.393841
O O17 0.363805 0.811041 0.097055
#
# Coordination Sequence:
#
# PCOD9109058 Si02
#       8
#     2   2   2   2   2   2   2   2
#     4  12  22  41  71  94 131 175 215 267 326 380
#     4  11  23  39  62  90 131 164 203 267 320 375
#     4  11  21  40  66  89 126 169 210 265 322 382
#     4  10  20  41  62  89 121 161 214 255 316 380
#     4  10  23  45  64  91 131 169 214 276 319 374
#     4  10  24  43  64  95 129 170 218 268 320 384
#     4  10  22  44  64  92 132 167 215 269 323 382
#     4  10  21  39  64  89 120 164 210 258 311 383
#
# _framework density 28.134906000000001
#
# number of rings (size 3 to 8) (size 9 to 14) (size 15 to 20)
#    0.000    1.500    3.750    1.500    1.750    3.000 
#    6.750    0.000    0.000    0.000    0.000    0.000 
#    0.000    0.000    0.000    0.000    0.000    0.000 
#
# Total GULP energy -89667.893312 kJ/mol
# GULP energy per Si atom -5604.243332 kJ/mol
# Density = 2.807087 g / cm^3
# Si number density = 28.134906 Si / 1000 Ang^3
#
#
#
# Elastic Constant Matrix: (Units=GPa)
#
#
# Indices 1 2 3 4 5 6 
#
# 1 160.3451 35.5716 44.3028 7.7295 30.5067 17.0478
# 2 35.5716 81.4214 -2.1267 13.5896 12.5813 12.4365
# 3 44.3028 -2.1267 119.5547 15.7800 17.1866 8.5475
# 4 7.7295 13.5896 15.7800 44.0967 15.2843 -0.3659
# 5 30.5067 12.5813 17.1866 15.2843 53.5226 15.2262
# 6 17.0478 12.4365 8.5475 -0.3659 15.2262 57.3325
#
#
#
# Elastic Compliance Matrix: (Units=1/GPa)
#
#
# Indices 1 2 3 4 5 6 
#
# 1 0.008417 -0.003463 -0.002896 0.001826 -0.003465 -0.000388
# 2 -0.003463 0.015096 0.002409 -0.004848 -0.000232 -0.002573
# 3 -0.002896 0.002409 0.010147 -0.003569 -0.000881 -0.000963
# 4 0.001826 -0.004848 -0.003569 0.027795 -0.007614 0.003240
# 5 -0.003465 -0.000232 -0.000881 -0.007614 0.024706 -0.005398
# 6 -0.000388 -0.002573 -0.000963 0.003240 -0.005398 0.019714
#
#
# Mechanical properties :
#
#
# Convention : Reuss Voigt Hill
#
# Bulk Modulus (GPa) = 38.82008 57.42409 48.12208
# Shear Modulus (GPa) = 40.86277 49.89525 45.37901
#
# Velocity S-wave (km/s) = 3.81515 4.21578 4.02046
# Velocity P-wave (km/s) = 5.76498 6.64467 6.22039
#
# Compressibility (1/GPa) = 0.02575987
#
# Stress axis : x y z
#
# Youngs Moduli (GPa) = 118.80128 66.24386 98.55265
#
# Poissons Ratio (x) = 0.22941 0.28541
# Poissons Ratio (y) = 0.41143 -0.23742
# Poissons Ratio (z) = 0.34405 -0.15958
#
# Static dielectric constant tensor:
#      x y z
#    x 2.157670 0.046040 -0.066170 
#    y 0.046040 2.315410 0.002850 
#    z -0.066170 0.002850 2.196280 
# 
# From -- ./inp_files/349709.got.cif
#   From: 2010.05.17/outbox.cif.g08.bks.cpg/sg2_175_cif.got.tgz:349709.got - 2010.06.03 11:33:40.
