data_PCOD9109053
_publ_section_title
;
Structure prediction by ZEFSAII (Michael W. Deem and Ramdas Pophale) SiO2 
 PCOD9109053
Probable space group: P -1
;
_chemical_formula_sum "Si O2"
_cell_formula_units_Z 14
_cell_length_a 12.592144
_cell_length_b 23.598220
_cell_length_c 19.721916
_cell_angle_alpha 15.580586
_cell_angle_beta 32.760211
_cell_angle_gamma 25.037245
_cell_volume 639.563593
_symmetry_space_group_name_H-M "P -1"
_symmetry_group_IT_number 2
_symmetry_cell_setting 'triclinic'
loop_
_space_group_symop_operation_xyz
x,y,z
-x,-y,-z
loop_
_atom_site_type_symbol
_atom_site_label
_atom_site_fract_x
_atom_site_fract_y
_atom_site_fract_z
Si Si1 0.063741 0.144731 0.348128
Si Si2 0.218768 0.250532 0.892253
Si Si3 0.477379 0.719380 0.208820
Si Si4 0.065274 0.815926 0.974635
Si Si5 0.202220 0.121888 0.626762
Si Si6 0.519684 0.286365 0.283379
Si Si7 0.429058 0.274692 0.997010
O O1 0.793565 0.451110 0.156465
O O2 0.195792 0.959058 0.558802
O O3 0.285842 0.154317 0.194678
O O4 0.000000 0.000000 0.500000
O O5 0.291575 0.283689 0.889150
O O6 0.048692 0.169281 0.055179
O O7 0.064831 0.557774 0.587746
O O8 0.500000 0.000000 0.000000
O O9 0.500000 0.500000 0.500000
O O10 0.505741 0.653480 0.190462
O O11 0.191184 0.025396 0.023130
O O12 0.318100 0.485230 0.224361
O O13 0.160779 0.980732 0.752872
O O14 0.408764 0.156938 0.456357
O O15 0.321980 0.936239 0.844658
O O16 0.500000 0.500000 0.000000
#
# Coordination Sequence:
#
# PCOD9109053 Si02
#       7
#     2   2   2   2   2   2   2
#     4  10  22  45  65  93 127 166 218 263 321 380
#     4   9  20  38  60  89 129 165 211 255 308 384
#     4  11  22  41  64  95 131 170 210 263 320 380
#     4  10  21  39  62  89 130 163 213 259 319 379
#     4  10  20  41  62  88 128 162 215 263 321 378
#     4  10  23  38  61  93 122 165 215 268 316 377
#     4  10  24  42  67  95 128 170 214 265 322 383
#
# _framework density 21.889927
#
# number of rings (size 3 to 8) (size 9 to 14) (size 15 to 20)
#    0.000    2.000    1.429    0.857    2.000    3.429 
#    5.143   11.429    0.000    0.000    0.000    0.000 
#    0.000    0.000    0.000    0.000    0.000    0.000 
#
# Total GULP energy -78000.881058 kJ/mol
# GULP energy per Si atom -5571.491504 kJ/mol
# Density = 2.184010 g / cm^3
# Si number density = 21.889927 Si / 1000 Ang^3
#
#
#
# Elastic Constant Matrix: (Units=GPa)
#
#
# Indices 1 2 3 4 5 6 
#
# 1 151.4126 23.4661 68.1892 6.7433 -28.3076 -23.5094
# 2 23.4661 53.8421 25.8953 -10.8595 13.3675 -8.1249
# 3 68.1892 25.8953 99.2299 -7.1622 1.5791 -3.1498
# 4 6.7433 -10.8595 -7.1622 44.1178 -6.2498 10.5508
# 5 -28.3076 13.3675 1.5791 -6.2498 55.3470 -1.3944
# 6 -23.5094 -8.1249 -3.1498 10.5508 -1.3944 23.8777
#
#
#
# Elastic Compliance Matrix: (Units=1/GPa)
#
#
# Indices 1 2 3 4 5 6 
#
# 1 0.017075 -0.003367 -0.011019 -0.008306 0.009387 0.018431
# 2 -0.003367 0.024786 -0.003647 0.004490 -0.007041 0.002243
# 3 -0.011019 -0.003647 0.018723 0.006149 -0.004913 -0.012625
# 4 -0.008306 0.004490 0.006149 0.030310 -0.002573 -0.019382
# 5 0.009387 -0.007041 -0.004913 -0.002573 0.024640 0.008775
# 6 0.018431 0.002243 -0.012625 -0.019382 0.008775 0.068201
#
#
# Mechanical properties :
#
#
# Convention : Reuss Voigt Hill
#
# Bulk Modulus (GPa) = 40.78630 59.95396 50.37013
# Shear Modulus (GPa) = 21.93212 37.13077 29.53144
#
# Velocity S-wave (km/s) = 3.16876 4.12302 3.67698
# Velocity P-wave (km/s) = 5.66224 7.07913 6.40995
#
# Compressibility (1/GPa) = 0.02451804
#
# Stress axis : x y z
#
# Youngs Moduli (GPa) = 58.56351 40.34456 53.41041
#
# Poissons Ratio (x) = 0.13584 0.58854
# Poissons Ratio (y) = 0.19718 0.19481
# Poissons Ratio (z) = 0.64532 0.14715
#
# Static dielectric constant tensor:
#      x y z
#    x 1.830490 -0.034300 -0.010680 
#    y -0.034300 1.843570 0.015770 
#    z -0.010680 0.015770 1.833280 
# 
# From -- ./inp_files/570674.got.cif
#   From: 2010.05.17/outbox.cif.g08.bks.cpg/sg2_286_cif.got.tgz:570674.got - 2010.06.03 11:33:40.
