data_PCOD9109130
_publ_section_title
;
Structure prediction by ZEFSAII (Michael W. Deem and Ramdas Pophale) SiO2 
 PCOD9109130
Probable space group: P -1
;
_chemical_formula_sum "Si O2"
_cell_formula_units_Z 16
_cell_length_a 9.171569
_cell_length_b 19.423557
_cell_length_c 14.266276
_cell_angle_alpha 153.305569
_cell_angle_beta 128.287440
_cell_angle_gamma 46.450268
_cell_volume 827.416732
_symmetry_space_group_name_H-M "P -1"
_symmetry_group_IT_number 2
_symmetry_cell_setting 'triclinic'
loop_
_space_group_symop_operation_xyz
x,y,z
-x,-y,-z
loop_
_atom_site_type_symbol
_atom_site_label
_atom_site_fract_x
_atom_site_fract_y
_atom_site_fract_z
Si Si1 0.979259 0.187536 0.735149
Si Si2 0.796183 0.396410 0.242686
Si Si3 0.702034 0.463188 0.088646
Si Si4 0.915162 0.722762 0.469957
Si Si5 0.822910 0.541166 0.613066
Si Si6 0.644641 0.724053 0.956882
Si Si7 0.143126 0.582468 0.204999
Si Si8 0.811395 0.066051 0.933773
O O1 0.200316 0.196093 0.845085
O O2 0.848543 0.298532 0.731332
O O3 0.000000 0.000000 0.500000
O O4 0.862451 0.287000 0.901537
O O5 0.656014 0.458872 0.174017
O O6 0.715097 0.510393 0.440702
O O7 0.002374 0.407708 0.299006
O O8 0.839404 0.208598 0.056453
O O9 0.786120 0.606734 0.275685
O O10 0.500000 0.500000 0.000000
O O11 0.071796 0.637317 0.512160
O O12 0.026387 0.697799 0.385166
O O13 0.807452 0.912478 0.684562
O O14 0.711315 0.655807 0.794806
O O15 0.413026 0.845236 0.006389
O O16 0.682571 0.569760 0.857017
O O17 0.000000 0.500000 0.000000
O O18 0.000000 0.000000 0.000000
#
# Coordination Sequence:
#
# PCOD9109130 Si02
#       8
#     2   2   2   2   2   2   2   2
#     4  11  23  40  62  98 130 165 219 277 316 390
#     4  10  21  40  67  92 128 167 216 265 329 381
#     4  11  24  41  65  93 129 169 216 259 331 401
#     4  10  20  41  63  88 128 167 209 270 319 385
#     4   9  18  43  70  84 122 177 217 261 329 394
#     4  10  22  43  66  92 130 178 214 270 326 393
#     4   9  18  40  65  85 123 170 211 256 327 391
#     4  12  26  40  62 100 136 165 224 278 322 378
#
# _framework density 19.337295000000001
#
# number of rings (size 3 to 8) (size 9 to 14) (size 15 to 20)
#    0.000    1.750    6.250    0.000    5.250    0.500 
#    0.000    3.750    0.000    0.000    0.000    0.000 
#    0.000    0.000    0.000    0.000    0.000    0.000 
#
# Total GULP energy -89154.099700 kJ/mol
# GULP energy per Si atom -5572.131231 kJ/mol
# Density = 1.929328 g / cm^3
# Si number density = 19.337295 Si / 1000 Ang^3
#
#
#
# Elastic Constant Matrix: (Units=GPa)
#
#
# Indices 1 2 3 4 5 6 
#
# 1 57.8663 37.3649 42.7011 -3.7168 -12.8342 0.1435
# 2 37.3649 99.8994 51.9538 -22.1281 -0.7706 -9.4669
# 3 42.7011 51.9538 145.8417 2.8586 -5.3468 5.2486
# 4 -3.7168 -22.1281 2.8586 37.9173 3.6547 -4.3711
# 5 -12.8342 -0.7706 -5.3468 3.6547 22.5461 1.9347
# 6 0.1435 -9.4669 5.2486 -4.3711 1.9347 36.0504
#
#
#
# Elastic Compliance Matrix: (Units=1/GPa)
#
#
# Indices 1 2 3 4 5 6 
#
# 1 0.030896 -0.010574 -0.004412 -0.004913 0.017300 -0.003782
# 2 -0.010574 0.020087 -0.004944 0.012887 -0.009289 0.008098
# 3 -0.004412 -0.004944 0.010147 -0.004541 0.000749 -0.003349
# 4 -0.004913 0.012887 -0.004541 0.035748 -0.009995 0.008936
# 5 0.017300 -0.009289 0.000749 -0.009995 0.056270 -0.006849
# 6 -0.003782 0.008098 -0.003349 0.008936 -0.006849 0.031819
#
#
# Mechanical properties :
#
#
# Convention : Reuss Voigt Hill
#
# Bulk Modulus (GPa) = 47.01923 63.07187 55.04555
# Shear Modulus (GPa) = 21.55934 30.74195 26.15065
#
# Velocity S-wave (km/s) = 3.34265 3.99152 3.68141
# Velocity P-wave (km/s) = 6.26625 7.34374 6.82629
#
# Compressibility (1/GPa) = 0.02126790
#
# Stress axis : x y z
#
# Youngs Moduli (GPa) = 32.36646 49.78407 98.55206
#
# Poissons Ratio (x) = 0.52644 0.43486
# Poissons Ratio (y) = 0.34226 0.48725
# Poissons Ratio (z) = 0.14282 0.24614
#
# Static dielectric constant tensor:
#      x y z
#    x 1.703100 0.006970 -0.020780 
#    y 0.006970 1.674410 -0.004830 
#    z -0.020780 -0.004830 1.638340 
# 
# From -- ./inp_files/403592.got.cif
#   From: 2010.05.17/outbox.cif.g08.bks.cpg/sg2_202_cif.got.tgz:403592.got - 2010.06.03 11:33:40.
