data_PCOD9109797
_publ_section_title
;
Structure prediction by ZEFSAII (Michael W. Deem and Ramdas Pophale) SiO2 
 PCOD9109797
Probable space group: P -1
;
_chemical_formula_sum "Si O2"
_cell_formula_units_Z 12
_cell_length_a 13.130949
_cell_length_b 9.668293
_cell_length_c 9.331615
_cell_angle_alpha 112.226708
_cell_angle_beta 143.433555
_cell_angle_gamma 84.806065
_cell_volume 602.497501
_symmetry_space_group_name_H-M "P -1"
_symmetry_group_IT_number 2
_symmetry_cell_setting 'triclinic'
loop_
_space_group_symop_operation_xyz
x,y,z
-x,-y,-z
loop_
_atom_site_type_symbol
_atom_site_label
_atom_site_fract_x
_atom_site_fract_y
_atom_site_fract_z
Si Si1 0.356506 0.813240 0.639431
Si Si2 0.367680 0.349510 0.696728
Si Si3 0.598598 0.152963 0.963522
Si Si4 0.034049 0.175025 0.764024
Si Si5 0.002533 0.821213 0.609271
Si Si6 0.682808 0.531912 0.627740
O O1 0.414799 0.804012 0.866703
O O2 0.297276 0.639099 0.433200
O O3 0.182326 0.864732 0.473361
O O4 0.516081 0.957472 0.794473
O O5 0.166724 0.271370 0.513963
O O6 0.342573 0.407896 0.534410
O O7 0.500000 0.500000 0.000000
O O8 0.471025 0.224281 0.761149
O O9 0.814128 0.219630 0.188528
O O10 0.070283 0.210314 0.649583
O O11 0.151099 0.329271 0.049695
O O12 0.066731 0.014320 0.778052
O O13 0.500000 0.500000 0.500000
#
# Coordination Sequence:
#
# PCOD9109797 Si02
#       6
#     2   2   2   2   2   2
#     4  10  20  41  67  93 128 169 213 257 317 380
#     4  12  24  43  65  95 131 164 216 267 311 376
#     4  10  21  41  70  95 122 170 217 255 313 384
#     4  10  21  41  67  95 127 169 213 259 318 380
#     4  10  22  42  70  93 125 170 214 259 317 381
#     4  12  25  41  62  95 133 168 212 265 321 372
#
# _framework density 19.917093999999999
#
# number of rings (size 3 to 8) (size 9 to 14) (size 15 to 20)
#    0.000    1.333    3.333    2.500    2.333    1.333 
#    6.000    1.667    0.000    0.000    0.000    0.000 
#    0.000    0.000    0.000    0.000    0.000    0.000 
#
# Total GULP energy -67078.872658 kJ/mol
# GULP energy per Si atom -5589.906055 kJ/mol
# Density = 1.987176 g / cm^3
# Si number density = 19.917094 Si / 1000 Ang^3
#
#
#
# Elastic Constant Matrix: (Units=GPa)
#
#
# Indices 1 2 3 4 5 6 
#
# 1 108.0633 46.8661 32.6257 3.1680 23.6602 14.5121
# 2 46.8661 78.1829 26.4756 10.2528 4.8849 -5.2219
# 3 32.6257 26.4756 88.4811 23.1781 -1.5016 8.8236
# 4 3.1680 10.2528 23.1781 23.3110 -17.0276 1.1025
# 5 23.6602 4.8849 -1.5016 -17.0276 39.4328 11.5242
# 6 14.5121 -5.2219 8.8236 1.1025 11.5242 28.8032
#
#
#
# Elastic Compliance Matrix: (Units=1/GPa)
#
#
# Indices 1 2 3 4 5 6 
#
# 1 0.016279 -0.008657 -0.002727 -0.000837 -0.007427 -0.005933
# 2 -0.008657 0.021048 -0.001322 -0.011487 -0.005731 0.011315
# 3 -0.002727 -0.001322 0.018593 -0.022594 -0.006985 -0.000902
# 4 -0.000837 -0.011487 -0.022594 0.112301 0.055801 -0.021364
# 5 -0.007427 -0.005731 -0.006985 0.055801 0.060657 -0.021562
# 6 -0.005933 0.011315 -0.000902 -0.021364 -0.021562 0.049480
#
#
# Mechanical properties :
#
#
# Convention : Reuss Voigt Hill
#
# Bulk Modulus (GPa) = 32.77965 54.07358 43.42661
# Shear Modulus (GPa) = 15.92656 29.56005 22.74330
#
# Velocity S-wave (km/s) = 2.83086 3.85665 3.38287
# Velocity P-wave (km/s) = 5.21333 6.85857 6.09175
#
# Compressibility (1/GPa) = 0.03050673
#
# Stress axis : x y z
#
# Youngs Moduli (GPa) = 61.42827 47.51031 53.78282
#
# Poissons Ratio (x) = 0.41131 0.14668
# Poissons Ratio (y) = 0.53180 0.07112
# Poissons Ratio (z) = 0.16753 0.06283
#
# Static dielectric constant tensor:
#      x y z
#    x 1.696380 -0.024210 0.021790 
#    y -0.024210 1.710510 0.004390 
#    z 0.021790 0.004390 1.744870 
# 
# From -- ./inp_files/145619.got.cif
#   From: 2010.05.17/outbox.cif.g08.bks.cpg/sg2_73_cif.got.tgz:145619.got - 2010.06.03 11:33:40.
