data_PCOD9109919
_publ_section_title
;
Structure prediction by ZEFSAII (Michael W. Deem and Ramdas Pophale) SiO2 
 PCOD9109919
Probable space group: P -1
;
_chemical_formula_sum "Si O2"
_cell_formula_units_Z 16
_cell_length_a 9.097021
_cell_length_b 9.509919
_cell_length_c 15.006501
_cell_angle_alpha 110.173231
_cell_angle_beta 98.956042
_cell_angle_gamma 131.879104
_cell_volume 756.464489
_symmetry_space_group_name_H-M "P -1"
_symmetry_group_IT_number 2
_symmetry_cell_setting 'triclinic'
loop_
_space_group_symop_operation_xyz
x,y,z
-x,-y,-z
loop_
_atom_site_type_symbol
_atom_site_label
_atom_site_fract_x
_atom_site_fract_y
_atom_site_fract_z
Si Si1 0.997909 0.640179 0.966237
Si Si2 0.222514 0.116831 0.105766
Si Si3 0.004092 0.381334 0.552458
Si Si4 0.258992 0.294817 0.486940
Si Si5 0.964177 0.039788 0.230145
Si Si6 0.582970 0.830174 0.389801
Si Si7 0.969884 0.575228 0.739994
Si Si8 0.507306 0.419180 0.853539
O O1 0.004332 0.596389 0.853769
O O2 0.752574 0.539096 0.936876
O O3 0.000000 0.500000 0.000000
O O4 0.207512 0.925970 0.062417
O O5 0.160201 0.129385 0.200474
O O6 0.439567 0.376416 0.139342
O O7 0.000000 0.000000 0.000000
O O8 0.066945 0.513548 0.678949
O O9 0.000000 0.500000 0.500000
O O10 0.184305 0.390683 0.546939
O O11 0.745095 0.102875 0.469076
O O12 0.500000 0.500000 0.500000
O O13 0.063154 0.102324 0.352538
O O14 0.293658 0.194131 0.540546
O O15 0.932980 0.189908 0.235124
O O16 0.711867 0.759777 0.138903
O O17 0.312672 0.642898 0.352796
O O18 0.563372 0.745911 0.270962
#
# Coordination Sequence:
#
# PCOD9109919 Si02
#       8
#     2   2   2   2   2   2   2   2
#     4  10  23  45  69  94 132 170 222 285 341 392
#     4  10  20  41  68  92 124 170 219 280 330 388
#     4  12  23  38  63  98 136 183 220 263 343 406
#     4  12  23  39  66  97 135 174 226 274 318 399
#     4  12  21  40  70  96 129 173 230 266 337 396
#     4  11  21  42  63  96 137 174 217 279 321 398
#     4  11  22  43  67  95 138 175 222 278 342 404
#     4  10  21  40  70  94 129 172 218 273 337 395
#
# _framework density 21.151026000000002
#
# number of rings (size 3 to 8) (size 9 to 14) (size 15 to 20)
#    0.000    1.000    7.500    0.750    0.000    3.000 
#    0.000    6.875    2.750    0.000    0.000    0.000 
#    0.000    0.000    0.000    0.000    0.000    0.000 
#
# Total GULP energy -89469.347936 kJ/mol
# GULP energy per Si atom -5591.834246 kJ/mol
# Density = 2.110289 g / cm^3
# Si number density = 21.151026 Si / 1000 Ang^3
#
#
#
# Elastic Constant Matrix: (Units=GPa)
#
#
# Indices 1 2 3 4 5 6 
#
# 1 78.4104 53.2560 43.1773 -3.0690 -17.4525 -6.0564
# 2 53.2560 158.1626 30.4083 27.7653 -1.8805 -18.2109
# 3 43.1773 30.4083 71.3628 -0.5338 -21.9341 -14.6539
# 4 -3.0690 27.7653 -0.5338 40.6830 -2.3042 5.0921
# 5 -17.4525 -1.8805 -21.9341 -2.3042 31.9208 3.8902
# 6 -6.0564 -18.2109 -14.6539 5.0921 3.8902 42.5106
#
#
#
# Elastic Compliance Matrix: (Units=1/GPa)
#
#
# Indices 1 2 3 4 5 6 
#
# 1 0.026540 -0.009004 -0.010903 0.009155 0.007837 -0.005649
# 2 -0.009004 0.011633 -0.000265 -0.009610 -0.005758 0.005287
# 3 -0.010903 -0.000265 0.025226 -0.000478 0.010577 0.006118
# 4 0.009155 -0.009610 -0.000478 0.033200 0.007438 -0.007634
# 5 0.007837 -0.005758 0.010577 0.007438 0.043391 -0.002566
# 6 -0.005649 0.005287 0.006118 -0.007634 -0.002566 0.028242
#
#
# Mechanical properties :
#
#
# Convention : Reuss Voigt Hill
#
# Bulk Modulus (GPa) = 43.37651 62.40212 52.88931
# Shear Modulus (GPa) = 23.12028 35.09584 29.10806
#
# Velocity S-wave (km/s) = 3.30980 4.07787 3.71374
# Velocity P-wave (km/s) = 5.92949 7.19299 6.59159
#
# Compressibility (1/GPa) = 0.02305395
#
# Stress axis : x y z
#
# Youngs Moduli (GPa) = 37.67963 85.96450 39.64121
#
# Poissons Ratio (x) = 0.77406 0.43222
# Poissons Ratio (y) = 0.33928 0.01049
# Poissons Ratio (z) = 0.41083 0.02275
#
# Static dielectric constant tensor:
#      x y z
#    x 1.772840 0.055560 -0.019720 
#    y 0.055560 1.766660 0.021040 
#    z -0.019720 0.021040 1.802020 
# 
# From -- ./inp_files/273765.got.cif
#   From: 2010.05.17/outbox.cif.g08.bks.cpg/sg2_137_cif.got.tgz:273765.got - 2010.06.03 11:33:40.
