data_PCOD9109562
_publ_section_title
;
Structure prediction by ZEFSAII (Michael W. Deem and Ramdas Pophale) SiO2 
 PCOD9109562
Probable space group: P -1
;
_chemical_formula_sum "Si O2"
_cell_formula_units_Z 16
_cell_length_a 17.542597
_cell_length_b 12.702180
_cell_length_c 10.617899
_cell_angle_alpha 123.773081
_cell_angle_beta 145.984002
_cell_angle_gamma 33.244113
_cell_volume 648.792341
_symmetry_space_group_name_H-M "P -1"
_symmetry_group_IT_number 2
_symmetry_cell_setting 'triclinic'
loop_
_space_group_symop_operation_xyz
x,y,z
-x,-y,-z
loop_
_atom_site_type_symbol
_atom_site_label
_atom_site_fract_x
_atom_site_fract_y
_atom_site_fract_z
Si Si1 0.328540 0.561187 0.482017
Si Si2 0.847371 0.577855 0.515590
Si Si3 0.058741 0.667416 0.952295
Si Si4 0.403411 0.932271 0.277669
Si Si5 0.163200 0.796760 0.997380
Si Si6 0.779138 0.071405 0.477576
Si Si7 0.289812 0.134677 0.705606
Si Si8 0.100571 0.066148 0.712886
O O1 0.138265 0.689153 0.414282
O O2 0.324194 0.711180 0.525856
O O3 0.579613 0.346341 0.735300
O O4 0.240047 0.550599 0.234536
O O5 0.011874 0.556391 0.794006
O O6 0.650238 0.683968 0.413891
O O7 0.721767 0.755718 0.351663
O O8 0.031190 0.343769 0.551302
O O9 0.153283 0.663773 0.954398
O O10 0.813470 0.915652 0.821199
O O11 0.500000 0.000000 0.500000
O O12 0.263245 0.992415 0.999516
O O13 0.045804 0.891127 0.763969
O O14 0.000000 0.000000 0.000000
O O15 0.686848 0.030246 0.415168
O O16 0.761024 0.020280 0.283198
O O17 0.500000 0.000000 0.000000
O O18 0.000000 0.000000 0.500000
#
# Coordination Sequence:
#
# PCOD9109562 Si02
#       8
#     2   2   2   2   2   2   2   2
#     4  10  23  41  66  90 128 168 203 270 321 375
#     4  10  22  41  62  90 124 166 210 259 316 367
#     4  10  20  41  66  88 123 165 213 260 317 377
#     4   9  19  39  69  87 123 174 211 258 320 379
#     4  12  24  38  62  98 126 164 213 259 326 385
#     4  11  23  40  63  92 128 163 209 267 317 383
#     4  11  24  37  60  90 125 163 206 256 311 384
#     4   9  20  40  64  95 127 165 213 264 325 376
#
# _framework density 24.661203
#
# number of rings (size 3 to 8) (size 9 to 14) (size 15 to 20)
#    0.000    1.750    2.500    1.125    1.750    2.500 
#    2.250    0.000    0.000    4.500    0.000    0.000 
#    0.000    0.000    0.000    0.000    0.000    0.000 
#
# Total GULP energy -89183.171831 kJ/mol
# GULP energy per Si atom -5573.948239 kJ/mol
# Density = 2.460507 g / cm^3
# Si number density = 24.661203 Si / 1000 Ang^3
#
#
#
# Elastic Constant Matrix: (Units=GPa)
#
#
# Indices 1 2 3 4 5 6 
#
# 1 30.5646 12.2238 25.6468 10.4622 7.9245 -8.5742
# 2 12.2238 85.9945 56.3932 0.8332 -1.3750 2.9446
# 3 25.6468 56.3932 192.8159 10.1327 -4.7558 0.6016
# 4 10.4622 0.8332 10.1327 34.3591 -15.2898 1.7042
# 5 7.9245 -1.3750 -4.7558 -15.2898 46.4179 -2.4174
# 6 -8.5742 2.9446 0.6016 1.7042 -2.4174 39.8095
#
#
#
# Elastic Compliance Matrix: (Units=1/GPa)
#
#
# Indices 1 2 3 4 5 6 
#
# 1 0.054730 -0.004913 -0.005080 -0.023229 -0.017026 0.012188
# 2 -0.004913 0.014904 -0.003821 0.003179 0.001825 -0.002128
# 3 -0.005080 -0.003821 0.007004 0.000294 0.001525 -0.000837
# 4 -0.023229 0.003179 0.000294 0.044519 0.018440 -0.006029
# 5 -0.017026 0.001825 0.001525 0.018440 0.030591 -0.002757
# 6 0.012188 -0.002128 -0.000837 -0.006029 -0.002757 0.028006
#
#
# Mechanical properties :
#
#
# Convention : Reuss Voigt Hill
#
# Bulk Modulus (GPa) = 20.40383 55.32250 37.86316
# Shear Modulus (GPa) = 22.34965 38.45806 30.40385
#
# Velocity S-wave (km/s) = 3.01369 3.95328 3.51502
# Velocity P-wave (km/s) = 4.51679 6.58176 5.64451
#
# Compressibility (1/GPa) = 0.04901042
#
# Stress axis : x y z
#
# Youngs Moduli (GPa) = 18.27159 67.09662 142.76938
#
# Poissons Ratio (x) = 0.32962 0.72529
# Poissons Ratio (y) = 0.08976 0.54551
# Poissons Ratio (z) = 0.09282 0.25637
#
# Static dielectric constant tensor:
#      x y z
#    x 2.131530 0.019700 -0.000250 
#    y 0.019700 1.951590 0.005070 
#    z -0.000250 0.005070 1.938050 
# 
# From -- ./inp_files/471756.got.cif
#   From: 2010.05.17/outbox.cif.g08.bks.cpg/sg2_236_cif.got.tgz:471756.got - 2010.06.03 11:33:40.
