data_PCOD9109313
_publ_section_title
;
Structure prediction by ZEFSAII (Michael W. Deem and Ramdas Pophale) SiO2 
 PCOD9109313
Probable space group: P -1
;
_chemical_formula_sum "Si O2"
_cell_formula_units_Z 16
_cell_length_a 19.883069
_cell_length_b 12.608513
_cell_length_c 8.812437
_cell_angle_alpha 128.812593
_cell_angle_beta 150.154520
_cell_angle_gamma 43.750348
_cell_volume 760.293684
_symmetry_space_group_name_H-M "P -1"
_symmetry_group_IT_number 2
_symmetry_cell_setting 'triclinic'
loop_
_space_group_symop_operation_xyz
x,y,z
-x,-y,-z
loop_
_atom_site_type_symbol
_atom_site_label
_atom_site_fract_x
_atom_site_fract_y
_atom_site_fract_z
Si Si1 0.243714 0.734903 0.400960
Si Si2 0.382922 0.065138 0.555897
Si Si3 0.124088 0.484632 0.931250
Si Si4 0.216531 0.377715 0.677037
Si Si5 0.554342 0.487905 0.771669
Si Si6 0.057421 0.041350 0.495572
Si Si7 0.706486 0.827367 0.866005
Si Si8 0.252098 0.836769 0.166336
O O1 0.410352 0.621288 0.689269
O O2 0.255905 0.800517 0.319251
O O3 0.156972 0.880120 0.465209
O O4 0.161968 0.626952 0.128541
O O5 0.331925 0.204947 0.699178
O O6 0.343012 0.135974 0.372746
O O7 0.559772 0.937174 0.779815
O O8 0.282053 0.979568 0.319207
O O9 0.169866 0.397324 0.780192
O O10 0.943268 0.554662 0.663851
O O11 0.226692 0.352600 0.130383
O O12 0.303551 0.478113 0.911705
O O13 0.500000 0.500000 0.500000
O O14 0.611376 0.313941 0.776432
O O15 0.159106 0.126957 0.797935
O O16 0.000000 0.000000 0.500000
O O17 0.909017 0.137048 0.189481
#
# Coordination Sequence:
#
# PCOD9109313 Si02
#       8
#     2   2   2   2   2   2   2   2
#     4  11  24  43  68  99 126 168 216 267 321 379
#     4  11  25  44  65  94 132 173 215 261 319 381
#     4  11  24  42  66  97 131 164 215 267 322 379
#     4  11  23  41  65  99 125 166 215 265 321 374
#     4  10  20  41  64  94 129 160 211 267 316 374
#     4  12  25  45  65  96 133 171 216 259 323 384
#     4  11  26  45  63  94 134 174 214 260 318 390
#     4  11  22  43  69  94 130 167 213 270 318 375
#
# _framework density 21.044499999999999
#
# number of rings (size 3 to 8) (size 9 to 14) (size 15 to 20)
#    0.000    1.000    3.750    3.375    5.250    1.000 
#    2.250    0.625    0.000    0.000    0.000    0.000 
#    0.000    0.000    0.000    0.000    0.000    0.000 
#
# Total GULP energy -89464.470289 kJ/mol
# GULP energy per Si atom -5591.529393 kJ/mol
# Density = 2.099660 g / cm^3
# Si number density = 21.044500 Si / 1000 Ang^3
#
#
#
# Elastic Constant Matrix: (Units=GPa)
#
#
# Indices 1 2 3 4 5 6 
#
# 1 8.1184 -49.5766 43.4109 -62.1537 -5.0724 5.6890
# 2 -49.5766 -15.9090 26.3549 -88.9536 -22.1704 19.4565
# 3 43.4109 26.3549 -38.6476 68.2767 35.9882 -5.5821
# 4 -62.1537 -88.9536 68.2767 -66.6214 -15.9783 27.1147
# 5 -5.0724 -22.1704 35.9882 -15.9783 20.8452 2.4634
# 6 5.6890 19.4565 -5.5821 27.1147 2.4634 25.7270
#
#
#
# Elastic Compliance Matrix: (Units=1/GPa)
#
#
# Indices 1 2 3 4 5 6 
#
# 1 0.021493 -0.006304 -0.001036 -0.007664 -0.006564 0.008496
# 2 -0.006304 0.002584 -0.017497 -0.015641 0.018206 0.010385
# 3 -0.001036 -0.017497 -0.032290 -0.009714 0.027781 0.014034
# 4 -0.007664 -0.015641 -0.009714 0.005107 0.001490 0.005890
# 5 -0.006564 0.018206 0.027781 0.001490 0.020075 -0.009782
# 6 0.008496 0.010385 0.014034 0.005890 -0.009782 0.026911
#
#
# Mechanical properties :
#
#
# Convention : Reuss Voigt Hill
#
# Bulk Modulus (GPa) = -17.27439 -0.67331 -8.97385
# Shear Modulus (GPa) = 67.33208 -8.45168 29.44020
#
# Velocity S-wave (km/s) = 5.66256 -2.00619 3.74431
# Velocity P-wave (km/s) = 5.87592 2.38476 3.79732
#
# Compressibility (1/GPa) = -0.05788917
#
# Stress axis : x y z
#
# Youngs Moduli (GPa) = 46.52761 387.00482 -30.96908
#
# Poissons Ratio (x) = 2.43976 -0.03209
# Poissons Ratio (y) = 0.29332 -0.54187
# Poissons Ratio (z) = 0.04821 6.77152
#
# Static dielectric constant tensor:
#      x y z
#    x 1.742030 0.030210 0.012320 
#    y 0.030210 1.639240 -0.041880 
#    z 0.012320 -0.041880 1.761580 
# 
# From -- ./inp_files/346415.got.cif
#   From: 2010.05.17/outbox.cif.g08.bks.cpg/sg2_174_cif.got.tgz:346415.got - 2010.06.03 11:33:40.
