data_PCOD9109609
_publ_section_title
;
Structure prediction by ZEFSAII (Michael W. Deem and Ramdas Pophale) SiO2 
 PCOD9109609
Probable space group: P -1
;
_chemical_formula_sum "Si O2"
_cell_formula_units_Z 14
_cell_length_a 20.129562
_cell_length_b 6.630967
_cell_length_c 11.069036
_cell_angle_alpha 80.421325
_cell_angle_beta 146.474746
_cell_angle_gamma 76.130343
_cell_volume 578.639458
_symmetry_space_group_name_H-M "P -1"
_symmetry_group_IT_number 2
_symmetry_cell_setting 'triclinic'
loop_
_space_group_symop_operation_xyz
x,y,z
-x,-y,-z
loop_
_atom_site_type_symbol
_atom_site_label
_atom_site_fract_x
_atom_site_fract_y
_atom_site_fract_z
Si Si1 0.139171 0.545615 0.996731
Si Si2 0.130306 0.655192 0.228586
Si Si3 0.148711 0.099924 0.667848
Si Si4 0.291358 0.108637 0.095573
Si Si5 0.328546 0.248765 0.783775
Si Si6 0.369857 0.446597 0.059583
Si Si7 0.598531 0.499314 0.507864
O O1 0.073596 0.597535 0.028609
O O2 0.244920 0.633931 0.154701
O O3 0.247589 0.219575 0.154948
O O4 0.007361 0.719305 0.674163
O O5 0.173520 0.494956 0.436113
O O6 0.318972 0.496039 0.486464
O O7 0.000000 0.000000 0.000000
O O8 0.136813 0.194666 0.777817
O O9 0.273792 0.113966 0.790957
O O10 0.225753 0.784685 0.819068
O O11 0.334531 0.281074 0.092814
O O12 0.445985 0.785631 0.319912
O O13 0.372606 0.377367 0.931303
O O14 0.500000 0.000000 0.000000
O O15 0.529977 0.368788 0.367470
#
# Coordination Sequence:
#
# PCOD9109609 Si02
#       7
#     2   2   2   2   2   2   2
#     4  10  22  39  62  91 132 161 200 268 317 369
#     4  10  22  40  60  94 128 160 209 260 316 366
#     4  10  22  40  63  93 123 164 207 261 316 371
#     4  10  20  41  66  92 120 166 214 251 316 379
#     4  11  23  41  67  91 122 175 220 250 311 382
#     4  10  21  39  65  88 123 160 216 258 301 381
#     4   9  22  41  61  91 123 163 205 257 317 367
#
# _framework density 24.194686000000001
#
# number of rings (size 3 to 8) (size 9 to 14) (size 15 to 20)
#    0.857    1.143    0.000    4.286    0.000    5.143 
#    2.571    4.286    0.000    0.000    0.000    0.000 
#    0.000    0.000    0.000    0.000    0.000    0.000 
#
# Total GULP energy -78108.369864 kJ/mol
# GULP energy per Si atom -5579.169276 kJ/mol
# Density = 2.413962 g / cm^3
# Si number density = 24.194686 Si / 1000 Ang^3
#
#
#
# Elastic Constant Matrix: (Units=GPa)
#
#
# Indices 1 2 3 4 5 6 
#
# 1 63.5278 32.7868 8.3253 4.1484 -18.5347 -25.1780
# 2 32.7868 147.4482 51.4098 33.5901 -17.8666 -30.1779
# 3 8.3253 51.4098 111.1847 25.3060 -6.7356 -1.9432
# 4 4.1484 33.5901 25.3060 51.4127 3.7115 -6.1271
# 5 -18.5347 -17.8666 -6.7356 3.7115 32.0056 5.5741
# 6 -25.1780 -30.1779 -1.9432 -6.1271 5.5741 43.9886
#
#
#
# Elastic Compliance Matrix: (Units=1/GPa)
#
#
# Indices 1 2 3 4 5 6 
#
# 1 0.024411 -0.001619 -0.000129 -0.000304 0.011258 0.011387
# 2 -0.001619 0.011119 -0.003519 -0.005072 0.004192 0.005308
# 3 -0.000129 -0.003519 0.011521 -0.003772 0.001288 -0.002667
# 4 -0.000304 -0.005072 -0.003772 0.025204 -0.006820 0.000555
# 5 0.011258 0.004192 0.001288 -0.006820 0.040594 0.003283
# 6 0.011387 0.005308 -0.002667 0.000555 0.003283 0.032436
#
#
# Mechanical properties :
#
#
# Convention : Reuss Voigt Hill
#
# Bulk Modulus (GPa) = 27.38489 56.35607 41.87048
# Shear Modulus (GPa) = 29.76362 40.79063 35.27713
#
# Velocity S-wave (km/s) = 3.51119 4.11047 3.82259
# Velocity P-wave (km/s) = 5.27077 6.77283 6.06845
#
# Compressibility (1/GPa) = 0.03651649
#
# Stress axis : x y z
#
# Youngs Moduli (GPa) = 40.96504 89.93842 86.80089
#
# Poissons Ratio (x) = 0.14563 0.01119
# Poissons Ratio (y) = 0.06633 0.30543
# Poissons Ratio (z) = 0.00528 0.31647
#
# Static dielectric constant tensor:
#      x y z
#    x 2.005250 -0.005230 -0.007210 
#    y -0.005230 1.909280 -0.025470 
#    z -0.007210 -0.025470 2.045990 
# 
# From -- ./inp_files/473414.got.cif
#   From: 2010.05.17/outbox.cif.g08.bks.cpg/sg2_237_cif.got.tgz:473414.got - 2010.06.03 11:33:40.
