data_PCOD9109440
_publ_section_title
;
Structure prediction by ZEFSAII (Michael W. Deem and Ramdas Pophale) SiO2 
 PCOD9109440
Probable space group: P -1
;
_chemical_formula_sum "Si O2"
_cell_formula_units_Z 16
_cell_length_a 5.456409
_cell_length_b 27.111136
_cell_length_c 11.419707
_cell_angle_alpha 29.733130
_cell_angle_beta 118.947418
_cell_angle_gamma 124.204997
_cell_volume 692.878309
_symmetry_space_group_name_H-M "P -1"
_symmetry_group_IT_number 2
_symmetry_cell_setting 'triclinic'
loop_
_space_group_symop_operation_xyz
x,y,z
-x,-y,-z
loop_
_atom_site_type_symbol
_atom_site_label
_atom_site_fract_x
_atom_site_fract_y
_atom_site_fract_z
Si Si1 0.941146 0.050686 0.189351
Si Si2 0.530649 0.176824 0.162368
Si Si3 0.587379 0.405744 0.158169
Si Si4 0.641300 0.619576 0.325161
Si Si5 0.812051 0.579057 0.684787
Si Si6 0.266450 0.927678 0.365025
Si Si7 0.739814 0.227252 0.845324
Si Si8 0.201321 0.235417 0.545764
O O1 0.207913 0.085473 0.274608
O O2 0.608267 0.982231 0.291557
O O3 0.899361 0.164311 0.927216
O O4 0.079487 0.000169 0.222221
O O5 0.718544 0.147453 0.367641
O O6 0.492559 0.291612 0.933240
O O7 0.655931 0.176672 0.059689
O O8 0.363176 0.288866 0.352436
O O9 0.853963 0.404885 0.307296
O O10 0.500000 0.500000 0.000000
O O11 0.689299 0.458297 0.947767
O O12 0.500000 0.500000 0.500000
O O13 0.616217 0.609129 0.481447
O O14 0.993957 0.665244 0.288229
O O15 0.873402 0.666253 0.620142
O O16 0.078112 0.862384 0.348568
O O17 0.441421 0.217996 0.725721
#
# Coordination Sequence:
#
# PCOD9109440 Si02
#       8
#     2   2   2   2   2   2   2   2
#     4  11  26  49  74 107 144 194 237 301 367 420
#     4  11  25  48  73 103 144 195 236 300 363 428
#     4   9  20  37  63  89 130 186 228 280 354 416
#     4  11  25  41  71 106 142 189 245 295 351 437
#     4  10  20  41  65  91 140 188 230 288 359 417
#     4  12  28  44  77 109 144 184 253 299 347 436
#     4  11  24  46  74  99 148 192 233 294 378 422
#     4  11  24  43  67 104 140 188 235 300 357 430
#
# _framework density 23.092079999999999
#
# number of rings (size 3 to 8) (size 9 to 14) (size 15 to 20)
#    0.000    1.250    3.750    0.750    5.250    5.500 
#    0.000    0.000    0.000    0.000    0.000    0.000 
#    0.000    0.000    0.000    0.000    0.000    0.000 
#
# Total GULP energy -89163.439444 kJ/mol
# GULP energy per Si atom -5572.714965 kJ/mol
# Density = 2.303952 g / cm^3
# Si number density = 23.092080 Si / 1000 Ang^3
#
#
#
# Elastic Constant Matrix: (Units=GPa)
#
#
# Indices 1 2 3 4 5 6 
#
# 1 100.0118 42.4468 36.1348 -10.5108 2.6968 12.3634
# 2 42.4468 120.9841 46.7418 -24.5477 -3.1056 14.6886
# 3 36.1348 46.7418 82.9220 -10.9421 -9.0194 9.8755
# 4 -10.5108 -24.5477 -10.9421 33.3049 5.3753 0.5765
# 5 2.6968 -3.1056 -9.0194 5.3753 42.2322 -6.0153
# 6 12.3634 14.6886 9.8755 0.5765 -6.0153 26.5026
#
#
#
# Elastic Compliance Matrix: (Units=1/GPa)
#
#
# Indices 1 2 3 4 5 6 
#
# 1 0.013176 -0.002319 -0.004033 0.001621 -0.002648 -0.003995
# 2 -0.002319 0.013092 -0.004959 0.007633 -0.001612 -0.004858
# 3 -0.004033 -0.004959 0.017120 0.000167 0.003388 -0.000984
# 4 0.001621 0.007633 0.000167 0.037186 -0.005243 -0.007048
# 5 -0.002648 -0.001612 0.003388 -0.005243 0.026104 0.006905
# 6 -0.003995 -0.004858 -0.000984 -0.007048 0.006905 0.044376
#
#
# Mechanical properties :
#
#
# Convention : Reuss Voigt Hill
#
# Bulk Modulus (GPa) = 48.15404 61.61830 54.88617
# Shear Modulus (GPa) = 27.68600 32.31424 30.00012
#
# Velocity S-wave (km/s) = 3.46633 3.74487 3.60829
# Velocity P-wave (km/s) = 6.07609 6.74095 6.41714
#
# Compressibility (1/GPa) = 0.02076669
#
# Stress axis : x y z
#
# Youngs Moduli (GPa) = 75.89772 76.38197 58.41120
#
# Poissons Ratio (x) = 0.17710 0.23557
# Poissons Ratio (y) = 0.17598 0.28966
# Poissons Ratio (z) = 0.30610 0.37877
#
# Static dielectric constant tensor:
#      x y z
#    x 2.070740 -0.016560 -0.046700 
#    y -0.016560 1.860440 -0.005410 
#    z -0.046700 -0.005410 1.993230 
# 
# From -- ./inp_files/371422.got.cif
#   From: 2010.05.17/outbox.cif.g08.bks.cpg/sg2_186_cif.got.tgz:371422.got - 2010.06.03 11:33:40.
