data_PCOD9109504
_publ_section_title
;
Structure prediction by ZEFSAII (Michael W. Deem and Ramdas Pophale) SiO2 
 PCOD9109504
Probable space group: P -1
;
_chemical_formula_sum "Si O2"
_cell_formula_units_Z 16
_cell_length_a 8.331259
_cell_length_b 12.302643
_cell_length_c 11.296027
_cell_angle_alpha 144.429485
_cell_angle_beta 98.769090
_cell_angle_gamma 89.533433
_cell_volume 651.969209
_symmetry_space_group_name_H-M "P -1"
_symmetry_group_IT_number 2
_symmetry_cell_setting 'triclinic'
loop_
_space_group_symop_operation_xyz
x,y,z
-x,-y,-z
loop_
_atom_site_type_symbol
_atom_site_label
_atom_site_fract_x
_atom_site_fract_y
_atom_site_fract_z
Si Si1 0.243492 0.472963 0.448197
Si Si2 0.955717 0.009284 0.362902
Si Si3 0.238604 0.360455 0.702663
Si Si4 0.371963 0.057039 0.867615
Si Si5 0.881834 0.328974 0.178245
Si Si6 0.140083 0.405122 0.985660
Si Si7 0.576645 0.487159 0.730816
Si Si8 0.706067 0.934504 0.856099
O O1 0.230679 0.624807 0.681998
O O2 0.739660 0.723760 0.662286
O O3 0.068942 0.422876 0.315761
O O4 0.535933 0.968593 0.808175
O O5 0.098519 0.180762 0.487200
O O6 0.000000 0.000000 0.500000
O O7 0.774926 0.035873 0.320956
O O8 0.943992 0.789193 0.129339
O O9 0.178766 0.553627 0.830126
O O10 0.246100 0.354687 0.840837
O O11 0.414358 0.370015 0.669936
O O12 0.421162 0.285225 0.051190
O O13 0.306178 0.039860 0.980061
O O14 0.848180 0.101811 0.969526
O O15 0.262318 0.542248 0.205926
O O16 0.000000 0.500000 0.000000
O O17 0.614536 0.462757 0.575757
#
# Coordination Sequence:
#
# PCOD9109504 Si02
#       8
#     2   2   2   2   2   2   2   2
#     4  10  24  40  65  99 138 181 223 280 337 409
#     4   9  21  40  66  93 129 172 219 279 342 390
#     4  11  22  40  65  98 129 171 227 281 337 403
#     4   9  19  38  65  92 135 175 220 272 336 402
#     4  11  23  41  64 101 138 178 228 277 338 410
#     4  10  21  42  69  93 127 176 226 278 341 409
#     4  10  20  42  66  96 132 178 226 277 340 405
#     4  10  20  41  65  96 135 182 229 272 339 405
#
# _framework density 24.541035000000001
#
# number of rings (size 3 to 8) (size 9 to 14) (size 15 to 20)
#    0.000    2.000    1.250    1.500    3.500    0.500 
#    4.500    0.625    2.750    0.000    0.000    0.000 
#    0.000    0.000    0.000    0.000    0.000    0.000 
#
# Total GULP energy -89606.406133 kJ/mol
# GULP energy per Si atom -5600.400383 kJ/mol
# Density = 2.448518 g / cm^3
# Si number density = 24.541035 Si / 1000 Ang^3
#
#
#
# Elastic Constant Matrix: (Units=GPa)
#
#
# Indices 1 2 3 4 5 6 
#
# 1 88.6752 48.2381 27.2099 -3.5954 16.4873 10.0003
# 2 48.2381 117.5954 28.3911 -6.9566 23.3509 7.6170
# 3 27.2099 28.3911 81.7629 7.0908 19.5073 14.4087
# 4 -3.5954 -6.9566 7.0908 50.9112 -4.6098 10.9758
# 5 16.4873 23.3509 19.5073 -4.6098 45.2149 1.1975
# 6 10.0003 7.6170 14.4087 10.9758 1.1975 57.7081
#
#
#
# Elastic Compliance Matrix: (Units=1/GPa)
#
#
# Indices 1 2 3 4 5 6 
#
# 1 0.015461 -0.005201 -0.002780 0.000933 -0.001619 -0.001443
# 2 -0.005201 0.011792 -0.001594 0.001253 -0.003367 -0.000426
# 3 -0.002780 -0.001594 0.015598 -0.002480 -0.005076 -0.002625
# 4 0.000933 0.001253 -0.002480 0.021257 0.002351 -0.003799
# 5 -0.001619 -0.003367 -0.005076 0.002351 0.026849 0.000988
# 6 -0.001443 -0.000426 -0.002625 -0.003799 0.000988 0.018992
#
#
# Mechanical properties :
#
#
# Convention : Reuss Voigt Hill
#
# Bulk Modulus (GPa) = 42.19176 55.07906 48.63541
# Shear Modulus (GPa) = 36.49659 43.04646 39.77152
#
# Velocity S-wave (km/s) = 3.86056 4.19269 4.03005
# Velocity P-wave (km/s) = 6.09111 6.77721 6.44330
#
# Compressibility (1/GPa) = 0.02370131
#
# Stress axis : x y z
#
# Youngs Moduli (GPa) = 64.67974 84.80126 64.11112
#
# Poissons Ratio (x) = 0.44104 0.17821
# Poissons Ratio (y) = 0.33639 0.10221
# Poissons Ratio (z) = 0.17979 0.13520
#
# Static dielectric constant tensor:
#      x y z
#    x 1.981990 0.022030 -0.028600 
#    y 0.022030 1.941250 -0.028690 
#    z -0.028600 -0.028690 1.975410 
# 
# From -- ./inp_files/501020.got.cif
#   From: 2010.05.17/outbox.cif.g08.bks.cpg/sg2_251_cif.got.tgz:501020.got - 2010.06.03 11:33:40.
