data_PCOD9109093
_publ_section_title
;
Structure prediction by ZEFSAII (Michael W. Deem and Ramdas Pophale) SiO2 
 PCOD9109093
Probable space group: P -1
;
_chemical_formula_sum "Si O2"
_cell_formula_units_Z 12
_cell_length_a 10.137957
_cell_length_b 7.809329
_cell_length_c 9.319260
_cell_angle_alpha 69.405582
_cell_angle_beta 86.784523
_cell_angle_gamma 45.858173
_cell_volume 475.635538
_symmetry_space_group_name_H-M "P -1"
_symmetry_group_IT_number 2
_symmetry_cell_setting 'triclinic'
loop_
_space_group_symop_operation_xyz
x,y,z
-x,-y,-z
loop_
_atom_site_type_symbol
_atom_site_label
_atom_site_fract_x
_atom_site_fract_y
_atom_site_fract_z
Si Si1 0.637563 0.503363 0.325112
Si Si2 0.839085 0.809521 0.456337
Si Si3 0.779015 0.928493 0.758503
Si Si4 0.543669 0.678117 0.747758
Si Si5 0.879010 0.217211 0.680594
Si Si6 0.326270 0.293291 0.986932
O O1 0.550938 0.412715 0.278926
O O2 0.771033 0.319279 0.503504
O O3 0.448218 0.794805 0.309715
O O4 0.746579 0.522836 0.199829
O O5 0.838988 0.840078 0.617206
O O6 0.000000 0.500000 0.500000
O O7 0.916390 0.903775 0.330184
O O8 0.617360 0.006538 0.367615
O O9 0.798143 0.727978 0.911593
O O10 0.877612 0.010154 0.795952
O O11 0.745955 0.479304 0.710233
O O12 0.592178 0.644867 0.921062
O O13 0.500000 0.000000 0.000000
#
# Coordination Sequence:
#
# PCOD9109093 Si02
#       6
#     2   2   2   2   2   2
#     4  10  20  41  69  97 121 177 206 261 325 376
#     4  12  25  36  66 102 125 164 219 266 315 372
#     4  10  20  41  62  95 125 168 206 264 309 377
#     4  11  22  43  68  93 129 170 216 264 312 381
#     4  11  22  42  72  92 128 163 221 264 317 372
#     4  10  23  38  68  93 132 172 209 254 330 382
#
# _framework density 25.229400999999999
#
# number of rings (size 3 to 8) (size 9 to 14) (size 15 to 20)
#    0.000    1.333    3.333    3.000    4.667    1.333 
#    0.000    0.833    7.333    7.000    0.000    0.000 
#    0.000    0.000    0.000    0.000    0.000    0.000 
#
# Total GULP energy -67194.797344 kJ/mol
# GULP energy per Si atom -5599.566445 kJ/mol
# Density = 2.517198 g / cm^3
# Si number density = 25.229401 Si / 1000 Ang^3
#
#
#
# Elastic Constant Matrix: (Units=GPa)
#
#
# Indices 1 2 3 4 5 6 
#
# 1 59.1305 26.3855 5.4325 4.3291 -10.1205 1.0148
# 2 26.3855 165.9449 28.7080 28.1172 11.3862 -16.2476
# 3 5.4325 28.7080 75.0942 23.9782 -7.9196 -0.6092
# 4 4.3291 28.1172 23.9782 33.7810 3.0014 -0.7628
# 5 -10.1205 11.3862 -7.9196 3.0014 40.2055 2.7646
# 6 1.0148 -16.2476 -0.6092 -0.7628 2.7646 41.7497
#
#
#
# Elastic Compliance Matrix: (Units=1/GPa)
#
#
# Indices 1 2 3 4 5 6 
#
# 1 0.019747 -0.003878 0.000896 -0.000567 0.006454 -0.002414
# 2 -0.003878 0.008341 -0.001710 -0.004838 -0.003552 0.003462
# 3 0.000896 -0.001710 0.018358 -0.012216 0.005306 -0.000994
# 4 -0.000567 -0.004838 -0.012216 0.042733 -0.004301 -0.000982
# 5 0.006454 -0.003552 0.005306 -0.004301 0.029107 -0.003468
# 6 -0.002414 0.003462 -0.000994 -0.000982 -0.003468 0.025555
#
#
# Mechanical properties :
#
#
# Convention : Reuss Voigt Hill
#
# Bulk Modulus (GPa) = 26.98153 46.80240 36.89197
# Shear Modulus (GPa) = 30.19688 39.12346 34.66017
#
# Velocity S-wave (km/s) = 3.46337 3.94218 3.71050
# Velocity P-wave (km/s) = 5.16826 6.26993 5.74556
#
# Compressibility (1/GPa) = 0.03706239
#
# Stress axis : x y z
#
# Youngs Moduli (GPa) = 50.63949 119.89042 54.47310
#
# Poissons Ratio (x) = 0.46494 -0.04881
# Poissons Ratio (y) = 0.19638 0.09314
# Poissons Ratio (z) = -0.04537 0.20499
#
# Static dielectric constant tensor:
#      x y z
#    x 2.040580 0.042660 -0.064820 
#    y 0.042660 2.012500 -0.040780 
#    z -0.064820 -0.040780 1.928800 
# 
# From -- ./inp_files/150767.got.cif
#   From: 2010.05.17/outbox.cif.g08.bks.cpg/sg2_76_cif.got.tgz:150767.got - 2010.06.03 11:33:40.
