data_PCOD9109812
_publ_section_title
;
Structure prediction by ZEFSAII (Michael W. Deem and Ramdas Pophale) SiO2 
 PCOD9109812
Probable space group: P -1
;
_chemical_formula_sum "Si O2"
_cell_formula_units_Z 14
_cell_length_a 26.701176
_cell_length_b 8.477232
_cell_length_c 6.896048
_cell_angle_alpha 98.887516
_cell_angle_beta 52.000160
_cell_angle_gamma 142.049029
_cell_volume 552.556397
_symmetry_space_group_name_H-M "P -1"
_symmetry_group_IT_number 2
_symmetry_cell_setting 'triclinic'
loop_
_space_group_symop_operation_xyz
x,y,z
-x,-y,-z
loop_
_atom_site_type_symbol
_atom_site_label
_atom_site_fract_x
_atom_site_fract_y
_atom_site_fract_z
Si Si1 0.315745 0.957925 0.381896
Si Si2 0.790048 0.841062 0.906459
Si Si3 0.334019 0.796113 0.919131
Si Si4 0.012682 0.213614 0.971918
Si Si5 0.941251 0.689666 0.574712
Si Si6 0.163823 0.929967 0.723085
Si Si7 0.530465 0.404756 0.299079
O O1 0.344125 0.895956 0.128351
O O2 0.163398 0.590380 0.775487
O O3 0.280642 0.060289 0.414344
O O4 0.442505 0.220195 0.277172
O O5 0.695049 0.737451 0.978821
O O6 0.793825 0.925532 0.130453
O O7 0.727509 0.520373 0.994734
O O8 0.955097 0.190602 0.531452
O O9 0.219671 0.656057 0.063975
O O10 0.468622 0.124025 0.529359
O O11 0.043645 0.313307 0.688973
O O12 0.862797 0.963813 0.308538
O O13 0.000000 0.000000 0.000000
O O14 0.000000 0.000000 0.500000
O O15 0.000000 0.500000 0.000000
O O16 0.500000 0.500000 0.500000
#
# Coordination Sequence:
#
# PCOD9109812 Si02
#       7
#     2   2   2   2   2   2   2
#     4  10  22  41  63  92 132 171 216 262 329 389
#     4  10  20  41  67  94 130 174 213 266 330 382
#     4  10  23  43  67  95 128 172 218 276 318 377
#     4   9  18  32  62  95 119 162 214 262 313 378
#     4   8  17  35  61  87 125 155 199 266 320 355
#     4   9  18  37  63  89 132 172 203 261 332 377
#     4  12  25  42  67  93 134 176 217 263 327 400
#
# _framework density 25.336777000000001
#
# number of rings (size 3 to 8) (size 9 to 14) (size 15 to 20)
#    0.000    2.286    1.429    1.286    6.000    1.143 
#    0.000    5.000    0.000    0.000    0.000    0.000 
#    0.000    0.000    0.000    0.000    0.000    0.000 
#
# Total GULP energy -78101.769150 kJ/mol
# GULP energy per Si atom -5578.697796 kJ/mol
# Density = 2.527911 g / cm^3
# Si number density = 25.336777 Si / 1000 Ang^3
#
#
#
# Elastic Constant Matrix: (Units=GPa)
#
#
# Indices 1 2 3 4 5 6 
#
# 1 153.7842 65.9670 47.8792 -2.3287 -46.5583 32.5520
# 2 65.9670 169.1895 28.0858 16.5377 -14.8057 30.8705
# 3 47.8792 28.0858 103.5450 -6.2021 -42.3720 17.7838
# 4 -2.3287 16.5377 -6.2021 32.8491 6.7555 -5.7690
# 5 -46.5583 -14.8057 -42.3720 6.7555 53.4985 -7.3907
# 6 32.5520 30.8705 17.7838 -5.7690 -7.3907 57.4018
#
#
#
# Elastic Compliance Matrix: (Units=1/GPa)
#
#
# Indices 1 2 3 4 5 6 
#
# 1 0.011044 -0.002869 -0.000460 -0.000125 0.007976 -0.003563
# 2 -0.002869 0.008152 -0.000994 -0.004858 -0.000836 -0.003044
# 3 -0.000460 -0.000994 0.015010 0.000660 0.010798 -0.002398
# 4 -0.000125 -0.004858 0.000660 0.034895 -0.004592 0.005395
# 5 0.007976 -0.000836 0.010798 -0.004592 0.034052 -0.003496
# 6 -0.003563 -0.003044 -0.002398 0.005395 -0.003496 0.021914
#
#
# Mechanical properties :
#
#
# Convention : Reuss Voigt Hill
#
# Bulk Modulus (GPa) = 39.12620 78.93141 59.02880
# Shear Modulus (GPa) = 35.15358 47.72232 41.43795
#
# Velocity S-wave (km/s) = 3.72889 4.34466 4.04850
# Velocity P-wave (km/s) = 5.83228 7.50924 6.72325
#
# Compressibility (1/GPa) = 0.02555832
#
# Stress axis : x y z
#
# Youngs Moduli (GPa) = 90.54933 122.67670 66.62109
#
# Poissons Ratio (x) = 0.35199 0.03064
# Poissons Ratio (y) = 0.25981 0.06625
# Poissons Ratio (z) = 0.04165 0.12199
#
# Static dielectric constant tensor:
#      x y z
#    x 2.069940 -0.093140 -0.013280 
#    y -0.093140 2.182180 0.061560 
#    z -0.013280 0.061560 2.087760 
# 
# From -- ./inp_files/356454.got.cif
#   From: 2010.05.17/outbox.cif.g08.bks.cpg/sg2_179_cif.got.tgz:356454.got - 2010.06.03 11:33:40.
