data_PCOD9109661
_publ_section_title
;
Structure prediction by ZEFSAII (Michael W. Deem and Ramdas Pophale) SiO2 
 PCOD9109661
Probable space group: P -1
;
_chemical_formula_sum "Si O2"
_cell_formula_units_Z 16
_cell_length_a 9.136715
_cell_length_b 15.656162
_cell_length_c 9.051175
_cell_angle_alpha 92.588764
_cell_angle_beta 49.381013
_cell_angle_gamma 63.367506
_cell_volume 762.487352
_symmetry_space_group_name_H-M "P -1"
_symmetry_group_IT_number 2
_symmetry_cell_setting 'triclinic'
loop_
_space_group_symop_operation_xyz
x,y,z
-x,-y,-z
loop_
_atom_site_type_symbol
_atom_site_label
_atom_site_fract_x
_atom_site_fract_y
_atom_site_fract_z
Si Si1 0.257023 0.963402 0.899066
Si Si2 0.079502 0.171432 0.219950
Si Si3 0.654331 0.640671 0.581640
Si Si4 0.408562 0.236185 0.119073
Si Si5 0.852038 0.304396 0.086732
Si Si6 0.609719 0.237960 0.675968
Si Si7 0.250647 0.472482 0.776913
Si Si8 0.373901 0.184105 0.592654
O O1 0.376592 0.861094 0.923460
O O2 0.452404 0.921694 0.633615
O O3 0.218529 0.059045 0.027580
O O4 0.000000 0.000000 0.000000
O O5 0.249384 0.197249 0.178295
O O6 0.913667 0.262775 0.210804
O O7 0.899032 0.176361 0.456664
O O8 0.753900 0.649777 0.671301
O O9 0.374508 0.691266 0.810552
O O10 0.744304 0.540346 0.405591
O O11 0.669527 0.718125 0.468806
O O12 0.520846 0.247750 0.900842
O O13 0.759939 0.427317 0.157973
O O14 0.107069 0.224063 0.821318
O O15 0.466272 0.358056 0.705198
O O16 0.524263 0.178137 0.634448
O O17 0.000000 0.500000 0.000000
#
# Coordination Sequence:
#
# PCOD9109661 Si02
#       8
#     2   2   2   2   2   2   2   2
#     4  11  23  44  70  96 126 170 222 270 320 388
#     4  12  23  41  67  96 134 174 212 267 328 380
#     4  10  22  40  64  95 127 170 216 265 310 385
#     4  11  25  44  63  94 138 169 209 269 332 378
#     4  12  21  40  73  93 127 176 218 265 320 376
#     4  11  22  42  63  97 134 171 212 269 319 385
#     4  11  20  40  72  96 127 171 222 263 316 384
#     4  10  20  41  66  95 129 163 223 272 307 384
#
# _framework density 20.983951999999999
#
# number of rings (size 3 to 8) (size 9 to 14) (size 15 to 20)
#    0.000    1.000    7.500    1.500    0.000    3.000 
#    0.000    3.125    0.000    0.000    0.000    0.000 
#    0.000    0.000    0.000    0.000    0.000    0.000 
#
# Total GULP energy -89324.077854 kJ/mol
# GULP energy per Si atom -5582.754866 kJ/mol
# Density = 2.093619 g / cm^3
# Si number density = 20.983952 Si / 1000 Ang^3
#
#
#
# Elastic Constant Matrix: (Units=GPa)
#
#
# Indices 1 2 3 4 5 6 
#
# 1 28.2539 18.8067 52.4860 18.3301 30.1948 40.2802
# 2 18.8067 51.6435 28.0997 4.6065 8.1301 8.3966
# 3 52.4860 28.0997 175.4883 -14.9427 5.0592 15.8970
# 4 18.3301 4.6065 -14.9427 33.9777 -0.4386 -2.4166
# 5 30.1948 8.1301 5.0592 -0.4386 34.1797 -15.6433
# 6 40.2802 8.3966 15.8970 -2.4166 -15.6433 23.7582
#
#
#
# Elastic Compliance Matrix: (Units=1/GPa)
#
#
# Indices 1 2 3 4 5 6 
#
# 1 -0.004429 -0.003869 0.000364 0.004490 0.012878 0.017569
# 2 -0.003869 0.023031 -0.002486 -0.002292 -0.002562 -0.001837
# 3 0.000364 -0.002486 0.006914 0.002669 -0.003711 -0.006536
# 4 0.004490 -0.002292 0.002669 0.027560 -0.008745 -0.011542
# 5 0.012878 -0.002562 -0.003711 -0.008745 0.014426 -0.009836
# 6 0.017569 -0.001837 -0.006536 -0.011542 -0.009836 0.009677
#
#
# Mechanical properties :
#
#
# Convention : Reuss Voigt Hill
#
# Bulk Modulus (GPa) = 73.88682 50.46340 62.17511
# Shear Modulus (GPa) = 53.37789 28.78267 41.08028
#
# Velocity S-wave (km/s) = 5.04903 3.70760 4.42939
# Velocity P-wave (km/s) = 8.32333 6.51377 7.47352
#
# Compressibility (1/GPa) = 0.01353421
#
# Stress axis : x y z
#
# Youngs Moduli (GPa) = -225.78439 43.41891 144.63618
#
# Poissons Ratio (x) = 0.16800 -0.05261
# Poissons Ratio (y) = -0.87362 0.35949
# Poissons Ratio (z) = 0.08212 0.10792
#
# Static dielectric constant tensor:
#      x y z
#    x 1.788300 0.025540 0.013450 
#    y 0.025540 1.813160 0.066430 
#    z 0.013450 0.066430 1.806400 
# 
# From -- ./inp_files/203357.got.cif
#   From: 2010.05.17/outbox.cif.g08.bks.cpg/sg2_102_cif.got.tgz:203357.got - 2010.06.03 11:33:40.
