data_PCOD9109993
_publ_section_title
;
Structure prediction by ZEFSAII (Michael W. Deem and Ramdas Pophale) SiO2 
 PCOD9109993
Probable space group: P -1
;
_chemical_formula_sum "Si O2"
_cell_formula_units_Z 14
_cell_length_a 11.511787
_cell_length_b 7.877738
_cell_length_c 9.351414
_cell_angle_alpha 99.070691
_cell_angle_beta 106.249384
_cell_angle_gamma 45.360318
_cell_volume 578.373353
_symmetry_space_group_name_H-M "P -1"
_symmetry_group_IT_number 2
_symmetry_cell_setting 'triclinic'
loop_
_space_group_symop_operation_xyz
x,y,z
-x,-y,-z
loop_
_atom_site_type_symbol
_atom_site_label
_atom_site_fract_x
_atom_site_fract_y
_atom_site_fract_z
Si Si1 0.595273 0.842325 0.796113
Si Si2 0.060523 0.114461 0.460015
Si Si3 0.419514 0.678416 0.625534
Si Si4 0.258200 0.314566 0.863785
Si Si5 0.339693 0.612298 0.868983
Si Si6 0.998958 0.949656 0.157862
Si Si7 0.909221 0.473984 0.693081
O O1 0.541049 0.696621 0.742549
O O2 0.731855 0.740883 0.703562
O O3 0.413545 0.113062 0.784734
O O4 0.687744 0.790795 0.970964
O O5 0.942363 0.373296 0.528973
O O6 0.252768 0.942820 0.551754
O O7 0.000000 0.000000 0.500000
O O8 0.051517 0.064043 0.286143
O O9 0.500000 0.500000 0.500000
O O10 0.381127 0.567647 0.711582
O O11 0.259926 0.518183 0.886921
O O12 0.075797 0.419011 0.779081
O O13 0.197622 0.897871 0.863029
O O14 0.500000 0.500000 0.000000
O O15 0.090321 0.692939 0.221383
O O16 0.000000 0.000000 0.000000
#
# Coordination Sequence:
#
# PCOD9109993 Si02
#       7
#     2   2   2   2   2   2   2
#     4  11  23  41  72 102 139 189 231 283 355 423
#     4  10  20  41  68  97 138 179 231 286 337 415
#     4  12  23  43  73 100 137 186 236 287 350 417
#     4  11  24  44  68 104 146 181 232 295 351 416
#     4  12  25  44  69 104 140 177 234 302 340 410
#     4  11  24  42  71 105 137 179 241 289 343 415
#     4  11  22  45  72 101 140 190 233 278 361 420
#
# _framework density 24.205817
#
# number of rings (size 3 to 8) (size 9 to 14) (size 15 to 20)
#    0.000    0.857    5.714    3.000    4.000    0.000 
#    0.000    1.429    3.143    0.000    0.000    0.000 
#    0.000    0.000    0.000    0.000    0.000    0.000 
#
# Total GULP energy -78231.408044 kJ/mol
# GULP energy per Si atom -5587.957717 kJ/mol
# Density = 2.415072 g / cm^3
# Si number density = 24.205817 Si / 1000 Ang^3
#
#
#
# Elastic Constant Matrix: (Units=GPa)
#
#
# Indices 1 2 3 4 5 6 
#
# 1 95.4698 27.3750 33.0979 1.6360 22.5147 -17.4278
# 2 27.3750 101.8518 17.7817 19.8613 -0.3397 -31.8621
# 3 33.0979 17.7817 140.0867 14.7445 -2.7706 -11.8865
# 4 1.6360 19.8613 14.7445 36.7251 -7.3427 -5.2912
# 5 22.5147 -0.3397 -2.7706 -7.3427 45.8942 -3.5785
# 6 -17.4278 -31.8621 -11.8865 -5.2912 -3.5785 43.8736
#
#
#
# Elastic Compliance Matrix: (Units=1/GPa)
#
#
# Indices 1 2 3 4 5 6 
#
# 1 0.014405 -0.002813 -0.003093 0.001086 -0.006913 0.002408
# 2 -0.002813 0.014532 0.000260 -0.006329 0.001180 0.008840
# 3 -0.003093 0.000260 0.008252 -0.002846 0.001639 0.000986
# 4 0.001086 -0.006329 -0.002846 0.032532 0.004402 -0.000653
# 5 -0.006913 0.001180 0.001639 0.004402 0.026087 0.001214
# 6 0.002408 0.008840 0.000986 -0.000653 0.001214 0.030456
#
#
# Mechanical properties :
#
#
# Convention : Reuss Voigt Hill
#
# Bulk Modulus (GPa) = 38.61671 54.87972 46.74821
# Shear Modulus (GPa) = 34.20221 42.57547 38.38884
#
# Velocity S-wave (km/s) = 3.76303 4.19847 3.98670
# Velocity P-wave (km/s) = 5.90497 6.79884 6.36761
#
# Compressibility (1/GPa) = 0.02589553
#
# Stress axis : x y z
#
# Youngs Moduli (GPa) = 69.42209 68.81239 121.18460
#
# Poissons Ratio (x) = 0.19358 0.37482
# Poissons Ratio (y) = 0.19529 -0.03145
# Poissons Ratio (z) = 0.21472 -0.01786
#
# Static dielectric constant tensor:
#      x y z
#    x 2.007540 0.033770 -0.161580 
#    y 0.033770 2.067490 -0.039030 
#    z -0.161580 -0.039030 2.161900 
# 
# From -- ./inp_files/244607.got.cif
#   From: 2010.05.17/outbox.cif.g08.bks.cpg/sg2_123_cif.got.tgz:244607.got - 2010.06.03 11:33:40.
