data_PCOD9109137
_publ_section_title
;
Structure prediction by ZEFSAII (Michael W. Deem and Ramdas Pophale) SiO2 
 PCOD9109137
Probable space group: P -1
;
_chemical_formula_sum "Si O2"
_cell_formula_units_Z 12
_cell_length_a 9.636311
_cell_length_b 14.782691
_cell_length_c 19.696526
_cell_angle_alpha 152.956394
_cell_angle_beta 26.541637
_cell_angle_gamma 137.584850
_cell_volume 545.887956
_symmetry_space_group_name_H-M "P -1"
_symmetry_group_IT_number 2
_symmetry_cell_setting 'triclinic'
loop_
_space_group_symop_operation_xyz
x,y,z
-x,-y,-z
loop_
_atom_site_type_symbol
_atom_site_label
_atom_site_fract_x
_atom_site_fract_y
_atom_site_fract_z
Si Si1 0.272277 0.842090 0.818790
Si Si2 0.698668 0.205950 0.751246
Si Si3 0.409944 0.824617 0.069498
Si Si4 0.684973 0.520701 0.199389
Si Si5 0.627507 0.965639 0.497793
Si Si6 0.855531 0.507036 0.267324
O O1 0.548416 0.696198 0.552462
O O2 0.138584 0.685333 0.816372
O O3 0.436139 0.990454 0.888889
O O4 0.000000 0.000000 0.000000
O O5 0.524270 0.242484 0.925047
O O6 0.531321 0.143496 0.716186
O O7 0.849202 0.392041 0.792437
O O8 0.000000 0.000000 0.500000
O O9 0.515500 0.620294 0.840398
O O10 0.020395 0.911076 0.287434
O O11 0.803570 0.448476 0.173950
O O12 0.525435 0.767049 0.436544
O O13 0.000000 0.500000 0.000000
O O14 0.500000 0.000000 0.500000
#
# Coordination Sequence:
#
# PCOD9109137 Si02
#       6
#     2   2   2   2   2   2
#     4  11  25  43  65  94 130 180 224 254 320 401
#     4  10  16  37  68  87 120 175 210 271 331 367
#     4  10  20  41  63  87 135 161 215 270 314 390
#     4  10  19  38  63  94 127 164 209 274 334 372
#     4  10  19  33  60  96 125 158 211 269 325 375
#     4  11  21  43  69  91 133 173 212 278 321 380
#
# _framework density 21.982531999999999
#
# number of rings (size 3 to 8) (size 9 to 14) (size 15 to 20)
#    0.000    1.667    8.333    0.000    0.000    2.000 
#   12.000    2.500    0.000    0.000    0.000    0.000 
#    0.000    0.000    0.000    0.000    0.000    0.000 
#
# Total GULP energy -67055.275111 kJ/mol
# GULP energy per Si atom -5587.939593 kJ/mol
# Density = 2.193250 g / cm^3
# Si number density = 21.982532 Si / 1000 Ang^3
#
#
#
# Elastic Constant Matrix: (Units=GPa)
#
#
# Indices 1 2 3 4 5 6 
#
# 1 180.2192 55.8749 57.0552 17.7655 27.3845 -8.6945
# 2 55.8749 119.7810 61.2065 35.1719 8.2126 0.0712
# 3 57.0552 61.2065 84.7285 28.6305 17.4585 10.0401
# 4 17.7655 35.1719 28.6305 34.6429 8.1129 6.8610
# 5 27.3845 8.2126 17.4585 8.1129 47.5115 7.7345
# 6 -8.6945 0.0712 10.0401 6.8610 7.7345 39.5777
#
#
#
# Elastic Compliance Matrix: (Units=1/GPa)
#
#
# Indices 1 2 3 4 5 6 
#
# 1 0.007987 -0.001693 -0.004270 0.001319 -0.003504 0.003297
# 2 -0.001693 0.015868 -0.007789 -0.009911 0.002325 0.002839
# 3 -0.004270 -0.007789 0.024308 -0.008311 -0.002878 -0.005087
# 4 0.001319 -0.009911 -0.008311 0.046870 -0.003168 -0.005090
# 5 -0.003504 0.002325 -0.002878 -0.003168 0.024976 -0.004376
# 6 0.003297 0.002839 -0.005087 -0.005090 -0.004376 0.029014
#
#
# Mechanical properties :
#
#
# Convention : Reuss Voigt Hill
#
# Bulk Modulus (GPa) = 48.40435 81.44464 64.92449
# Shear Modulus (GPa) = 27.26098 38.38590 32.82344
#
# Velocity S-wave (km/s) = 3.52535 4.18329 3.86833
# Velocity P-wave (km/s) = 6.21595 7.77582 7.03923
#
# Compressibility (1/GPa) = 0.02065930
#
# Stress axis : x y z
#
# Youngs Moduli (GPa) = 125.20581 63.02175 41.13853
#
# Poissons Ratio (x) = 0.10670 0.17565
# Poissons Ratio (y) = 0.21198 0.32042
# Poissons Ratio (z) = 0.53460 0.49086
#
# Static dielectric constant tensor:
#      x y z
#    x 1.805700 0.014020 -0.011540 
#    y 0.014020 1.789720 -0.009360 
#    z -0.011540 -0.009360 1.922480 
# 
# From -- ./inp_files/242381.got.cif
#   From: 2010.05.17/outbox.cif.g08.bks.cpg/sg2_122_cif.got.tgz:242381.got - 2010.06.03 11:33:40.
