data_PCOD9109658
_publ_section_title
;
Structure prediction by ZEFSAII (Michael W. Deem and Ramdas Pophale) SiO2 
 PCOD9109658
Probable space group: P -1
;
_chemical_formula_sum "Si O2"
_cell_formula_units_Z 13
_cell_length_a 14.582904
_cell_length_b 11.580355
_cell_length_c 5.121753
_cell_angle_alpha 81.017160
_cell_angle_beta 99.955168
_cell_angle_gamma 144.956845
_cell_volume 489.000244
_symmetry_space_group_name_H-M "P -1"
_symmetry_group_IT_number 2
_symmetry_cell_setting 'triclinic'
loop_
_space_group_symop_operation_xyz
x,y,z
-x,-y,-z
loop_
_atom_site_type_symbol
_atom_site_label
_atom_site_fract_x
_atom_site_fract_y
_atom_site_fract_z
Si Si1 0.521532 0.223506 0.712475
Si Si2 0.268751 0.345382 0.476014
Si Si3 0.500000 0.500000 0.000000
Si Si4 0.342808 0.742427 0.737034
Si Si5 0.710518 0.874373 0.742588
Si Si6 0.039449 0.274046 0.629511
Si Si7 0.918816 0.358847 0.257682
O O1 0.655361 0.464725 0.694802
O O2 0.591349 0.201167 0.542765
O O3 0.374558 0.133189 0.514690
O O4 0.532432 0.174065 0.016511
O O5 0.270154 0.240194 0.312404
O O6 0.105019 0.219016 0.571278
O O7 0.390161 0.436467 0.732291
O O8 0.403410 0.271081 0.021271
O O9 0.264241 0.786227 0.759254
O O10 0.190131 0.496127 0.747277
O O11 0.886771 0.102398 0.800811
O O12 0.968608 0.276505 0.352388
O O13 0.000000 0.500000 0.500000
O O14 0.000000 0.500000 0.000000
#
# Coordination Sequence:
#
# PCOD9109658 Si02
#       7
#     2   2   1   2   2   2   2
#     4  10  22  39  67  90 127 174 210 254 326 391
#     4  10  22  38  63  85 130 167 218 256 323 380
#     4  10  22  40  60  84 124 178 208 250 320 384
#     4  10  21  42  67  93 122 170 217 260 322 386
#     4  11  24  40  61  94 132 168 217 266 319 382
#     4  10  23  41  63  99 124 163 218 275 319 373
#     4  10  20  41  66  95 128 166 210 268 329 384
#
# _framework density 26.584857
#
# number of rings (size 3 to 8) (size 9 to 14) (size 15 to 20)
#    0.000    1.846    0.000    5.077   12.923    0.615 
#   11.077    1.538    0.000    0.000    0.000    0.000 
#    0.000    0.000    0.000    0.000    0.000    0.000 
#
# Total GULP energy -72574.551808 kJ/mol
# GULP energy per Si atom -5582.657831 kJ/mol
# Density = 2.652435 g / cm^3
# Si number density = 26.584857 Si / 1000 Ang^3
#
#
#
# Elastic Constant Matrix: (Units=GPa)
#
#
# Indices 1 2 3 4 5 6 
#
# 1 115.0621 8.4741 32.9944 11.1436 18.9379 0.7649
# 2 8.4741 90.1762 -12.7893 3.5929 2.2682 2.5015
# 3 32.9944 -12.7893 122.9621 -6.3602 7.5405 -8.7087
# 4 11.1436 3.5929 -6.3602 25.6663 -1.4734 2.4699
# 5 18.9379 2.2682 7.5405 -1.4734 35.4730 -9.2890
# 6 0.7649 2.5015 -8.7087 2.4699 -9.2890 34.9148
#
#
#
# Elastic Compliance Matrix: (Units=1/GPa)
#
#
# Indices 1 2 3 4 5 6 
#
# 1 0.011251 -0.001073 -0.003206 -0.005667 -0.006063 -0.002181
# 2 -0.001073 0.011457 0.001440 -0.000764 -0.000643 -0.000555
# 3 -0.003206 0.001440 0.009450 0.003341 0.000319 0.002172
# 4 -0.005667 -0.000764 0.003341 0.042674 0.003882 -0.000974
# 5 -0.006063 -0.000643 0.000319 0.003882 0.033921 0.009008
# 6 -0.002181 -0.000555 0.002172 -0.000974 0.009008 0.031736
#
#
# Mechanical properties :
#
#
# Convention : Reuss Voigt Hill
#
# Bulk Modulus (GPa) = 37.76683 42.83988 40.30335
# Shear Modulus (GPa) = 32.25966 39.17890 35.71928
#
# Velocity S-wave (km/s) = 3.48725 3.84308 3.66948
# Velocity P-wave (km/s) = 5.51829 5.98680 5.75731
#
# Compressibility (1/GPa) = 0.02647826
#
# Stress axis : x y z
#
# Youngs Moduli (GPa) = 88.88388 87.28656 105.82130
#
# Poissons Ratio (x) = 0.09367 0.33930
# Poissons Ratio (y) = 0.09539 -0.15240
# Poissons Ratio (z) = 0.28499 -0.12570
#
# Static dielectric constant tensor:
#      x y z
#    x 3.226540 0.437020 -1.050870 
#    y 0.437020 2.455850 -0.509990 
#    z -1.050870 -0.509990 2.875380 
# 
# From -- ./inp_files/42660.got.cif
#   From: 2010.05.17/outbox.cif.g08.bks.cpg/sg2_22_cif.got.tgz:42660.got - 2010.06.03 11:33:40.
