data_PCOD9109258
_publ_section_title
;
Structure prediction by ZEFSAII (Michael W. Deem and Ramdas Pophale) SiO2 
 PCOD9109258
Probable space group: P -1
;
_chemical_formula_sum "Si O2"
_cell_formula_units_Z 16
_cell_length_a 9.880336
_cell_length_b 11.977877
_cell_length_c 11.955643
_cell_angle_alpha 127.160137
_cell_angle_beta 34.654313
_cell_angle_gamma 110.450509
_cell_volume 606.272314
_symmetry_space_group_name_H-M "P -1"
_symmetry_group_IT_number 2
_symmetry_cell_setting 'triclinic'
loop_
_space_group_symop_operation_xyz
x,y,z
-x,-y,-z
loop_
_atom_site_type_symbol
_atom_site_label
_atom_site_fract_x
_atom_site_fract_y
_atom_site_fract_z
Si Si1 0.721926 0.033285 0.762358
Si Si2 0.520665 0.064746 0.339453
Si Si3 0.543037 0.362461 0.674410
Si Si4 0.765178 0.820021 0.186312
Si Si5 0.560906 0.325426 0.965024
Si Si6 0.977916 0.610925 0.732887
Si Si7 0.598809 0.628653 0.461927
Si Si8 0.096441 0.282640 0.497211
O O1 0.550262 0.016488 0.765614
O O2 0.745992 0.890312 0.738009
O O3 0.000000 0.000000 0.500000
O O4 0.626330 0.210340 0.956153
O O5 0.269232 0.128003 0.629582
O O6 0.593154 0.202785 0.324109
O O7 0.732352 0.954267 0.205527
O O8 0.492403 0.221688 0.673508
O O9 0.470021 0.506548 0.884872
O O10 0.356308 0.412062 0.723557
O O11 0.828263 0.326821 0.422926
O O12 0.959120 0.670908 0.910771
O O13 0.300990 0.330324 0.089358
O O14 0.812014 0.281128 0.693312
O O15 0.085623 0.433145 0.531831
O O16 0.500000 0.500000 0.500000
O O17 0.804858 0.670584 0.422520
#
# Coordination Sequence:
#
# PCOD9109258 Si02
#       8
#     2   2   2   2   2   2   2   2
#     4   9  19  37  61  92 124 168 216 262 320 386
#     4   9  19  39  65  91 125 169 215 268 319 389
#     4  11  24  38  63 103 130 171 218 271 321 393
#     4  10  21  40  66  94 128 167 220 268 328 379
#     4  11  22  40  63  97 131 172 224 260 324 399
#     4  12  22  40  65  98 133 169 216 271 329 379
#     4  10  20  41  64  90 131 166 217 271 321 380
#     4  10  21  38  68  89 122 178 211 268 328 377
#
# _framework density 26.390782999999999
#
# number of rings (size 3 to 8) (size 9 to 14) (size 15 to 20)
#    0.000    1.750    3.750    0.750    0.000    0.500 
#    4.500    6.250    0.000    0.000    0.000    0.000 
#    0.000    0.000    0.000    0.000    0.000    0.000 
#
# Total GULP energy -89234.279748 kJ/mol
# GULP energy per Si atom -5577.142484 kJ/mol
# Density = 2.633072 g / cm^3
# Si number density = 26.390783 Si / 1000 Ang^3
#
#
#
# Elastic Constant Matrix: (Units=GPa)
#
#
# Indices 1 2 3 4 5 6 
#
# 1 87.0613 8.9032 17.6396 2.4112 -12.3208 6.6302
# 2 8.9032 164.4521 24.6046 21.6944 -16.8868 -11.9903
# 3 17.6396 24.6046 74.5792 23.1607 -2.5299 1.4780
# 4 2.4112 21.6944 23.1607 51.1975 2.4264 -2.8218
# 5 -12.3208 -16.8868 -2.5299 2.4264 36.2717 -0.2754
# 6 6.6302 -11.9903 1.4780 -2.8218 -0.2754 33.0766
#
#
#
# Elastic Compliance Matrix: (Units=1/GPa)
#
#
# Indices 1 2 3 4 5 6 
#
# 1 0.012841 -0.000065 -0.002966 0.000440 0.004077 -0.002394
# 2 -0.000065 0.007156 -0.001551 -0.002350 0.003377 0.002504
# 3 -0.002966 -0.001551 0.016774 -0.006858 -0.000111 -0.001303
# 4 0.000440 -0.002350 -0.006858 0.023828 -0.003006 0.001374
# 5 0.004077 0.003377 -0.000111 -0.003006 0.030723 0.000411
# 6 -0.002394 0.002504 -0.001303 0.001374 0.000411 0.031799
#
#
# Mechanical properties :
#
#
# Convention : Reuss Voigt Hill
#
# Bulk Modulus (GPa) = 36.22484 47.59859 41.91172
# Shear Modulus (GPa) = 35.33895 42.43885 38.88890
#
# Velocity S-wave (km/s) = 3.66329 4.01445 3.84289
# Velocity P-wave (km/s) = 5.62575 6.28991 5.96708
#
# Compressibility (1/GPa) = 0.02760536
#
# Stress axis : x y z
#
# Youngs Moduli (GPa) = 77.87594 139.74956 59.61770
#
# Poissons Ratio (x) = 0.00912 0.17685
# Poissons Ratio (y) = 0.00508 0.09245
# Poissons Ratio (z) = 0.23102 0.21671
#
# Static dielectric constant tensor:
#      x y z
#    x 2.168820 -0.062740 0.054170 
#    y -0.062740 2.093780 0.019030 
#    z 0.054170 0.019030 2.118550 
# 
# From -- ./inp_files/519085.got.cif
#   From: 2010.05.17/outbox.cif.g08.bks.cpg/sg2_260_cif.got.tgz:519085.got - 2010.06.03 11:33:40.
