data_PCOD9109288
_publ_section_title
;
Structure prediction by ZEFSAII (Michael W. Deem and Ramdas Pophale) SiO2 
 PCOD9109288
Probable space group: P -1
;
_chemical_formula_sum "Si O2"
_cell_formula_units_Z 14
_cell_length_a 18.864959
_cell_length_b 7.203439
_cell_length_c 7.459494
_cell_angle_alpha 112.858985
_cell_angle_beta 40.446840
_cell_angle_gamma 93.759315
_cell_volume 559.303849
_symmetry_space_group_name_H-M "P -1"
_symmetry_group_IT_number 2
_symmetry_cell_setting 'triclinic'
loop_
_space_group_symop_operation_xyz
x,y,z
-x,-y,-z
loop_
_atom_site_type_symbol
_atom_site_label
_atom_site_fract_x
_atom_site_fract_y
_atom_site_fract_z
Si Si1 0.680892 0.930660 0.686379
Si Si2 0.884143 0.704118 0.735754
Si Si3 0.405356 0.735316 0.311126
Si Si4 0.401108 0.734220 0.718106
Si Si5 0.230270 0.501800 0.865882
Si Si6 0.853581 0.076283 0.212908
Si Si7 0.994920 0.719557 0.179636
O O1 0.593734 0.081706 0.758716
O O2 0.806188 0.967862 0.427498
O O3 0.708914 0.684149 0.474310
O O4 0.626463 0.061810 0.020459
O O5 0.000000 0.500000 0.500000
O O6 0.886771 0.773910 0.551377
O O7 0.781676 0.632756 0.984881
O O8 0.881596 0.901311 0.936512
O O9 0.424858 0.795245 0.496232
O O10 0.273814 0.737289 0.527850
O O11 0.500000 0.500000 0.000000
O O12 0.500000 0.500000 0.500000
O O13 0.291400 0.660961 0.872729
O O14 0.103848 0.655494 0.087478
O O15 0.958377 0.163682 0.024521
O O16 0.000000 0.500000 0.000000
#
# Coordination Sequence:
#
# PCOD9109288 Si02
#       7
#     2   2   2   2   2   2   2
#     4   9  22  40  65  90 129 171 209 263 332 372
#     4   9  20  38  61  87 124 169 208 261 324 375
#     4  10  20  41  64  92 130 160 217 268 316 394
#     4  12  22  40  70  92 123 179 211 260 342 378
#     4  10  22  44  58  94 135 157 218 280 302 402
#     4   9  19  40  60  86 130 165 205 274 310 376
#     4  11  22  37  62  93 127 169 214 264 333 377
#
# _framework density 25.031116999999998
#
# number of rings (size 3 to 8) (size 9 to 14) (size 15 to 20)
#    0.857    1.143    2.857    0.429    2.000    1.714 
#    5.143    2.857    0.000    0.000    0.000    0.000 
#    0.000    0.000    0.000    0.000    0.000    0.000 
#
# Total GULP energy -78083.569022 kJ/mol
# GULP energy per Si atom -5577.397787 kJ/mol
# Density = 2.497415 g / cm^3
# Si number density = 25.031117 Si / 1000 Ang^3
#
#
#
# Elastic Constant Matrix: (Units=GPa)
#
#
# Indices 1 2 3 4 5 6 
#
# 1 45.9652 12.3822 9.0153 -18.6100 23.1832 -4.7078
# 2 12.3822 117.3199 26.6851 -6.2736 18.5053 -12.3881
# 3 9.0153 26.6851 129.2162 11.5632 38.3478 -2.6809
# 4 -18.6100 -6.2736 11.5632 27.0376 -12.1579 0.8969
# 5 23.1832 18.5053 38.3478 -12.1579 58.6113 -5.8690
# 6 -4.7078 -12.3881 -2.6809 0.8969 -5.8690 35.6852
#
#
#
# Elastic Compliance Matrix: (Units=1/GPa)
#
#
# Indices 1 2 3 4 5 6 
#
# 1 0.035056 -0.000660 -0.001829 0.021157 -0.007828 0.002439
# 2 -0.000660 0.009553 -0.001791 0.002041 -0.000869 0.002901
# 3 -0.001829 -0.001791 0.011740 -0.010570 -0.008700 -0.001146
# 4 0.021157 0.002041 -0.010570 0.061357 0.010926 0.002961
# 5 -0.007828 -0.000869 -0.008700 0.010926 0.028636 0.002447
# 6 0.002439 0.002901 -0.001146 0.002961 0.002447 0.029593
#
#
# Mechanical properties :
#
#
# Convention : Reuss Voigt Hill
#
# Bulk Modulus (GPa) = 20.92552 43.18518 32.05535
# Shear Modulus (GPa) = 24.94675 40.56140 32.75407
#
# Velocity S-wave (km/s) = 3.16037 4.02983 3.62129
# Velocity P-wave (km/s) = 4.65781 6.24042 5.50627
#
# Compressibility (1/GPa) = 0.04778853
#
# Stress axis : x y z
#
# Youngs Moduli (GPa) = 28.52568 104.67502 85.17605
#
# Poissons Ratio (x) = 0.06911 0.15579
# Poissons Ratio (y) = 0.01883 0.15258
# Poissons Ratio (z) = 0.05218 0.18751
#
# Static dielectric constant tensor:
#      x y z
#    x 2.026200 -0.166160 -0.031720 
#    y -0.166160 2.013480 -0.102800 
#    z -0.031720 -0.102800 2.005930 
# 
# From -- ./inp_files/341335.got.cif
#   From: 2010.05.17/outbox.cif.g08.bks.cpg/sg2_171_cif.got.tgz:341335.got - 2010.06.03 11:33:40.
