data_PCOD9109057
_publ_section_title
;
Structure prediction by ZEFSAII (Michael W. Deem and Ramdas Pophale) SiO2 
 PCOD9109057
Probable space group: P -1
;
_chemical_formula_sum "Si O2"
_cell_formula_units_Z 16
_cell_length_a 17.723596
_cell_length_b 9.580723
_cell_length_c 20.213105
_cell_angle_alpha 128.881079
_cell_angle_beta 160.150217
_cell_angle_gamma 41.703037
_cell_volume 731.913953
_symmetry_space_group_name_H-M "P -1"
_symmetry_group_IT_number 2
_symmetry_cell_setting 'triclinic'
loop_
_space_group_symop_operation_xyz
x,y,z
-x,-y,-z
loop_
_atom_site_type_symbol
_atom_site_label
_atom_site_fract_x
_atom_site_fract_y
_atom_site_fract_z
Si Si1 0.627848 0.249225 0.168313
Si Si2 0.309392 0.112155 0.798237
Si Si3 0.690998 0.886082 0.842460
Si Si4 0.910176 0.744167 0.484671
Si Si5 0.162679 0.309552 0.952861
Si Si6 0.584131 0.637785 0.570878
Si Si7 0.153809 0.941263 0.195325
Si Si8 0.275987 0.631598 0.089280
O O1 0.509194 0.468444 0.180414
O O2 0.846469 0.229360 0.291764
O O3 0.763994 0.022935 0.256573
O O4 0.359323 0.276560 0.924879
O O5 0.133136 0.210714 0.616427
O O6 0.616935 0.919012 0.969020
O O7 0.662130 0.750973 0.722330
O O8 0.380840 0.082818 0.668002
O O9 0.843069 0.742294 0.990903
O O10 0.881710 0.954171 0.992884
O O11 0.000000 0.500000 0.500000
O O12 0.870587 0.443081 0.715782
O O13 0.266443 0.462764 0.077934
O O14 0.500000 0.500000 0.500000
O O15 0.360151 0.822559 0.391054
O O16 0.300871 0.786200 0.205918
O O17 0.016487 0.195020 0.137326
#
# Coordination Sequence:
#
# PCOD9109057 Si02
#       8
#     2   2   2   2   2   2   2   2
#     4  10  21  43  63  87 118 161 204 241 298 355
#     4   9  22  41  64  88 119 158 200 252 293 354
#     4  11  23  41  62  88 124 154 199 248 292 356
#     4  11  24  39  62  92 122 158 198 246 301 357
#     4  10  20  41  62  89 121 152 200 249 298 347
#     4  12  23  36  64  92 114 160 201 241 298 357
#     4  11  23  41  60  89 123 157 196 243 302 353
#     4  10  22  42  61  85 127 157 188 255 299 342
#
# _framework density 21.860492000000001
#
# number of rings (size 3 to 8) (size 9 to 14) (size 15 to 20)
#    0.000    1.500    2.500    2.250    1.750    2.000 
#    6.750    0.000    0.000    0.000    0.000    0.000 
#    0.000    0.000    0.000    0.000    0.000    0.000 
#
# Total GULP energy -89332.574933 kJ/mol
# GULP energy per Si atom -5583.285933 kJ/mol
# Density = 2.181074 g / cm^3
# Si number density = 21.860492 Si / 1000 Ang^3
#
#
#
# Elastic Constant Matrix: (Units=GPa)
#
#
# Indices 1 2 3 4 5 6 
#
# 1 62.6236 23.5742 19.7509 -5.5559 -1.9320 -1.1251
# 2 23.5742 76.5429 22.0757 -11.9057 8.0787 -2.4577
# 3 19.7509 22.0757 67.9917 -6.6912 11.0751 -5.8024
# 4 -5.5559 -11.9057 -6.6912 30.4923 4.5404 2.9706
# 5 -1.9320 8.0787 11.0751 4.5404 33.2625 -8.3754
# 6 -1.1251 -2.4577 -5.8024 2.9706 -8.3754 28.4828
#
#
#
# Elastic Compliance Matrix: (Units=1/GPa)
#
#
# Indices 1 2 3 4 5 6 
#
# 1 0.019470 -0.005092 -0.004627 -0.000121 0.004075 0.000598
# 2 -0.005092 0.016775 -0.002759 0.005819 -0.004564 -0.001265
# 3 -0.004627 -0.002759 0.018271 0.002814 -0.005734 0.001322
# 4 -0.000121 0.005819 0.002814 0.037511 -0.008848 -0.005443
# 5 0.004075 -0.004564 -0.005734 -0.008848 0.037157 0.010448
# 6 0.000598 -0.001265 0.001322 -0.005443 0.010448 0.038933
#
#
# Mechanical properties :
#
#
# Convention : Reuss Voigt Hill
#
# Bulk Modulus (GPa) = 33.82975 37.55110 35.69042
# Shear Modulus (GPa) = 24.63943 27.89800 26.26871
#
# Velocity S-wave (km/s) = 3.36091 3.57625 3.47025
# Velocity P-wave (km/s) = 5.52900 5.85386 5.69374
#
# Compressibility (1/GPa) = 0.02955978
#
# Stress axis : x y z
#
# Youngs Moduli (GPa) = 51.36002 59.61319 54.73024
#
# Poissons Ratio (x) = 0.30354 0.25326
# Poissons Ratio (y) = 0.26151 0.15101
# Poissons Ratio (z) = 0.23767 0.16448
#
# Static dielectric constant tensor:
#      x y z
#    x 1.833230 -0.035210 0.000630 
#    y -0.035210 1.817630 0.009770 
#    z 0.000630 0.009770 1.840420 
# 
# From -- ./inp_files/599529.got.cif
#   From: 2010.05.17/outbox.cif.g08.bks.cpg/sg2_300_cif.got.tgz:599529.got - 2010.06.03 11:33:40.
