data_PCOD9109153
_publ_section_title
;
Structure prediction by ZEFSAII (Michael W. Deem and Ramdas Pophale) SiO2 
 PCOD9109153
Probable space group: P -1
;
_chemical_formula_sum "Si O2"
_cell_formula_units_Z 15
_cell_length_a 21.868762
_cell_length_b 15.224214
_cell_length_c 7.851567
_cell_angle_alpha 114.904112
_cell_angle_beta 121.678653
_cell_angle_gamma 17.122893
_cell_volume 619.995768
_symmetry_space_group_name_H-M "P -1"
_symmetry_group_IT_number 2
_symmetry_cell_setting 'triclinic'
loop_
_space_group_symop_operation_xyz
x,y,z
-x,-y,-z
loop_
_atom_site_type_symbol
_atom_site_label
_atom_site_fract_x
_atom_site_fract_y
_atom_site_fract_z
Si Si1 0.702892 0.056623 0.078605
Si Si2 0.500000 0.000000 0.500000
Si Si3 0.943435 0.676477 0.630894
Si Si4 0.783953 0.499471 0.122296
Si Si5 0.995580 0.854979 0.200246
Si Si6 0.785192 0.292206 0.054296
Si Si7 0.737031 0.796806 0.000739
Si Si8 0.475801 0.260340 0.573441
O O1 0.482053 0.373193 0.130497
O O2 0.570391 0.196651 0.823662
O O3 0.807521 0.819250 0.097389
O O4 0.873482 0.926272 0.185726
O O5 0.333840 0.170912 0.243243
O O6 0.484739 0.133003 0.510760
O O7 0.086214 0.576609 0.664095
O O8 0.000000 0.500000 0.500000
O O9 0.064795 0.513456 0.860803
O O10 0.669025 0.041415 0.536613
O O11 0.801358 0.387162 0.184224
O O12 0.514147 0.872223 0.000340
O O13 0.908872 0.311063 0.975404
O O14 0.216840 0.615191 0.424809
O O15 0.823031 0.163177 0.147657
O O16 0.000000 0.000000 0.000000
#
# Coordination Sequence:
#
# PCOD9109153 Si02
#       8
#     2   1   2   2   2   2   2   2
#     4  10  22  41  64  95 127 162 213 270 328 389
#     4  10  22  38  60  90 132 172 212 266 326 376
#     4  12  23  38  63  96 135 176 220 262 324 390
#     4  10  20  41  63  91 128 170 218 272 315 386
#     4  11  21  41  68  89 130 170 211 274 325 383
#     4   9  21  41  70  90 119 168 217 267 331 383
#     4  10  22  39  64  94 133 170 220 268 324 389
#     4  11  24  36  60  96 128 168 217 256 323 388
#
# _framework density 24.193714
#
# number of rings (size 3 to 8) (size 9 to 14) (size 15 to 20)
#    0.000    1.600    1.333    3.200    1.867    1.600 
#    0.000    0.667    2.933    0.000    0.000    0.000 
#    0.000    0.000    0.000    0.000    0.000    0.000 
#
# Total GULP energy -83637.328955 kJ/mol
# GULP energy per Si atom -5575.821930 kJ/mol
# Density = 2.413865 g / cm^3
# Si number density = 24.193714 Si / 1000 Ang^3
#
#
#
# Elastic Constant Matrix: (Units=GPa)
#
#
# Indices 1 2 3 4 5 6 
#
# 1 132.0859 33.8365 24.2508 -21.4537 32.6377 6.8584
# 2 33.8365 95.6361 20.8943 -17.0899 19.3842 -6.0571
# 3 24.2508 20.8943 68.0511 -11.6073 10.8527 5.5083
# 4 -21.4537 -17.0899 -11.6073 27.8294 -5.8647 -2.0386
# 5 32.6377 19.3842 10.8527 -5.8647 30.3721 -12.9521
# 6 6.8584 -6.0571 5.5083 -2.0386 -12.9521 37.4003
#
#
#
# Elastic Compliance Matrix: (Units=1/GPa)
#
#
# Indices 1 2 3 4 5 6 
#
# 1 0.012931 -0.000881 -0.000349 0.005504 -0.015333 -0.007472
# 2 -0.000881 0.013369 -0.002078 0.005633 -0.005283 0.001110
# 3 -0.000349 -0.002078 0.017450 0.004202 -0.005676 -0.004579
# 4 0.005504 0.005633 0.004202 0.045082 -0.001833 0.001107
# 5 -0.015333 -0.005283 -0.005676 -0.001833 0.065228 0.025281
# 6 -0.007472 0.001110 -0.004579 0.001107 0.025281 0.037778
#
#
# Mechanical properties :
#
#
# Convention : Reuss Voigt Hill
#
# Bulk Modulus (GPa) = 26.92864 50.41515 38.67189
# Shear Modulus (GPa) = 23.71563 33.57311 28.64437
#
# Velocity S-wave (km/s) = 3.13427 3.72920 3.44460
# Velocity P-wave (km/s) = 4.92472 6.27901 5.64264
#
# Compressibility (1/GPa) = 0.03713519
#
# Stress axis : x y z
#
# Youngs Moduli (GPa) = 77.33304 74.79736 57.30809
#
# Poissons Ratio (x) = 0.06589 0.01999
# Poissons Ratio (y) = 0.06812 0.11907
# Poissons Ratio (z) = 0.02698 0.15541
#
# Static dielectric constant tensor:
#      x y z
#    x 1.969660 -0.088400 -0.045160 
#    y -0.088400 2.054430 0.062670 
#    z -0.045160 0.062670 1.951190 
# 
# From -- ./inp_files/187165.got.cif
#   From: 2010.05.17/outbox.cif.g08.bks.cpg/sg2_94_cif.got.tgz:187165.got - 2010.06.03 11:33:40.
