data_PCOD9109709
_publ_section_title
;
Structure prediction by ZEFSAII (Michael W. Deem and Ramdas Pophale) SiO2 
 PCOD9109709
Probable space group: P -1
;
_chemical_formula_sum "Si O2"
_cell_formula_units_Z 16
_cell_length_a 21.167604
_cell_length_b 18.197797
_cell_length_c 11.431237
_cell_angle_alpha 32.076240
_cell_angle_beta 137.728108
_cell_angle_gamma 160.295350
_cell_volume 746.284399
_symmetry_space_group_name_H-M "P -1"
_symmetry_group_IT_number 2
_symmetry_cell_setting 'triclinic'
loop_
_space_group_symop_operation_xyz
x,y,z
-x,-y,-z
loop_
_atom_site_type_symbol
_atom_site_label
_atom_site_fract_x
_atom_site_fract_y
_atom_site_fract_z
Si Si1 0.305636 0.114689 0.555411
Si Si2 0.156115 0.123186 0.897800
Si Si3 0.021015 0.661754 0.390956
Si Si4 0.264907 0.834449 0.689199
Si Si5 0.013536 0.243670 0.210858
Si Si6 0.716030 0.651929 0.480246
Si Si7 0.280371 0.323724 0.053308
Si Si8 0.410872 0.789132 0.561805
O O1 0.480105 0.350873 0.572036
O O2 0.335037 0.275682 0.283730
O O3 0.308175 0.973096 0.680469
O O4 0.098130 0.867017 0.671536
O O5 0.255287 0.320614 0.656919
O O6 0.282077 0.289943 0.964027
O O7 0.947907 0.930639 0.891507
O O8 0.108787 0.900925 0.113144
O O9 0.812684 0.448650 0.441395
O O10 0.000000 0.500000 0.500000
O O11 0.158227 0.802569 0.497878
O O12 0.460369 0.040323 0.609392
O O13 0.116260 0.513584 0.937217
O O14 0.184828 0.351700 0.318367
O O15 0.845947 0.950779 0.297995
O O16 0.405016 0.625881 0.824936
O O17 0.500000 0.000000 0.500000
#
# Coordination Sequence:
#
# PCOD9109709 Si02
#       8
#     2   2   2   2   2   2   2   2
#     4  12  25  45  72 102 134 185 241 282 336 414
#     4  10  20  41  66  99 134 171 216 284 345 406
#     4  11  22  40  67  99 139 177 215 274 354 411
#     4  12  26  43  69 102 140 182 227 286 346 411
#     4  11  27  48  65  99 142 185 239 280 343 404
#     4  11  25  43  74  95 134 187 236 286 342 400
#     4  10  22  39  68 100 137 169 223 282 349 407
#     4  11  25  39  63 102 139 174 221 281 346 412
#
# _framework density 21.439547000000001
#
# number of rings (size 3 to 8) (size 9 to 14) (size 15 to 20)
#    0.000    1.000    3.750    2.250    3.500    4.500 
#    0.000    0.000    0.000    0.000    0.000    0.000 
#    0.000    0.000    0.000    0.000    0.000    0.000 
#
# Total GULP energy -89486.084541 kJ/mol
# GULP energy per Si atom -5592.880284 kJ/mol
# Density = 2.139075 g / cm^3
# Si number density = 21.439547 Si / 1000 Ang^3
#
#
#
# Elastic Constant Matrix: (Units=GPa)
#
#
# Indices 1 2 3 4 5 6 
#
# 1 77.8944 10.8692 21.8506 -4.9771 8.1327 0.3887
# 2 10.8692 93.0485 16.9191 4.6977 12.7885 8.0629
# 3 21.8506 16.9191 69.6422 -6.7272 10.8236 8.0292
# 4 -4.9771 4.6977 -6.7272 25.3903 -5.2759 0.2942
# 5 8.1327 12.7885 10.8236 -5.2759 35.3089 -7.5923
# 6 0.3887 8.0629 8.0292 0.2942 -7.5923 25.6250
#
#
#
# Elastic Compliance Matrix: (Units=1/GPa)
#
#
# Indices 1 2 3 4 5 6 
#
# 1 0.014330 -0.000930 -0.004020 0.001638 -0.001286 0.000935
# 2 -0.000930 0.012557 -0.001725 -0.004043 -0.005479 -0.004974
# 3 -0.004020 -0.001725 0.017854 0.003336 -0.004812 -0.006454
# 4 0.001638 -0.004043 0.003336 0.042736 0.006823 0.001733
# 5 -0.001286 -0.005479 -0.004812 0.006823 0.036077 0.013862
# 6 0.000935 -0.004974 -0.006454 0.001733 0.013862 0.046685
#
#
# Mechanical properties :
#
#
# Convention : Reuss Voigt Hill
#
# Bulk Modulus (GPa) = 31.85547 37.76253 34.80900
# Shear Modulus (GPa) = 25.76644 29.99459 27.88052
#
# Velocity S-wave (km/s) = 3.47049 3.74442 3.61005
# Velocity P-wave (km/s) = 5.56323 6.02876 5.80067
#
# Compressibility (1/GPa) = 0.03139178
#
# Stress axis : x y z
#
# Youngs Moduli (GPa) = 69.78609 79.63416 56.01116
#
# Poissons Ratio (x) = 0.07406 0.22515
# Poissons Ratio (y) = 0.06490 0.09660
# Poissons Ratio (z) = 0.28053 0.13734
#
# Static dielectric constant tensor:
#      x y z
#    x 1.814040 0.019640 0.008220 
#    y 0.019640 1.817120 -0.036660 
#    z 0.008220 -0.036660 1.730720 
# 
# From -- ./inp_files/472346.got.cif
#   From: 2010.05.17/outbox.cif.g08.bks.cpg/sg2_237_cif.got.tgz:472346.got - 2010.06.03 11:33:40.
