data_PCOD9109090
_publ_section_title
;
Structure prediction by ZEFSAII (Michael W. Deem and Ramdas Pophale) SiO2 
 PCOD9109090
Probable space group: P -1
;
_chemical_formula_sum "Si O2"
_cell_formula_units_Z 16
_cell_length_a 14.292253
_cell_length_b 15.961719
_cell_length_c 13.379147
_cell_angle_alpha 154.790381
_cell_angle_beta 61.135051
_cell_angle_gamma 137.058739
_cell_volume 695.640555
_symmetry_space_group_name_H-M "P -1"
_symmetry_group_IT_number 2
_symmetry_cell_setting 'triclinic'
loop_
_space_group_symop_operation_xyz
x,y,z
-x,-y,-z
loop_
_atom_site_type_symbol
_atom_site_label
_atom_site_fract_x
_atom_site_fract_y
_atom_site_fract_z
Si Si1 0.707631 0.522424 0.743471
Si Si2 0.146861 0.959981 0.352859
Si Si3 0.832809 0.480633 0.135002
Si Si4 0.016981 0.396393 0.280132
Si Si5 0.317942 0.351152 0.321672
Si Si6 0.383360 0.519690 0.691971
Si Si7 0.915721 0.182869 0.458301
Si Si8 0.619549 0.786308 0.325656
O O1 0.803460 0.463859 0.663068
O O2 0.706182 0.544482 0.648169
O O3 0.511892 0.257747 0.600533
O O4 0.817098 0.869853 0.107680
O O5 0.953203 0.716136 0.232430
O O6 0.213243 0.153010 0.425583
O O7 0.288090 0.219556 0.646605
O O8 0.170572 0.759144 0.119090
O O9 0.647671 0.316973 0.063392
O O10 0.939254 0.696011 0.412701
O O11 0.004444 0.533896 0.346363
O O12 0.000000 0.500000 0.500000
O O13 0.864041 0.014191 0.950655
O O14 0.391065 0.550254 0.601233
O O15 0.451419 0.370467 0.243603
O O16 0.780469 0.093820 0.507628
O O17 0.500000 0.500000 0.000000
#
# Coordination Sequence:
#
# PCOD9109090 Si02
#       8
#     2   2   2   2   2   2   2   2
#     4  11  22  43  64  87 128 164 204 261 308 357
#     4  10  20  41  62  94 126 156 206 253 307 370
#     4  10  22  38  67  93 124 160 202 258 310 361
#     4  12  25  38  63  90 122 168 205 251 306 367
#     4  11  24  42  60  92 126 166 215 245 301 375
#     4  11  23  41  63  89 125 168 205 252 302 367
#     4  10  22  42  64  95 123 157 210 257 307 369
#     4   9  20  40  68  92 123 159 200 260 308 362
#
# _framework density 23.000387
#
# number of rings (size 3 to 8) (size 9 to 14) (size 15 to 20)
#    0.000    1.500    2.500    2.250    1.750    1.500 
#    0.000    9.375    0.000    0.000    0.000    0.000 
#    0.000    0.000    0.000    0.000    0.000    0.000 
#
# Total GULP energy -89434.676774 kJ/mol
# GULP energy per Si atom -5589.667298 kJ/mol
# Density = 2.294804 g / cm^3
# Si number density = 23.000387 Si / 1000 Ang^3
#
#
#
# Elastic Constant Matrix: (Units=GPa)
#
#
# Indices 1 2 3 4 5 6 
#
# 1 71.1655 31.8803 5.8353 -5.8400 -4.9036 15.4195
# 2 31.8803 109.5565 -4.8180 -0.0086 -7.5599 0.5584
# 3 5.8353 -4.8180 41.2910 -13.4168 2.7882 -5.9946
# 4 -5.8400 -0.0086 -13.4168 19.0125 -0.4734 2.0448
# 5 -4.9036 -7.5599 2.7882 -0.4734 29.5606 -2.4593
# 6 15.4195 0.5584 -5.9946 2.0448 -2.4593 46.9138
#
#
#
# Elastic Compliance Matrix: (Units=1/GPa)
#
#
# Indices 1 2 3 4 5 6 
#
# 1 0.018585 -0.005397 -0.002868 0.004421 0.001501 -0.006525
# 2 -0.005397 0.010908 0.002090 -0.000349 0.001860 0.002024
# 3 -0.002868 0.002090 0.032651 0.021670 -0.002339 0.004023
# 4 0.004421 -0.000349 0.021670 0.069423 -0.000432 -0.001728
# 5 0.001501 0.001860 -0.002339 -0.000432 0.034853 0.001031
# 6 -0.006525 0.002024 0.004023 -0.001728 0.001031 0.024080
#
#
# Mechanical properties :
#
#
# Convention : Reuss Voigt Hill
#
# Bulk Modulus (GPa) = 20.08265 31.97868 26.03066
# Shear Modulus (GPa) = 22.78459 31.70505 27.24482
#
# Velocity S-wave (km/s) = 3.15082 3.71679 3.44545
# Velocity P-wave (km/s) = 4.68906 5.68797 5.21250
#
# Compressibility (1/GPa) = 0.04979422
#
# Stress axis : x y z
#
# Youngs Moduli (GPa) = 53.80816 91.67490 30.62690
#
# Poissons Ratio (x) = 0.49476 0.08784
# Poissons Ratio (y) = 0.29040 -0.06402
# Poissons Ratio (z) = 0.15433 -0.19163
#
# Static dielectric constant tensor:
#      x y z
#    x 1.854830 0.021130 0.025360 
#    y 0.021130 1.871750 -0.031350 
#    z 0.025360 -0.031350 1.915340 
# 
# From -- ./inp_files/77664.got.cif
#   From: 2010.05.17/outbox.cif.g08.bks.cpg/sg2_39_cif.got.tgz:77664.got - 2010.06.03 11:33:40.
