data_PCOD9109552
_publ_section_title
;
Structure prediction by ZEFSAII (Michael W. Deem and Ramdas Pophale) SiO2 
 PCOD9109552
Probable space group: P -1
;
_chemical_formula_sum "Si O2"
_cell_formula_units_Z 14
_cell_length_a 15.978023
_cell_length_b 13.446356
_cell_length_c 11.321180
_cell_angle_alpha 149.799907
_cell_angle_beta 27.828007
_cell_angle_gamma 143.884183
_cell_volume 561.267831
_symmetry_space_group_name_H-M "P -1"
_symmetry_group_IT_number 2
_symmetry_cell_setting 'triclinic'
loop_
_space_group_symop_operation_xyz
x,y,z
-x,-y,-z
loop_
_atom_site_type_symbol
_atom_site_label
_atom_site_fract_x
_atom_site_fract_y
_atom_site_fract_z
Si Si1 0.988540 0.431126 0.722012
Si Si2 0.165119 0.783133 0.991045
Si Si3 0.681080 0.997946 0.193868
Si Si4 0.152381 0.655724 0.532934
Si Si5 0.389568 0.401083 0.652245
Si Si6 0.165565 0.991798 0.442749
Si Si7 0.483053 0.420829 0.076942
O O1 0.928324 0.192684 0.548028
O O2 0.140249 0.533020 0.544195
O O3 0.801154 0.515103 0.020841
O O4 0.088634 0.545256 0.829096
O O5 0.227449 0.868628 0.128534
O O6 0.991922 0.889156 0.282088
O O7 0.312457 0.871779 0.798992
O O8 0.500000 0.000000 0.500000
O O9 0.845885 0.117024 0.191791
O O10 0.675790 0.773529 0.926628
O O11 0.000000 0.500000 0.500000
O O12 0.328686 0.665884 0.244160
O O13 0.500000 0.500000 0.500000
O O14 0.497867 0.455323 0.696838
O O15 0.323863 0.160913 0.471075
O O16 0.500000 0.500000 0.000000
#
# Coordination Sequence:
#
# PCOD9109552 Si02
#       7
#     2   2   2   2   2   2   2
#     4  10  21  39  64  93 121 167 219 266 318 384
#     4   9  19  38  61  90 131 160 211 270 320 378
#     4   9  20  38  59  86 124 170 204 259 325 371
#     4  10  20  41  66  87 124 167 216 266 315 383
#     4  11  24  44  62  91 134 168 212 270 319 385
#     4  10  21  37  63  94 119 170 216 262 320 381
#     4  11  24  42  62  95 132 168 214 265 324 381
#
# _framework density 24.943525999999999
#
# number of rings (size 3 to 8) (size 9 to 14) (size 15 to 20)
#    0.000    2.000    1.429    1.286    2.000    1.714 
#   10.286    1.429    0.000    0.000    0.000    0.000 
#    0.000    0.000    0.000    0.000    0.000    0.000 
#
# Total GULP energy -78008.418319 kJ/mol
# GULP energy per Si atom -5572.029880 kJ/mol
# Density = 2.488675 g / cm^3
# Si number density = 24.943526 Si / 1000 Ang^3
#
#
#
# Elastic Constant Matrix: (Units=GPa)
#
#
# Indices 1 2 3 4 5 6 
#
# 1 96.7127 62.5893 45.4312 22.7829 44.4713 28.0416
# 2 62.5893 195.9692 48.4739 43.1312 35.1861 33.4240
# 3 45.4312 48.4739 78.0251 3.6734 27.3306 21.2855
# 4 22.7829 43.1312 3.6734 65.6826 7.9481 25.7041
# 5 44.4713 35.1861 27.3306 7.9481 55.3806 3.1332
# 6 28.0416 33.4240 21.2855 25.7041 3.1332 39.7790
#
#
#
# Elastic Compliance Matrix: (Units=1/GPa)
#
#
# Indices 1 2 3 4 5 6 
#
# 1 0.024059 -0.001755 -0.004371 -0.000566 -0.015312 -0.011575
# 2 -0.001755 0.007592 -0.002624 -0.003518 -0.001539 -0.001344
# 3 -0.004371 -0.002624 0.021448 0.006672 -0.005798 -0.010046
# 4 -0.000566 -0.003518 0.006672 0.023725 -0.003143 -0.015299
# 5 -0.015312 -0.001539 -0.005798 -0.003143 0.033819 0.014556
# 6 -0.011575 -0.001344 -0.010046 -0.015299 0.014556 0.048542
#
#
# Mechanical properties :
#
#
# Convention : Reuss Voigt Hill
#
# Bulk Modulus (GPa) = 28.08914 75.96621 52.02768
# Shear Modulus (GPa) = 26.51801 46.44928 36.48365
#
# Velocity S-wave (km/s) = 3.26409 4.31998 3.82861
# Velocity P-wave (km/s) = 5.04889 7.44341 6.35986
#
# Compressibility (1/GPa) = 0.03560094
#
# Stress axis : x y z
#
# Youngs Moduli (GPa) = 41.56457 131.71708 46.62331
#
# Poissons Ratio (x) = 0.23117 0.20377
# Poissons Ratio (y) = 0.07295 0.12232
# Poissons Ratio (z) = 0.18166 0.34557
#
# Static dielectric constant tensor:
#      x y z
#    x 1.781590 0.050440 -0.029250 
#    y 0.050440 2.038580 0.036230 
#    z -0.029250 0.036230 2.115360 
# 
# From -- ./inp_files/378421.got.cif
#   From: 2010.05.17/outbox.cif.g08.bks.cpg/sg2_190_cif.got.tgz:378421.got - 2010.06.03 11:33:40.
