data_PCOD9109703
_publ_section_title
;
Structure prediction by ZEFSAII (Michael W. Deem and Ramdas Pophale) SiO2 
 PCOD9109703
Probable space group: P -1
;
_chemical_formula_sum "Si O2"
_cell_formula_units_Z 16
_cell_length_a 10.421982
_cell_length_b 14.242818
_cell_length_c 11.445550
_cell_angle_alpha 148.202768
_cell_angle_beta 64.083079
_cell_angle_gamma 124.836608
_cell_volume 730.148530
_symmetry_space_group_name_H-M "P -1"
_symmetry_group_IT_number 2
_symmetry_cell_setting 'triclinic'
loop_
_space_group_symop_operation_xyz
x,y,z
-x,-y,-z
loop_
_atom_site_type_symbol
_atom_site_label
_atom_site_fract_x
_atom_site_fract_y
_atom_site_fract_z
Si Si1 0.430062 0.649036 0.136046
Si Si2 0.274611 0.463936 0.776997
Si Si3 0.574247 0.492899 0.590320
Si Si4 0.952559 0.168266 0.656105
Si Si5 0.116843 0.649033 0.890700
Si Si6 0.345407 0.865036 0.847169
Si Si7 0.315040 0.106601 0.899690
Si Si8 0.180389 0.764717 0.441799
O O1 0.560611 0.802668 0.160289
O O2 0.342976 0.734415 0.352104
O O3 0.500000 0.500000 0.000000
O O4 0.291027 0.533228 0.976717
O O5 0.416316 0.405588 0.638485
O O6 0.268431 0.616230 0.844389
O O7 0.103607 0.297687 0.656740
O O8 0.500000 0.500000 0.500000
O O9 0.654394 0.344902 0.402289
O O10 0.680768 0.703567 0.830393
O O11 0.816903 0.145045 0.594057
O O12 0.932016 0.271403 0.889699
O O13 0.000000 0.000000 0.500000
O O14 0.187822 0.807436 0.927124
O O15 0.966395 0.447903 0.703887
O O16 0.356630 0.986851 0.855764
O O17 0.500000 0.000000 0.000000
O O18 0.171678 0.930281 0.706361
#
# Coordination Sequence:
#
# PCOD9109703 Si02
#       8
#     2   2   2   2   2   2   2   2
#     4  11  23  42  71 100 145 185 227 302 362 418
#     4  10  20  41  66  98 130 175 236 291 350 409
#     4  11  22  43  69  98 142 179 245 292 338 429
#     4  11  24  39  71 100 135 183 235 294 359 422
#     4  11  22  46  71  99 141 188 236 298 350 420
#     4  12  25  44  76 101 141 193 241 293 351 426
#     4  11  27  42  66 107 137 188 235 289 361 422
#     4  11  24  45  68 101 148 181 239 297 363 430
#
# _framework density 21.913350999999999
#
# number of rings (size 3 to 8) (size 9 to 14) (size 15 to 20)
#    0.000    1.000    5.000    1.875    7.000    0.500 
#    0.000    0.625    0.000    0.000    0.000    0.000 
#    0.000    0.000    0.000    0.000    0.000    0.000 
#
# Total GULP energy -89134.433741 kJ/mol
# GULP energy per Si atom -5570.902109 kJ/mol
# Density = 2.186348 g / cm^3
# Si number density = 21.913351 Si / 1000 Ang^3
#
#
#
# Elastic Constant Matrix: (Units=GPa)
#
#
# Indices 1 2 3 4 5 6 
#
# 1 57.1849 23.3262 33.3748 10.5739 -6.2803 -12.9429
# 2 23.3262 108.1746 27.1212 10.4831 3.2914 -12.6522
# 3 33.3748 27.1212 140.2010 4.2557 14.0076 -5.0001
# 4 10.5739 10.4831 4.2557 24.4939 -2.8125 -5.2669
# 5 -6.2803 3.2914 14.0076 -2.8125 30.5352 4.1468
# 6 -12.9429 -12.6522 -5.0001 -5.2669 4.1468 24.3050
#
#
#
# Elastic Compliance Matrix: (Units=1/GPa)
#
#
# Indices 1 2 3 4 5 6 
#
# 1 0.025800 -0.002682 -0.005767 -0.006380 0.006476 0.008669
# 2 -0.002682 0.010849 -0.001043 -0.002726 -0.002004 0.003755
# 3 -0.005767 -0.001043 0.009176 0.000598 -0.005130 -0.000722
# 4 -0.006380 -0.002726 0.000598 0.045954 0.002278 0.004876
# 5 0.006476 -0.002004 -0.005130 0.002278 0.037478 -0.004550
# 6 0.008669 0.003755 -0.000722 0.004876 -0.004550 0.049400
#
#
# Mechanical properties :
#
#
# Convention : Reuss Voigt Hill
#
# Bulk Modulus (GPa) = 37.25850 52.57831 44.91840
# Shear Modulus (GPa) = 24.20278 30.64938 27.42608
#
# Velocity S-wave (km/s) = 3.32697 3.74393 3.54159
# Velocity P-wave (km/s) = 5.63896 6.53721 6.10463
#
# Compressibility (1/GPa) = 0.02683952
#
# Stress axis : x y z
#
# Youngs Moduli (GPa) = 38.75953 92.17704 108.98084
#
# Poissons Ratio (x) = 0.24725 0.62850
# Poissons Ratio (y) = 0.10397 0.11369
# Poissons Ratio (z) = 0.22353 0.09616
#
# Static dielectric constant tensor:
#      x y z
#    x 1.529270 0.346470 0.048570 
#    y 0.346470 1.565440 -0.074160 
#    z 0.048570 -0.074160 1.906420 
# 
# From -- ./inp_files/433474.got.cif
#   From: 2010.05.17/outbox.cif.g08.bks.cpg/sg2_217_cif.got.tgz:433474.got - 2010.06.03 11:33:40.
