data_PCOD9109134
_publ_section_title
;
Structure prediction by ZEFSAII (Michael W. Deem and Ramdas Pophale) SiO2 
 PCOD9109134
Probable space group: P -1
;
_chemical_formula_sum "Si O2"
_cell_formula_units_Z 16
_cell_length_a 19.583984
_cell_length_b 8.924083
_cell_length_c 7.814556
_cell_angle_alpha 117.653364
_cell_angle_beta 41.609512
_cell_angle_gamma 132.376896
_cell_volume 667.756634
_symmetry_space_group_name_H-M "P -1"
_symmetry_group_IT_number 2
_symmetry_cell_setting 'triclinic'
loop_
_space_group_symop_operation_xyz
x,y,z
-x,-y,-z
loop_
_atom_site_type_symbol
_atom_site_label
_atom_site_fract_x
_atom_site_fract_y
_atom_site_fract_z
Si Si1 0.620671 0.365761 0.525520
Si Si2 0.047302 0.363712 0.773575
Si Si3 0.624791 0.990617 0.246210
Si Si4 0.364212 0.880838 0.101034
Si Si5 0.279114 0.492152 0.228705
Si Si6 0.158576 0.035282 0.214240
Si Si7 0.867833 0.716290 0.080098
Si Si8 0.137368 0.931573 0.590024
O O1 0.621663 0.163125 0.444321
O O2 0.636508 0.463267 0.736011
O O3 0.728540 0.516129 0.269911
O O4 0.481530 0.246741 0.650955
O O5 0.172409 0.510993 0.517960
O O6 0.077317 0.283287 0.839475
O O7 0.971669 0.161550 0.694780
O O8 0.000000 0.500000 0.000000
O O9 0.622631 0.045251 0.079641
O O10 0.753413 0.025084 0.062307
O O11 0.330881 0.653225 0.066707
O O12 0.246870 0.891760 0.392120
O O13 0.500000 0.000000 0.000000
O O14 0.212736 0.261707 0.170412
O O15 0.170284 0.038179 0.398784
O O16 0.855761 0.908723 0.200755
O O17 0.986629 0.754107 0.766726
#
# Coordination Sequence:
#
# PCOD9109134 Si02
#       8
#     2   2   2   2   2   2   2   2
#     4  10  20  41  63  89 122 168 212 259 316 373
#     4  11  22  39  64  94 130 166 206 260 320 380
#     4  10  23  39  65  88 124 168 217 261 309 387
#     4  11  23  41  62  92 128 168 214 264 316 374
#     4  11  22  38  63  90 126 162 208 266 314 373
#     4  11  22  40  64  99 122 165 218 258 319 377
#     4  10  21  40  64  94 128 166 205 264 322 377
#     4  10  22  39  64  95 125 169 207 263 319 380
#
# _framework density 23.960827999999999
#
# number of rings (size 3 to 8) (size 9 to 14) (size 15 to 20)
#    0.000    1.500    3.750    2.625    0.000    2.500 
#    2.250    3.125    0.000    2.250    0.000    0.000 
#    0.000    0.000    0.000    0.000    0.000    0.000 
#
# Total GULP energy -89067.488775 kJ/mol
# GULP energy per Si atom -5566.718048 kJ/mol
# Density = 2.390629 g / cm^3
# Si number density = 23.960828 Si / 1000 Ang^3
#
#
#
# Elastic Constant Matrix: (Units=GPa)
#
#
# Indices 1 2 3 4 5 6 
#
# 1 42.7290 25.5718 -8.8676 -2.6329 9.5953 -7.0179
# 2 25.5718 106.1469 -3.5069 -26.4366 22.7416 -9.0650
# 3 -8.8676 -3.5069 36.1515 -12.3488 17.8167 -19.7838
# 4 -2.6329 -26.4366 -12.3488 47.5301 9.0500 -1.7034
# 5 9.5953 22.7416 17.8167 9.0500 1.6267 13.2292
# 6 -7.0179 -9.0650 -19.7838 -1.7034 13.2292 24.6153
#
#
#
# Elastic Compliance Matrix: (Units=1/GPa)
#
#
# Indices 1 2 3 4 5 6 
#
# 1 0.026945 -0.009490 -0.000116 -0.005291 0.007672 -0.000396
# 2 -0.009490 0.010669 -0.005941 0.002746 0.004761 -0.005920
# 3 -0.000116 -0.005941 0.011742 -0.004673 0.022226 -0.005052
# 4 -0.005291 0.002746 -0.004673 0.018712 0.010693 -0.008705
# 5 0.007672 0.004761 0.022226 0.010693 -0.004946 0.025202
# 6 -0.000396 -0.005920 -0.005052 -0.008705 0.025202 0.020125
#
#
# Mechanical properties :
#
#
# Convention : Reuss Voigt Hill
#
# Bulk Modulus (GPa) = 54.76403 23.49132 39.12768
# Shear Modulus (GPa) = 41.51831 26.20977 33.86404
#
# Velocity S-wave (km/s) = 4.16716 3.31094 3.76348
# Velocity P-wave (km/s) = 6.78667 4.94386 5.93720
#
# Compressibility (1/GPa) = 0.01826016
#
# Stress axis : x y z
#
# Youngs Moduli (GPa) = 37.11268 93.72678 85.16545
#
# Poissons Ratio (x) = 0.88951 0.00991
# Poissons Ratio (y) = 0.35222 0.50598
# Poissons Ratio (z) = 0.00432 0.55684
#
# Static dielectric constant tensor:
#      x y z
#    x 1.926930 0.031160 -0.056850 
#    y 0.031160 2.046880 -0.051180 
#    z -0.056850 -0.051180 2.086930 
# 
# From -- ./inp_files/343738.got.cif
#   From: 2010.05.17/outbox.cif.g08.bks.cpg/sg2_172_cif.got.tgz:343738.got - 2010.06.03 11:33:40.
