data_PCOD9109190
_publ_section_title
;
Structure prediction by ZEFSAII (Michael W. Deem and Ramdas Pophale) SiO2 
 PCOD9109190
Probable space group: P -1
;
_chemical_formula_sum "Si O2"
_cell_formula_units_Z 14
_cell_length_a 8.183363
_cell_length_b 8.105971
_cell_length_c 13.826554
_cell_angle_alpha 83.770999
_cell_angle_beta 65.134262
_cell_angle_gamma 49.404637
_cell_volume 613.451998
_symmetry_space_group_name_H-M "P -1"
_symmetry_group_IT_number 2
_symmetry_cell_setting 'triclinic'
loop_
_space_group_symop_operation_xyz
x,y,z
-x,-y,-z
loop_
_atom_site_type_symbol
_atom_site_label
_atom_site_fract_x
_atom_site_fract_y
_atom_site_fract_z
Si Si1 0.758742 0.134505 0.675430
Si Si2 0.658805 0.604952 0.121588
Si Si3 0.420473 0.059193 0.154881
Si Si4 0.977311 0.573564 0.214321
Si Si5 0.044396 0.151646 0.935942
Si Si6 0.705444 0.117172 0.471422
Si Si7 0.218308 0.316880 0.526403
O O1 0.567511 0.351652 0.776692
O O2 0.706486 0.199800 0.571737
O O3 0.696513 0.981094 0.727186
O O4 0.041901 0.988309 0.633812
O O5 0.792919 0.610329 0.178589
O O6 0.522861 0.837562 0.080978
O O7 0.865726 0.380245 0.028869
O O8 0.215000 0.314540 0.162634
O O9 0.666874 0.002503 0.119092
O O10 0.016347 0.741044 0.162643
O O11 0.868244 0.627138 0.344353
O O12 0.000000 0.000000 0.000000
O O13 0.455491 0.288209 0.464126
O O14 0.717591 0.912179 0.499792
O O15 0.000000 0.500000 0.500000
#
# Coordination Sequence:
#
# PCOD9109190 Si02
#       7
#     2   2   2   2   2   2   2
#     4   9  19  41  67  95 133 181 230 286 337 414
#     4   9  21  41  66  97 130 176 228 280 341 414
#     4   9  20  39  65  92 134 172 225 270 340 406
#     4  11  21  42  68  96 137 182 223 282 343 411
#     4  11  24  42  66 102 137 173 229 291 351 414
#     4  10  20  41  63  95 140 178 229 287 337 404
#     4  11  23  39  66 100 143 186 223 277 345 406
#
# _framework density 22.821672
#
# number of rings (size 3 to 8) (size 9 to 14) (size 15 to 20)
#    0.857    1.143    1.429    2.571    0.000    5.143 
#    5.143    2.143    0.000    0.000    0.000    0.000 
#    0.000    0.000    0.000    0.000    0.000    0.000 
#
# Total GULP energy -78009.784424 kJ/mol
# GULP energy per Si atom -5572.127459 kJ/mol
# Density = 2.276973 g / cm^3
# Si number density = 22.821672 Si / 1000 Ang^3
#
#
#
# Elastic Constant Matrix: (Units=GPa)
#
#
# Indices 1 2 3 4 5 6 
#
# 1 105.1094 45.2694 59.3593 2.8184 -39.7140 -27.5670
# 2 45.2694 123.7032 13.6159 9.3552 -20.3833 -19.9612
# 3 59.3593 13.6159 105.3308 3.9349 -21.8139 -17.2511
# 4 2.8184 9.3552 3.9349 22.4089 3.3060 -11.3643
# 5 -39.7140 -20.3833 -21.8139 3.3060 44.8570 9.1099
# 6 -27.5670 -19.9612 -17.2511 -11.3643 9.1099 35.4758
#
#
#
# Elastic Compliance Matrix: (Units=1/GPa)
#
#
# Indices 1 2 3 4 5 6 
#
# 1 0.023198 -0.004260 -0.008567 0.003301 0.012292 0.009365
# 2 -0.004260 0.010269 0.001848 -0.003380 0.001666 0.001856
# 3 -0.008567 0.001848 0.014309 -0.001894 0.000216 0.000679
# 4 0.003301 -0.003380 -0.001894 0.057312 -0.007844 0.020115
# 5 0.012292 0.001666 0.000216 -0.007844 0.034789 -0.000852
# 6 0.009365 0.001856 0.000679 0.020115 -0.000852 0.043503
#
#
# Mechanical properties :
#
#
# Convention : Reuss Voigt Hill
#
# Bulk Modulus (GPa) = 38.72841 63.40361 51.06601
# Shear Modulus (GPa) = 23.37069 34.94160 29.15614
#
# Velocity S-wave (km/s) = 3.20356 3.91714 3.57818
# Velocity P-wave (km/s) = 5.53991 6.94990 6.28457
#
# Compressibility (1/GPa) = 0.02582084
#
# Stress axis : x y z
#
# Youngs Moduli (GPa) = 43.10659 97.38126 69.88393
#
# Poissons Ratio (x) = 0.41481 0.59868
# Poissons Ratio (y) = 0.18362 -0.12917
# Poissons Ratio (z) = 0.36928 -0.18000
#
# Static dielectric constant tensor:
#      x y z
#    x 1.896270 0.004810 -0.003930 
#    y 0.004810 1.885290 -0.038210 
#    z -0.003930 -0.038210 1.928340 
# 
# From -- ./inp_files/492907.got.cif
#   From: 2010.05.17/outbox.cif.g08.bks.cpg/sg2_247_cif.got.tgz:492907.got - 2010.06.03 11:33:40.
