data_PCOD9109988
_publ_section_title
;
Structure prediction by ZEFSAII (Michael W. Deem and Ramdas Pophale) SiO2 
 PCOD9109988
Probable space group: P -1
;
_chemical_formula_sum "Si O2"
_cell_formula_units_Z 16
_cell_length_a 11.975296
_cell_length_b 11.804915
_cell_length_c 11.515564
_cell_angle_alpha 57.033841
_cell_angle_beta 67.136246
_cell_angle_gamma 32.431931
_cell_volume 723.376290
_symmetry_space_group_name_H-M "P -1"
_symmetry_group_IT_number 2
_symmetry_cell_setting 'triclinic'
loop_
_space_group_symop_operation_xyz
x,y,z
-x,-y,-z
loop_
_atom_site_type_symbol
_atom_site_label
_atom_site_fract_x
_atom_site_fract_y
_atom_site_fract_z
Si Si1 0.202216 0.403306 0.360538
Si Si2 0.247435 0.431411 0.880938
Si Si3 0.074606 0.216624 0.555646
Si Si4 0.556470 0.249921 0.203172
Si Si5 0.293994 0.927480 0.173434
Si Si6 0.988720 0.418578 0.901305
Si Si7 0.756902 0.209538 0.936302
Si Si8 0.975240 0.870520 0.621175
O O1 0.187322 0.260939 0.482090
O O2 0.420128 0.245765 0.300509
O O3 0.034207 0.577283 0.227574
O O4 0.129699 0.567029 0.402763
O O5 0.477985 0.217300 0.856568
O O6 0.087795 0.472000 0.862359
O O7 0.157587 0.659572 0.755373
O O8 0.228492 0.409176 0.036255
O O9 0.018723 0.223688 0.444651
O O10 0.230495 0.961769 0.688627
O O11 0.388406 0.525141 0.137852
O O12 0.643975 0.197806 0.067842
O O13 0.260477 0.821776 0.172150
O O14 0.234939 0.961328 0.312114
O O15 0.136622 0.174518 0.037363
O O16 0.000000 0.000000 0.000000
O O17 0.000000 0.000000 0.500000
#
# Coordination Sequence:
#
# PCOD9109988 Si02
#       8
#     2   2   2   2   2   2   2   2
#     4  11  23  44  71  96 137 172 219 283 332 388
#     4  10  22  42  67  97 130 170 220 266 331 392
#     4  11  25  45  65 101 132 179 222 271 335 386
#     4  11  24  41  71  99 130 173 221 278 323 405
#     4  11  24  41  67  97 126 179 220 266 331 394
#     4  10  20  41  68  97 131 165 214 283 325 384
#     4  11  25  44  68 101 134 170 222 279 337 385
#     4  11  27  44  66  93 139 177 218 272 320 401
#
# _framework density 22.118500999999998
#
# number of rings (size 3 to 8) (size 9 to 14) (size 15 to 20)
#    0.000    1.250    1.250    3.750    5.250    3.500 
#    4.500    0.000    0.000    0.000    0.000    0.000 
#    0.000    0.000    0.000    0.000    0.000    0.000 
#
# Total GULP energy -89360.341526 kJ/mol
# GULP energy per Si atom -5585.021345 kJ/mol
# Density = 2.206816 g / cm^3
# Si number density = 22.118501 Si / 1000 Ang^3
#
#
#
# Elastic Constant Matrix: (Units=GPa)
#
#
# Indices 1 2 3 4 5 6 
#
# 1 51.4617 37.7065 17.3092 17.3266 -0.5756 3.4906
# 2 37.7065 108.3623 43.7111 25.0395 0.3729 -3.4777
# 3 17.3092 43.7111 102.6050 15.9174 0.6595 3.6234
# 4 17.3266 25.0395 15.9174 43.8243 4.0878 -3.6689
# 5 -0.5756 0.3729 0.6595 4.0878 27.7005 9.9345
# 6 3.4906 -3.4777 3.6234 -3.6689 9.9345 38.0436
#
#
#
# Elastic Compliance Matrix: (Units=1/GPa)
#
#
# Indices 1 2 3 4 5 6 
#
# 1 0.028371 -0.008411 0.000065 -0.007185 0.003554 -0.004999
# 2 -0.008411 0.014780 -0.004456 -0.003239 -0.000652 0.002405
# 3 0.000065 -0.004456 0.012021 -0.002084 0.000787 -0.001965
# 4 -0.007185 -0.003239 -0.002084 0.029260 -0.006165 0.004993
# 5 0.003554 -0.000652 0.000787 -0.006165 0.041322 -0.011846
# 6 -0.004999 0.002405 -0.001965 0.004993 -0.011846 0.030726
#
#
# Mechanical properties :
#
#
# Convention : Reuss Voigt Hill
#
# Bulk Modulus (GPa) = 33.81924 51.09806 42.45865
# Shear Modulus (GPa) = 26.04989 32.82718 29.43853
#
# Velocity S-wave (km/s) = 3.43555 3.85665 3.65217
# Velocity P-wave (km/s) = 5.57320 6.55620 6.08458
#
# Compressibility (1/GPa) = 0.02956897
#
# Stress axis : x y z
#
# Youngs Moduli (GPa) = 35.24783 67.65753 83.18763
#
# Poissons Ratio (x) = 0.56906 -0.00544
# Poissons Ratio (y) = 0.29646 0.37069
# Poissons Ratio (z) = -0.00231 0.30148
#
# Static dielectric constant tensor:
#      x y z
#    x 1.841510 0.018990 -0.023910 
#    y 0.018990 1.881150 0.002810 
#    z -0.023910 0.002810 1.808620 
# 
# From -- ./inp_files/427777.got.cif
#   From: 2010.05.17/outbox.cif.g08.bks.cpg/sg2_214_cif.got.tgz:427777.got - 2010.06.03 11:33:40.
