data_PCOD9109989
_publ_section_title
;
Structure prediction by ZEFSAII (Michael W. Deem and Ramdas Pophale) SiO2 
 PCOD9109989
Probable space group: P -1
;
_chemical_formula_sum "Si O2"
_cell_formula_units_Z 10
_cell_length_a 9.437930
_cell_length_b 11.175173
_cell_length_c 8.719046
_cell_angle_alpha 42.296339
_cell_angle_beta 46.188247
_cell_angle_gamma 41.458320
_cell_volume 389.598059
_symmetry_space_group_name_H-M "P -1"
_symmetry_group_IT_number 2
_symmetry_cell_setting 'triclinic'
loop_
_space_group_symop_operation_xyz
x,y,z
-x,-y,-z
loop_
_atom_site_type_symbol
_atom_site_label
_atom_site_fract_x
_atom_site_fract_y
_atom_site_fract_z
Si Si1 0.089956 0.384828 0.260750
Si Si2 0.197989 0.763669 0.544671
Si Si3 0.250482 0.058930 0.693129
Si Si4 0.283908 0.662720 0.911861
Si Si5 0.449965 0.885425 0.012220
O O1 0.090258 0.265218 0.528264
O O2 0.907392 0.378315 0.291506
O O3 0.104879 0.582663 0.108681
O O4 0.325411 0.253013 0.119395
O O5 0.333283 0.691383 0.670582
O O6 0.344094 0.765504 0.291523
O O7 0.000000 0.000000 0.500000
O O8 0.500000 0.000000 0.500000
O O9 0.202829 0.879225 0.846005
O O10 0.280204 0.042589 0.867276
O O11 0.500000 0.500000 0.000000
O O12 0.500000 0.000000 0.000000
#
# Coordination Sequence:
#
# PCOD9109989 Si02
#       5
#     2   2   2   2   2
#     4  11  24  45  70  98 138 174 223 280 331 397
#     4  12  24  44  68 101 138 175 224 279 331 396
#     4  10  20  41  68  97 131 177 218 272 332 396
#     4  12  23  43  72  96 137 181 220 277 338 393
#     4  11  22  39  72 100 131 183 220 271 343 397
#
# _framework density 25.667480000000001
#
# number of rings (size 3 to 8) (size 9 to 14) (size 15 to 20)
#    0.000    0.800    8.000    1.800    0.000    1.600 
#    0.000    1.000    0.000    0.000    0.000    0.000 
#    0.000    0.000    0.000    0.000    0.000    0.000 
#
# Total GULP energy -56081.307238 kJ/mol
# GULP energy per Si atom -5608.130724 kJ/mol
# Density = 2.560906 g / cm^3
# Si number density = 25.667480 Si / 1000 Ang^3
#
#
#
# Elastic Constant Matrix: (Units=GPa)
#
#
# Indices 1 2 3 4 5 6 
#
# 1 180.5287 42.2032 77.3223 8.4717 17.3208 30.1069
# 2 42.2032 97.5172 48.3362 4.2488 -3.5448 17.8854
# 3 77.3223 48.3362 160.1035 -2.5999 19.6779 13.8061
# 4 8.4717 4.2488 -2.5999 31.6032 10.6063 -12.1586
# 5 17.3208 -3.5448 19.6779 10.6063 81.8392 -10.5821
# 6 30.1069 17.8854 13.8061 -12.1586 -10.5821 41.8520
#
#
#
# Elastic Compliance Matrix: (Units=1/GPa)
#
#
# Indices 1 2 3 4 5 6 
#
# 1 0.008494 -0.000762 -0.003239 -0.004443 -0.001295 -0.006334
# 2 -0.000762 0.013479 -0.003534 -0.004297 0.001517 -0.004911
# 3 -0.003239 -0.003534 0.009049 0.003228 -0.001892 0.001315
# 4 -0.004443 -0.004297 0.003228 0.040531 -0.003349 0.014896
# 5 -0.001295 0.001517 -0.001892 -0.003349 0.013894 0.003448
# 6 -0.006334 -0.004911 0.001315 0.014896 0.003448 0.035315
#
#
# Mechanical properties :
#
#
# Convention : Reuss Voigt Hill
#
# Bulk Modulus (GPa) = 62.68973 85.98585 74.33779
# Shear Modulus (GPa) = 35.42373 49.07806 42.25089
#
# Velocity S-wave (km/s) = 3.71900 4.37747 4.06160
# Velocity P-wave (km/s) = 6.55119 7.68910 7.14284
#
# Compressibility (1/GPa) = 0.01595158
#
# Stress axis : x y z
#
# Youngs Moduli (GPa) = 117.73294 74.18788 110.51445
#
# Poissons Ratio (x) = 0.05656 0.35792
# Poissons Ratio (y) = 0.08975 0.39056
# Poissons Ratio (z) = 0.38130 0.26218
#
# Static dielectric constant tensor:
#      x y z
#    x 2.053000 -0.065980 0.000910 
#    y -0.065980 2.148880 0.000300 
#    z 0.000910 0.000300 2.070210 
# 
# From -- ./inp_files/153597.got.cif
#   From: 2010.05.17/outbox.cif.g08.bks.cpg/sg2_77_cif.got.tgz:153597.got - 2010.06.03 11:33:40.
