data_PCOD9109538
_publ_section_title
;
Structure prediction by ZEFSAII (Michael W. Deem and Ramdas Pophale) SiO2 
 PCOD9109538
Probable space group: P -1
;
_chemical_formula_sum "Si O2"
_cell_formula_units_Z 16
_cell_length_a 15.145191
_cell_length_b 9.142760
_cell_length_c 12.852605
_cell_angle_alpha 113.713974
_cell_angle_beta 143.030508
_cell_angle_gamma 46.067572
_cell_volume 721.643934
_symmetry_space_group_name_H-M "P -1"
_symmetry_group_IT_number 2
_symmetry_cell_setting 'triclinic'
loop_
_space_group_symop_operation_xyz
x,y,z
-x,-y,-z
loop_
_atom_site_type_symbol
_atom_site_label
_atom_site_fract_x
_atom_site_fract_y
_atom_site_fract_z
Si Si1 0.861840 0.556841 0.089051
Si Si2 0.453409 0.966993 0.832266
Si Si3 0.063961 0.034651 0.464864
Si Si4 0.111741 0.078018 0.095665
Si Si5 0.562918 0.737845 0.506503
Si Si6 0.940089 0.270670 0.766046
Si Si7 0.614240 0.883316 0.401037
Si Si8 0.032894 0.620312 0.644272
O O1 0.002215 0.316696 0.105549
O O2 0.947522 0.667980 0.171686
O O3 0.845030 0.535623 0.189932
O O4 0.631975 0.724287 0.887742
O O5 0.254465 0.007140 0.659328
O O6 0.445109 0.106033 0.771154
O O7 0.500000 0.000000 0.000000
O O8 0.092937 0.868238 0.366138
O O9 0.903583 0.273242 0.330446
O O10 0.000000 0.000000 0.500000
O O11 0.333934 0.884566 0.295189
O O12 0.076522 0.130805 0.954577
O O13 0.000000 0.000000 0.000000
O O14 0.713624 0.503379 0.635025
O O15 0.540959 0.896395 0.616023
O O16 0.660003 0.710836 0.477437
O O17 0.822250 0.821159 0.558861
O O18 0.000000 0.500000 0.500000
#
# Coordination Sequence:
#
# PCOD9109538 Si02
#       8
#     2   2   2   2   2   2   2   2
#     4  12  22  44  68 101 134 182 241 282 358 417
#     4  11  24  42  71 101 137 184 240 297 360 427
#     4  11  26  46  67 101 142 180 236 295 356 429
#     4  12  27  42  66 106 149 184 236 295 350 431
#     4  11  22  42  71 102 144 185 234 295 361 421
#     4  12  25  44  73 102 142 188 235 294 360 424
#     4  10  20  41  66 101 133 178 239 288 347 427
#     4  11  21  40  69  95 133 180 226 288 343 416
#
# _framework density 22.171597999999999
#
# number of rings (size 3 to 8) (size 9 to 14) (size 15 to 20)
#    0.000    0.750    2.500    6.375    3.500    0.500 
#    0.000    0.625    0.000    0.000    0.000    0.000 
#    0.000    0.000    0.000    0.000    0.000    0.000 
#
# Total GULP energy -89182.997413 kJ/mol
# GULP energy per Si atom -5573.937338 kJ/mol
# Density = 2.212113 g / cm^3
# Si number density = 22.171598 Si / 1000 Ang^3
#
#
#
# Elastic Constant Matrix: (Units=GPa)
#
#
# Indices 1 2 3 4 5 6 
#
# 1 111.3609 18.5290 39.4158 0.0961 -15.3771 19.9636
# 2 18.5290 87.4235 10.9943 4.1820 2.2205 11.4112
# 3 39.4158 10.9943 92.1794 3.0902 -7.8574 -1.1480
# 4 0.0961 4.1820 3.0902 43.4092 -4.7119 -0.6692
# 5 -15.3771 2.2205 -7.8574 -4.7119 41.0301 2.5521
# 6 19.9636 11.4112 -1.1480 -0.6692 2.5521 36.0426
#
#
#
# Elastic Compliance Matrix: (Units=1/GPa)
#
#
# Indices 1 2 3 4 5 6 
#
# 1 0.012911 -0.001309 -0.005101 0.000836 0.004477 -0.007201
# 2 -0.001309 0.012351 -0.001020 -0.001305 -0.001308 -0.003150
# 3 -0.005101 -0.001020 0.013252 -0.000738 0.000377 0.003530
# 4 0.000836 -0.001305 -0.000738 0.023534 0.002935 0.000156
# 5 0.004477 -0.001308 0.000377 0.002935 0.026772 -0.003895
# 6 -0.007201 -0.003150 0.003530 0.000156 -0.003895 0.033122
#
#
# Mechanical properties :
#
#
# Convention : Reuss Voigt Hill
#
# Bulk Modulus (GPa) = 42.27568 47.64911 44.96240
# Shear Modulus (GPa) = 34.55712 38.89801 36.72756
#
# Velocity S-wave (km/s) = 3.95222 4.19311 4.07444
# Velocity P-wave (km/s) = 6.31946 6.70676 6.51599
#
# Compressibility (1/GPa) = 0.02365426
#
# Stress axis : x y z
#
# Youngs Moduli (GPa) = 77.45092 80.96474 75.45964
#
# Poissons Ratio (x) = 0.10596 0.38491
# Poissons Ratio (y) = 0.10136 0.07701
# Poissons Ratio (z) = 0.39507 0.08262
#
# Static dielectric constant tensor:
#      x y z
#    x 1.879970 0.023800 0.001480 
#    y 0.023800 1.835260 -0.109630 
#    z 0.001480 -0.109630 1.801880 
# 
# From -- ./inp_files/447919.got.cif
#   From: 2010.05.17/outbox.cif.g08.bks.cpg/sg2_224_cif.got.tgz:447919.got - 2010.06.03 11:33:40.
