data_PCOD9109632
_publ_section_title
;
Structure prediction by ZEFSAII (Michael W. Deem and Ramdas Pophale) SiO2 
 PCOD9109632
Probable space group: P -1
;
_chemical_formula_sum "Si O2"
_cell_formula_units_Z 10
_cell_length_a 10.889963
_cell_length_b 8.930680
_cell_length_c 10.974795
_cell_angle_alpha 137.163092
_cell_angle_beta 44.947105
_cell_angle_gamma 140.444646
_cell_volume 436.444630
_symmetry_space_group_name_H-M "P -1"
_symmetry_group_IT_number 2
_symmetry_cell_setting 'triclinic'
loop_
_space_group_symop_operation_xyz
x,y,z
-x,-y,-z
loop_
_atom_site_type_symbol
_atom_site_label
_atom_site_fract_x
_atom_site_fract_y
_atom_site_fract_z
Si Si1 0.949999 0.449005 0.189637
Si Si2 0.296202 0.339004 0.188588
Si Si3 0.739774 0.108197 0.907854
Si Si4 0.261494 0.775398 0.547725
Si Si5 0.754309 0.765182 0.115628
O O1 0.805135 0.365483 0.358640
O O2 0.118994 0.747936 0.222444
O O3 0.814717 0.324383 0.090287
O O4 0.085710 0.320194 0.031527
O O5 0.215557 0.537605 0.351643
O O6 0.533185 0.537083 0.177952
O O7 0.220090 0.112048 0.203899
O O8 0.283353 0.220459 0.993669
O O9 0.500000 0.000000 0.000000
O O10 0.500000 0.000000 0.500000
O O11 0.168553 0.958338 0.711936
#
# Coordination Sequence:
#
# PCOD9109632 Si02
#       5
#     2   2   2   2   2
#     4  11  23  41  68  92 126 173 207 261 318 372
#     4  10  21  39  67  92 126 171 201 262 322 363
#     4  11  23  42  66  90 129 172 212 252 320 381
#     4  10  22  38  64 100 126 156 215 266 310 372
#     4  10  20  41  66  93 128 161 213 263 310 372
#
# _framework density 22.912412
#
# number of rings (size 3 to 8) (size 9 to 14) (size 15 to 20)
#    0.000    1.600    4.000    0.600    0.000    1.600 
#    0.000    1.000    0.000    0.000    0.000    0.000 
#    0.000    0.000    0.000    0.000    0.000    0.000 
#
# Total GULP energy -55836.386414 kJ/mol
# GULP energy per Si atom -5583.638641 kJ/mol
# Density = 2.286026 g / cm^3
# Si number density = 22.912412 Si / 1000 Ang^3
#
#
#
# Elastic Constant Matrix: (Units=GPa)
#
#
# Indices 1 2 3 4 5 6 
#
# 1 64.3846 31.8032 3.6789 -1.9359 -9.4383 12.9364
# 2 31.8032 202.7364 40.9447 -4.3984 -3.7181 -13.6432
# 3 3.6789 40.9447 72.8032 12.0517 -6.8493 -3.5030
# 4 -1.9359 -4.3984 12.0517 48.3621 -3.6462 2.2802
# 5 -9.4383 -3.7181 -6.8493 -3.6462 20.7526 5.4906
# 6 12.9364 -13.6432 -3.5030 2.2802 5.4906 41.9538
#
#
#
# Elastic Compliance Matrix: (Units=1/GPa)
#
#
# Indices 1 2 3 4 5 6 
#
# 1 0.021130 -0.004024 0.001653 0.001426 0.012160 -0.009355
# 2 -0.004024 0.006511 -0.003708 0.001002 -0.002593 0.003334
# 3 0.001653 -0.003708 0.016855 -0.004048 0.005141 -0.000761
# 4 0.001426 0.001002 -0.004048 0.022237 0.003976 -0.002180
# 5 0.012160 -0.002593 0.005141 0.003976 0.058844 -0.012081
# 6 -0.009355 0.003334 -0.000761 -0.002180 -0.012081 0.029440
#
#
# Mechanical properties :
#
#
# Convention : Reuss Voigt Hill
#
# Bulk Modulus (GPa) = 30.92332 54.75309 42.83820
# Shear Modulus (GPa) = 28.09711 39.78020 33.93865
#
# Velocity S-wave (km/s) = 3.50563 4.17128 3.85286
# Velocity P-wave (km/s) = 5.46915 6.86644 6.20723
#
# Compressibility (1/GPa) = 0.03233806
#
# Stress axis : x y z
#
# Youngs Moduli (GPa) = 47.32595 153.58170 59.33101
#
# Poissons Ratio (x) = 0.61804 -0.09810
# Poissons Ratio (y) = 0.19045 0.22000
# Poissons Ratio (z) = -0.07825 0.56949
#
# Static dielectric constant tensor:
#      x y z
#    x 1.852300 0.037950 -0.028950 
#    y 0.037950 1.922900 -0.029970 
#    z -0.028950 -0.029970 1.913710 
# 
# From -- ./inp_files/162314.got.cif
#   From: 2010.05.17/outbox.cif.g08.bks.cpg/sg2_82_cif.got.tgz:162314.got - 2010.06.03 11:33:40.
