data_PCOD9109121
_publ_section_title
;
Structure prediction by ZEFSAII (Michael W. Deem and Ramdas Pophale) SiO2 
 PCOD9109121
Probable space group: P -1
;
_chemical_formula_sum "Si O2"
_cell_formula_units_Z 16
_cell_length_a 8.906376
_cell_length_b 7.836807
_cell_length_c 10.794127
_cell_angle_alpha 71.149493
_cell_angle_beta 115.466192
_cell_angle_gamma 102.324617
_cell_volume 641.266207
_symmetry_space_group_name_H-M "P -1"
_symmetry_group_IT_number 2
_symmetry_cell_setting 'triclinic'
loop_
_space_group_symop_operation_xyz
x,y,z
-x,-y,-z
loop_
_atom_site_type_symbol
_atom_site_label
_atom_site_fract_x
_atom_site_fract_y
_atom_site_fract_z
Si Si1 0.952057 0.078398 0.783383
Si Si2 0.343026 0.114541 0.399490
Si Si3 0.711295 0.524520 0.617215
Si Si4 0.806566 0.499013 0.394607
Si Si5 0.927432 0.518563 0.192010
Si Si6 0.269360 0.987398 0.028771
Si Si7 0.657113 0.652720 0.908570
Si Si8 0.505335 0.677886 0.197403
O O1 0.835143 0.051546 0.871229
O O2 0.019538 0.286877 0.769821
O O3 0.829886 0.012819 0.644364
O O4 0.117947 0.971227 0.880072
O O5 0.339935 0.272063 0.462184
O O6 0.354510 0.231889 0.248634
O O7 0.500000 0.000000 0.500000
O O8 0.719429 0.428512 0.508669
O O9 0.597845 0.406295 0.699992
O O10 0.895119 0.558285 0.736520
O O11 0.810973 0.411505 0.279349
O O12 0.701355 0.674163 0.294999
O O13 0.000000 0.500000 0.500000
O O14 0.830242 0.565399 0.023627
O O15 0.413891 0.855877 0.095963
O O16 0.349199 0.193314 0.025077
O O17 0.532190 0.477555 0.883044
#
# Coordination Sequence:
#
# PCOD9109121 Si02
#       8
#     2   2   2   2   2   2   2   2
#     4   9  18  35  57  88 127 158 194 253 324 351
#     4  10  22  34  58  94 130 155 201 269 305 362
#     4  10  22  37  64  93 116 163 216 253 302 380
#     4  10  24  41  60  87 128 167 210 251 312 377
#     4  10  20  41  63  87 127 165 200 260 311 374
#     4   9  18  35  61  95 123 153 201 266 303 368
#     4   9  22  37  61  99 126 153 207 261 315 362
#     4  11  21  37  70  92 117 167 210 261 312 366
#
# _framework density 24.950634999999998
#
# number of rings (size 3 to 8) (size 9 to 14) (size 15 to 20)
#    0.000    2.250    1.250    1.125    5.250    5.500 
#    0.000    3.125    5.500    0.000    0.000    0.000 
#    0.000    0.000    0.000    0.000    0.000    0.000 
#
# Total GULP energy -89216.104887 kJ/mol
# GULP energy per Si atom -5576.006555 kJ/mol
# Density = 2.489385 g / cm^3
# Si number density = 24.950635 Si / 1000 Ang^3
#
#
#
# Elastic Constant Matrix: (Units=GPa)
#
#
# Indices 1 2 3 4 5 6 
#
# 1 128.1835 38.9773 58.5858 -12.1786 19.3963 -16.8649
# 2 38.9773 100.0264 35.5056 -6.9747 21.5348 -2.1278
# 3 58.5858 35.5056 146.6938 -7.3574 31.4467 -14.5190
# 4 -12.1786 -6.9747 -7.3574 33.9712 -14.0538 14.7228
# 5 19.3963 21.5348 31.4467 -14.0538 61.4949 -16.2317
# 6 -16.8649 -2.1278 -14.5190 14.7228 -16.2317 33.8337
#
#
#
# Elastic Compliance Matrix: (Units=1/GPa)
#
#
# Indices 1 2 3 4 5 6 
#
# 1 0.010683 -0.002960 -0.003259 0.001237 0.000529 0.003456
# 2 -0.002960 0.012369 -0.001379 0.001305 -0.003303 -0.003442
# 3 -0.003259 -0.001379 0.009189 -0.001327 -0.003149 0.001299
# 4 0.001237 0.001305 -0.001327 0.037945 0.004785 -0.014087
# 5 0.000529 -0.003303 -0.003149 0.004785 0.021828 0.007094
# 6 0.003456 -0.003442 0.001299 -0.014087 0.007094 0.041153
#
#
# Mechanical properties :
#
#
# Convention : Reuss Voigt Hill
#
# Bulk Modulus (GPa) = 58.66710 71.22678 64.94694
# Shear Modulus (GPa) = 32.45781 41.98230 37.22006
#
# Velocity S-wave (km/s) = 3.61069 4.10642 3.86651
# Velocity P-wave (km/s) = 6.39899 7.14791 6.78379
#
# Compressibility (1/GPa) = 0.01704533
#
# Stress axis : x y z
#
# Youngs Moduli (GPa) = 93.60395 80.84672 108.82144
#
# Poissons Ratio (x) = 0.23931 0.35470
# Poissons Ratio (y) = 0.27707 0.15004
# Poissons Ratio (z) = 0.30510 0.11147
#
# Static dielectric constant tensor:
#      x y z
#    x 2.052990 0.037250 -0.081660 
#    y 0.037250 1.996330 -0.017200 
#    z -0.081660 -0.017200 2.093880 
# 
# From -- ./inp_files/378872.got.cif
#   From: 2010.05.17/outbox.cif.g08.bks.cpg/sg2_190_cif.got.tgz:378872.got - 2010.06.03 11:33:40.
