data_PCOD9109601
_publ_section_title
;
Structure prediction by ZEFSAII (Michael W. Deem and Ramdas Pophale) SiO2 
 PCOD9109601
Probable space group: P -1
;
_chemical_formula_sum "Si O2"
_cell_formula_units_Z 14
_cell_length_a 11.890400
_cell_length_b 10.270941
_cell_length_c 11.013111
_cell_angle_alpha 123.306979
_cell_angle_beta 140.507727
_cell_angle_gamma 83.381999
_cell_volume 582.115171
_symmetry_space_group_name_H-M "P -1"
_symmetry_group_IT_number 2
_symmetry_cell_setting 'triclinic'
loop_
_space_group_symop_operation_xyz
x,y,z
-x,-y,-z
loop_
_atom_site_type_symbol
_atom_site_label
_atom_site_fract_x
_atom_site_fract_y
_atom_site_fract_z
Si Si1 0.572653 0.418681 0.376424
Si Si2 0.530926 0.754476 0.561527
Si Si3 0.361916 0.722382 0.143686
Si Si4 0.216244 0.016317 0.531615
Si Si5 0.976250 0.038701 0.138360
Si Si6 0.824204 0.714132 0.183768
Si Si7 0.063637 0.418460 0.404422
O O1 0.621323 0.627617 0.540127
O O2 0.630237 0.367299 0.525591
O O3 0.718091 0.417468 0.394029
O O4 0.327041 0.300503 0.060783
O O5 0.451941 0.792053 0.391503
O O6 0.721390 0.939516 0.885119
O O7 0.539574 0.860319 0.259230
O O8 0.289285 0.502027 0.973595
O O9 0.134509 0.689026 0.910778
O O10 0.191682 0.161974 0.663789
O O11 0.073233 0.955740 0.260114
O O12 0.073786 0.825151 0.400292
O O13 0.098034 0.258288 0.389750
O O14 0.000000 0.000000 0.000000
O O15 0.000000 0.500000 0.500000
#
# Coordination Sequence:
#
# PCOD9109601 Si02
#       7
#     2   2   2   2   2   2   2
#     4  10  20  41  66  91 129 163 222 261 317 383
#     4  10  21  39  67  95 118 172 217 268 311 376
#     4  11  23  40  60  94 136 164 207 270 332 379
#     4  11  21  38  66  95 123 169 224 263 312 383
#     4  12  21  42  67  93 125 168 224 261 307 388
#     4  10  21  38  65  93 124 171 220 266 311 380
#     4  12  26  42  64  95 135 174 205 262 338 387
#
# _framework density 24.050222999999999
#
# number of rings (size 3 to 8) (size 9 to 14) (size 15 to 20)
#    0.000    1.143    4.286    3.000    0.000    1.143 
#    2.571    0.714    0.000    0.000    0.000    0.000 
#    0.000    0.000    0.000    0.000    0.000    0.000 
#
# Total GULP energy -78095.322749 kJ/mol
# GULP energy per Si atom -5578.237339 kJ/mol
# Density = 2.399548 g / cm^3
# Si number density = 24.050223 Si / 1000 Ang^3
#
#
#
# Elastic Constant Matrix: (Units=GPa)
#
#
# Indices 1 2 3 4 5 6 
#
# 1 97.0990 29.7197 -1.3312 17.1988 9.5944 11.9486
# 2 29.7197 41.5844 16.5597 1.2891 12.6991 11.9827
# 3 -1.3312 16.5597 71.4406 10.2552 14.1509 14.8743
# 4 17.1988 1.2891 10.2552 30.1039 6.6019 -0.4947
# 5 9.5944 12.6991 14.1509 6.6019 44.6444 4.4818
# 6 11.9486 11.9827 14.8743 -0.4947 4.4818 21.1159
#
#
#
# Elastic Compliance Matrix: (Units=1/GPa)
#
#
# Indices 1 2 3 4 5 6 
#
# 1 0.017101 -0.012317 0.006339 -0.011587 0.000284 -0.007484
# 2 -0.012317 0.040252 -0.007712 0.009299 -0.006853 -0.008768
# 3 0.006339 -0.007712 0.020696 -0.009922 -0.002916 -0.013403
# 4 -0.011587 0.009299 -0.009922 0.043986 -0.004545 0.010264
# 5 0.000284 -0.006853 -0.002916 -0.004545 0.025865 0.000186
# 6 -0.007484 -0.008768 -0.013403 0.010264 0.000186 0.066210
#
#
# Mechanical properties :
#
#
# Convention : Reuss Voigt Hill
#
# Bulk Modulus (GPa) = 19.73578 33.33562 26.53570
# Shear Modulus (GPa) = 19.35136 30.18456 24.76796
#
# Velocity S-wave (km/s) = 2.83966 3.54653 3.21260
# Velocity P-wave (km/s) = 4.35609 5.53728 4.98181
#
# Compressibility (1/GPa) = 0.05066940
#
# Stress axis : x y z
#
# Youngs Moduli (GPa) = 58.47611 24.84332 48.31899
#
# Poissons Ratio (x) = 0.30600 -0.30630
# Poissons Ratio (y) = 0.72025 0.37263
# Poissons Ratio (z) = -0.37068 0.19159
#
# Static dielectric constant tensor:
#      x y z
#    x 1.904850 0.062810 0.040530 
#    y 0.062810 2.095490 0.126080 
#    z 0.040530 0.126080 2.026370 
# 
# From -- ./inp_files/185108.got.cif
#   From: 2010.05.17/outbox.cif.g08.bks.cpg/sg2_93_cif.got.tgz:185108.got - 2010.06.03 11:33:40.
