data_PCOD9109672
_publ_section_title
;
Structure prediction by ZEFSAII (Michael W. Deem and Ramdas Pophale) SiO2 
 PCOD9109672
Probable space group: P -1
;
_chemical_formula_sum "Si O2"
_cell_formula_units_Z 16
_cell_length_a 9.300620
_cell_length_b 11.259870
_cell_length_c 14.367265
_cell_angle_alpha 61.053737
_cell_angle_beta 151.397318
_cell_angle_gamma 109.657203
_cell_volume 616.079102
_symmetry_space_group_name_H-M "P -1"
_symmetry_group_IT_number 2
_symmetry_cell_setting 'triclinic'
loop_
_space_group_symop_operation_xyz
x,y,z
-x,-y,-z
loop_
_atom_site_type_symbol
_atom_site_label
_atom_site_fract_x
_atom_site_fract_y
_atom_site_fract_z
Si Si1 0.311600 0.693595 0.578714
Si Si2 0.710611 0.862435 0.633912
Si Si3 0.290223 0.109095 0.768692
Si Si4 0.268031 0.701182 0.085130
Si Si5 0.532330 0.965473 0.304371
Si Si6 0.998340 0.791862 0.069656
Si Si7 0.919856 0.593946 0.253035
Si Si8 0.688065 0.468853 0.001994
O O1 0.548107 0.741307 0.623879
O O2 0.485520 0.617498 0.796843
O O3 0.045878 0.825780 0.406060
O O4 0.154227 0.580727 0.477080
O O5 0.746484 0.882003 0.537293
O O6 0.500000 0.000000 0.500000
O O7 0.032130 0.845384 0.873716
O O8 0.413879 0.251361 0.763343
O O9 0.312342 0.037125 0.706894
O O10 0.500000 0.000000 0.000000
O O11 0.194416 0.602393 0.000426
O O12 0.144609 0.668513 0.127701
O O13 0.253483 0.883704 0.172055
O O14 0.342858 0.115582 0.173839
O O15 0.982811 0.728878 0.185844
O O16 0.568186 0.614022 0.077813
O O17 0.920188 0.481805 0.212689
#
# Coordination Sequence:
#
# PCOD9109672 Si02
#       8
#     2   2   2   2   2   2   2   2
#     4  12  25  48  75  98 144 188 232 285 354 414
#     4  12  24  44  69 107 141 180 227 292 353 420
#     4  11  24  44  71 102 136 185 231 283 352 420
#     4  11  24  44  68  98 146 171 231 296 342 403
#     4  10  22  38  67 102 135 176 230 273 357 421
#     4  10  20  41  66  95 137 181 219 289 343 415
#     4  11  23  45  70  97 138 185 237 284 346 400
#     4  11  27  45  70 102 137 188 237 290 340 412
#
# _framework density 25.970690000000001
#
# number of rings (size 3 to 8) (size 9 to 14) (size 15 to 20)
#    0.000    1.000    3.750    2.625    1.750    4.000 
#    2.250    2.500    0.000    0.000    0.000    0.000 
#    0.000    0.000    0.000    0.000    0.000    0.000 
#
# Total GULP energy -89443.093212 kJ/mol
# GULP energy per Si atom -5590.193326 kJ/mol
# Density = 2.591158 g / cm^3
# Si number density = 25.970690 Si / 1000 Ang^3
#
#
#
# Elastic Constant Matrix: (Units=GPa)
#
#
# Indices 1 2 3 4 5 6 
#
# 1 163.4316 32.6678 21.6521 -0.0189 -4.6391 3.7463
# 2 32.6678 78.7384 9.6802 15.9506 13.9493 -10.8373
# 3 21.6521 9.6802 37.3546 12.0332 -0.5014 23.0105
# 4 -0.0189 15.9506 12.0332 41.1801 -4.7796 1.5597
# 5 -4.6391 13.9493 -0.5014 -4.7796 41.3702 -0.2481
# 6 3.7463 -10.8373 23.0105 1.5597 -0.2481 34.8189
#
#
#
# Elastic Compliance Matrix: (Units=1/GPa)
#
#
# Indices 1 2 3 4 5 6 
#
# 1 0.007520 -0.003212 -0.005557 0.003063 0.002223 0.001742
# 2 -0.003212 0.019525 -0.009060 -0.006290 -0.007704 0.012637
# 3 -0.005557 -0.009060 0.063440 -0.013218 0.001412 -0.043545
# 4 0.003063 -0.006290 -0.013218 0.031078 0.005925 0.005098
# 5 0.002223 -0.007704 0.001412 0.005925 0.027699 -0.003638
# 6 0.001742 0.012637 -0.043545 0.005098 -0.003638 0.060989
#
#
# Mechanical properties :
#
#
# Convention : Reuss Voigt Hill
#
# Bulk Modulus (GPa) = 18.23867 45.28055 31.75961
# Shear Modulus (GPa) = 18.92616 37.84215 28.38415
#
# Velocity S-wave (km/s) = 2.70247 3.82135 3.30954
# Velocity P-wave (km/s) = 4.09583 6.07811 5.18263
#
# Compressibility (1/GPa) = 0.05482856
#
# Stress axis : x y z
#
# Youngs Moduli (GPa) = 132.97025 51.21680 15.76286
#
# Poissons Ratio (x) = 0.16449 0.08760
# Poissons Ratio (y) = 0.42704 0.14281
# Poissons Ratio (z) = 0.73894 0.46401
#
# Static dielectric constant tensor:
#      x y z
#    x 2.070230 -0.050910 -0.005130 
#    y -0.050910 2.187650 0.007200 
#    z -0.005130 0.007200 2.058650 
# 
# From -- ./inp_files/500331.got.cif
#   From: 2010.05.17/outbox.cif.g08.bks.cpg/sg2_251_cif.got.tgz:500331.got - 2010.06.03 11:33:40.
