data_PCOD9109911
_publ_section_title
;
Structure prediction by ZEFSAII (Michael W. Deem and Ramdas Pophale) SiO2 
 PCOD9109911
Probable space group: P -1
;
_chemical_formula_sum "Si O2"
_cell_formula_units_Z 12
_cell_length_a 14.916809
_cell_length_b 5.785622
_cell_length_c 7.003207
_cell_angle_alpha 79.478109
_cell_angle_beta 135.881017
_cell_angle_gamma 99.317704
_cell_volume 413.257744
_symmetry_space_group_name_H-M "P -1"
_symmetry_group_IT_number 2
_symmetry_cell_setting 'triclinic'
loop_
_space_group_symop_operation_xyz
x,y,z
-x,-y,-z
loop_
_atom_site_type_symbol
_atom_site_label
_atom_site_fract_x
_atom_site_fract_y
_atom_site_fract_z
Si Si1 0.359624 0.873613 0.328614
Si Si2 0.677430 0.937180 0.349694
Si Si3 0.082793 0.939834 0.829704
Si Si4 0.796576 0.604701 0.325034
Si Si5 0.032491 0.395955 0.806897
Si Si6 0.436601 0.659648 0.139116
O O1 0.500000 0.000000 0.500000
O O2 0.322709 0.897512 0.488160
O O3 0.388474 0.642598 0.286941
O O4 0.235919 0.971944 0.019328
O O5 0.795880 0.813598 0.448162
O O6 0.616341 0.100325 0.070627
O O7 0.585898 0.712386 0.316301
O O8 0.062783 0.129334 0.936831
O O9 0.065358 0.660404 0.893722
O O10 0.000000 0.000000 0.500000
O O11 0.881809 0.601978 0.260446
O O12 0.647293 0.546622 0.058953
O O13 0.876979 0.395955 0.570224
#
# Coordination Sequence:
#
# PCOD9109911 Si02
#       6
#     2   2   2   2   2   2
#     4  10  22  43  70 101 142 182 240 296 361 420
#     4  10  23  39  63 104 131 183 238 299 345 436
#     4  12  20  44  68 104 133 194 235 287 353 436
#     4  11  20  37  64  97 130 182 233 288 347 424
#     4  11  24  36  75  98 136 190 243 278 363 426
#     4  10  20  41  68  90 142 184 231 289 369 418
#
# _framework density 29.037569000000001
#
# number of rings (size 3 to 8) (size 9 to 14) (size 15 to 20)
#    0.000    1.333    5.000    1.500    2.333    0.000 
#    3.000    2.500    0.000    0.000    0.000    0.000 
#    0.000    0.000    0.000    0.000    0.000    0.000 
#
# Total GULP energy -66845.796362 kJ/mol
# GULP energy per Si atom -5570.483030 kJ/mol
# Density = 2.897148 g / cm^3
# Si number density = 29.037569 Si / 1000 Ang^3
#
#
#
# Elastic Constant Matrix: (Units=GPa)
#
#
# Indices 1 2 3 4 5 6 
#
# 1 192.7728 63.1853 44.0493 -0.5741 -16.9067 -13.0816
# 2 63.1853 186.4348 27.7772 12.2958 -11.7751 -26.4350
# 3 44.0493 27.7772 96.3918 11.1471 1.4094 2.9857
# 4 -0.5741 12.2958 11.1471 54.1514 -9.2060 6.9761
# 5 -16.9067 -11.7751 1.4094 -9.2060 35.0976 11.5514
# 6 -13.0816 -26.4350 2.9857 6.9761 11.5514 63.8417
#
#
#
# Elastic Compliance Matrix: (Units=1/GPa)
#
#
# Indices 1 2 3 4 5 6 
#
# 1 0.006678 -0.001750 -0.002776 0.001569 0.003142 0.000034
# 2 -0.001750 0.006584 -0.000992 -0.001616 0.000137 0.002566
# 3 -0.002776 -0.000992 0.012301 -0.002677 -0.002606 -0.000791
# 4 0.001569 -0.001616 -0.002677 0.021102 0.007112 -0.003815
# 5 0.003142 0.000137 -0.002606 0.007112 0.034033 -0.006113
# 6 0.000034 0.002566 -0.000791 -0.003815 -0.006113 0.018293
#
#
# Mechanical properties :
#
#
# Convention : Reuss Voigt Hill
#
# Bulk Modulus (GPa) = 68.83817 82.84700 75.84258
# Shear Modulus (GPa) = 43.52793 53.32400 48.42597
#
# Velocity S-wave (km/s) = 3.87592 4.28995 4.08818
# Velocity P-wave (km/s) = 6.61728 7.28911 6.96130
#
# Compressibility (1/GPa) = 0.01452682
#
# Stress axis : x y z
#
# Youngs Moduli (GPa) = 149.74989 151.88848 81.29460
#
# Poissons Ratio (x) = 0.26579 0.22566
# Poissons Ratio (y) = 0.26205 0.08065
# Poissons Ratio (z) = 0.41568 0.15069
#
# Static dielectric constant tensor:
#      x y z
#    x 2.333300 0.132680 -0.085810 
#    y 0.132680 2.290400 0.060690 
#    z -0.085810 0.060690 2.500240 
# 
# From -- ./inp_files/321380.got.cif
#   From: 2010.05.17/outbox.cif.g08.bks.cpg/sg2_161_cif.got.tgz:321380.got - 2010.06.03 11:33:40.
