data_PCOD9109660
_publ_section_title
;
Structure prediction by ZEFSAII (Michael W. Deem and Ramdas Pophale) SiO2 
 PCOD9109660
Probable space group: P -1
;
_chemical_formula_sum "Si O2"
_cell_formula_units_Z 12
_cell_length_a 13.295082
_cell_length_b 11.813576
_cell_length_c 8.472979
_cell_angle_alpha 52.256882
_cell_angle_beta 110.411771
_cell_angle_gamma 148.485032
_cell_volume 499.538628
_symmetry_space_group_name_H-M "P -1"
_symmetry_group_IT_number 2
_symmetry_cell_setting 'triclinic'
loop_
_space_group_symop_operation_xyz
x,y,z
-x,-y,-z
loop_
_atom_site_type_symbol
_atom_site_label
_atom_site_fract_x
_atom_site_fract_y
_atom_site_fract_z
Si Si1 0.498248 0.469278 0.712405
Si Si2 0.144989 0.800034 0.767625
Si Si3 0.811555 0.616361 0.868212
Si Si4 0.590918 0.935427 0.037556
Si Si5 0.069360 0.467320 0.435002
Si Si6 0.192447 0.334720 0.813500
O O1 0.500000 0.500000 0.500000
O O2 0.727826 0.677087 0.719920
O O3 0.397655 0.482150 0.742999
O O4 0.356107 0.161458 0.922778
O O5 0.037472 0.818896 0.765300
O O6 0.118552 0.772286 0.590161
O O7 0.000000 0.500000 0.000000
O O8 0.365521 0.031474 0.780734
O O9 0.782911 0.572789 0.076619
O O10 0.648339 0.328258 0.927415
O O11 0.735971 0.226424 0.802755
O O12 0.138012 0.397336 0.608323
O O13 0.000000 0.500000 0.500000
O O14 0.000000 0.000000 0.000000
#
# Coordination Sequence:
#
# PCOD9109660 Si02
#       6
#     2   2   2   2   2   2
#     4  10  22  43  63  98 130 168 221 264 324 387
#     4  10  20  41  66  95 128 170 214 268 325 386
#     4  10  23  42  67  94 133 167 221 265 327 384
#     4   9  23  43  67  91 133 166 218 265 324 379
#     4  11  23  41  65  99 128 169 219 265 328 386
#     4  12  24  42  69  94 136 177 215 268 330 392
#
# _framework density 24.022164
#
# number of rings (size 3 to 8) (size 9 to 14) (size 15 to 20)
#    1.000    0.667    0.000    5.500    0.000    4.667 
#    3.000    3.333    0.000    0.000    0.000    0.000 
#    0.000    0.000    0.000    0.000    0.000    0.000 
#
# Total GULP energy -67069.207652 kJ/mol
# GULP energy per Si atom -5589.100638 kJ/mol
# Density = 2.396749 g / cm^3
# Si number density = 24.022164 Si / 1000 Ang^3
#
#
#
# Elastic Constant Matrix: (Units=GPa)
#
#
# Indices 1 2 3 4 5 6 
#
# 1 150.0747 29.9141 41.4451 18.4496 9.5702 -18.4984
# 2 29.9141 131.5906 52.3083 27.5917 2.9366 -2.2676
# 3 41.4451 52.3083 143.2681 10.4505 26.4259 -5.2785
# 4 18.4496 27.5917 10.4505 55.1617 -8.7716 -1.7425
# 5 9.5702 2.9366 26.4259 -8.7716 36.5008 6.8420
# 6 -18.4984 -2.2676 -5.2785 -1.7425 6.8420 33.5114
#
#
#
# Elastic Compliance Matrix: (Units=1/GPa)
#
#
# Indices 1 2 3 4 5 6 
#
# 1 0.008200 -0.000710 -0.001280 -0.002415 -0.002625 0.004687
# 2 -0.000710 0.009871 -0.003313 -0.003939 0.000965 -0.000648
# 3 -0.001280 -0.003313 0.010046 -0.000910 -0.007282 0.002091
# 4 -0.002415 -0.003939 -0.000910 0.022179 0.007329 -0.002086
# 5 -0.002625 0.000965 -0.007282 0.007329 0.036854 -0.009674
# 6 0.004687 -0.000648 0.002091 -0.002086 -0.009674 0.034580
#
#
# Mechanical properties :
#
#
# Convention : Reuss Voigt Hill
#
# Bulk Modulus (GPa) = 57.10441 74.69649 65.90045
# Shear Modulus (GPa) = 36.18629 45.11919 40.65274
#
# Velocity S-wave (km/s) = 3.88541 4.33856 4.11822
# Velocity P-wave (km/s) = 6.62961 7.50065 7.07854
#
# Compressibility (1/GPa) = 0.01751178
#
# Stress axis : x y z
#
# Youngs Moduli (GPa) = 121.94629 101.30702 99.53743
#
# Poissons Ratio (x) = 0.07189 0.12742
# Poissons Ratio (y) = 0.08654 0.32979
# Poissons Ratio (z) = 0.15610 0.33566
#
# Static dielectric constant tensor:
#      x y z
#    x 2.009920 0.051870 -0.009630 
#    y 0.051870 1.970350 -0.064970 
#    z -0.009630 -0.064970 1.935510 
# 
# From -- ./inp_files/306557.got.cif
#   From: 2010.05.17/outbox.cif.g08.bks.cpg/sg2_154_cif.got.tgz:306557.got - 2010.06.03 11:33:40.
