data_PCOD9109684
_publ_section_title
;
Structure prediction by ZEFSAII (Michael W. Deem and Ramdas Pophale) SiO2 
 PCOD9109684
Probable space group: P -1
;
_chemical_formula_sum "Si O2"
_cell_formula_units_Z 16
_cell_length_a 13.367524
_cell_length_b 10.307866
_cell_length_c 11.546543
_cell_angle_alpha 79.995071
_cell_angle_beta 76.847624
_cell_angle_gamma 144.363111
_cell_volume 699.431163
_symmetry_space_group_name_H-M "P -1"
_symmetry_group_IT_number 2
_symmetry_cell_setting 'triclinic'
loop_
_space_group_symop_operation_xyz
x,y,z
-x,-y,-z
loop_
_atom_site_type_symbol
_atom_site_label
_atom_site_fract_x
_atom_site_fract_y
_atom_site_fract_z
Si Si1 0.349194 0.390076 0.359505
Si Si2 0.189627 0.498838 0.659734
Si Si3 0.448398 0.171109 0.903339
Si Si4 0.000340 0.795677 0.453048
Si Si5 0.038763 0.410327 0.938766
Si Si6 0.658892 0.217526 0.657286
Si Si7 0.551699 0.270836 0.123916
Si Si8 0.750519 0.688893 0.166829
O O1 0.384006 0.518504 0.215943
O O2 0.203969 0.328101 0.483124
O O3 0.601464 0.629173 0.282732
O O4 0.192311 0.086606 0.425919
O O5 0.966583 0.209655 0.687632
O O6 0.151663 0.561049 0.760526
O O7 0.350317 0.737863 0.479030
O O8 0.244355 0.430323 0.728955
O O9 0.503436 0.116994 0.806130
O O10 0.476917 0.168016 0.028725
O O11 0.195794 0.923834 0.979053
O O12 0.903785 0.553608 0.575444
O O13 0.199720 0.506068 0.959387
O O14 0.000000 0.500000 0.000000
O O15 0.606733 0.005079 0.714700
O O16 0.590488 0.459570 0.137324
O O17 0.000000 0.000000 0.000000
#
# Coordination Sequence:
#
# PCOD9109684 Si02
#       8
#     2   2   2   2   2   2   2   2
#     4  10  20  41  66  96 134 175 226 274 343 393
#     4   9  22  43  66  92 136 169 219 287 325 407
#     4  11  23  42  69  96 131 180 222 282 335 407
#     4   8  20  40  66  93 127 174 218 280 331 396
#     4  11  23  41  64  97 132 174 226 274 345 404
#     4   9  20  43  65  94 129 173 223 275 340 394
#     4  11  24  41  68  95 137 178 222 280 341 401
#     4  11  25  41  63 103 134 178 229 275 341 410
#
# _framework density 22.875733
#
# number of rings (size 3 to 8) (size 9 to 14) (size 15 to 20)
#    0.750    1.250    1.250    1.875    3.500    3.000 
#    0.000    6.250    0.000    0.000    0.000    0.000 
#    0.000    0.000    0.000    0.000    0.000    0.000 
#
# Total GULP energy -89076.982718 kJ/mol
# GULP energy per Si atom -5567.311420 kJ/mol
# Density = 2.282367 g / cm^3
# Si number density = 22.875733 Si / 1000 Ang^3
#
#
#
# Elastic Constant Matrix: (Units=GPa)
#
#
# Indices 1 2 3 4 5 6 
#
# 1 53.0457 11.6192 36.6486 5.9983 -12.0996 4.5120
# 2 11.6192 94.8547 42.6978 -12.3458 3.1285 -0.9128
# 3 36.6486 42.6978 120.6270 4.5741 2.5965 2.2518
# 4 5.9983 -12.3458 4.5741 44.9774 -4.5857 2.6986
# 5 -12.0996 3.1285 2.5965 -4.5857 40.0275 -1.5504
# 6 4.5120 -0.9128 2.2518 2.6986 -1.5504 27.6787
#
#
#
# Elastic Compliance Matrix: (Units=1/GPa)
#
#
# Indices 1 2 3 4 5 6 
#
# 1 0.026899 -0.000149 -0.008175 -0.001760 0.008352 -0.003085
# 2 -0.000149 0.013273 -0.004810 0.004097 -0.000284 0.000438
# 3 -0.008175 -0.004810 0.012610 -0.001840 -0.003118 0.000153
# 4 -0.001760 0.004097 -0.001840 0.024080 0.001961 -0.001666
# 5 0.008352 -0.000284 -0.003118 0.001961 0.027967 0.000258
# 6 -0.003085 0.000438 0.000153 -0.001666 0.000258 0.036811
#
#
# Mechanical properties :
#
#
# Convention : Reuss Voigt Hill
#
# Bulk Modulus (GPa) = 37.71720 50.05095 43.88408
# Shear Modulus (GPa) = 28.28926 34.37418 31.33172
#
# Velocity S-wave (km/s) = 3.52042 3.88061 3.70489
# Velocity P-wave (km/s) = 5.74875 6.48119 6.12592
#
# Compressibility (1/GPa) = 0.02651310
#
# Stress axis : x y z
#
# Youngs Moduli (GPa) = 37.17640 75.34194 79.30009
#
# Poissons Ratio (x) = 0.01126 0.64827
# Poissons Ratio (y) = 0.00555 0.38144
# Poissons Ratio (z) = 0.30391 0.36241
#
# Static dielectric constant tensor:
#      x y z
#    x 1.929660 -0.024260 -0.076110 
#    y -0.024260 1.916440 -0.033060 
#    z -0.076110 -0.033060 1.904930 
# 
# From -- ./inp_files/463816.got.cif
#   From: 2010.05.17/outbox.cif.g08.bks.cpg/sg2_232_cif.got.tgz:463816.got - 2010.06.03 11:33:40.
