data_PCOD9109512
_publ_section_title
;
Structure prediction by ZEFSAII (Michael W. Deem and Ramdas Pophale) SiO2 
 PCOD9109512
Probable space group: P -1
;
_chemical_formula_sum "Si O2"
_cell_formula_units_Z 15
_cell_length_a 10.039697
_cell_length_b 15.276768
_cell_length_c 14.630349
_cell_angle_alpha 137.129815
_cell_angle_beta 24.484570
_cell_angle_gamma 134.106131
_cell_volume 629.351885
_symmetry_space_group_name_H-M "P -1"
_symmetry_group_IT_number 2
_symmetry_cell_setting 'triclinic'
loop_
_space_group_symop_operation_xyz
x,y,z
-x,-y,-z
loop_
_atom_site_type_symbol
_atom_site_label
_atom_site_fract_x
_atom_site_fract_y
_atom_site_fract_z
Si Si1 0.573061 0.321358 0.635521
Si Si2 0.323841 0.696885 0.106323
Si Si3 0.725330 0.890083 0.113321
Si Si4 0.606456 0.479678 0.234361
Si Si5 0.899615 0.117765 0.380753
Si Si6 0.500000 0.500000 0.000000
Si Si7 0.950484 0.167879 0.971207
Si Si8 0.687888 0.716654 0.596157
O O1 0.579902 0.404648 0.602273
O O2 0.813931 0.213794 0.425773
O O3 0.592799 0.417839 0.784350
O O4 0.215336 0.244513 0.799887
O O5 0.530143 0.830046 0.103466
O O6 0.942641 0.706144 0.347751
O O7 0.458512 0.634684 0.886467
O O8 0.359797 0.607225 0.103617
O O9 0.443922 0.922786 0.384022
O O10 0.919716 0.793103 0.978121
O O11 0.000000 0.000000 0.000000
O O12 0.456389 0.420326 0.375799
O O13 0.000000 0.500000 0.000000
O O14 0.120047 0.197525 0.379396
O O15 0.040305 0.985332 0.164493
O O16 0.607121 0.211451 0.199194
#
# Coordination Sequence:
#
# PCOD9109512 Si02
#       8
#     2   2   2   2   2   1   2   2
#     4  10  19  39  66  91 129 170 219 272 327 389
#     4  10  23  43  65  95 135 170 219 281 325 396
#     4  10  21  41  64  95 127 173 224 268 327 395
#     4  11  24  42  67 100 134 171 226 274 328 404
#     4  10  22  42  65  95 131 175 224 270 330 395
#     4  10  16  40  64  84 130 166 208 276 318 382
#     4  11  21  41  66  94 134 175 215 279 331 390
#     4  11  23  44  66  99 134 178 216 269 352 383
#
# _framework density 23.834043000000001
#
# number of rings (size 3 to 8) (size 9 to 14) (size 15 to 20)
#    0.000    1.600    5.333    2.000    1.867    1.067 
#    2.400    1.333    0.000    0.000    0.000    0.000 
#    0.000    0.000    0.000    0.000    0.000    0.000 
#
# Total GULP energy -83645.745841 kJ/mol
# GULP energy per Si atom -5576.383056 kJ/mol
# Density = 2.377980 g / cm^3
# Si number density = 23.834043 Si / 1000 Ang^3
#
#
#
# Elastic Constant Matrix: (Units=GPa)
#
#
# Indices 1 2 3 4 5 6 
#
# 1 69.8371 22.8609 38.4521 5.1996 -9.9022 -7.5935
# 2 22.8609 81.3093 56.4820 -1.5478 -2.5850 -14.1255
# 3 38.4521 56.4820 115.9270 -2.5584 -23.2434 -17.6452
# 4 5.1996 -1.5478 -2.5584 44.7051 0.8828 -3.6617
# 5 -9.9022 -2.5850 -23.2434 0.8828 36.1291 8.1569
# 6 -7.5935 -14.1255 -17.6452 -3.6617 8.1569 31.2924
#
#
#
# Elastic Compliance Matrix: (Units=1/GPa)
#
#
# Indices 1 2 3 4 5 6 
#
# 1 0.017968 -0.001656 -0.004840 -0.002446 0.001719 0.000149
# 2 -0.001656 0.020291 -0.009860 0.000868 -0.006494 0.004992
# 3 -0.004840 -0.009860 0.017053 0.001187 0.008477 0.001920
# 4 -0.002446 0.000868 0.001187 0.023060 -0.001193 0.003477
# 5 0.001719 -0.006494 0.008477 -0.001193 0.034731 -0.006927
# 6 0.000149 0.004992 0.001920 0.003477 -0.006927 0.037542
#
#
# Mechanical properties :
#
#
# Convention : Reuss Voigt Hill
#
# Bulk Modulus (GPa) = 44.24535 55.85148 50.04841
# Shear Modulus (GPa) = 26.19321 32.37721 29.28521
#
# Velocity S-wave (km/s) = 3.31869 3.68971 3.50910
# Velocity P-wave (km/s) = 5.76967 6.45262 6.12068
#
# Compressibility (1/GPa) = 0.02260125
#
# Stress axis : x y z
#
# Youngs Moduli (GPa) = 55.65513 49.28353 58.63951
#
# Poissons Ratio (x) = 0.08161 0.28380
# Poissons Ratio (y) = 0.09216 0.57817
# Poissons Ratio (z) = 0.26935 0.48593
#
# Static dielectric constant tensor:
#      x y z
#    x 1.916580 0.025900 0.036290 
#    y 0.025900 1.972770 -0.019830 
#    z 0.036290 -0.019830 1.916410 
# 
# From -- ./inp_files/570159.got.cif
#   From: 2010.05.17/outbox.cif.g08.bks.cpg/sg2_286_cif.got.tgz:570159.got - 2010.06.03 11:33:40.
