data_PCOD9109346
_publ_section_title
;
Structure prediction by ZEFSAII (Michael W. Deem and Ramdas Pophale) SiO2 
 PCOD9109346
Probable space group: P -1
;
_chemical_formula_sum "Si O2"
_cell_formula_units_Z 16
_cell_length_a 13.043784
_cell_length_b 11.920833
_cell_length_c 14.538721
_cell_angle_alpha 149.382089
_cell_angle_beta 42.480159
_cell_angle_gamma 120.963379
_cell_volume 728.542245
_symmetry_space_group_name_H-M "P -1"
_symmetry_group_IT_number 2
_symmetry_cell_setting 'triclinic'
loop_
_space_group_symop_operation_xyz
x,y,z
-x,-y,-z
loop_
_atom_site_type_symbol
_atom_site_label
_atom_site_fract_x
_atom_site_fract_y
_atom_site_fract_z
Si Si1 0.271838 0.694935 0.412162
Si Si2 0.602069 0.734686 0.220252
Si Si3 0.312898 0.204821 0.993885
Si Si4 0.203192 0.681342 0.096806
Si Si5 0.039718 0.924207 0.566535
Si Si6 0.243494 0.292027 0.386286
Si Si7 0.458686 0.915685 0.095248
Si Si8 0.180877 0.827962 0.771593
O O1 0.461975 0.625955 0.215170
O O2 0.224665 0.460033 0.276957
O O3 0.255977 0.787397 0.591290
O O4 0.158967 0.873924 0.539144
O O5 0.500000 0.000000 0.500000
O O6 0.696652 0.736521 0.065780
O O7 0.722144 0.592352 0.120356
O O8 0.493469 0.117519 0.853815
O O9 0.256996 0.984358 0.892009
O O10 0.137905 0.805821 0.326171
O O11 0.063084 0.805939 0.203708
O O12 0.355948 0.755267 0.020705
O O13 0.908879 0.795071 0.579942
O O14 0.345792 0.176444 0.327720
O O15 0.195227 0.571502 0.615958
O O16 0.373492 0.172388 0.135017
O O17 0.000000 0.000000 0.000000
#
# Coordination Sequence:
#
# PCOD9109346 Si02
#       8
#     2   2   2   2   2   2   2   2
#     4  12  23  44  67  96 132 172 220 265 322 391
#     4  12  23  40  67  98 131 164 216 275 317 381
#     4  12  23  40  68  95 124 175 214 262 325 382
#     4  10  20  41  64  98 127 166 220 266 321 389
#     4  10  22  37  69  94 127 175 213 263 330 385
#     4  10  22  42  63  97 131 167 218 268 319 389
#     4  10  21  40  70  92 124 175 217 263 325 385
#     4  12  27  40  61  96 135 165 218 271 318 385
#
# _framework density 21.961663000000001
#
# number of rings (size 3 to 8) (size 9 to 14) (size 15 to 20)
#    0.000    1.000    5.000    1.875    1.750    1.500 
#    0.000    1.875    0.000    0.000    0.000    0.000 
#    0.000    0.000    0.000    0.000    0.000    0.000 
#
# Total GULP energy -89318.913603 kJ/mol
# GULP energy per Si atom -5582.432100 kJ/mol
# Density = 2.191168 g / cm^3
# Si number density = 21.961663 Si / 1000 Ang^3
#
#
#
# Elastic Constant Matrix: (Units=GPa)
#
#
# Indices 1 2 3 4 5 6 
#
# 1 60.8136 9.7846 14.4177 33.5191 -20.2196 -15.6047
# 2 9.7846 74.4750 22.1651 24.1032 -12.7050 -5.7863
# 3 14.4177 22.1651 75.6173 35.2122 -14.3797 2.7792
# 4 33.5191 24.1032 35.2122 55.0233 -10.9327 -20.3571
# 5 -20.2196 -12.7050 -14.3797 -10.9327 36.6450 15.0869
# 6 -15.6047 -5.7863 2.7792 -20.3571 15.0869 37.4810
#
#
#
# Elastic Compliance Matrix: (Units=1/GPa)
#
#
# Indices 1 2 3 4 5 6 
#
# 1 0.032229 0.004206 0.008736 -0.026528 0.018174 -0.008304
# 2 0.004206 0.016983 0.000657 -0.010601 0.007065 -0.004277
# 3 0.008736 0.000657 0.028023 -0.027703 0.015931 -0.019798
# 4 -0.026528 -0.010601 -0.027703 0.064555 -0.023954 0.034077
# 5 0.018174 0.007065 0.015931 -0.023954 0.049323 -0.025388
# 6 -0.008304 -0.004277 -0.019798 0.034077 -0.025388 0.052758
#
#
# Mechanical properties :
#
#
# Convention : Reuss Voigt Hill
#
# Bulk Modulus (GPa) = 9.57532 33.73786 21.65659
# Shear Modulus (GPa) = 19.88202 36.79909 28.34056
#
# Velocity S-wave (km/s) = 3.01209 4.09786 3.59619
# Velocity P-wave (km/s) = 4.05788 6.14699 5.20826
#
# Compressibility (1/GPa) = 0.10443514
#
# Stress axis : x y z
#
# Youngs Moduli (GPa) = 31.02793 58.88226 35.68442
#
# Poissons Ratio (x) = -0.24768 -0.31175
# Poissons Ratio (y) = -0.13051 -0.02345
# Poissons Ratio (z) = -0.27107 -0.03870
#
# Static dielectric constant tensor:
#      x y z
#    x 1.809790 0.081890 -0.125420 
#    y 0.081890 1.898020 0.077350 
#    z -0.125420 0.077350 1.641250 
# 
# From -- ./inp_files/532773.got.cif
#   From: 2010.05.17/outbox.cif.g08.bks.cpg/sg2_267_cif.got.tgz:532773.got - 2010.06.03 11:33:40.
