data_PCOD9109133
_publ_section_title
;
Structure prediction by ZEFSAII (Michael W. Deem and Ramdas Pophale) SiO2 
 PCOD9109133
Probable space group: P -1
;
_chemical_formula_sum "Si O2"
_cell_formula_units_Z 14
_cell_length_a 9.249901
_cell_length_b 7.234356
_cell_length_c 23.596292
_cell_angle_alpha 138.829514
_cell_angle_beta 140.526200
_cell_angle_gamma 70.599933
_cell_volume 531.233064
_symmetry_space_group_name_H-M "P -1"
_symmetry_group_IT_number 2
_symmetry_cell_setting 'triclinic'
loop_
_space_group_symop_operation_xyz
x,y,z
-x,-y,-z
loop_
_atom_site_type_symbol
_atom_site_label
_atom_site_fract_x
_atom_site_fract_y
_atom_site_fract_z
Si Si1 0.658101 0.126841 0.016736
Si Si2 0.529990 0.754204 0.498003
Si Si3 0.259222 0.827547 0.229428
Si Si4 0.909641 0.204609 0.641599
Si Si5 0.640727 0.211079 0.262675
Si Si6 0.203323 0.969201 0.617489
Si Si7 0.897282 0.041868 0.906401
O O1 0.885019 0.541935 0.187801
O O2 0.854181 0.998748 0.033672
O O3 0.500000 0.000000 0.000000
O O4 0.449938 0.002226 0.872099
O O5 0.201997 0.573271 0.368210
O O6 0.500000 0.000000 0.500000
O O7 0.685063 0.937977 0.645355
O O8 0.756270 0.804553 0.533479
O O9 0.210289 0.986284 0.196654
O O10 0.552605 0.881156 0.320237
O O11 0.016337 0.415610 0.056939
O O12 0.084528 0.190945 0.641342
O O13 0.653698 0.014829 0.275649
O O14 0.941284 0.578439 0.434619
O O15 0.381737 0.236376 0.206548
#
# Coordination Sequence:
#
# PCOD9109133 Si02
#       7
#     2   2   2   2   2   2   2
#     4  12  25  38  58  94 122 157 195 252 297 354
#     4   8  21  35  59  87 113 156 197 231 294 359
#     4  10  20  41  63  89 114 160 204 244 291 355
#     4   9  22  38  57  88 122 155 196 230 312 352
#     4  10  24  40  63  89 122 155 203 248 297 345
#     4  10  22  41  63  92 116 159 202 248 292 352
#     4  10  23  39  64  86 120 158 202 245 297 352
#
# _framework density 26.35378
#
# number of rings (size 3 to 8) (size 9 to 14) (size 15 to 20)
#    0.857    1.143    0.000    2.143    8.000    2.286 
#    0.000    0.714    0.000    0.000    0.000    0.000 
#    0.000    0.000    0.000    0.000    0.000    0.000 
#
# Total GULP energy -77965.176496 kJ/mol
# GULP energy per Si atom -5568.941178 kJ/mol
# Density = 2.629380 g / cm^3
# Si number density = 26.353780 Si / 1000 Ang^3
#
#
#
# Elastic Constant Matrix: (Units=GPa)
#
#
# Indices 1 2 3 4 5 6 
#
# 1 93.1435 25.7342 31.0342 -11.0504 8.5766 7.7353
# 2 25.7342 57.2153 14.2228 -17.3274 -1.4198 -1.7199
# 3 31.0342 14.2228 138.4963 -21.9514 -12.2911 20.7985
# 4 -11.0504 -17.3274 -21.9514 30.7179 8.9202 -9.0396
# 5 8.5766 -1.4198 -12.2911 8.9202 49.0751 -11.2471
# 6 7.7353 -1.7199 20.7985 -9.0396 -11.2471 36.7639
#
#
#
# Elastic Compliance Matrix: (Units=1/GPa)
#
#
# Indices 1 2 3 4 5 6 
#
# 1 0.013725 -0.005677 -0.002345 0.000323 -0.003882 -0.002935
# 2 -0.005677 0.024183 0.000071 0.013147 0.000629 0.005711
# 3 -0.002345 0.000071 0.009009 0.004367 0.001147 -0.003176
# 4 0.000323 0.013147 0.004367 0.047113 -0.005304 0.008038
# 5 -0.003882 0.000629 0.001147 -0.005304 0.023735 0.006155
# 6 -0.002935 0.005711 -0.003176 0.008038 0.006155 0.033741
#
#
# Mechanical properties :
#
#
# Convention : Reuss Voigt Hill
#
# Bulk Modulus (GPa) = 32.24327 47.87082 40.05704
# Shear Modulus (GPa) = 28.12967 37.83565 32.98266
#
# Velocity S-wave (km/s) = 3.27063 3.79315 3.54154
# Velocity P-wave (km/s) = 5.15015 6.11458 5.65297
#
# Compressibility (1/GPa) = 0.03101423
#
# Stress axis : x y z
#
# Youngs Moduli (GPa) = 72.85721 41.35199 110.99425
#
# Poissons Ratio (x) = 0.23477 0.26030
# Poissons Ratio (y) = 0.41363 -0.00785
# Poissons Ratio (z) = 0.17086 -0.00292
#
# Static dielectric constant tensor:
#      x y z
#    x 1.403960 0.525830 0.428280 
#    y 0.525830 1.679150 -0.492770 
#    z 0.428280 -0.492770 1.277450 
# 
# From -- ./inp_files/606891.got.cif
#   From: 2010.05.17/outbox.cif.g08.bks.cpg/sg2_304_cif.got.tgz:606891.got - 2010.06.03 11:33:40.
