data_PCOD9109132
_publ_section_title
;
Structure prediction by ZEFSAII (Michael W. Deem and Ramdas Pophale) SiO2 
 PCOD9109132
Probable space group: P -1
;
_chemical_formula_sum "Si O2"
_cell_formula_units_Z 16
_cell_length_a 6.349436
_cell_length_b 22.564330
_cell_length_c 8.096076
_cell_angle_alpha 130.024004
_cell_angle_beta 121.759707
_cell_angle_gamma 54.236058
_cell_volume 699.292384
_symmetry_space_group_name_H-M "P -1"
_symmetry_group_IT_number 2
_symmetry_cell_setting 'triclinic'
loop_
_space_group_symop_operation_xyz
x,y,z
-x,-y,-z
loop_
_atom_site_type_symbol
_atom_site_label
_atom_site_fract_x
_atom_site_fract_y
_atom_site_fract_z
Si Si1 0.194444 0.541876 0.881956
Si Si2 0.477844 0.966435 0.709213
Si Si3 0.189761 0.548342 0.496108
Si Si4 0.049025 0.266074 0.767587
Si Si5 0.086641 0.261785 0.379618
Si Si6 0.694396 0.160708 0.402160
Si Si7 0.957754 0.108047 0.060755
Si Si8 0.443175 0.107604 0.741675
O O1 0.183286 0.543293 0.681912
O O2 0.999742 0.491720 0.748144
O O3 0.500000 0.500000 0.000000
O O4 0.069028 0.637402 0.061743
O O5 0.312941 0.913578 0.615974
O O6 0.615001 0.920878 0.512564
O O7 0.732156 0.951111 0.905457
O O8 0.348077 0.061773 0.765898
O O9 0.500000 0.500000 0.500000
O O10 0.080743 0.645143 0.576817
O O11 0.105065 0.259843 0.583401
O O12 0.848978 0.217944 0.634047
O O13 0.312308 0.207575 0.869756
O O14 0.951068 0.197110 0.158154
O O15 0.387105 0.223342 0.366513
O O16 0.823610 0.123183 0.213863
O O17 0.763317 0.076823 0.823008
#
# Coordination Sequence:
#
# PCOD9109132 Si02
#       8
#     2   2   2   2   2   2   2   2
#     4  11  26  46  68  98 134 168 214 268 320 388
#     4  10  22  44  59  90 130 168 210 261 318 370
#     4  11  26  44  69  98 128 172 212 263 329 388
#     4  11  23  41  65  95 126 166 213 264 313 373
#     4  10  22  42  63  92 130 162 207 264 314 377
#     4  10  20  41  63  88 130 165 208 262 316 367
#     4  10  22  40  62  89 127 165 208 265 309 373
#     4  11  22  40  64  91 127 166 212 264 313 373
#
# _framework density 22.880272999999999
#
# number of rings (size 3 to 8) (size 9 to 14) (size 15 to 20)
#    0.000    1.500    3.750    1.875    3.500    7.000 
#    2.250    0.000    0.000    0.000    0.000    0.000 
#    0.000    0.000    0.000    0.000    0.000    0.000 
#
# Total GULP energy -89493.857932 kJ/mol
# GULP energy per Si atom -5593.366121 kJ/mol
# Density = 2.282820 g / cm^3
# Si number density = 22.880273 Si / 1000 Ang^3
#
#
#
# Elastic Constant Matrix: (Units=GPa)
#
#
# Indices 1 2 3 4 5 6 
#
# 1 103.5532 47.7583 24.4088 3.8726 19.0729 -8.0304
# 2 47.7583 171.0795 37.7092 16.8377 13.9961 -2.7454
# 3 24.4088 37.7092 96.2929 8.8741 21.7590 -7.9065
# 4 3.8726 16.8377 8.8741 39.2278 -3.6625 2.0475
# 5 19.0729 13.9961 21.7590 -3.6625 37.4714 3.6287
# 6 -8.0304 -2.7454 -7.9065 2.0475 3.6287 33.2601
#
#
#
# Elastic Compliance Matrix: (Units=1/GPa)
#
#
# Indices 1 2 3 4 5 6 
#
# 1 0.012308 -0.002781 -0.000517 -0.000567 -0.005294 0.003232
# 2 -0.002781 0.007304 -0.001852 -0.002468 -0.000449 -0.000308
# 3 -0.000517 -0.001852 0.013580 -0.003145 -0.007623 0.003976
# 4 -0.000567 -0.002468 -0.003145 0.028072 0.006118 -0.003484
# 5 -0.005294 -0.000449 -0.007623 0.006118 0.035286 -0.007354
# 6 0.003232 -0.000308 0.003976 -0.003484 -0.007354 0.032783
#
#
# Mechanical properties :
#
#
# Convention : Reuss Voigt Hill
#
# Bulk Modulus (GPa) = 43.68146 65.63090 54.65618
# Shear Modulus (GPa) = 33.95230 39.39516 36.67373
#
# Velocity S-wave (km/s) = 3.85634 4.15395 4.00791
# Velocity P-wave (km/s) = 6.24189 7.19402 6.73480
#
# Compressibility (1/GPa) = 0.02289301
#
# Stress axis : x y z
#
# Youngs Moduli (GPa) = 81.24543 136.90233 73.63643
#
# Poissons Ratio (x) = 0.38076 0.03806
# Poissons Ratio (y) = 0.22596 0.13638
# Poissons Ratio (z) = 0.04199 0.25354
#
# Static dielectric constant tensor:
#      x y z
#    x 1.877610 0.004090 -0.001990 
#    y 0.004090 1.852370 -0.014490 
#    z -0.001990 -0.014490 1.865560 
# 
# From -- ./inp_files/52020.got.cif
#   From: 2010.05.17/outbox.cif.g08.bks.cpg/sg2_27_cif.got.tgz:52020.got - 2010.06.03 11:33:40.
