data_PCOD9109045
_publ_section_title
;
Structure prediction by ZEFSAII (Michael W. Deem and Ramdas Pophale) SiO2 
 PCOD9109045
Probable space group: P -1
;
_chemical_formula_sum "Si O2"
_cell_formula_units_Z 16
_cell_length_a 24.665806
_cell_length_b 8.192712
_cell_length_c 7.019010
_cell_angle_alpha 92.945491
_cell_angle_beta 50.692397
_cell_angle_gamma 60.014555
_cell_volume 794.481866
_symmetry_space_group_name_H-M "P -1"
_symmetry_group_IT_number 2
_symmetry_cell_setting 'triclinic'
loop_
_space_group_symop_operation_xyz
x,y,z
-x,-y,-z
loop_
_atom_site_type_symbol
_atom_site_label
_atom_site_fract_x
_atom_site_fract_y
_atom_site_fract_z
Si Si1 0.164289 0.067201 0.341294
Si Si2 0.096021 0.521514 0.606472
Si Si3 0.197155 0.546335 0.708575
Si Si4 0.288650 0.603022 0.190536
Si Si5 0.272846 0.353596 0.932153
Si Si6 0.624362 0.118344 0.211239
Si Si7 0.937119 0.973416 0.764984
Si Si8 0.473612 0.530524 0.842430
O O1 0.099243 0.319627 0.580576
O O2 0.114957 0.064001 0.269116
O O3 0.195593 0.872409 0.403488
O O4 0.268494 0.977729 0.051525
O O5 0.128201 0.536370 0.741817
O O6 0.001189 0.762912 0.753788
O O7 0.178565 0.448500 0.267699
O O8 0.271862 0.497766 0.385804
O O9 0.248274 0.384273 0.766716
O O10 0.136687 0.794446 0.942306
O O11 0.293907 0.501216 0.970747
O O12 0.384706 0.549373 0.011573
O O13 0.359226 0.093801 0.778990
O O14 0.564422 0.316694 0.510583
O O15 0.566166 0.239630 0.152077
O O16 0.000000 0.000000 0.500000
O O17 0.500000 0.500000 0.000000
#
# Coordination Sequence:
#
# PCOD9109045 Si02
#       8
#     2   2   2   2   2   2   2   2
#     4  10  21  41  62  86 126 160 200 251 303 357
#     4  10  22  39  58  92 122 157 210 254 291 356
#     4  11  22  39  63  86 122 167 198 249 306 351
#     4  10  22  39  60  91 118 159 202 248 299 366
#     4  10  20  41  62  85 124 160 204 243 301 356
#     4   9  22  40  63  87 120 160 195 247 301 352
#     4  12  21  39  64  86 123 162 205 249 305 355
#     4  10  22  39  63  91 123 151 200 248 298 361
#
# _framework density 20.138909000000002
#
# number of rings (size 3 to 8) (size 9 to 14) (size 15 to 20)
#    0.000    1.750    2.500    1.500    1.750    5.500 
#    2.250    2.500    0.000    0.000    0.000    0.000 
#    0.000    0.000    0.000    0.000    0.000    0.000 
#
# Total GULP energy -89359.477872 kJ/mol
# GULP energy per Si atom -5584.967367 kJ/mol
# Density = 2.009307 g / cm^3
# Si number density = 20.138909 Si / 1000 Ang^3
#
#
#
# Elastic Constant Matrix: (Units=GPa)
#
#
# Indices 1 2 3 4 5 6 
#
# 1 93.6384 52.6828 5.9696 -2.0815 30.8295 -10.6801
# 2 52.6828 151.6226 18.4771 11.0250 21.2471 -15.8411
# 3 5.9696 18.4771 26.8662 -0.2560 13.6611 -12.6830
# 4 -2.0815 11.0250 -0.2560 31.2225 -6.8042 8.7971
# 5 30.8295 21.2471 13.6611 -6.8042 25.7952 -2.8049
# 6 -10.6801 -15.8411 -12.6830 8.7971 -2.8049 31.8667
#
#
#
# Elastic Compliance Matrix: (Units=1/GPa)
#
#
# Indices 1 2 3 4 5 6 
#
# 1 0.028387 -0.004043 0.028783 -0.011775 -0.046981 0.018075
# 2 -0.004043 0.009405 -0.002780 -0.005100 -0.002417 0.003409
# 3 0.028783 -0.002780 0.099550 -0.028863 -0.087207 0.048178
# 4 -0.011775 -0.005100 -0.028863 0.050230 0.043767 -0.027984
# 5 -0.046981 -0.002417 -0.087207 0.043767 0.149134 -0.050611
# 6 0.018075 0.003409 0.048178 -0.027984 -0.050611 0.061579
#
#
# Mechanical properties :
#
#
# Convention : Reuss Voigt Hill
#
# Bulk Modulus (GPa) = 5.51687 47.37625 26.44656
# Shear Modulus (GPa) = 12.05448 30.77672 21.41560
#
# Velocity S-wave (km/s) = 2.44922 3.91349 3.26451
# Velocity P-wave (km/s) = 3.27774 6.63297 5.23163
#
# Compressibility (1/GPa) = 0.18126212
#
# Stress axis : x y z
#
# Youngs Moduli (GPa) = 35.22783 106.33207 10.04521
#
# Poissons Ratio (x) = 0.42986 -0.28913
# Poissons Ratio (y) = 0.14241 0.02792
# Poissons Ratio (z) = -1.01395 0.29557
#
# Static dielectric constant tensor:
#      x y z
#    x 1.694610 0.023610 -0.017160 
#    y 0.023610 1.757090 -0.007960 
#    z -0.017160 -0.007960 1.723870 
# 
# From -- ./inp_files/37287.got.cif
#   From: 2010.05.17/outbox.cif.g08.bks.cpg/sg2_19_cif.got.tgz:37287.got - 2010.06.03 11:33:40.
