data_PCOD9109649
_publ_section_title
;
Structure prediction by ZEFSAII (Michael W. Deem and Ramdas Pophale) SiO2 
 PCOD9109649
Probable space group: P -1
;
_chemical_formula_sum "Si O2"
_cell_formula_units_Z 16
_cell_length_a 16.123744
_cell_length_b 14.291021
_cell_length_c 8.360052
_cell_angle_alpha 32.918139
_cell_angle_beta 52.175697
_cell_angle_gamma 46.948599
_cell_volume 761.058766
_symmetry_space_group_name_H-M "P -1"
_symmetry_group_IT_number 2
_symmetry_cell_setting 'triclinic'
loop_
_space_group_symop_operation_xyz
x,y,z
-x,-y,-z
loop_
_atom_site_type_symbol
_atom_site_label
_atom_site_fract_x
_atom_site_fract_y
_atom_site_fract_z
Si Si1 0.258095 0.569193 0.543509
Si Si2 0.977295 0.320795 0.850973
Si Si3 0.420315 0.056007 0.667528
Si Si4 0.878063 0.170720 0.919462
Si Si5 0.900506 0.544022 0.925077
Si Si6 0.592678 0.296362 0.629433
Si Si7 0.814542 0.877169 0.300883
Si Si8 0.475542 0.365455 0.349672
O O1 0.219270 0.428829 0.890254
O O2 0.292410 0.697797 0.441398
O O3 0.361758 0.475818 0.431404
O O4 0.148506 0.686532 0.399415
O O5 0.096285 0.152659 0.907648
O O6 0.000000 0.500000 0.500000
O O7 0.883320 0.278744 0.918797
O O8 0.940419 0.368581 0.007297
O O9 0.292999 0.145754 0.616931
O O10 0.453500 0.199430 0.526682
O O11 0.500000 0.000000 0.500000
O O12 0.430195 0.872639 0.019088
O O13 0.787379 0.075473 0.135284
O O14 0.000000 0.000000 0.000000
O O15 0.875713 0.723909 0.584307
O O16 0.000000 0.500000 0.000000
O O17 0.500000 0.500000 0.500000
O O18 0.577838 0.290232 0.465931
O O19 0.500000 0.500000 0.000000
#
# Coordination Sequence:
#
# PCOD9109649 Si02
#       8
#     2   2   2   2   2   2   2   2
#     4  11  23  42  70  97 136 179 220 281 344 398
#     4   9  20  39  65  93 130 171 221 263 323 402
#     4  12  25  44  71 101 135 176 231 287 346 405
#     4  10  20  41  66  94 132 176 224 272 326 403
#     4  11  24  41  65 101 139 177 224 272 331 405
#     4  10  23  46  67  99 135 169 228 283 343 412
#     4  10  23  41  67  96 133 179 221 270 342 401
#     4  11  27  44  72 100 134 178 231 285 345 413
#
# _framework density 21.023344000000002
#
# number of rings (size 3 to 8) (size 9 to 14) (size 15 to 20)
#    0.000    1.500    1.250    4.125   10.500    0.000 
#    0.000    5.625    2.750    0.000    0.000    0.000 
#    0.000    0.000    0.000    0.000    0.000    0.000 
#
# Total GULP energy -89278.881041 kJ/mol
# GULP energy per Si atom -5579.930065 kJ/mol
# Density = 2.097549 g / cm^3
# Si number density = 21.023344 Si / 1000 Ang^3
#
#
#
# Elastic Constant Matrix: (Units=GPa)
#
#
# Indices 1 2 3 4 5 6 
#
# 1 163.0301 46.4542 36.0876 -4.0161 0.0135 42.4974
# 2 46.4542 66.4634 31.2566 8.2102 -5.8325 19.9011
# 3 36.0876 31.2566 112.3271 4.1917 -0.4571 19.9950
# 4 -4.0161 8.2102 4.1917 35.9114 3.0469 -6.4022
# 5 0.0135 -5.8325 -0.4571 3.0469 39.6523 -9.2001
# 6 42.4974 19.9011 19.9950 -6.4022 -9.2001 39.4657
#
#
#
# Elastic Compliance Matrix: (Units=1/GPa)
#
#
# Indices 1 2 3 4 5 6 
#
# 1 0.009723 -0.004380 -0.000428 0.000846 -0.002698 -0.008536
# 2 -0.004380 0.022369 -0.003656 -0.006309 0.002541 -0.005142
# 3 -0.000428 -0.003656 0.010724 -0.001000 -0.001164 -0.003562
# 4 0.000846 -0.006309 -0.001000 0.030960 -0.001595 0.007428
# 5 -0.002698 0.002541 -0.001164 -0.001595 0.027652 0.008401
# 6 -0.008536 -0.005142 -0.003562 0.007428 0.008401 0.042091
#
#
# Mechanical properties :
#
#
# Convention : Reuss Voigt Hill
#
# Bulk Modulus (GPa) = 38.62815 63.26858 50.94837
# Shear Modulus (GPa) = 29.57257 38.20737 33.88997
#
# Velocity S-wave (km/s) = 3.75461 4.26770 4.01935
# Velocity P-wave (km/s) = 6.09999 7.37862 6.76956
#
# Compressibility (1/GPa) = 0.02588785
#
# Stress axis : x y z
#
# Youngs Moduli (GPa) = 102.85248 44.70551 93.24751
#
# Poissons Ratio (x) = 0.19579 0.03991
# Poissons Ratio (y) = 0.45045 0.34093
# Poissons Ratio (z) = 0.04402 0.16345
#
# Static dielectric constant tensor:
#      x y z
#    x 1.804250 -0.039850 -0.021890 
#    y -0.039850 1.558800 0.122180 
#    z -0.021890 0.122180 1.687210 
# 
# From -- ./inp_files/314381.got.cif
#   From: 2010.05.17/outbox.cif.g08.bks.cpg/sg2_158_cif.got.tgz:314381.got - 2010.06.03 11:33:40.
