data_PCOD9109089
_publ_section_title
;
Structure prediction by ZEFSAII (Michael W. Deem and Ramdas Pophale) SiO2 
 PCOD9109089
Probable space group: P -1
;
_chemical_formula_sum "Si O2"
_cell_formula_units_Z 14
_cell_length_a 13.949783
_cell_length_b 18.774782
_cell_length_c 6.879391
_cell_angle_alpha 80.775985
_cell_angle_beta 96.658570
_cell_angle_gamma 158.104688
_cell_volume 660.567449
_symmetry_space_group_name_H-M "P -1"
_symmetry_group_IT_number 2
_symmetry_cell_setting 'triclinic'
loop_
_space_group_symop_operation_xyz
x,y,z
-x,-y,-z
loop_
_atom_site_type_symbol
_atom_site_label
_atom_site_fract_x
_atom_site_fract_y
_atom_site_fract_z
Si Si1 0.950405 0.976995 0.222503
Si Si2 0.160238 0.629826 0.787966
Si Si3 0.342251 0.949453 0.114524
Si Si4 0.540407 0.533324 0.264872
Si Si5 0.054003 0.421654 0.571001
Si Si6 0.578887 0.701750 0.564724
Si Si7 0.054306 0.208563 0.063139
O O1 0.689854 0.764449 0.346646
O O2 0.176810 0.096768 0.350261
O O3 0.938839 0.056689 0.205487
O O4 0.000000 0.000000 0.000000
O O5 0.043207 0.613487 0.639550
O O6 0.128173 0.538122 0.683076
O O7 0.447226 0.853662 0.816445
O O8 0.000000 0.500000 0.000000
O O9 0.162355 0.779188 0.294096
O O10 0.152795 0.872295 0.985814
O O11 0.500000 0.000000 0.000000
O O12 0.500000 0.500000 0.500000
O O13 0.479373 0.406061 0.264586
O O14 0.298564 0.404603 0.162859
O O15 0.814942 0.728844 0.136268
O O16 0.318543 0.563353 0.542195
#
# Coordination Sequence:
#
# PCOD9109089 Si02
#       7
#     2   2   2   2   2   2   2
#     4  10  22  39  63  96 135 170 218 278 342 408
#     4  11  26  46  71  99 132 183 235 286 349 405
#     4  12  25  47  71 101 143 186 235 289 348 410
#     4  10  20  41  62  93 129 172 220 274 344 403
#     4  11  25  47  69  98 141 178 236 293 337 421
#     4  10  22  39  62  95 129 173 221 275 341 402
#     4  10  23  39  63  97 133 170 227 275 331 415
#
# _framework density 21.193898999999998
#
# number of rings (size 3 to 8) (size 9 to 14) (size 15 to 20)
#    0.000    1.429    2.857    1.286    4.000    1.143 
#    2.571    0.000    0.000    0.000    0.000    0.000 
#    0.000    0.000    0.000    0.000    0.000    0.000 
#
# Total GULP energy -78064.705703 kJ/mol
# GULP energy per Si atom -5576.050407 kJ/mol
# Density = 2.114566 g / cm^3
# Si number density = 21.193899 Si / 1000 Ang^3
#
#
#
# Elastic Constant Matrix: (Units=GPa)
#
#
# Indices 1 2 3 4 5 6 
#
# 1 60.6821 49.4394 30.5950 -1.9317 28.6391 27.5426
# 2 49.4394 134.2288 56.5950 -12.1521 20.5086 16.2128
# 3 30.5950 56.5950 139.4436 -9.5453 12.2761 20.6736
# 4 -1.9317 -12.1521 -9.5453 48.0433 -3.5156 9.9064
# 5 28.6391 20.5086 12.2761 -3.5156 35.2970 -1.5684
# 6 27.5426 16.2128 20.6736 9.9064 -1.5684 46.8929
#
#
#
# Elastic Compliance Matrix: (Units=1/GPa)
#
#
# Indices 1 2 3 4 5 6 
#
# 1 0.065367 -0.012284 0.000515 0.003736 -0.047340 -0.036746
# 2 -0.012284 0.012289 -0.003196 0.001422 0.004267 0.004217
# 3 0.000515 -0.003196 0.009163 0.001657 -0.001744 -0.003645
# 4 0.003736 0.001422 0.001657 0.023204 -0.002496 -0.008402
# 5 -0.047340 0.004267 -0.001744 -0.002496 0.065946 0.029832
# 6 -0.036746 0.004217 -0.003645 -0.008402 0.029832 0.045830
#
#
# Mechanical properties :
#
#
# Convention : Reuss Voigt Hill
#
# Bulk Modulus (GPa) = 17.57801 67.51259 42.54530
# Shear Modulus (GPa) = 18.47122 39.22831 28.84977
#
# Velocity S-wave (km/s) = 2.95538 4.30690 3.69349
# Velocity P-wave (km/s) = 4.46739 7.52705 6.18927
#
# Compressibility (1/GPa) = 0.05688927
#
# Stress axis : x y z
#
# Youngs Moduli (GPa) = 15.29826 81.37128 109.13367
#
# Poissons Ratio (x) = 0.99952 -0.05617
# Poissons Ratio (y) = 0.18792 0.34881
# Poissons Ratio (z) = -0.00787 0.26008
#
# Static dielectric constant tensor:
#      x y z
#    x 1.840320 -0.102250 -0.089850 
#    y -0.102250 1.931680 0.091810 
#    z -0.089850 0.091810 1.832620 
# 
# From -- ./inp_files/100579.got.cif
#   From: 2010.05.17/outbox.cif.g08.bks.cpg/sg2_51_cif.got.tgz:100579.got - 2010.06.03 11:33:40.
