data_PCOD9109796
_publ_section_title
;
Structure prediction by ZEFSAII (Michael W. Deem and Ramdas Pophale) SiO2 
 PCOD9109796
Probable space group: P -1
;
_chemical_formula_sum "Si O2"
_cell_formula_units_Z 14
_cell_length_a 15.111601
_cell_length_b 5.268452
_cell_length_c 26.111392
_cell_angle_alpha 93.423308
_cell_angle_beta 19.703858
_cell_angle_gamma 82.241002
_cell_volume 575.750063
_symmetry_space_group_name_H-M "P -1"
_symmetry_group_IT_number 2
_symmetry_cell_setting 'triclinic'
loop_
_space_group_symop_operation_xyz
x,y,z
-x,-y,-z
loop_
_atom_site_type_symbol
_atom_site_label
_atom_site_fract_x
_atom_site_fract_y
_atom_site_fract_z
Si Si1 0.283150 0.043438 0.837381
Si Si2 0.148050 0.588163 0.533351
Si Si3 0.151860 0.625936 0.715680
Si Si4 0.191463 0.137946 0.375726
Si Si5 0.155263 0.246045 0.619175
Si Si6 0.323977 0.305766 0.721210
Si Si7 0.299335 0.858656 0.097816
O O1 0.598048 0.741709 0.636400
O O2 0.453685 0.053839 0.796153
O O3 0.161958 0.296500 0.861105
O O4 0.000000 0.000000 0.000000
O O5 0.027492 0.496640 0.646894
O O6 0.382404 0.693973 0.416541
O O7 0.857087 0.832523 0.658696
O O8 0.500000 0.500000 0.500000
O O9 0.089133 0.412217 0.711667
O O10 0.156149 0.565380 0.772536
O O11 0.880915 0.981981 0.855087
O O12 0.000000 0.500000 0.500000
O O13 0.000000 0.000000 0.500000
O O14 0.006329 0.047113 0.700026
O O15 0.524102 0.004755 0.400021
O O16 0.500000 0.500000 0.000000
O O17 0.500000 0.000000 0.000000
#
# Coordination Sequence:
#
# PCOD9109796 Si02
#       7
#     2   2   2   2   2   2   2
#     4  10  23  42  67 100 142 181 235 310 365 418
#     4  10  21  40  68  98 134 182 241 288 353 441
#     4  12  23  41  73 104 139 191 241 292 350 435
#     4  10  20  41  67  93 127 181 225 281 351 425
#     4  11  22  41  70  99 142 185 240 289 350 427
#     4  11  22  39  70 103 136 184 247 296 353 430
#     4  12  26  45  66  97 144 188 231 297 360 410
#
# _framework density 24.316108
#
# number of rings (size 3 to 8) (size 9 to 14) (size 15 to 20)
#    0.000    1.143    5.714    0.429    0.000    0.571 
#    2.571    0.000    0.000    0.000    0.000    0.000 
#    0.000    0.000    0.000    0.000    0.000    0.000 
#
# Total GULP energy -78063.925066 kJ/mol
# GULP energy per Si atom -5575.994648 kJ/mol
# Density = 2.426076 g / cm^3
# Si number density = 24.316108 Si / 1000 Ang^3
#
#
#
# Elastic Constant Matrix: (Units=GPa)
#
#
# Indices 1 2 3 4 5 6 
#
# 1 118.7789 68.8635 54.8840 -15.4443 -29.6422 -50.6169
# 2 68.8635 170.5662 59.9528 -19.0766 -28.6301 -42.2340
# 3 54.8840 59.9528 88.3716 -8.5643 -34.0521 -32.1054
# 4 -15.4443 -19.0766 -8.5643 64.2028 0.8516 1.1091
# 5 -29.6422 -28.6301 -34.0521 0.8516 39.3862 9.1578
# 6 -50.6169 -42.2340 -32.1054 1.1091 9.1578 60.2717
#
#
#
# Elastic Compliance Matrix: (Units=1/GPa)
#
#
# Indices 1 2 3 4 5 6 
#
# 1 0.017492 -0.001964 -0.002686 0.002989 0.006842 0.010789
# 2 -0.001964 0.008841 -0.002989 0.001687 0.001709 0.002663
# 3 -0.002686 -0.002989 0.022500 0.001187 0.013956 0.005493
# 4 0.002989 0.001687 0.001187 0.016850 0.003322 0.003510
# 5 0.006842 0.001709 0.013956 0.003322 0.041928 0.007946
# 6 0.010789 0.002663 0.005493 0.003510 0.007946 0.029172
#
#
# Mechanical properties :
#
#
# Convention : Reuss Voigt Hill
#
# Bulk Modulus (GPa) = 29.80055 82.79082 56.29568
# Shear Modulus (GPa) = 30.62869 45.70655 38.16762
#
# Velocity S-wave (km/s) = 3.55294 4.34023 3.96617
# Velocity P-wave (km/s) = 5.39567 7.69665 6.64649
#
# Compressibility (1/GPa) = 0.03355642
#
# Stress axis : x y z
#
# Youngs Moduli (GPa) = 57.16779 113.10560 44.44502
#
# Poissons Ratio (x) = 0.22215 0.11936
# Poissons Ratio (y) = 0.11229 0.13283
# Poissons Ratio (z) = 0.15353 0.33804
#
# Static dielectric constant tensor:
#      x y z
#    x 2.104930 0.057960 -0.054040 
#    y 0.057960 2.024680 0.033140 
#    z -0.054040 0.033140 2.083440 
# 
# From -- ./inp_files/485500.got.cif
#   From: 2010.05.17/outbox.cif.g08.bks.cpg/sg2_243_cif.got.tgz:485500.got - 2010.06.03 11:33:40.
