data_PCOD9109662
_publ_section_title
;
Structure prediction by ZEFSAII (Michael W. Deem and Ramdas Pophale) SiO2 
 PCOD9109662
Probable space group: P -1
;
_chemical_formula_sum "Si O2"
_cell_formula_units_Z 15
_cell_length_a 14.588586
_cell_length_b 8.439949
_cell_length_c 7.934729
_cell_angle_alpha 45.382196
_cell_angle_beta 68.169637
_cell_angle_gamma 70.605098
_cell_volume 641.825525
_symmetry_space_group_name_H-M "P -1"
_symmetry_group_IT_number 2
_symmetry_cell_setting 'triclinic'
loop_
_space_group_symop_operation_xyz
x,y,z
-x,-y,-z
loop_
_atom_site_type_symbol
_atom_site_label
_atom_site_fract_x
_atom_site_fract_y
_atom_site_fract_z
Si Si1 0.632597 0.153345 0.700536
Si Si2 0.718352 0.433839 0.954213
Si Si3 0.818796 0.128433 0.379985
Si Si4 0.443290 0.006794 0.772103
Si Si5 0.500000 0.500000 0.000000
Si Si6 0.093578 0.312189 0.282653
Si Si7 0.301522 0.422495 0.507532
Si Si8 0.895384 0.561722 0.179763
O O1 0.737487 0.061010 0.619314
O O2 0.642131 0.418018 0.526687
O O3 0.544934 0.109404 0.667902
O O4 0.608002 0.038618 0.978939
O O5 0.803127 0.592885 0.818532
O O6 0.717242 0.427203 0.757828
O O7 0.758027 0.211208 0.193845
O O8 0.606328 0.529865 0.005341
O O9 0.864968 0.336550 0.277393
O O10 0.901668 0.923106 0.451588
O O11 0.373398 0.201227 0.580950
O O12 0.462251 0.768280 0.848265
O O13 0.998535 0.487410 0.258206
O O14 0.088733 0.280090 0.107222
O O15 0.198601 0.361894 0.698616
#
# Coordination Sequence:
#
# PCOD9109662 Si02
#       8
#     2   2   2   2   1   2   2   2
#     4  10  22  42  65  96 125 174 229 270 324 394
#     4  11  26  39  60  95 134 170 220 266 329 399
#     4  10  21  39  66  93 131 168 219 271 326 395
#     4  11  24  41  68  92 131 175 224 278 330 390
#     4  12  26  44  60  98 134 172 222 266 332 396
#     4  10  20  41  66  95 129 170 218 274 329 386
#     4  11  23  42  65  95 134 173 218 277 331 394
#     4   9  21  40  68  96 124 168 226 271 324 395
#
# _framework density 23.370839
#
# number of rings (size 3 to 8) (size 9 to 14) (size 15 to 20)
#    0.000    1.600    1.333    2.400    3.733    6.400 
#    0.000    0.667    0.000    0.000    0.000    0.000 
#    0.000    0.000    0.000    0.000    0.000    0.000 
#
# Total GULP energy -83611.258481 kJ/mol
# GULP energy per Si atom -5574.083899 kJ/mol
# Density = 2.331765 g / cm^3
# Si number density = 23.370839 Si / 1000 Ang^3
#
#
#
# Elastic Constant Matrix: (Units=GPa)
#
#
# Indices 1 2 3 4 5 6 
#
# 1 144.7790 35.6493 35.5166 -18.8633 6.7948 -11.7144
# 2 35.6493 72.8672 23.0073 -18.8314 6.5334 -2.3747
# 3 35.5166 23.0073 51.7095 1.1280 4.8246 -9.9847
# 4 -18.8633 -18.8314 1.1280 32.0942 -8.5013 -2.1962
# 5 6.7948 6.5334 4.8246 -8.5013 33.7077 -5.2759
# 6 -11.7144 -2.3747 -9.9847 -2.1962 -5.2759 24.0750
#
#
#
# Elastic Compliance Matrix: (Units=1/GPa)
#
#
# Indices 1 2 3 4 5 6 
#
# 1 0.009520 -0.001530 -0.005505 0.005346 0.000967 0.002898
# 2 -0.001530 0.019881 -0.008282 0.011043 0.000244 -0.001157
# 3 -0.005505 -0.008282 0.028594 -0.009327 -0.002645 0.006933
# 4 0.005346 0.011043 -0.009327 0.044234 0.010228 0.006099
# 5 0.000967 0.000244 -0.002645 0.010228 0.033586 0.007691
# 6 0.002898 -0.001157 0.006933 0.006099 0.007691 0.047950
#
#
# Mechanical properties :
#
#
# Convention : Reuss Voigt Hill
#
# Bulk Modulus (GPa) = 36.54932 50.85577 43.70254
# Shear Modulus (GPa) = 22.36931 29.65421 26.01176
#
# Velocity S-wave (km/s) = 3.09713 3.56596 3.33979
# Velocity P-wave (km/s) = 5.33502 6.22594 5.79762
#
# Compressibility (1/GPa) = 0.02736029
#
# Stress axis : x y z
#
# Youngs Moduli (GPa) = 105.04318 50.29815 34.97229
#
# Poissons Ratio (x) = 0.07696 0.19253
# Poissons Ratio (y) = 0.16072 0.28965
# Poissons Ratio (z) = 0.57829 0.41658
#
# Static dielectric constant tensor:
#      x y z
#    x 2.429210 0.199050 0.127930 
#    y 0.199050 1.947290 0.073410 
#    z 0.127930 0.073410 1.994670 
# 
# From -- ./inp_files/288181.got.cif
#   From: 2010.05.17/outbox.cif.g08.bks.cpg/sg2_145_cif.got.tgz:288181.got - 2010.06.03 11:33:40.
