data_PCOD9109700
_publ_section_title
;
Structure prediction by ZEFSAII (Michael W. Deem and Ramdas Pophale) SiO2 
 PCOD9109700
Probable space group: P -1
;
_chemical_formula_sum "Si O2"
_cell_formula_units_Z 14
_cell_length_a 11.613936
_cell_length_b 8.568314
_cell_length_c 10.109057
_cell_angle_alpha 71.564273
_cell_angle_beta 65.942104
_cell_angle_gamma 116.557747
_cell_volume 650.878521
_symmetry_space_group_name_H-M "P -1"
_symmetry_group_IT_number 2
_symmetry_cell_setting 'triclinic'
loop_
_space_group_symop_operation_xyz
x,y,z
-x,-y,-z
loop_
_atom_site_type_symbol
_atom_site_label
_atom_site_fract_x
_atom_site_fract_y
_atom_site_fract_z
Si Si1 0.557279 0.692776 0.823471
Si Si2 0.038450 0.511102 0.304129
Si Si3 0.902970 0.142058 0.650191
Si Si4 0.620344 0.836555 0.480010
Si Si5 0.976591 0.027593 0.157394
Si Si6 0.304996 0.734246 0.580625
Si Si7 0.786768 0.457467 0.034369
O O1 0.575636 0.670552 0.663149
O O2 0.736428 0.915845 0.728983
O O3 0.500000 0.500000 0.000000
O O4 0.398012 0.677302 0.904460
O O5 0.140638 0.729263 0.283861
O O6 0.108922 0.560079 0.111637
O O7 0.022545 0.317082 0.430175
O O8 0.847617 0.414394 0.408861
O O9 0.989109 0.092460 0.725709
O O10 0.462053 0.747308 0.485516
O O11 0.788581 0.932530 0.299485
O O12 0.646903 0.031891 0.495319
O O13 0.112562 0.285447 0.061652
O O14 0.000000 0.000000 0.000000
O O15 0.237660 0.638602 0.784652
#
# Coordination Sequence:
#
# PCOD9109700 Si02
#       7
#     2   2   2   2   2   2   2
#     4  11  22  42  66  98 134 169 221 269 334 394
#     4  11  23  43  68  97 132 176 221 272 329 396
#     4  11  25  42  64  97 136 169 221 278 328 389
#     4  10  23  40  69  96 131 178 217 271 328 391
#     4  12  25  43  66 101 133 174 224 275 331 392
#     4  10  20  41  66  98 127 172 223 267 325 396
#     4  11  23  38  70  96 128 181 220 268 332 392
#
# _framework density 21.50939
#
# number of rings (size 3 to 8) (size 9 to 14) (size 15 to 20)
#    0.000    1.143    4.286    1.286    4.000    1.714 
#    0.000    9.286    0.000    0.000    0.000    0.000 
#    0.000    0.000    0.000    0.000    0.000    0.000 
#
# Total GULP energy -78209.357203 kJ/mol
# GULP energy per Si atom -5586.382657 kJ/mol
# Density = 2.146043 g / cm^3
# Si number density = 21.509390 Si / 1000 Ang^3
#
#
#
# Elastic Constant Matrix: (Units=GPa)
#
#
# Indices 1 2 3 4 5 6 
#
# 1 132.2899 3.6724 62.2217 17.7820 -0.8242 12.7182
# 2 3.6724 28.4946 7.6071 8.9644 -7.3722 -1.8104
# 3 62.2217 7.6071 101.9965 -8.8745 1.3086 -13.0195
# 4 17.7820 8.9644 -8.8745 17.3590 -6.1025 9.2317
# 5 -0.8242 -7.3722 1.3086 -6.1025 44.9591 -3.1622
# 6 12.7182 -1.8104 -13.0195 9.2317 -3.1622 14.1010
#
#
#
# Elastic Compliance Matrix: (Units=1/GPa)
#
#
# Indices 1 2 3 4 5 6 
#
# 1 0.021137 0.008862 -0.018112 -0.027078 -0.002538 -0.017490
# 2 0.008862 0.058235 -0.011282 -0.058535 0.004086 0.028306
# 3 -0.018112 -0.011282 0.026893 0.026900 0.002277 0.022617
# 4 -0.027078 -0.058535 0.026900 0.166888 0.007138 -0.065914
# 5 -0.002538 0.004086 0.002277 0.007138 0.024167 0.005662
# 6 -0.017490 0.028306 0.022617 -0.065914 0.005662 0.155631
#
#
# Mechanical properties :
#
#
# Convention : Reuss Voigt Hill
#
# Bulk Modulus (GPa) = 15.33695 45.53147 30.43421
# Shear Modulus (GPa) = 9.69467 27.90248 18.79857
#
# Velocity S-wave (km/s) = 2.12532 3.60561 2.95951
# Velocity P-wave (km/s) = 3.62884 6.20870 5.08510
#
# Compressibility (1/GPa) = 0.06520203
#
# Stress axis : x y z
#
# Youngs Moduli (GPa) = 47.30984 17.17191 37.18497
#
# Poissons Ratio (x) = -0.15218 0.67348
# Poissons Ratio (y) = -0.41926 0.41951
# Poissons Ratio (z) = 0.85685 0.19373
#
# Static dielectric constant tensor:
#      x y z
#    x 1.827040 -0.004200 0.022610 
#    y -0.004200 1.787430 -0.038670 
#    z 0.022610 -0.038670 1.809090 
# 
# From -- ./inp_files/242969.got.cif
#   From: 2010.05.17/outbox.cif.g08.bks.cpg/sg2_122_cif.got.tgz:242969.got - 2010.06.03 11:33:40.
