data_PCOD9109050
_publ_section_title
;
Structure prediction by ZEFSAII (Michael W. Deem and Ramdas Pophale) SiO2 
 PCOD9109050
Probable space group: P -1
;
_chemical_formula_sum "Si O2"
_cell_formula_units_Z 12
_cell_length_a 12.106666
_cell_length_b 10.394445
_cell_length_c 13.542368
_cell_angle_alpha 142.494230
_cell_angle_beta 33.272657
_cell_angle_gamma 121.095378
_cell_volume 511.337797
_symmetry_space_group_name_H-M "P -1"
_symmetry_group_IT_number 2
_symmetry_cell_setting 'triclinic'
loop_
_space_group_symop_operation_xyz
x,y,z
-x,-y,-z
loop_
_atom_site_type_symbol
_atom_site_label
_atom_site_fract_x
_atom_site_fract_y
_atom_site_fract_z
Si Si1 0.503413 0.330542 0.307503
Si Si2 0.212596 0.521497 0.962046
Si Si3 0.152591 0.484790 0.499700
Si Si4 0.090108 0.109143 0.204685
Si Si5 0.431140 0.648687 0.044063
Si Si6 0.197082 0.123359 0.622979
O O1 0.500000 0.500000 0.500000
O O2 0.660221 0.360611 0.125146
O O3 0.266617 0.416134 0.480173
O O4 0.649394 0.071120 0.083932
O O5 0.300919 0.251657 0.696728
O O6 0.258916 0.575289 0.070171
O O7 0.957691 0.666392 0.206789
O O8 0.044963 0.313947 0.443081
O O9 0.983790 0.753934 0.761365
O O10 0.357965 0.421295 0.229450
O O11 0.943921 0.972331 0.260051
O O12 0.333905 0.912554 0.318217
O O13 0.500000 0.500000 0.000000
#
# Coordination Sequence:
#
# PCOD9109050 Si02
#       6
#     2   2   2   2   2   2
#     4  10  22  40  60  89 120 160 200 244 305 355
#     4   9  22  40  60  90 121 152 204 253 290 362
#     4  10  22  41  61  89 120 155 204 248 294 365
#     4  10  21  41  61  87 124 154 199 252 297 357
#     4  11  21  38  63  89 117 161 198 240 309 356
#     4  10  20  41  62  87 122 157 198 250 302 351
#
# _framework density 23.467852000000001
#
# number of rings (size 3 to 8) (size 9 to 14) (size 15 to 20)
#    0.000    2.000    1.667    1.000    2.333    1.333 
#    9.000    0.000    0.000    0.000    0.000    0.000 
#    0.000    0.000    0.000    0.000    0.000    0.000 
#
# Total GULP energy -66990.970046 kJ/mol
# GULP energy per Si atom -5582.580837 kJ/mol
# Density = 2.341444 g / cm^3
# Si number density = 23.467852 Si / 1000 Ang^3
#
#
#
# Elastic Constant Matrix: (Units=GPa)
#
#
# Indices 1 2 3 4 5 6 
#
# 1 -6.4076 47.8927 215.2395 46.5587 -23.7680 -36.1114
# 2 47.8927 33.4812 8.5602 13.0224 -2.3628 14.2153
# 3 215.2395 8.5602 2.0704 17.7608 9.4794 5.8907
# 4 46.5587 13.0224 17.7608 26.4433 -1.5767 12.0562
# 5 -23.7680 -2.3628 9.4794 -1.5767 32.4346 2.0513
# 6 -36.1114 14.2153 5.8907 12.0562 2.0513 22.8354
#
#
#
# Elastic Compliance Matrix: (Units=1/GPa)
#
#
# Indices 1 2 3 4 5 6 
#
# 1 0.000547 -0.001789 0.006897 -0.006636 -0.002315 0.003912
# 2 -0.001789 0.049139 -0.016735 0.005819 0.009531 -0.033030
# 3 0.006897 -0.016735 0.015524 -0.029836 -0.004269 0.033455
# 4 -0.006636 0.005819 -0.029836 0.093311 0.012409 -0.056799
# 5 -0.002315 0.009531 -0.004269 0.012409 0.032818 -0.017992
# 6 0.003912 -0.033030 0.033455 -0.056799 -0.017992 0.093513
#
#
# Mechanical properties :
#
#
# Convention : Reuss Voigt Hill
#
# Bulk Modulus (GPa) = 23.83505 63.61432 43.72468
# Shear Modulus (GPa) = 15.52348 0.17278 7.84813
#
# Velocity S-wave (km/s) = 2.57471 0.27164 1.83070
# Velocity P-wave (km/s) = 4.36089 5.22152 4.81049
#
# Compressibility (1/GPa) = 0.04195502
#
# Stress axis : x y z
#
# Youngs Moduli (GPa) = 1827.14260 20.35059 64.41563
#
# Poissons Ratio (x) = 0.03641 -0.44425
# Poissons Ratio (y) = 3.26921 1.07799
# Poissons Ratio (z) = -12.60100 0.34056
#
# Static dielectric constant tensor:
#      x y z
#    x 2.087180 0.032650 0.190900 
#    y 0.032650 1.955820 0.000910 
#    z 0.190900 0.000910 2.367470 
# 
# From -- ./inp_files/100742.got.cif
#   From: 2010.05.17/outbox.cif.g08.bks.cpg/sg2_51_cif.got.tgz:100742.got - 2010.06.03 11:33:40.
