data_PCOD9109955
_publ_section_title
;
Structure prediction by ZEFSAII (Michael W. Deem and Ramdas Pophale) SiO2 
 PCOD9109955
Probable space group: P -1
;
_chemical_formula_sum "Si O2"
_cell_formula_units_Z 14
_cell_length_a 20.667227
_cell_length_b 19.727804
_cell_length_c 10.903429
_cell_angle_alpha 28.086237
_cell_angle_beta 21.570076
_cell_angle_gamma 20.772434
_cell_volume 576.868503
_symmetry_space_group_name_H-M "P -1"
_symmetry_group_IT_number 2
_symmetry_cell_setting 'triclinic'
loop_
_space_group_symop_operation_xyz
x,y,z
-x,-y,-z
loop_
_atom_site_type_symbol
_atom_site_label
_atom_site_fract_x
_atom_site_fract_y
_atom_site_fract_z
Si Si1 0.439797 0.092028 0.143483
Si Si2 0.630809 0.737967 0.492071
Si Si3 0.257964 0.295050 0.387106
Si Si4 0.687756 0.260584 0.406431
Si Si5 0.335208 0.684018 0.368322
Si Si6 0.992870 0.640398 0.695377
Si Si7 0.879560 0.120852 0.798665
O O1 0.307374 0.166928 0.389218
O O2 0.253194 0.197195 0.196800
O O3 0.608026 0.864588 0.220855
O O4 0.591709 0.152785 0.767305
O O5 0.704495 0.779915 0.420822
O O6 0.824681 0.512753 0.485588
O O7 0.377949 0.798920 0.846362
O O8 0.000000 0.500000 0.500000
O O9 0.458019 0.309788 0.002115
O O10 0.467170 0.475029 0.409677
O O11 0.743853 0.299424 0.379255
O O12 0.920719 0.106584 0.163187
O O13 0.128809 0.848302 0.382848
O O14 0.074326 0.749284 0.431282
O O15 0.000000 0.500000 0.000000
#
# Coordination Sequence:
#
# PCOD9109955 Si02
#       7
#     2   2   2   2   2   2   2
#     4  11  24  42  66  98 127 169 213 263 320 380
#     4  11  25  43  67  96 128 168 215 267 323 375
#     4  10  20  41  68  95 127 161 208 269 323 372
#     4  10  21  40  63  94 125 169 211 260 318 374
#     4   9  21  39  63  92 128 166 209 261 316 378
#     4  12  26  44  65  92 131 176 216 262 311 381
#     4  11  24  40  64  92 128 168 213 261 314 381
#
# _framework density 24.268961999999998
#
# number of rings (size 3 to 8) (size 9 to 14) (size 15 to 20)
#    0.000    1.429    1.429    3.000    2.000    4.000 
#    2.571    0.000    0.000    0.000    0.000    0.000 
#    0.000    0.000    0.000    0.000    0.000    0.000 
#
# Total GULP energy -78326.740729 kJ/mol
# GULP energy per Si atom -5594.767195 kJ/mol
# Density = 2.421372 g / cm^3
# Si number density = 24.268962 Si / 1000 Ang^3
#
#
#
# Elastic Constant Matrix: (Units=GPa)
#
#
# Indices 1 2 3 4 5 6 
#
# 1 100.1089 26.8619 24.1318 0.4786 -14.8120 -13.3012
# 2 26.8619 117.8930 4.8999 -0.9446 -9.1269 -15.5306
# 3 24.1318 4.8999 53.6665 -6.8685 -21.9687 -8.6815
# 4 0.4786 -0.9446 -6.8685 35.3788 1.8808 -0.8200
# 5 -14.8120 -9.1269 -21.9687 1.8808 26.9219 5.1829
# 6 -13.3012 -15.5306 -8.6815 -0.8200 5.1829 37.7503
#
#
#
# Elastic Compliance Matrix: (Units=1/GPa)
#
#
# Indices 1 2 3 4 5 6 
#
# 1 0.012192 -0.002161 -0.004163 -0.001101 0.002247 0.002117
# 2 -0.002161 0.009551 0.001894 0.000570 0.002937 0.003213
# 3 -0.004163 0.001894 0.030681 0.004952 0.022387 0.003402
# 4 -0.001101 0.000570 0.004952 0.029221 0.001310 0.001440
# 5 0.002247 0.002937 0.022387 0.001310 0.057696 -0.000745
# 6 0.002117 0.003213 0.003402 0.001440 -0.000745 0.029473
#
#
# Mechanical properties :
#
#
# Convention : Reuss Voigt Hill
#
# Bulk Modulus (GPa) = 22.95470 42.60618 32.78044
# Shear Modulus (GPa) = 26.01520 34.39518 30.20519
#
# Velocity S-wave (km/s) = 3.27762 3.76872 3.53172
# Velocity P-wave (km/s) = 4.87880 6.04414 5.49247
#
# Compressibility (1/GPa) = 0.04356406
#
# Stress axis : x y z
#
# Youngs Moduli (GPa) = 82.02409 104.70072 32.59329
#
# Poissons Ratio (x) = 0.22624 0.13570
# Poissons Ratio (y) = 0.17724 -0.06175
# Poissons Ratio (z) = 0.34151 -0.19835
#
# Static dielectric constant tensor:
#      x y z
#    x 1.981150 0.031040 0.083660 
#    y 0.031040 1.936080 0.015140 
#    z 0.083660 0.015140 1.915010 
# 
# From -- ./inp_files/68741.got.cif
#   From: 2010.05.17/outbox.cif.g08.bks.cpg/sg2_35_cif.got.tgz:68741.got - 2010.06.03 11:33:40.
