data_PCOD9109285
_publ_section_title
;
Structure prediction by ZEFSAII (Michael W. Deem and Ramdas Pophale) SiO2 
 PCOD9109285
Probable space group: P -1
;
_chemical_formula_sum "Si O2"
_cell_formula_units_Z 16
_cell_length_a 8.296452
_cell_length_b 7.809432
_cell_length_c 18.788011
_cell_angle_alpha 69.569519
_cell_angle_beta 46.401993
_cell_angle_gamma 55.223305
_cell_volume 722.084395
_symmetry_space_group_name_H-M "P -1"
_symmetry_group_IT_number 2
_symmetry_cell_setting 'triclinic'
loop_
_space_group_symop_operation_xyz
x,y,z
-x,-y,-z
loop_
_atom_site_type_symbol
_atom_site_label
_atom_site_fract_x
_atom_site_fract_y
_atom_site_fract_z
Si Si1 0.620052 0.788365 0.540379
Si Si2 0.177946 0.084568 0.400173
Si Si3 0.242950 0.534780 0.909507
Si Si4 0.196229 0.820317 0.753235
Si Si5 0.735815 0.802242 0.252764
Si Si6 0.336813 0.903685 0.095470
Si Si7 0.769625 0.497655 0.411996
Si Si8 0.220219 0.693538 0.038740
O O1 0.742890 0.824592 0.568390
O O2 0.393222 0.743950 0.640157
O O3 0.798647 0.606548 0.459263
O O4 0.500000 0.000000 0.500000
O O5 0.004565 0.267247 0.372932
O O6 0.436856 0.911831 0.308837
O O7 0.000000 0.000000 0.500000
O O8 0.252316 0.634242 0.817642
O O9 0.490103 0.313861 0.885306
O O10 0.218923 0.701009 0.953426
O O11 0.000000 0.500000 0.000000
O O12 0.236600 0.005916 0.749096
O O13 0.898073 0.934237 0.809509
O O14 0.772701 0.635439 0.325883
O O15 0.963299 0.690631 0.142543
O O16 0.219465 0.868978 0.063291
O O17 0.500000 0.000000 0.000000
O O18 0.500000 0.500000 0.500000
O O19 0.500000 0.500000 0.000000
#
# Coordination Sequence:
#
# PCOD9109285 Si02
#       8
#     2   2   2   2   2   2   2   2
#     4  11  22  44  68  94 132 175 215 272 331 390
#     4  11  22  42  66  98 133 172 222 273 327 391
#     4  11  22  41  63  94 129 164 215 268 315 383
#     4  10  22  40  67  90 130 165 215 265 324 383
#     4  10  22  42  67  94 131 170 222 265 330 388
#     4  10  20  41  64  92 129 166 210 266 321 383
#     4  12  23  43  69  94 135 173 217 279 323 390
#     4   9  22  41  68  91 129 170 213 262 329 383
#
# _framework density 22.158073999999999
#
# number of rings (size 3 to 8) (size 9 to 14) (size 15 to 20)
#    0.000    1.500    5.000    0.375    0.000    9.000 
#    2.250    2.500    2.750    0.000    0.000    0.000 
#    0.000    0.000    0.000    0.000    0.000    0.000 
#
# Total GULP energy -89332.591753 kJ/mol
# GULP energy per Si atom -5583.286985 kJ/mol
# Density = 2.210764 g / cm^3
# Si number density = 22.158074 Si / 1000 Ang^3
#
#
#
# Elastic Constant Matrix: (Units=GPa)
#
#
# Indices 1 2 3 4 5 6 
#
# 1 64.3726 26.3444 22.6163 1.5414 -9.6035 -13.8650
# 2 26.3444 126.5967 65.2115 -12.4973 -3.7023 -43.3587
# 3 22.6163 65.2115 147.6620 -1.4017 -15.9549 -23.4721
# 4 1.5414 -12.4973 -1.4017 45.4629 -3.1342 -2.6075
# 5 -9.6035 -3.7023 -15.9549 -3.1342 33.4248 2.2599
# 6 -13.8650 -43.3587 -23.4721 -2.6075 2.2599 38.2565
#
#
#
# Elastic Compliance Matrix: (Units=1/GPa)
#
#
# Indices 1 2 3 4 5 6 
#
# 1 0.018073 -0.002146 -0.000843 -0.000746 0.004260 0.003298
# 2 -0.002146 0.016532 -0.004613 0.005262 -0.001547 0.015578
# 3 -0.000843 -0.004613 0.009311 -0.000707 0.003631 -0.000084
# 4 -0.000746 0.005262 -0.000707 0.023960 0.001819 0.006785
# 5 0.004260 -0.001547 0.003631 0.001819 0.032860 0.000201
# 6 0.003298 0.015578 -0.000084 0.006785 0.000201 0.045390
#
#
# Mechanical properties :
#
#
# Convention : Reuss Voigt Hill
#
# Bulk Modulus (GPa) = 34.83010 62.99731 48.91370
# Shear Modulus (GPa) = 29.25685 38.39277 33.82481
#
# Velocity S-wave (km/s) = 3.63763 4.16706 3.91131
# Velocity P-wave (km/s) = 5.77894 7.18645 6.52079
#
# Compressibility (1/GPa) = 0.02871080
#
# Stress axis : x y z
#
# Youngs Moduli (GPa) = 55.33211 60.49027 107.40205
#
# Poissons Ratio (x) = 0.12983 0.09052
# Poissons Ratio (y) = 0.11876 0.49545
# Poissons Ratio (z) = 0.04663 0.27904
#
# Static dielectric constant tensor:
#      x y z
#    x 1.867850 0.038670 -0.001660 
#    y 0.038670 1.827200 0.067360 
#    z -0.001660 0.067360 1.858000 
# 
# From -- ./inp_files/342419.got.cif
#   From: 2010.05.17/outbox.cif.g08.bks.cpg/sg2_172_cif.got.tgz:342419.got - 2010.06.03 11:33:40.
