data_PCOD9109311
_publ_section_title
;
Structure prediction by ZEFSAII (Michael W. Deem and Ramdas Pophale) SiO2 
 PCOD9109311
Probable space group: P -1
;
_chemical_formula_sum "Si O2"
_cell_formula_units_Z 16
_cell_length_a 8.792568
_cell_length_b 11.098534
_cell_length_c 8.771412
_cell_angle_alpha 101.335786
_cell_angle_beta 74.530288
_cell_angle_gamma 74.508633
_cell_volume 761.210713
_symmetry_space_group_name_H-M "P -1"
_symmetry_group_IT_number 2
_symmetry_cell_setting 'triclinic'
loop_
_space_group_symop_operation_xyz
x,y,z
-x,-y,-z
loop_
_atom_site_type_symbol
_atom_site_label
_atom_site_fract_x
_atom_site_fract_y
_atom_site_fract_z
Si Si1 0.495966 0.410686 0.837312
Si Si2 0.851419 0.315623 0.551952
Si Si3 0.709828 0.040558 0.060192
Si Si4 0.953793 0.115507 0.220874
Si Si5 0.054709 0.329014 0.082930
Si Si6 0.408160 0.201981 0.998197
Si Si7 0.327711 0.487075 0.605588
Si Si8 0.891963 0.637003 0.268523
O O1 0.676467 0.350224 0.696067
O O2 0.446043 0.289714 0.879295
O O3 0.359674 0.503465 0.780900
O O4 0.500000 0.500000 0.000000
O O5 0.807983 0.422249 0.453041
O O6 0.913681 0.177575 0.413469
O O7 0.989567 0.326057 0.635271
O O8 0.808079 0.065279 0.186204
O O9 0.624574 0.929678 0.078250
O O10 0.560103 0.163615 0.067138
O O11 0.860577 0.988886 0.881775
O O12 0.955875 0.233974 0.136861
O O13 0.224517 0.287583 0.128324
O O14 0.104370 0.302799 0.884582
O O15 0.967514 0.481472 0.173026
O O16 0.500000 0.500000 0.500000
O O17 0.283412 0.353322 0.599527
#
# Coordination Sequence:
#
# PCOD9109311 Si02
#       8
#     2   2   2   2   2   2   2   2
#     4  11  24  40  63  98 132 164 204 256 322 394
#     4  11  24  37  62  94 132 168 203 261 322 381
#     4   9  22  41  69  86 120 166 223 269 310 374
#     4  10  21  42  63  92 117 166 220 269 318 362
#     4  10  21  35  66  89 128 164 211 258 312 395
#     4  10  20  41  64  94 117 165 218 258 313 375
#     4  10  22  40  55  92 135 164 197 248 317 386
#     4  11  21  38  58  98 129 167 205 252 321 391
#
# _framework density 21.019145999999999
#
# number of rings (size 3 to 8) (size 9 to 14) (size 15 to 20)
#    0.000    1.750    2.500    1.125    5.250    0.000 
#    4.500    2.500    0.000    0.000    0.000    0.000 
#    0.000    0.000    0.000    0.000    0.000    0.000 
#
# Total GULP energy -89123.308426 kJ/mol
# GULP energy per Si atom -5570.206777 kJ/mol
# Density = 2.097131 g / cm^3
# Si number density = 21.019146 Si / 1000 Ang^3
#
#
#
# Elastic Constant Matrix: (Units=GPa)
#
#
# Indices 1 2 3 4 5 6 
#
# 1 128.6850 16.9781 50.2015 4.6664 21.0057 7.7797
# 2 16.9781 42.8482 11.9080 -9.5118 -2.5171 -0.1106
# 3 50.2015 11.9080 96.4626 5.6701 14.1723 6.5886
# 4 4.6664 -9.5118 5.6701 22.0238 2.3706 -3.1486
# 5 21.0057 -2.5171 14.1723 2.3706 26.6429 -7.8821
# 6 7.7797 -0.1106 6.5886 -3.1486 -7.8821 36.2720
#
#
#
# Elastic Compliance Matrix: (Units=1/GPa)
#
#
# Indices 1 2 3 4 5 6 
#
# 1 0.011602 -0.004778 -0.003743 -0.003209 -0.008490 -0.003947
# 2 -0.004778 0.030057 -0.003713 0.014719 0.008742 0.004968
# 3 -0.003743 -0.003713 0.014059 -0.004316 -0.005479 -0.003327
# 4 -0.003209 0.014719 -0.004316 0.054178 0.003458 0.006972
# 5 -0.008490 0.008742 -0.005479 0.003458 0.051928 0.014427
# 6 -0.003947 0.004968 -0.003327 0.006972 0.014427 0.032776
#
#
# Mechanical properties :
#
#
# Convention : Reuss Voigt Hill
#
# Bulk Modulus (GPa) = 31.99920 47.35234 39.67577
# Shear Modulus (GPa) = 21.78803 29.58162 25.68483
#
# Velocity S-wave (km/s) = 3.22309 3.75556 3.49947
# Velocity P-wave (km/s) = 5.39518 6.43294 5.93678
#
# Compressibility (1/GPa) = 0.03125079
#
# Stress axis : x y z
#
# Youngs Moduli (GPa) = 86.19036 33.26996 71.13038
#
# Poissons Ratio (x) = 0.15898 0.26622
# Poissons Ratio (y) = 0.41185 0.26408
# Poissons Ratio (z) = 0.32258 0.12352
#
# Static dielectric constant tensor:
#      x y z
#    x 1.897340 -0.031920 -0.110540 
#    y -0.031920 1.798090 0.020250 
#    z -0.110540 0.020250 1.830680 
# 
# From -- ./inp_files/189226.got.cif
#   From: 2010.05.17/outbox.cif.g08.bks.cpg/sg2_95_cif.got.tgz:189226.got - 2010.06.03 11:33:40.
