data_PCOD9109605
_publ_section_title
;
Structure prediction by ZEFSAII (Michael W. Deem and Ramdas Pophale) SiO2 
 PCOD9109605
Probable space group: P -1
;
_chemical_formula_sum "Si O2"
_cell_formula_units_Z 16
_cell_length_a 13.656198
_cell_length_b 5.762659
_cell_length_c 12.562698
_cell_angle_alpha 46.437902
_cell_angle_beta 56.582156
_cell_angle_gamma 64.878981
_cell_volume 596.298590
_symmetry_space_group_name_H-M "P -1"
_symmetry_group_IT_number 2
_symmetry_cell_setting 'triclinic'
loop_
_space_group_symop_operation_xyz
x,y,z
-x,-y,-z
loop_
_atom_site_type_symbol
_atom_site_label
_atom_site_fract_x
_atom_site_fract_y
_atom_site_fract_z
Si Si1 0.866254 0.626407 0.057557
Si Si2 0.902590 0.162926 0.360837
Si Si3 0.738228 0.311401 0.708783
Si Si4 0.560895 0.869685 0.281304
Si Si5 0.701764 0.823190 0.719417
Si Si6 0.534381 0.629945 0.593191
Si Si7 0.921801 0.663324 0.347237
Si Si8 0.205375 0.855397 0.904698
O O1 0.830075 0.406652 0.247461
O O2 0.859205 0.981192 0.003074
O O3 0.812218 0.492079 0.024743
O O4 0.000000 0.500000 0.000000
O O5 0.976894 0.384800 0.323128
O O6 0.803508 0.989736 0.539531
O O7 0.976002 0.905626 0.322559
O O8 0.727030 0.447013 0.792896
O O9 0.629649 0.520303 0.654313
O O10 0.846227 0.453175 0.537394
O O11 0.718077 0.960923 0.784944
O O12 0.586504 0.631480 0.442518
O O13 0.568840 0.609407 0.263992
O O14 0.658525 0.114536 0.158699
O O15 0.430135 0.040979 0.283279
O O16 0.500000 0.000000 0.500000
O O17 0.843513 0.902201 0.239082
#
# Coordination Sequence:
#
# PCOD9109605 Si02
#       8
#     2   2   2   2   2   2   2   2
#     4  10  20  30  35  37  41  50  65  76  78  77
#     4   8  15  23  31  38  44  53  58  64  73  79
#     4   9  14  20  24  33  47  59  59  58  61  73
#     4  10  19  21  28  43  51  56  57  61  70  87
#     4   9  16  22  28  39  51  54  55  58  68  84
#     4  10  17  19  27  36  56  59  60  56  66  79
#     4   8  13  20  27  37  43  49  59  63  69  79
#     4  10  19  26  36  40  45  52  60  68  79  81
#
# _framework density 26.832196
#
# number of rings (size 3 to 8) (size 9 to 14) (size 15 to 20)
#    0.000    2.750    2.500    0.375    7.000    0.000 
#    0.000    0.000    0.000    0.000    0.000    0.000 
#    0.000    0.000    0.000    0.000    0.000    0.000 
#
# Total GULP energy -89083.011541 kJ/mol
# GULP energy per Si atom -5567.688221 kJ/mol
# Density = 2.677112 g / cm^3
# Si number density = 26.832196 Si / 1000 Ang^3
#
#
#
# Elastic Constant Matrix: (Units=GPa)
#
#
# Indices 1 2 3 4 5 6 
#
# 1 57.1631 67.9640 78.4184 -22.4788 54.2214 -19.5082
# 2 67.9640 201.5138 39.5861 43.1929 37.1323 74.4764
# 3 78.4184 39.5861 14.3100 -8.0890 -37.8911 14.0424
# 4 -22.4788 43.1929 -8.0890 -24.7098 -40.3980 -14.3528
# 5 54.2214 37.1323 -37.8911 -40.3980 -48.6212 -3.6331
# 6 -19.5082 74.4764 14.0424 -14.3528 -3.6331 25.9367
#
#
#
# Elastic Compliance Matrix: (Units=1/GPa)
#
#
# Indices 1 2 3 4 5 6 
#
# 1 0.001832 0.001264 0.003553 -0.005419 0.005224 -0.006442
# 2 0.001264 0.005170 -0.005339 0.009606 0.001943 -0.005417
# 3 0.003553 -0.005339 0.016136 0.003125 -0.015942 0.008764
# 4 -0.005419 0.009606 0.003125 0.016823 -0.013186 -0.025888
# 5 0.005224 0.001943 -0.015942 -0.013186 0.010040 0.001092
# 6 -0.006442 -0.005417 0.008764 -0.025888 0.001092 0.030346
#
#
# Mechanical properties :
#
#
# Convention : Reuss Voigt Hill
#
# Bulk Modulus (GPa) = 45.26208 71.65823 58.46015
# Shear Modulus (GPa) = 56.33403 -3.67765 26.32819
#
# Velocity S-wave (km/s) = 4.58699 -1.17200 3.13584
# Velocity P-wave (km/s) = 6.70516 4.99325 5.91151
#
# Compressibility (1/GPa) = 0.02209355
#
# Stress axis : x y z
#
# Youngs Moduli (GPa) = 545.75712 193.42095 61.97253
#
# Poissons Ratio (x) = -0.24447 -0.22019
# Poissons Ratio (y) = -0.68979 0.33090
# Poissons Ratio (z) = -1.93905 1.03275
#
# Static dielectric constant tensor:
#      x y z
#    x 2.161790 0.254920 -0.034030 
#    y 0.254920 2.580120 -0.008100 
#    z -0.034030 -0.008100 2.218750 
# 
# From -- ./inp_files/600608.got.cif
#   From: 2010.05.17/outbox.cif.g08.bks.cpg/sg2_301_cif.got.tgz:600608.got - 2010.06.03 11:33:40.
