data_PCOD9109891
_publ_section_title
;
Structure prediction by ZEFSAII (Michael W. Deem and Ramdas Pophale) SiO2 
 PCOD9109891
Probable space group: P -1
;
_chemical_formula_sum "Si O2"
_cell_formula_units_Z 16
_cell_length_a 9.807470
_cell_length_b 9.612698
_cell_length_c 13.837613
_cell_angle_alpha 107.118125
_cell_angle_beta 100.480363
_cell_angle_gamma 134.738676
_cell_volume 725.719840
_symmetry_space_group_name_H-M "P -1"
_symmetry_group_IT_number 2
_symmetry_cell_setting 'triclinic'
loop_
_space_group_symop_operation_xyz
x,y,z
-x,-y,-z
loop_
_atom_site_type_symbol
_atom_site_label
_atom_site_fract_x
_atom_site_fract_y
_atom_site_fract_z
Si Si1 0.097889 0.183181 0.135870
Si Si2 0.444347 0.732704 0.262708
Si Si3 0.816191 0.126689 0.242865
Si Si4 0.838117 0.216334 0.752161
Si Si5 0.433704 0.219284 0.234415
Si Si6 0.775330 0.597207 0.512247
Si Si7 0.312729 0.155155 0.490268
Si Si8 0.324035 0.735990 0.877148
O O1 0.246645 0.443222 0.167392
O O2 0.280976 0.235261 0.227058
O O3 0.911219 0.095026 0.167530
O O4 0.000000 0.000000 0.000000
O O5 0.317298 0.773315 0.287581
O O6 0.625446 0.834675 0.390230
O O7 0.575599 0.872297 0.207971
O O8 0.792293 0.265684 0.222991
O O9 0.002209 0.284903 0.385806
O O10 0.106779 0.489723 0.858398
O O11 0.723258 0.041455 0.794429
O O12 0.813378 0.080077 0.633371
O O13 0.669659 0.435016 0.370474
O O14 0.515325 0.254267 0.144515
O O15 0.563851 0.396140 0.520319
O O16 0.817748 0.802171 0.533855
O O17 0.500000 0.000000 0.000000
#
# Coordination Sequence:
#
# PCOD9109891 Si02
#       8
#     2   2   2   2   2   2   2   2
#     4  12  26  48  72  99 145 187 234 294 348 418
#     4  12  24  43  71 105 143 185 233 288 353 417
#     4  12  25  44  71 104 139 185 233 290 355 411
#     4  11  24  43  72 102 138 186 232 289 347 419
#     4  11  25  45  72 109 135 185 236 289 356 409
#     4  10  20  42  72  99 149 173 229 296 350 418
#     4  10  20  41  68 104 142 184 225 284 360 413
#     4  12  27  47  70 101 142 187 237 287 351 419
#
# _framework density 22.047073000000001
#
# number of rings (size 3 to 8) (size 9 to 14) (size 15 to 20)
#    0.000    0.750    5.000    2.625    1.750    6.000 
#    0.000    0.000    0.000    0.000    0.000    0.000 
#    0.000    0.000    0.000    0.000    0.000    0.000 
#
# Total GULP energy -89522.274001 kJ/mol
# GULP energy per Si atom -5595.142125 kJ/mol
# Density = 2.199689 g / cm^3
# Si number density = 22.047073 Si / 1000 Ang^3
#
#
#
# Elastic Constant Matrix: (Units=GPa)
#
#
# Indices 1 2 3 4 5 6 
#
# 1 86.5374 28.3603 16.8298 11.3732 -3.5384 -4.3181
# 2 28.3603 86.2242 13.8861 25.5007 2.9668 1.2244
# 3 16.8298 13.8861 76.4251 28.2539 -6.0416 11.6249
# 4 11.3732 25.5007 28.2539 29.0339 -3.0120 -2.9343
# 5 -3.5384 2.9668 -6.0416 -3.0120 24.6712 -7.7027
# 6 -4.3181 1.2244 11.6249 -2.9343 -7.7027 35.7348
#
#
#
# Elastic Compliance Matrix: (Units=1/GPa)
#
#
# Indices 1 2 3 4 5 6 
#
# 1 0.013866 -0.005185 -0.003792 0.003582 0.003406 0.004115
# 2 -0.005185 0.019206 0.006448 -0.022427 -0.006265 -0.006574
# 3 -0.003792 0.006448 0.025752 -0.030728 -0.002552 -0.012130
# 4 0.003582 -0.022427 -0.030728 0.086087 0.012757 0.021016
# 5 0.003406 -0.006265 -0.002552 0.012757 0.046627 0.012554
# 6 0.004115 -0.006574 -0.012130 0.021016 0.012554 0.037084
#
#
# Mechanical properties :
#
#
# Convention : Reuss Voigt Hill
#
# Bulk Modulus (GPa) = 18.59933 40.81544 29.70738
# Shear Modulus (GPa) = 19.87249 30.56201 25.21725
#
# Velocity S-wave (km/s) = 3.00553 3.72723 3.38567
# Velocity P-wave (km/s) = 4.52756 6.08901 5.36539
#
# Compressibility (1/GPa) = 0.05376538
#
# Stress axis : x y z
#
# Youngs Moduli (GPa) = 72.11710 52.06598 38.83247
#
# Poissons Ratio (x) = 0.26997 0.14727
# Poissons Ratio (y) = 0.37393 -0.25039
# Poissons Ratio (z) = 0.27350 -0.33572
#
# Static dielectric constant tensor:
#      x y z
#    x 1.800420 0.007790 0.012770 
#    y 0.007790 1.787130 -0.011960 
#    z 0.012770 -0.011960 1.832370 
# 
# From -- ./inp_files/346098.got.cif
#   From: 2010.05.17/outbox.cif.g08.bks.cpg/sg2_174_cif.got.tgz:346098.got - 2010.06.03 11:33:40.
