data_PCOD9109303
_publ_section_title
;
Structure prediction by ZEFSAII (Michael W. Deem and Ramdas Pophale) SiO2 
 PCOD9109303
Probable space group: P -1
;
_chemical_formula_sum "Si O2"
_cell_formula_units_Z 16
_cell_length_a 10.511661
_cell_length_b 8.832199
_cell_length_c 12.820095
_cell_angle_alpha 50.898853
_cell_angle_beta 107.686874
_cell_angle_gamma 126.949585
_cell_volume 732.695033
_symmetry_space_group_name_H-M "P -1"
_symmetry_group_IT_number 2
_symmetry_cell_setting 'triclinic'
loop_
_space_group_symop_operation_xyz
x,y,z
-x,-y,-z
loop_
_atom_site_type_symbol
_atom_site_label
_atom_site_fract_x
_atom_site_fract_y
_atom_site_fract_z
Si Si1 0.380742 0.066183 0.992455
Si Si2 0.752173 0.458872 0.493480
Si Si3 0.001135 0.286958 0.147188
Si Si4 0.002245 0.800677 0.027273
Si Si5 0.650834 0.800135 0.283945
Si Si6 0.992853 0.763942 0.600792
Si Si7 0.473215 0.016498 0.256400
Si Si8 0.773983 0.364348 0.304675
O O1 0.430840 0.117995 0.102959
O O2 0.187317 0.877110 0.030472
O O3 0.394674 0.246002 0.830579
O O4 0.500000 0.000000 0.000000
O O5 0.654590 0.584630 0.421717
O O6 0.891831 0.602425 0.549429
O O7 0.794902 0.472198 0.376750
O O8 0.669047 0.189255 0.622049
O O9 0.076873 0.349448 0.253053
O O10 0.827717 0.044602 0.226804
O O11 0.071948 0.224332 0.095527
O O12 0.000000 0.500000 0.000000
O O13 0.893590 0.565571 0.166816
O O14 0.000000 0.000000 0.000000
O O15 0.543807 0.873501 0.284118
O O16 0.167051 0.811223 0.607238
O O17 0.000000 0.000000 0.500000
O O18 0.598107 0.222254 0.274052
#
# Coordination Sequence:
#
# PCOD9109303 Si02
#       8
#     2   2   2   2   2   2   2   2
#     4   9  21  40  69  99 131 178 229 279 334 409
#     4  12  25  41  65  96 138 180 226 286 354 406
#     4  11  20  40  67  94 131 170 225 281 348 403
#     4  11  23  42  73 103 140 180 227 290 355 397
#     4  10  20  41  64  93 130 173 226 285 334 409
#     4  12  24  42  66  99 130 177 230 286 342 414
#     4  11  22  42  67  92 131 188 234 273 344 419
#     4  12  24  44  66  98 142 180 227 294 345 411
#
# _framework density 21.837187
#
# number of rings (size 3 to 8) (size 9 to 14) (size 15 to 20)
#    0.000    1.000    3.750    3.375    1.750    0.000 
#    2.250    2.500    0.000    0.000    0.000    0.000 
#    0.000    0.000    0.000    0.000    0.000    0.000 
#
# Total GULP energy -89220.299759 kJ/mol
# GULP energy per Si atom -5576.268735 kJ/mol
# Density = 2.178748 g / cm^3
# Si number density = 21.837187 Si / 1000 Ang^3
#
#
#
# Elastic Constant Matrix: (Units=GPa)
#
#
# Indices 1 2 3 4 5 6 
#
# 1 34.7146 21.6941 3.8960 5.3837 -9.2476 -0.9869
# 2 21.6941 116.9823 47.4139 31.3088 -4.9862 0.5633
# 3 3.8960 47.4139 98.2136 32.6415 -7.0321 5.2432
# 4 5.3837 31.3088 32.6415 54.4210 -6.4190 -0.5888
# 5 -9.2476 -4.9862 -7.0321 -6.4190 35.2259 2.3030
# 6 -0.9869 0.5633 5.2432 -0.5888 2.3030 31.6158
#
#
#
# Elastic Compliance Matrix: (Units=1/GPa)
#
#
# Indices 1 2 3 4 5 6 
#
# 1 0.035412 -0.007325 0.002713 0.000125 0.008815 0.000146
# 2 -0.007325 0.012815 -0.004704 -0.004035 -0.001808 0.000380
# 3 0.002713 -0.004704 0.014669 -0.006149 0.002019 -0.002526
# 4 0.000125 -0.004035 -0.006149 0.024699 0.002646 0.001363
# 5 0.008815 -0.001808 0.002019 0.002646 0.031480 -0.002271
# 6 0.000146 0.000380 -0.002526 0.001363 -0.002271 0.032237
#
#
# Mechanical properties :
#
#
# Convention : Reuss Voigt Hill
#
# Bulk Modulus (GPa) = 22.59232 43.99093 33.29163
# Shear Modulus (GPa) = 27.07104 36.04631 31.55867
#
# Velocity S-wave (km/s) = 3.52472 4.06727 3.80568
# Velocity P-wave (km/s) = 5.18972 6.49966 5.88127
#
# Compressibility (1/GPa) = 0.04426283
#
# Stress axis : x y z
#
# Youngs Moduli (GPa) = 28.23862 78.03611 68.17317
#
# Poissons Ratio (x) = 0.57164 -0.18499
# Poissons Ratio (y) = 0.20686 0.32072
# Poissons Ratio (z) = -0.07663 0.36712
#
# Static dielectric constant tensor:
#      x y z
#    x 2.499250 0.275010 -0.553140 
#    y 0.275010 1.961890 -0.218640 
#    z -0.553140 -0.218640 2.362440 
# 
# From -- ./inp_files/257169.got.cif
#   From: 2010.05.17/outbox.cif.g08.bks.cpg/sg2_129_cif.got.tgz:257169.got - 2010.06.03 11:33:40.
