data_PCOD9109088
_publ_section_title
;
Structure prediction by ZEFSAII (Michael W. Deem and Ramdas Pophale) SiO2 
 PCOD9109088
Probable space group: P -1
;
_chemical_formula_sum "Si O2"
_cell_formula_units_Z 16
_cell_length_a 8.003163
_cell_length_b 13.306708
_cell_length_c 17.498172
_cell_angle_alpha 151.145680
_cell_angle_beta 66.467747
_cell_angle_gamma 95.295014
_cell_volume 670.597411
_symmetry_space_group_name_H-M "P -1"
_symmetry_group_IT_number 2
_symmetry_cell_setting 'triclinic'
loop_
_space_group_symop_operation_xyz
x,y,z
-x,-y,-z
loop_
_atom_site_type_symbol
_atom_site_label
_atom_site_fract_x
_atom_site_fract_y
_atom_site_fract_z
Si Si1 0.677931 0.404016 0.835602
Si Si2 0.756006 0.723506 0.542107
Si Si3 0.491613 0.707423 0.346281
Si Si4 0.830814 0.348740 0.400328
Si Si5 0.799963 0.692796 0.774004
Si Si6 0.967584 0.563100 0.138015
Si Si7 0.562447 0.196478 0.981524
Si Si8 0.303973 0.976481 0.713016
O O1 0.636511 0.241585 0.676591
O O2 0.599901 0.642502 0.952863
O O3 0.500000 0.500000 0.000000
O O4 0.912876 0.308289 0.766674
O O5 0.700876 0.564775 0.502449
O O6 0.560849 0.868918 0.613590
O O7 0.012053 0.504160 0.328846
O O8 0.756122 0.933959 0.732744
O O9 0.596416 0.407025 0.146628
O O10 0.322168 0.884182 0.561116
O O11 0.705939 0.712173 0.302331
O O12 0.801305 0.512114 0.589408
O O13 0.760106 0.167937 0.315133
O O14 0.083856 0.192038 0.214367
O O15 0.567852 0.857493 0.969368
O O16 0.117267 0.275943 0.953588
O O17 0.000000 0.500000 0.000000
#
# Coordination Sequence:
#
# PCOD9109088 Si02
#       8
#     2   2   2   2   2   2   2   2
#     4  10  21  46  65  93 131 159 217 267 317 392
#     4  10  22  36  65  89 129 177 208 267 319 365
#     4  10  25  39  70  95 128 171 213 263 330 378
#     4   9  20  39  59  93 130 171 211 267 315 374
#     4   9  20  38  60  91 132 164 228 246 318 389
#     4  12  25  45  69  95 127 168 214 271 325 384
#     4  10  20  41  62  93 128 174 214 259 319 381
#     4  12  23  43  61  96 135 161 221 269 316 386
#
# _framework density 23.859321999999999
#
# number of rings (size 3 to 8) (size 9 to 14) (size 15 to 20)
#    1.500    0.250    3.750    0.375    3.500    1.000 
#    2.250    1.250    0.000    0.000    0.000    0.000 
#    0.000    0.000    0.000    0.000    0.000    0.000 
#
# Total GULP energy -89241.943926 kJ/mol
# GULP energy per Si atom -5577.621495 kJ/mol
# Density = 2.380502 g / cm^3
# Si number density = 23.859322 Si / 1000 Ang^3
#
#
#
# Elastic Constant Matrix: (Units=GPa)
#
#
# Indices 1 2 3 4 5 6 
#
# 1 122.2372 22.2567 31.7471 -3.9193 -10.6926 -2.0696
# 2 22.2567 80.1974 18.4182 -15.7209 -0.7365 0.1273
# 3 31.7471 18.4182 74.0303 -1.9181 -4.6635 6.8431
# 4 -3.9193 -15.7209 -1.9181 32.8806 2.1456 -5.7371
# 5 -10.6926 -0.7365 -4.6635 2.1456 25.1123 1.1852
# 6 -2.0696 0.1273 6.8431 -5.7371 1.1852 35.4704
#
#
#
# Elastic Compliance Matrix: (Units=1/GPa)
#
#
# Indices 1 2 3 4 5 6 
#
# 1 0.009775 -0.001839 -0.003629 0.000059 0.003374 0.001174
# 2 -0.001839 0.015068 -0.003026 0.007199 -0.001595 0.001640
# 3 -0.003629 -0.003026 0.016218 -0.001682 0.001694 -0.003658
# 4 0.000059 0.007199 -0.001682 0.035044 -0.003357 0.006083
# 5 0.003374 -0.001595 0.001694 -0.003357 0.041910 -0.002068
# 6 0.001174 0.001640 -0.003658 0.006083 -0.002068 0.030014
#
#
# Mechanical properties :
#
#
# Convention : Reuss Voigt Hill
#
# Bulk Modulus (GPa) = 41.53750 46.81208 44.17479
# Shear Modulus (GPa) = 28.89471 32.29552 30.59511
#
# Velocity S-wave (km/s) = 3.48378 3.68310 3.58482
# Velocity P-wave (km/s) = 5.79909 6.14407 5.97407
#
# Compressibility (1/GPa) = 0.02407463
#
# Stress axis : x y z
#
# Youngs Moduli (GPa) = 102.30213 66.36386 61.65847
#
# Poissons Ratio (x) = 0.12202 0.22375
# Poissons Ratio (y) = 0.18810 0.18658
# Poissons Ratio (z) = 0.37124 0.20082
#
# Static dielectric constant tensor:
#      x y z
#    x 1.969030 -0.035340 -0.012760 
#    y -0.035340 1.918870 0.048550 
#    z -0.012760 0.048550 1.880250 
# 
# From -- ./inp_files/590311.got.cif
#   From: 2010.05.17/outbox.cif.g08.bks.cpg/sg2_296_cif.got.tgz:590311.got - 2010.06.03 11:33:40.
