data_PCOD9109534
_publ_section_title
;
Structure prediction by ZEFSAII (Michael W. Deem and Ramdas Pophale) SiO2 
 PCOD9109534
Probable space group: P -1
;
_chemical_formula_sum "Si O2"
_cell_formula_units_Z 16
_cell_length_a 10.660423
_cell_length_b 6.982635
_cell_length_c 17.793069
_cell_angle_alpha 115.702406
_cell_angle_beta 43.025648
_cell_angle_gamma 84.864352
_cell_volume 610.842899
_symmetry_space_group_name_H-M "P -1"
_symmetry_group_IT_number 2
_symmetry_cell_setting 'triclinic'
loop_
_space_group_symop_operation_xyz
x,y,z
-x,-y,-z
loop_
_atom_site_type_symbol
_atom_site_label
_atom_site_fract_x
_atom_site_fract_y
_atom_site_fract_z
Si Si1 0.881069 0.848737 0.299100
Si Si2 0.434547 0.766231 0.620802
Si Si3 0.432420 0.597006 0.242670
Si Si4 0.839200 0.341459 0.482639
Si Si5 0.023200 0.725511 0.998527
Si Si6 0.629246 0.026774 0.789365
Si Si7 0.691179 0.221225 0.944024
Si Si8 0.884078 0.753769 0.896489
O O1 0.135830 0.703769 0.117841
O O2 0.952774 0.572149 0.256964
O O3 0.650554 0.010519 0.371042
O O4 0.857371 0.085246 0.396599
O O5 0.500000 0.500000 0.500000
O O6 0.656550 0.612985 0.556001
O O7 0.195076 0.975137 0.815065
O O8 0.261723 0.635781 0.387238
O O9 0.377179 0.863887 0.271901
O O10 0.451100 0.427616 0.134481
O O11 0.706676 0.398221 0.121446
O O12 0.097825 0.260655 0.363483
O O13 0.005443 0.736554 0.918069
O O14 0.000000 0.500000 0.000000
O O15 0.621087 0.210549 0.889937
O O16 0.392441 0.073638 0.921779
O O17 0.854415 0.922272 0.865255
#
# Coordination Sequence:
#
# PCOD9109534 Si02
#       8
#     2   2   2   2   2   2   2   2
#     4  10  21  45  68 101 140 184 230 298 349 416
#     4  10  20  41  66 100 140 181 231 278 358 416
#     4  12  23  44  71 104 133 188 243 283 354 420
#     4  10  25  39  69  99 141 193 226 287 357 426
#     4  12  22  42  74 105 139 182 234 306 346 408
#     4  11  23  46  66  98 146 183 235 288 353 422
#     4  11  23  40  75 101 128 183 236 294 343 419
#     4  12  24  42  75 106 135 179 246 291 352 421
#
# _framework density 26.193313
#
# number of rings (size 3 to 8) (size 9 to 14) (size 15 to 20)
#    0.000    1.000    5.000    1.875    3.500    1.000 
#    0.000    6.875    0.000    0.000    0.000    0.000 
#    0.000    0.000    0.000    0.000    0.000    0.000 
#
# Total GULP energy -89468.132290 kJ/mol
# GULP energy per Si atom -5591.758268 kJ/mol
# Density = 2.613370 g / cm^3
# Si number density = 26.193313 Si / 1000 Ang^3
#
#
#
# Elastic Constant Matrix: (Units=GPa)
#
#
# Indices 1 2 3 4 5 6 
#
# 1 88.5658 29.8844 42.0789 4.9826 -10.7885 -27.7676
# 2 29.8844 141.5806 24.1803 12.0844 -7.0550 -17.5374
# 3 42.0789 24.1803 113.6806 6.0108 -3.9725 -5.5984
# 4 4.9826 12.0844 6.0108 42.2091 -4.5112 1.1844
# 5 -10.7885 -7.0550 -3.9725 -4.5112 52.1136 12.2304
# 6 -27.7676 -17.5374 -5.5984 1.1844 12.2304 37.6404
#
#
#
# Elastic Compliance Matrix: (Units=1/GPa)
#
#
# Indices 1 2 3 4 5 6 
#
# 1 0.018390 -0.001263 -0.005868 -0.001286 0.000246 0.012066
# 2 -0.001263 0.008014 -0.000994 -0.002089 -0.000077 0.002745
# 3 -0.005868 -0.000994 0.011055 -0.000486 0.000202 -0.003198
# 4 -0.001286 -0.002089 -0.000486 0.024867 0.002401 -0.003557
# 5 0.000246 -0.000077 0.000202 0.002401 0.021033 -0.006735
# 6 0.012066 0.002745 -0.003198 -0.003557 -0.006735 0.038572
#
#
# Mechanical properties :
#
#
# Convention : Reuss Voigt Hill
#
# Bulk Modulus (GPa) = 47.14808 59.56824 53.35816
# Shear Modulus (GPa) = 34.42305 42.90487 38.66396
#
# Velocity S-wave (km/s) = 3.62911 4.05162 3.84617
# Velocity P-wave (km/s) = 5.96655 6.68421 6.33555
#
# Compressibility (1/GPa) = 0.02120977
#
# Stress axis : x y z
#
# Youngs Moduli (GPa) = 54.37618 124.78188 90.45486
#
# Poissons Ratio (x) = 0.15760 0.53077
# Poissons Ratio (y) = 0.06868 0.08993
# Poissons Ratio (z) = 0.31907 0.12405
#
# Static dielectric constant tensor:
#      x y z
#    x 2.088340 0.050600 0.045230 
#    y 0.050600 2.053590 0.074180 
#    z 0.045230 0.074180 2.130570 
# 
# From -- ./inp_files/566813.got.cif
#   From: 2010.05.17/outbox.cif.g08.bks.cpg/sg2_284_cif.got.tgz:566813.got - 2010.06.03 11:33:40.
