data_PCOD9109390
_publ_section_title
;
Structure prediction by ZEFSAII (Michael W. Deem and Ramdas Pophale) SiO2 
 PCOD9109390
Probable space group: P -1
;
_chemical_formula_sum "Si O2"
_cell_formula_units_Z 16
_cell_length_a 7.444997
_cell_length_b 19.344247
_cell_length_c 13.041963
_cell_angle_alpha 154.205388
_cell_angle_beta 91.209826
_cell_angle_gamma 98.424153
_cell_volume 755.698239
_symmetry_space_group_name_H-M "P -1"
_symmetry_group_IT_number 2
_symmetry_cell_setting 'triclinic'
loop_
_space_group_symop_operation_xyz
x,y,z
-x,-y,-z
loop_
_atom_site_type_symbol
_atom_site_label
_atom_site_fract_x
_atom_site_fract_y
_atom_site_fract_z
Si Si1 0.637742 0.913762 0.940522
Si Si2 0.989886 0.269481 0.127681
Si Si3 0.689518 0.437038 0.725733
Si Si4 0.055428 0.926114 0.674118
Si Si5 0.118011 0.622139 0.931920
Si Si6 0.260927 0.325233 0.536820
Si Si7 0.731017 0.344170 0.375662
Si Si8 0.812565 0.320337 0.770836
O O1 0.729033 0.813939 0.731460
O O2 0.486402 0.762554 0.807255
O O3 0.500000 0.000000 0.000000
O O4 0.805061 0.044531 0.186157
O O5 0.858229 0.279019 0.042099
O O6 0.867960 0.256025 0.211588
O O7 0.169006 0.454317 0.381499
O O8 0.049137 0.109891 0.898941
O O9 0.483289 0.452078 0.729559
O O10 0.708584 0.340677 0.493269
O O11 0.678704 0.338379 0.700560
O O12 0.898609 0.593490 0.929718
O O13 0.845347 0.786942 0.516686
O O14 0.134195 0.841113 0.472433
O O15 0.140982 0.443112 0.666478
O O16 0.247660 0.690592 0.126017
O O17 0.000000 0.500000 0.000000
#
# Coordination Sequence:
#
# PCOD9109390 Si02
#       8
#     2   2   2   2   2   2   2   2
#     4  11  24  37  63  98 131 156 211 274 309 376
#     4  10  23  38  63  90 133 168 206 251 311 403
#     4   9  19  38  66  94 120 159 215 262 304 369
#     4  12  23  37  63  96 121 171 211 259 324 364
#     4  10  22  43  63  91 126 171 213 258 308 375
#     4  11  22  38  68  92 122 168 211 256 326 366
#     4   9  20  41  59  86 135 163 190 256 319 369
#     4  10  20  41  65  88 129 163 213 275 306 357
#
# _framework density 21.172470000000001
#
# number of rings (size 3 to 8) (size 9 to 14) (size 15 to 20)
#    0.000    1.750    2.500    2.625    7.000    1.500 
#    4.500    0.000    0.000    3.000    0.000    0.000 
#    0.000    0.000    0.000    0.000    0.000    0.000 
#
# Total GULP energy -89152.243258 kJ/mol
# GULP energy per Si atom -5572.015204 kJ/mol
# Density = 2.112428 g / cm^3
# Si number density = 21.172470 Si / 1000 Ang^3
#
#
#
# Elastic Constant Matrix: (Units=GPa)
#
#
# Indices 1 2 3 4 5 6 
#
# 1 73.6233 19.4621 11.5624 -2.5292 -8.3600 -2.3999
# 2 19.4621 67.8605 18.8308 -17.0195 -5.8882 -7.2979
# 3 11.5624 18.8308 99.2070 -3.3229 -33.6685 -10.4278
# 4 -2.5292 -17.0195 -3.3229 32.9766 -1.8497 -4.5332
# 5 -8.3600 -5.8882 -33.6685 -1.8497 20.9803 2.8160
# 6 -2.3999 -7.2979 -10.4278 -4.5332 2.8160 17.3622
#
#
#
# Elastic Compliance Matrix: (Units=1/GPa)
#
#
# Indices 1 2 3 4 5 6 
#
# 1 0.015286 -0.004306 0.001431 -0.000523 0.007151 -0.000134
# 2 -0.004306 0.020451 -0.001530 0.011499 0.001256 0.009881
# 3 0.001431 -0.001530 0.024464 0.005237 0.038607 0.009354
# 4 -0.000523 0.011499 0.005237 0.039689 0.012747 0.016202
# 5 0.007151 0.001256 0.038607 0.012747 0.112634 0.009764
# 6 -0.000134 0.009881 0.009354 0.016202 0.009764 0.069996
#
#
# Mechanical properties :
#
#
# Convention : Reuss Voigt Hill
#
# Bulk Modulus (GPa) = 19.45857 37.82240 28.64048
# Shear Modulus (GPa) = 16.20948 26.98616 21.59782
#
# Velocity S-wave (km/s) = 2.76994 3.57401 3.19735
# Velocity P-wave (km/s) = 4.40914 5.91051 5.21415
#
# Compressibility (1/GPa) = 0.05139125
#
# Stress axis : x y z
#
# Youngs Moduli (GPa) = 65.41990 48.89647 40.87575
#
# Poissons Ratio (x) = 0.21056 -0.05849
# Poissons Ratio (y) = 0.28171 0.06254
# Poissons Ratio (z) = -0.09361 0.07481
#
# Static dielectric constant tensor:
#      x y z
#    x 1.831570 -0.009240 0.041900 
#    y -0.009240 1.814010 -0.007600 
#    z 0.041900 -0.007600 1.773000 
# 
# From -- ./inp_files/507751.got.cif
#   From: 2010.05.17/outbox.cif.g08.bks.cpg/sg2_254_cif.got.tgz:507751.got - 2010.06.03 11:33:40.
