data_PCOD9109790
_publ_section_title
;
Structure prediction by ZEFSAII (Michael W. Deem and Ramdas Pophale) SiO2 
 PCOD9109790
Probable space group: P -1
;
_chemical_formula_sum "Si O2"
_cell_formula_units_Z 14
_cell_length_a 8.201685
_cell_length_b 8.150676
_cell_length_c 24.743518
_cell_angle_alpha 138.422382
_cell_angle_beta 32.011316
_cell_angle_gamma 126.296784
_cell_volume 577.650010
_symmetry_space_group_name_H-M "P -1"
_symmetry_group_IT_number 2
_symmetry_cell_setting 'triclinic'
loop_
_space_group_symop_operation_xyz
x,y,z
-x,-y,-z
loop_
_atom_site_type_symbol
_atom_site_label
_atom_site_fract_x
_atom_site_fract_y
_atom_site_fract_z
Si Si1 0.690817 0.578312 0.415425
Si Si2 0.808685 0.100330 0.523939
Si Si3 0.297684 0.415697 0.267450
Si Si4 0.707397 0.213007 0.011546
Si Si5 0.173239 0.065332 0.303724
Si Si6 0.320964 0.504397 0.106818
Si Si7 0.204929 0.822331 0.800372
O O1 0.500000 0.500000 0.500000
O O2 0.639378 0.395663 0.336173
O O3 0.056909 0.518251 0.312940
O O4 0.624018 0.875304 0.501386
O O5 0.633108 0.359426 0.657836
O O6 0.000000 0.000000 0.500000
O O7 0.014064 0.149964 0.426167
O O8 0.601881 0.291155 0.120907
O O9 0.103618 0.235084 0.312513
O O10 0.586210 0.436225 0.060855
O O11 0.500000 0.000000 0.000000
O O12 0.051194 0.072716 0.875033
O O13 0.139252 0.776837 0.234577
O O14 0.537432 0.092013 0.212881
O O15 0.077256 0.302649 0.125086
O O16 0.500000 0.500000 0.000000
#
# Coordination Sequence:
#
# PCOD9109790 Si02
#       7
#     2   2   2   2   2   2   2
#     4  11  22  43  69  94 128 179 225 267 335 401
#     4  10  21  42  65  92 132 173 217 276 330 383
#     4  11  22  41  68  94 135 174 219 279 331 387
#     4  10  20  41  67  92 132 176 214 272 331 386
#     4  12  24  42  67 102 135 172 222 280 329 387
#     4  11  23  41  66  97 138 174 220 277 329 385
#     4  11  23  43  67  96 134 175 226 263 331 406
#
# _framework density 24.236131
#
# number of rings (size 3 to 8) (size 9 to 14) (size 15 to 20)
#    0.000    1.143    4.286    4.714    0.000    2.857 
#    2.571    4.286    0.000    0.000    0.000    0.000 
#    0.000    0.000    0.000    0.000    0.000    0.000 
#
# Total GULP energy -78288.283857 kJ/mol
# GULP energy per Si atom -5592.020276 kJ/mol
# Density = 2.418097 g / cm^3
# Si number density = 24.236131 Si / 1000 Ang^3
#
#
#
# Elastic Constant Matrix: (Units=GPa)
#
#
# Indices 1 2 3 4 5 6 
#
# 1 50.5797 14.0801 20.2930 -1.4178 8.5752 -16.1396
# 2 14.0801 102.5439 35.0846 8.7292 8.0085 -13.6853
# 3 20.2930 35.0846 96.6934 18.9301 36.1662 -3.9523
# 4 -1.4178 8.7292 18.9301 45.3188 -4.5522 2.8060
# 5 8.5752 8.0085 36.1662 -4.5522 38.5875 -12.4579
# 6 -16.1396 -13.6853 -3.9523 2.8060 -12.4579 37.3051
#
#
#
# Elastic Compliance Matrix: (Units=1/GPa)
#
#
# Indices 1 2 3 4 5 6 
#
# 1 0.025935 -0.000020 -0.008035 0.004040 0.006160 0.012115
# 2 -0.000020 0.012160 -0.006155 0.000398 0.005059 0.005460
# 3 -0.008035 -0.006155 0.025898 -0.011836 -0.026098 -0.010816
# 4 0.004040 0.000398 -0.011836 0.028311 0.014539 0.003366
# 5 0.006160 0.005059 -0.026098 0.014539 0.055914 0.019335
# 6 0.012115 0.005460 -0.010816 0.003366 0.019335 0.039108
#
#
# Mechanical properties :
#
#
# Convention : Reuss Voigt Hill
#
# Bulk Modulus (GPa) = 28.11200 43.19248 35.65224
# Shear Modulus (GPa) = 21.96779 36.26623 29.11701
#
# Velocity S-wave (km/s) = 3.01393 3.87249 3.46987
# Velocity P-wave (km/s) = 4.87197 6.15265 5.54938
#
# Compressibility (1/GPa) = 0.03557200
#
# Stress axis : x y z
#
# Youngs Moduli (GPa) = 38.55801 82.23507 38.61261
#
# Poissons Ratio (x) = 0.00164 0.31027
# Poissons Ratio (y) = 0.00077 0.23767
# Poissons Ratio (z) = 0.30983 0.50618
#
# Static dielectric constant tensor:
#      x y z
#    x 2.047390 -0.087730 -0.122500 
#    y -0.087730 1.953810 0.067180 
#    z -0.122500 0.067180 2.021090 
# 
# From -- ./inp_files/185502.got.cif
#   From: 2010.05.17/outbox.cif.g08.bks.cpg/sg2_93_cif.got.tgz:185502.got - 2010.06.03 11:33:40.
