data_PCOD9109099
_publ_section_title
;
Structure prediction by ZEFSAII (Michael W. Deem and Ramdas Pophale) SiO2 
 PCOD9109099
Probable space group: P -1
;
_chemical_formula_sum "Si O2"
_cell_formula_units_Z 16
_cell_length_a 7.990524
_cell_length_b 11.848955
_cell_length_c 10.823819
_cell_angle_alpha 130.414135
_cell_angle_beta 65.894851
_cell_angle_gamma 99.038205
_cell_volume 703.613214
_symmetry_space_group_name_H-M "P -1"
_symmetry_group_IT_number 2
_symmetry_cell_setting 'triclinic'
loop_
_space_group_symop_operation_xyz
x,y,z
-x,-y,-z
loop_
_atom_site_type_symbol
_atom_site_label
_atom_site_fract_x
_atom_site_fract_y
_atom_site_fract_z
Si Si1 0.083753 0.493942 0.642927
Si Si2 0.122915 0.251923 0.247302
Si Si3 0.794603 0.395597 0.835773
Si Si4 0.518667 0.143487 0.009694
Si Si5 0.432368 0.532848 0.682400
Si Si6 0.134349 0.186195 0.668273
Si Si7 0.112080 0.031038 0.309940
Si Si8 0.467225 0.336964 0.757185
O O1 0.156050 0.380297 0.429359
O O2 0.225906 0.492054 0.710000
O O3 0.042768 0.662377 0.722081
O O4 0.896223 0.452506 0.726569
O O5 0.306017 0.199244 0.072537
O O6 0.085162 0.115429 0.247178
O O7 0.649284 0.291181 0.753730
O O8 0.957401 0.318913 0.822045
O O9 0.668527 0.533189 0.037401
O O10 0.567527 0.293894 0.164869
O O11 0.500000 0.000000 0.000000
O O12 0.694165 0.082613 0.830201
O O13 0.500000 0.500000 0.500000
O O14 0.531182 0.420212 0.675192
O O15 0.136669 0.146428 0.493784
O O16 0.332180 0.219650 0.678023
O O17 0.061542 0.050292 0.664345
#
# Coordination Sequence:
#
# PCOD9109099 Si02
#       8
#     2   2   2   2   2   2   2   2
#     4  11  22  37  70  96 131 168 224 282 335 388
#     4  10  20  41  62  97 132 172 215 279 337 391
#     4  11  23  42  68 100 132 168 222 289 333 388
#     4  10  22  39  62  90 135 174 213 272 332 397
#     4  12  23  39  68 102 131 174 229 275 336 403
#     4  11  22  42  69  94 131 183 224 274 329 411
#     4  10  22  40  68  91 138 184 220 266 343 401
#     4  11  25  41  68 103 133 170 230 282 336 390
#
# _framework density 22.739764999999998
#
# number of rings (size 3 to 8) (size 9 to 14) (size 15 to 20)
#    0.000    1.250    3.750    1.875    5.250    1.000 
#    0.000    5.000   13.750    0.000    0.000    0.000 
#    0.000    0.000    0.000    0.000    0.000    0.000 
#
# Total GULP energy -89357.006019 kJ/mol
# GULP energy per Si atom -5584.812876 kJ/mol
# Density = 2.268801 g / cm^3
# Si number density = 22.739765 Si / 1000 Ang^3
#
#
#
# Elastic Constant Matrix: (Units=GPa)
#
#
# Indices 1 2 3 4 5 6 
#
# 1 75.2922 30.3628 -26.8845 -3.5915 8.5545 20.2242
# 2 30.3628 80.1915 7.5870 1.2049 0.3367 9.4370
# 3 -26.8845 7.5870 57.3335 -9.2580 -11.4374 8.3072
# 4 -3.5915 1.2049 -9.2580 25.6063 5.4147 -2.8400
# 5 8.5545 0.3367 -11.4374 5.4147 23.6307 8.3013
# 6 20.2242 9.4370 8.3072 -2.8400 8.3013 37.3134
#
#
#
# Elastic Compliance Matrix: (Units=1/GPa)
#
#
# Indices 1 2 3 4 5 6 
#
# 1 0.030016 -0.011333 0.020353 0.009414 0.003295 -0.017950
# 2 -0.011333 0.017284 -0.009063 -0.005165 -0.000586 0.003526
# 3 0.020353 -0.009063 0.035520 0.011047 0.014075 -0.018938
# 4 0.009414 -0.005165 0.011047 0.046261 -0.008273 -0.000894
# 5 0.003295 -0.000586 0.014075 -0.008273 0.056125 -0.017888
# 6 -0.017950 0.003526 -0.018938 -0.000894 -0.017888 0.043765
#
#
# Mechanical properties :
#
#
# Convention : Reuss Voigt Hill
#
# Bulk Modulus (GPa) = 12.08717 26.10532 19.09624
# Shear Modulus (GPa) = 19.48290 30.76021 25.12155
#
# Velocity S-wave (km/s) = 2.93025 3.68190 3.32737
# Velocity P-wave (km/s) = 4.09579 5.43877 4.81433
#
# Compressibility (1/GPa) = 0.08273239
#
# Stress axis : x y z
#
# Youngs Moduli (GPa) = 33.31609 57.85766 28.15282
#
# Poissons Ratio (x) = 0.65571 -0.57299
# Poissons Ratio (y) = 0.37758 0.25516
# Poissons Ratio (z) = -0.67808 0.52438
#
# Static dielectric constant tensor:
#      x y z
#    x 1.869500 0.021030 -0.041910 
#    y 0.021030 1.869740 0.000020 
#    z -0.041910 0.000020 1.851550 
# 
# From -- ./inp_files/393005.got.cif
#   From: 2010.05.17/outbox.cif.g08.bks.cpg/sg2_197_cif.got.tgz:393005.got - 2010.06.03 11:33:40.
