data_PCOD9109225
_publ_section_title
;
Structure prediction by ZEFSAII (Michael W. Deem and Ramdas Pophale) SiO2 
 PCOD9109225
Probable space group: P -1
;
_chemical_formula_sum "Si O2"
_cell_formula_units_Z 14
_cell_length_a 9.665031
_cell_length_b 14.302286
_cell_length_c 5.335751
_cell_angle_alpha 105.343722
_cell_angle_beta 106.881426
_cell_angle_gamma 54.027195
_cell_volume 566.965115
_symmetry_space_group_name_H-M "P -1"
_symmetry_group_IT_number 2
_symmetry_cell_setting 'triclinic'
loop_
_space_group_symop_operation_xyz
x,y,z
-x,-y,-z
loop_
_atom_site_type_symbol
_atom_site_label
_atom_site_fract_x
_atom_site_fract_y
_atom_site_fract_z
Si Si1 0.546642 0.829667 0.886846
Si Si2 0.700840 0.231373 0.074710
Si Si3 0.107532 0.810079 0.346828
Si Si4 0.291281 0.053305 0.649211
Si Si5 0.216866 0.608924 0.949663
Si Si6 0.167144 0.246279 0.378504
Si Si7 0.113310 0.444216 0.772642
O O1 0.460907 0.776803 0.963967
O O2 0.716815 0.741744 0.754949
O O3 0.404808 0.917326 0.667479
O O4 0.599028 0.901674 0.132779
O O5 0.822773 0.178521 0.345101
O O6 0.657929 0.361747 0.102326
O O7 0.808982 0.167310 0.833670
O O8 0.899867 0.887360 0.289783
O O9 0.179370 0.672987 0.244243
O O10 0.249527 0.111312 0.392687
O O11 0.028404 0.693103 0.775057
O O12 0.247954 0.483554 0.873879
O O13 0.172650 0.312228 0.673438
O O14 0.000000 0.500000 0.500000
O O15 0.000000 0.500000 0.000000
#
# Coordination Sequence:
#
# PCOD9109225 Si02
#       7
#     2   2   2   2   2   2   2
#     4  11  25  39  59  95 127 172 205 262 316 377
#     4  10  23  39  63  91 130 163 204 261 314 367
#     4  10  20  41  64  86 126 164 210 258 302 368
#     4  11  22  41  64  86 128 169 220 254 309 368
#     4   9  20  39  63  94 119 162 206 261 305 370
#     4  11  21  40  62  94 126 165 208 268 310 370
#     4  10  22  35  66  97 121 157 212 261 308 365
#
# _framework density 24.692879000000001
#
# number of rings (size 3 to 8) (size 9 to 14) (size 15 to 20)
#    0.857    0.857    2.857    1.286    6.000    1.143 
#    0.000    0.714    0.000    1.714    0.000    0.000 
#    0.000    0.000    0.000    0.000    0.000    0.000 
#
# Total GULP energy -78217.912227 kJ/mol
# GULP energy per Si atom -5586.993731 kJ/mol
# Density = 2.463668 g / cm^3
# Si number density = 24.692879 Si / 1000 Ang^3
#
#
#
# Elastic Constant Matrix: (Units=GPa)
#
#
# Indices 1 2 3 4 5 6 
#
# 1 195.7562 13.5280 50.8963 2.2667 -17.4990 21.9816
# 2 13.5280 65.2984 7.5128 -16.6925 -1.0916 10.6403
# 3 50.8963 7.5128 114.0456 -6.5516 -13.8339 -5.7353
# 4 2.2667 -16.6925 -6.5516 30.3576 -1.4730 -2.5567
# 5 -17.4990 -1.0916 -13.8339 -1.4730 42.2771 -5.5826
# 6 21.9816 10.6403 -5.7353 -2.5567 -5.5826 9.9525
#
#
#
# Elastic Compliance Matrix: (Units=1/GPa)
#
#
# Indices 1 2 3 4 5 6 
#
# 1 0.009958 0.002862 -0.006645 -0.003317 -0.002182 -0.030958
# 2 0.002862 0.022689 -0.004411 0.008342 -0.003751 -0.033080
# 3 -0.006645 -0.004411 0.014682 0.004289 0.006386 0.032535
# 4 -0.003317 0.008342 0.004289 0.039961 0.003359 0.013029
# 5 -0.002182 -0.003751 0.006386 0.003359 0.028756 0.029502
# 6 -0.030958 -0.033080 0.032535 0.013029 0.029502 0.242862
#
#
# Mechanical properties :
#
#
# Convention : Reuss Voigt Hill
#
# Bulk Modulus (GPa) = 32.32016 57.66382 44.99199
# Shear Modulus (GPa) = 12.96652 36.72834 24.84743
#
# Velocity S-wave (km/s) = 2.29402 3.86087 3.17560
# Velocity P-wave (km/s) = 4.48709 6.57862 5.63082
#
# Compressibility (1/GPa) = 0.03094044
#
# Stress axis : x y z
#
# Youngs Moduli (GPa) = 100.42320 44.07401 68.11286
#
# Poissons Ratio (x) = -0.12612 0.45258
# Poissons Ratio (y) = -0.28737 0.30044
# Poissons Ratio (z) = 0.66727 0.19441
#
# Static dielectric constant tensor:
#      x y z
#    x 1.953940 0.047580 -0.000400 
#    y 0.047580 2.044270 -0.034000 
#    z -0.000400 -0.034000 1.964690 
# 
# From -- ./inp_files/45081.got.cif
#   From: 2010.05.17/outbox.cif.g08.bks.cpg/sg2_23_cif.got.tgz:45081.got - 2010.06.03 11:33:40.
