data_PCOD9109852
_publ_section_title
;
Structure prediction by ZEFSAII (Michael W. Deem and Ramdas Pophale) SiO2 
 PCOD9109852
Probable space group: P -1
;
_chemical_formula_sum "Si O2"
_cell_formula_units_Z 14
_cell_length_a 16.739494
_cell_length_b 4.964940
_cell_length_c 7.895452
_cell_angle_alpha 105.996709
_cell_angle_beta 68.322300
_cell_angle_gamma 121.746234
_cell_volume 515.808309
_symmetry_space_group_name_H-M "P -1"
_symmetry_group_IT_number 2
_symmetry_cell_setting 'triclinic'
loop_
_space_group_symop_operation_xyz
x,y,z
-x,-y,-z
loop_
_atom_site_type_symbol
_atom_site_label
_atom_site_fract_x
_atom_site_fract_y
_atom_site_fract_z
Si Si1 0.672588 0.939960 0.626709
Si Si2 0.380402 0.639566 0.065691
Si Si3 0.054756 0.296779 0.263601
Si Si4 0.508034 0.609799 0.273770
Si Si5 0.203077 0.204184 0.926848
Si Si6 0.124209 0.997403 0.436564
Si Si7 0.291749 0.772437 0.695810
O O1 0.639122 0.062703 0.839593
O O2 0.765456 0.901274 0.589902
O O3 0.581233 0.616950 0.572877
O O4 0.702547 0.211341 0.508551
O O5 0.442939 0.635323 0.176031
O O6 0.441510 0.603615 0.857874
O O7 0.273387 0.352892 0.062282
O O8 0.084654 0.668743 0.301892
O O9 0.939938 0.094117 0.356681
O O10 0.101292 0.238256 0.389521
O O11 0.102023 0.190494 0.057996
O O12 0.597979 0.956803 0.295759
O O13 0.213796 0.896680 0.822878
O O14 0.255448 0.457250 0.779180
#
# Coordination Sequence:
#
# PCOD9109852 Si02
#       7
#     2   2   2   2   2   2   2
#     4  12  24  41  63  95 128 170 209 275 304 390
#     4  10  23  37  68  88 119 162 228 255 315 362
#     4  10  20  41  67  98 127 159 207 272 315 373
#     4  10  24  41  63  93 124 174 213 272 308 381
#     4  11  23  44  62  93 127 173 207 268 308 386
#     4  10  22  37  69 102 122 158 215 264 323 364
#     4  11  28  40  62  91 137 170 214 245 337 370
#
# _framework density 27.141862
#
# number of rings (size 3 to 8) (size 9 to 14) (size 15 to 20)
#    0.000    1.429    1.429    2.571   12.000    0.571 
#    0.000    1.429    0.000    0.000    0.000    0.000 
#    0.000    0.000    0.000    0.000    0.000    0.000 
#
# Total GULP energy -78433.166019 kJ/mol
# GULP energy per Si atom -5602.369001 kJ/mol
# Density = 2.708009 g / cm^3
# Si number density = 27.141862 Si / 1000 Ang^3
#
#
#
# Elastic Constant Matrix: (Units=GPa)
#
#
# Indices 1 2 3 4 5 6 
#
# 1 137.0867 40.7657 32.4038 -5.0978 -29.8042 -1.3209
# 2 40.7657 69.8502 30.2596 0.8486 -2.2697 -12.9080
# 3 32.4038 30.2596 86.9426 -9.7783 -28.9045 6.3419
# 4 -5.0978 0.8486 -9.7783 36.8553 -7.0562 -2.5108
# 5 -29.8042 -2.2697 -28.9045 -7.0562 58.6002 -12.0851
# 6 -1.3209 -12.9080 6.3419 -2.5108 -12.0851 42.9661
#
#
#
# Elastic Compliance Matrix: (Units=1/GPa)
#
#
# Indices 1 2 3 4 5 6 
#
# 1 0.010301 -0.006003 0.000398 0.002748 0.005571 0.000182
# 2 -0.006003 0.022393 -0.008315 -0.004212 -0.005565 0.005959
# 3 0.000398 -0.008315 0.018228 0.006700 0.009227 -0.002190
# 4 0.002748 -0.004212 0.006700 0.031203 0.008732 0.002110
# 5 0.005571 -0.005565 0.009227 0.008732 0.026327 0.005053
# 6 0.000182 0.005959 -0.002190 0.002110 0.005053 0.026938
#
#
# Mechanical properties :
#
#
# Convention : Reuss Voigt Hill
#
# Bulk Modulus (GPa) = 43.32278 55.63753 49.48016
# Shear Modulus (GPa) = 29.25273 40.38103 34.81688
#
# Velocity S-wave (km/s) = 3.28651 3.86136 3.58547
# Velocity P-wave (km/s) = 5.51342 6.35794 5.95068
#
# Compressibility (1/GPa) = 0.02308254
#
# Stress axis : x y z
#
# Youngs Moduli (GPa) = 97.07955 44.65628 54.86014
#
# Poissons Ratio (x) = 0.26806 -0.02183
# Poissons Ratio (y) = 0.58275 0.45616
# Poissons Ratio (z) = -0.03864 0.37132
#
# Static dielectric constant tensor:
#      x y z
#    x 2.065360 0.041560 0.035410 
#    y 0.041560 2.119250 -0.001060 
#    z 0.035410 -0.001060 2.202940 
# 
# From -- ./inp_files/323845.got.cif
#   From: 2010.05.17/outbox.cif.g08.bks.cpg/sg2_162_cif.got.tgz:323845.got - 2010.06.03 11:33:40.
