data_PCOD9109784
_publ_section_title
;
Structure prediction by ZEFSAII (Michael W. Deem and Ramdas Pophale) SiO2 
 PCOD9109784
Probable space group: P -1
;
_chemical_formula_sum "Si O2"
_cell_formula_units_Z 14
_cell_length_a 15.428788
_cell_length_b 9.107143
_cell_length_c 7.486623
_cell_angle_alpha 123.285197
_cell_angle_beta 95.953504
_cell_angle_gamma 119.466402
_cell_volume 657.010576
_symmetry_space_group_name_H-M "P -1"
_symmetry_group_IT_number 2
_symmetry_cell_setting 'triclinic'
loop_
_space_group_symop_operation_xyz
x,y,z
-x,-y,-z
loop_
_atom_site_type_symbol
_atom_site_label
_atom_site_fract_x
_atom_site_fract_y
_atom_site_fract_z
Si Si1 0.145994 0.273756 0.785975
Si Si2 0.803992 0.692231 0.788020
Si Si3 0.612559 0.462530 0.856757
Si Si4 0.163533 0.005022 0.327280
Si Si5 0.363682 0.129224 0.698564
Si Si6 0.066344 0.544658 0.823142
Si Si7 0.169605 0.668439 0.552966
O O1 0.115171 0.080303 0.511616
O O2 0.098738 0.400182 0.813040
O O3 0.125637 0.189334 0.931407
O O4 0.287487 0.478525 0.951088
O O5 0.670768 0.508329 0.707240
O O6 0.821126 0.866330 0.765514
O O7 0.839474 0.552592 0.622267
O O8 0.485434 0.223705 0.711327
O O9 0.611500 0.670111 0.034739
O O10 0.283198 0.093138 0.496450
O O11 0.087558 0.733765 0.087013
O O12 0.286713 0.891320 0.635155
O O13 0.153370 0.690292 0.771079
O O14 0.937885 0.383535 0.606230
#
# Coordination Sequence:
#
# PCOD9109784 Si02
#       7
#     2   2   2   2   2   2   2
#     4   9  21  44  64  97 129 164 216 267 315 385
#     4  10  21  41  64  95 134 161 216 264 319 378
#     4   8  20  40  66  94 128 162 215 266 315 386
#     4  11  22  40  69  95 130 171 212 262 321 385
#     4  10  20  41  67  92 130 167 213 264 323 375
#     4  11  24  44  64  95 132 171 222 258 322 384
#     4  11  24  42  65  94 132 172 214 272 313 385
#
# _framework density 21.308636
#
# number of rings (size 3 to 8) (size 9 to 14) (size 15 to 20)
#    0.857    1.143    1.429    1.714    0.000    4.000 
#    2.571    4.286    0.000    0.000    0.000    0.000 
#    0.000    0.000    0.000    0.000    0.000    0.000 
#
# Total GULP energy -78247.067770 kJ/mol
# GULP energy per Si atom -5589.076269 kJ/mol
# Density = 2.126014 g / cm^3
# Si number density = 21.308636 Si / 1000 Ang^3
#
#
#
# Elastic Constant Matrix: (Units=GPa)
#
#
# Indices 1 2 3 4 5 6 
#
# 1 114.5060 49.8949 40.9496 10.8096 -13.6623 -1.3111
# 2 49.8949 133.6138 53.9519 0.7687 1.3344 -3.0676
# 3 40.9496 53.9519 91.8665 -1.6233 -17.4543 -0.1743
# 4 10.8096 0.7687 -1.6233 32.1285 9.2525 -0.5514
# 5 -13.6623 1.3344 -17.4543 9.2525 30.3190 3.2463
# 6 -1.3111 -3.0676 -0.1743 -0.5514 3.2463 24.8357
#
#
#
# Elastic Compliance Matrix: (Units=1/GPa)
#
#
# Indices 1 2 3 4 5 6 
#
# 1 0.012542 -0.003840 -0.002209 -0.006127 0.006506 -0.000814
# 2 -0.003840 0.011594 -0.006370 0.002738 -0.006974 0.002157
# 3 -0.002209 -0.006370 0.017469 -0.001110 0.009905 -0.002100
# 4 -0.006127 0.002738 -0.001110 0.037511 -0.015272 0.002836
# 5 0.006506 -0.006974 0.009905 -0.015272 0.047331 -0.006974
# 6 -0.000814 0.002157 -0.002100 0.002836 -0.006974 0.041448
#
#
# Mechanical properties :
#
#
# Convention : Reuss Voigt Hill
#
# Bulk Modulus (GPa) = 59.64017 69.95324 64.79670
# Shear Modulus (GPa) = 25.21164 30.46929 27.84047
#
# Velocity S-wave (km/s) = 3.44345 3.78551 3.61852
# Velocity P-wave (km/s) = 6.62263 7.21156 6.92336
#
# Compressibility (1/GPa) = 0.01676722
#
# Stress axis : x y z
#
# Youngs Moduli (GPa) = 79.73449 86.25477 57.24307
#
# Poissons Ratio (x) = 0.33119 0.12646
# Poissons Ratio (y) = 0.30616 0.36462
# Poissons Ratio (z) = 0.17615 0.54942
#
# Static dielectric constant tensor:
#      x y z
#    x 1.777700 0.036360 0.009390 
#    y 0.036360 1.762300 -0.004790 
#    z 0.009390 -0.004790 1.770940 
# 
# From -- ./inp_files/299735.got.cif
#   From: 2010.05.17/outbox.cif.g08.bks.cpg/sg2_150_cif.got.tgz:299735.got - 2010.06.03 11:33:40.
