data_PCOD9109140
_publ_section_title
;
Structure prediction by ZEFSAII (Michael W. Deem and Ramdas Pophale) SiO2 
 PCOD9109140
Probable space group: P -1
;
_chemical_formula_sum "Si O2"
_cell_formula_units_Z 14
_cell_length_a 8.606948
_cell_length_b 14.119071
_cell_length_c 8.908704
_cell_angle_alpha 139.057073
_cell_angle_beta 116.153371
_cell_angle_gamma 77.460722
_cell_volume 624.334045
_symmetry_space_group_name_H-M "P -1"
_symmetry_group_IT_number 2
_symmetry_cell_setting 'triclinic'
loop_
_space_group_symop_operation_xyz
x,y,z
-x,-y,-z
loop_
_atom_site_type_symbol
_atom_site_label
_atom_site_fract_x
_atom_site_fract_y
_atom_site_fract_z
Si Si1 0.086085 0.700875 0.539448
Si Si2 0.851925 0.092915 0.906508
Si Si3 0.640237 0.864818 0.740696
Si Si4 0.574678 0.425647 0.584534
Si Si5 0.302390 0.869849 0.404903
Si Si6 0.852457 0.004821 0.255530
Si Si7 0.828742 0.476110 0.004471
O O1 0.265096 0.646593 0.500819
O O2 0.070251 0.830048 0.569731
O O3 0.907094 0.578635 0.300107
O O4 0.117136 0.775117 0.804125
O O5 0.693679 0.100101 0.733214
O O6 0.806584 0.940710 0.800200
O O7 0.018138 0.097083 0.872677
O O8 0.585489 0.695138 0.560412
O O9 0.477942 0.890943 0.603023
O O10 0.677863 0.950722 0.016303
O O11 0.500000 0.500000 0.500000
O O12 0.670899 0.513227 0.876653
O O13 0.193458 0.979909 0.573438
O O14 0.220895 0.695524 0.179211
O O15 0.000000 0.500000 0.000000
#
# Coordination Sequence:
#
# PCOD9109140 Si02
#       7
#     2   2   2   2   2   2   2
#     4  10  20  41  63  89 127 162 202 261 308 360
#     4  11  25  38  63  97 128 160 208 253 314 367
#     4  10  21  41  62  89 130 161 200 263 311 359
#     4  10  21  39  67  93 117 164 218 248 307 373
#     4  11  21  39  65  94 122 167 210 250 308 372
#     4  11  21  40  64  91 126 169 206 248 308 376
#     4   9  18  38  64  86 122 161 205 254 304 356
#
# _framework density 22.423893
#
# number of rings (size 3 to 8) (size 9 to 14) (size 15 to 20)
#    0.000    1.714    4.286    3.000    2.000    2.857 
#    2.571    2.857    0.000    8.571    0.000    0.000 
#    0.000    0.000    0.000    0.000    0.000    0.000 
#
# Total GULP energy -78052.952525 kJ/mol
# GULP energy per Si atom -5575.210895 kJ/mol
# Density = 2.237285 g / cm^3
# Si number density = 22.423893 Si / 1000 Ang^3
#
#
#
# Elastic Constant Matrix: (Units=GPa)
#
#
# Indices 1 2 3 4 5 6 
#
# 1 36.9656 6.8182 40.2599 -0.9321 5.9537 1.0982
# 2 6.8182 85.6860 33.4465 -25.3657 4.2973 15.1334
# 3 40.2599 33.4465 167.1955 -27.4415 9.9062 15.9780
# 4 -0.9321 -25.3657 -27.4415 32.0073 11.4581 -3.5210
# 5 5.9537 4.2973 9.9062 11.4581 34.4304 0.1005
# 6 1.0982 15.1334 15.9780 -3.5210 0.1005 27.5873
#
#
#
# Elastic Compliance Matrix: (Units=1/GPa)
#
#
# Indices 1 2 3 4 5 6 
#
# 1 0.039089 -0.002593 -0.010967 -0.009755 -0.000048 0.004974
# 2 -0.002593 0.018500 0.001053 0.017403 -0.007931 -0.008405
# 3 -0.010967 0.001053 0.011053 0.011277 -0.005153 -0.005085
# 4 -0.009755 0.017403 0.011277 0.062331 -0.024451 -0.007645
# 5 -0.000048 -0.007931 -0.005153 -0.024451 0.039650 0.004072
# 6 0.004974 -0.008405 -0.005085 -0.007645 0.004072 0.042616
#
#
# Mechanical properties :
#
#
# Convention : Reuss Voigt Hill
#
# Bulk Modulus (GPa) = 22.92143 50.09957 36.51050
# Shear Modulus (GPa) = 19.77873 32.75983 26.26928
#
# Velocity S-wave (km/s) = 2.97313 3.82636 3.42641
# Velocity P-wave (km/s) = 4.69362 6.47394 5.65429
#
# Compressibility (1/GPa) = 0.04362729
#
# Stress axis : x y z
#
# Youngs Moduli (GPa) = 25.58249 54.05478 90.46963
#
# Poissons Ratio (x) = 0.14018 0.99221
# Poissons Ratio (y) = 0.06634 -0.09527
# Poissons Ratio (z) = 0.28057 -0.05692
#
# Static dielectric constant tensor:
#      x y z
#    x 1.899670 -0.032500 0.020370 
#    y -0.032500 1.832990 -0.020130 
#    z 0.020370 -0.020130 1.895690 
# 
# From -- ./inp_files/181368.got.cif
#   From: 2010.05.17/outbox.cif.g08.bks.cpg/sg2_91_cif.got.tgz:181368.got - 2010.06.03 11:33:40.
