data_PCOD9109916
_publ_section_title
;
Structure prediction by ZEFSAII (Michael W. Deem and Ramdas Pophale) SiO2 
 PCOD9109916
Probable space group: P -1
;
_chemical_formula_sum "Si O2"
_cell_formula_units_Z 16
_cell_length_a 8.997964
_cell_length_b 8.582845
_cell_length_c 14.647116
_cell_angle_alpha 127.677272
_cell_angle_beta 102.539219
_cell_angle_gamma 108.841288
_cell_volume 705.760528
_symmetry_space_group_name_H-M "P -1"
_symmetry_group_IT_number 2
_symmetry_cell_setting 'triclinic'
loop_
_space_group_symop_operation_xyz
x,y,z
-x,-y,-z
loop_
_atom_site_type_symbol
_atom_site_label
_atom_site_fract_x
_atom_site_fract_y
_atom_site_fract_z
Si Si1 0.248466 0.475629 0.435934
Si Si2 0.506493 0.398943 0.315574
Si Si3 0.985577 0.522546 0.736694
Si Si4 0.824952 0.745272 0.346319
Si Si5 0.349129 0.551396 0.023374
Si Si6 0.027038 0.075508 0.767219
Si Si7 0.168787 0.683939 0.161969
Si Si8 0.673384 0.096276 0.991762
O O1 0.382736 0.457651 0.378123
O O2 0.352953 0.588720 0.585570
O O3 0.160646 0.580297 0.401821
O O4 0.064130 0.202559 0.333195
O O5 0.632347 0.605479 0.328621
O O6 0.378559 0.129051 0.158934
O O7 0.876443 0.420634 0.780523
O O8 0.115479 0.435307 0.703503
O O9 0.142382 0.804277 0.886204
O O10 0.842600 0.812611 0.265966
O O11 0.000000 0.000000 0.500000
O O12 0.357309 0.718091 0.165870
O O13 0.311544 0.685675 0.985706
O O14 0.500000 0.500000 0.000000
O O15 0.172080 0.277630 0.930594
O O16 0.851421 0.095642 0.751422
O O17 0.000000 0.500000 0.000000
O O18 0.500000 0.000000 0.000000
#
# Coordination Sequence:
#
# PCOD9109916 Si02
#       8
#     2   2   2   2   2   2   2   2
#     4  11  26  44  67 103 136 178 229 274 340 407
#     4  11  25  45  70  96 143 178 219 283 344 399
#     4  11  24  43  70 101 130 175 230 276 336 403
#     4  11  21  45  71  90 131 183 223 272 336 403
#     4  11  23  38  64 100 130 168 222 277 329 394
#     4  10  20  41  68  91 131 177 220 267 333 399
#     4   9  18  40  63  92 127 173 212 270 334 389
#     4  12  23  43  67  99 139 172 219 285 340 389
#
# _framework density 22.670580000000001
#
# number of rings (size 3 to 8) (size 9 to 14) (size 15 to 20)
#    0.000    1.250    6.250    0.750    3.500    3.000 
#    2.250    0.625    0.000    0.000    0.000    0.000 
#    0.000    0.000    0.000    0.000    0.000    0.000 
#
# Total GULP energy -89095.583862 kJ/mol
# GULP energy per Si atom -5568.473991 kJ/mol
# Density = 2.261898 g / cm^3
# Si number density = 22.670580 Si / 1000 Ang^3
#
#
#
# Elastic Constant Matrix: (Units=GPa)
#
#
# Indices 1 2 3 4 5 6 
#
# 1 75.2722 5.2287 -15.2065 -7.7575 -4.2353 21.5886
# 2 5.2287 51.0902 -12.6196 -1.4844 -1.9992 20.6903
# 3 -15.2065 -12.6196 65.1735 10.1407 -2.4340 -0.3877
# 4 -7.7575 -1.4844 10.1407 28.1264 3.7548 0.1862
# 5 -4.2353 -1.9992 -2.4340 3.7548 25.7986 -9.2769
# 6 21.5886 20.6903 -0.3877 0.1862 -9.2769 24.2796
#
#
#
# Elastic Compliance Matrix: (Units=1/GPa)
#
#
# Indices 1 2 3 4 5 6 
#
# 1 0.024427 0.013934 0.006876 0.006358 -0.008399 -0.036741
# 2 0.013934 0.041514 0.009764 0.004624 -0.013193 -0.052687
# 3 0.006876 0.009764 0.019403 -0.004378 -0.000827 -0.014407
# 4 0.006358 0.004624 -0.004378 0.040536 -0.009851 -0.013738
# 5 -0.008399 -0.013193 -0.000827 -0.009851 0.051549 0.038469
# 6 -0.036741 -0.052687 -0.014407 -0.013738 0.038469 0.133328
#
#
# Mechanical properties :
#
#
# Convention : Reuss Voigt Hill
#
# Bulk Modulus (GPa) = 6.82633 16.26013 11.54323
# Shear Modulus (GPa) = 16.75378 29.91646 23.33512
#
# Velocity S-wave (km/s) = 2.72142 3.63659 3.21177
# Velocity P-wave (km/s) = 3.59061 4.98207 4.34244
#
# Compressibility (1/GPa) = 0.14649167
#
# Stress axis : x y z
#
# Youngs Moduli (GPa) = 40.93894 24.08820 51.53792
#
# Poissons Ratio (x) = -0.33564 -0.35437
# Poissons Ratio (y) = -0.57044 -0.50322
# Poissons Ratio (z) = -0.28149 -0.23520
#
# Static dielectric constant tensor:
#      x y z
#    x 1.882660 0.018850 -0.005270 
#    y 0.018850 1.893390 -0.027190 
#    z -0.005270 -0.027190 1.989620 
# 
# From -- ./inp_files/495752.got.cif
#   From: 2010.05.17/outbox.cif.g08.bks.cpg/sg2_248_cif.got.tgz:495752.got - 2010.06.03 11:33:40.
