data_PCOD9109527
_publ_section_title
;
Structure prediction by ZEFSAII (Michael W. Deem and Ramdas Pophale) SiO2 
 PCOD9109527
Probable space group: P -1
;
_chemical_formula_sum "Si O2"
_cell_formula_units_Z 14
_cell_length_a 9.396941
_cell_length_b 7.084513
_cell_length_c 14.889792
_cell_angle_alpha 79.336581
_cell_angle_beta 70.984882
_cell_angle_gamma 135.537889
_cell_volume 509.467874
_symmetry_space_group_name_H-M "P -1"
_symmetry_group_IT_number 2
_symmetry_cell_setting 'triclinic'
loop_
_space_group_symop_operation_xyz
x,y,z
-x,-y,-z
loop_
_atom_site_type_symbol
_atom_site_label
_atom_site_fract_x
_atom_site_fract_y
_atom_site_fract_z
Si Si1 0.941811 0.744254 0.746062
Si Si2 0.274804 0.725061 0.873441
Si Si3 0.652691 0.764429 0.215857
Si Si4 0.477594 0.540088 0.898519
Si Si5 0.825086 0.379284 0.291128
Si Si6 0.805965 0.437850 0.491635
Si Si7 0.713025 0.754065 0.516920
O O1 0.919553 0.493808 0.787096
O O2 0.729971 0.690065 0.789688
O O3 0.113238 0.976791 0.779897
O O4 0.093231 0.895086 0.604943
O O5 0.438366 0.726975 0.886612
O O6 0.197182 0.552091 0.807698
O O7 0.428314 0.094212 0.792997
O O8 0.000000 0.500000 0.000000
O O9 0.735497 0.777785 0.100363
O O10 0.447479 0.401675 0.343611
O O11 0.500000 0.500000 0.000000
O O12 0.866609 0.521589 0.365492
O O13 0.515689 0.959470 0.400559
O O14 0.851950 0.695364 0.500630
O O15 0.000000 0.500000 0.500000
O O16 0.500000 0.500000 0.500000
#
# Coordination Sequence:
#
# PCOD9109527 Si02
#       7
#     2   2   2   2   2   2   2
#     4  10  23  43  68 100 138 177 226 278 339 406
#     4  11  25  48  73  99 134 183 231 283 344 400
#     4  10  24  48  70  97 147 176 218 289 342 399
#     4  12  28  46  72 103 131 181 238 279 340 408
#     4  10  23  43  63  97 140 175 223 281 332 402
#     4  11  23  38  65  97 137 173 221 268 334 406
#     4  10  20  41  65  99 139 176 215 272 345 399
#
# _framework density 27.479652999999999
#
# number of rings (size 3 to 8) (size 9 to 14) (size 15 to 20)
#    0.000    1.429    4.286    1.714    8.000    3.429 
#    0.000    0.000    0.000    0.000    0.000    0.000 
#    0.000    0.000    0.000    0.000    0.000    0.000 
#
# Total GULP energy -78135.199725 kJ/mol
# GULP energy per Si atom -5581.085695 kJ/mol
# Density = 2.741711 g / cm^3
# Si number density = 27.479653 Si / 1000 Ang^3
#
#
#
# Elastic Constant Matrix: (Units=GPa)
#
#
# Indices 1 2 3 4 5 6 
#
# 1 232.8423 29.3654 52.8626 1.2401 9.9328 11.8926
# 2 29.3654 90.7247 48.0544 38.5338 4.5078 -0.4942
# 3 52.8626 48.0544 158.1160 47.1625 12.5841 10.5294
# 4 1.2401 38.5338 47.1625 51.2103 11.4179 5.3117
# 5 9.9328 4.5078 12.5841 11.4179 57.8253 9.7851
# 6 11.8926 -0.4942 10.5294 5.3117 9.7851 36.2233
#
#
#
# Elastic Compliance Matrix: (Units=1/GPa)
#
#
# Indices 1 2 3 4 5 6 
#
# 1 0.005097 -0.002099 -0.001984 0.003599 -0.000745 -0.001452
# 2 -0.002099 0.017689 -0.001152 -0.012774 0.001282 0.002792
# 3 -0.001984 -0.001152 0.009791 -0.008006 0.000059 -0.001052
# 4 0.003599 -0.012774 -0.008006 0.037835 -0.004796 -0.003281
# 5 -0.000745 0.001282 0.000059 -0.004796 0.018962 -0.004174
# 6 -0.001452 0.002792 -0.001052 -0.003281 -0.004174 0.030036
#
#
# Mechanical properties :
#
#
# Convention : Reuss Voigt Hill
#
# Bulk Modulus (GPa) = 45.23303 82.47199 63.85251
# Shear Modulus (GPa) = 36.43044 52.47847 44.45446
#
# Velocity S-wave (km/s) = 3.64500 4.37478 4.02646
# Velocity P-wave (km/s) = 5.84902 7.45623 6.70098
#
# Compressibility (1/GPa) = 0.02210774
#
# Stress axis : x y z
#
# Youngs Moduli (GPa) = 196.21087 56.53291 102.13042
#
# Poissons Ratio (x) = 0.11864 0.20260
# Poissons Ratio (y) = 0.41176 0.11768
# Poissons Ratio (z) = 0.38923 0.06514
#
# Static dielectric constant tensor:
#      x y z
#    x 2.206300 0.119880 -0.051240 
#    y 0.119880 2.443160 -0.160030 
#    z -0.051240 -0.160030 2.170840 
# 
# From -- ./inp_files/492500.got.cif
#   From: 2010.05.17/outbox.cif.g08.bks.cpg/sg2_247_cif.got.tgz:492500.got - 2010.06.03 11:33:40.
