data_PCOD9109425
_publ_section_title
;
Structure prediction by ZEFSAII (Michael W. Deem and Ramdas Pophale) SiO2 
 PCOD9109425
Probable space group: P -1
;
_chemical_formula_sum "Si O2"
_cell_formula_units_Z 16
_cell_length_a 18.109753
_cell_length_b 11.622507
_cell_length_c 9.864811
_cell_angle_alpha 57.127450
_cell_angle_beta 69.971207
_cell_angle_gamma 29.511333
_cell_volume 815.617580
_symmetry_space_group_name_H-M "P -1"
_symmetry_group_IT_number 2
_symmetry_cell_setting 'triclinic'
loop_
_space_group_symop_operation_xyz
x,y,z
-x,-y,-z
loop_
_atom_site_type_symbol
_atom_site_label
_atom_site_fract_x
_atom_site_fract_y
_atom_site_fract_z
Si Si1 0.901480 0.710762 0.301240
Si Si2 0.003025 0.838428 0.745694
Si Si3 0.550874 0.270813 0.568537
Si Si4 0.680507 0.666910 0.634395
Si Si5 0.420966 0.880136 0.638755
Si Si6 0.984700 0.183601 0.926062
Si Si7 0.899184 0.710049 0.802857
Si Si8 0.240849 0.557048 0.561864
O O1 0.000000 0.500000 0.500000
O O2 0.899383 0.878637 0.174188
O O3 0.000316 0.499037 0.251130
O O4 0.721348 0.934341 0.289679
O O5 0.168568 0.599994 0.714829
O O6 0.912691 0.852240 0.720089
O O7 0.017798 0.793114 0.925586
O O8 0.895548 0.133884 0.601834
O O9 0.500000 0.500000 0.500000
O O10 0.582422 0.220682 0.418048
O O11 0.400623 0.397441 0.597385
O O12 0.710964 0.972851 0.730861
O O13 0.593156 0.654608 0.734026
O O14 0.822807 0.466654 0.775430
O O15 0.731200 0.580028 0.499754
O O16 0.598887 0.937914 0.529693
O O17 0.000000 0.000000 0.000000
O O18 0.000000 0.500000 0.000000
#
# Coordination Sequence:
#
# PCOD9109425 Si02
#       8
#     2   2   2   2   2   2   2   2
#     4  12  23  42  69  97 124 177 226 261 319 403
#     4  11  23  40  62  96 128 171 210 266 329 387
#     4  11  22  40  65  96 128 167 216 271 321 388
#     4  10  20  41  65  91 126 169 212 270 320 380
#     4  10  22  39  68  94 122 168 227 261 313 393
#     4  12  24  39  62  95 137 164 210 278 329 378
#     4  12  24  42  66  93 134 169 211 272 329 381
#     4  10  22  40  67  90 125 171 220 254 323 400
#
# _framework density 19.617035999999999
#
# number of rings (size 3 to 8) (size 9 to 14) (size 15 to 20)
#    0.000    1.000    6.250    0.750    0.000    1.000 
#    2.250    1.250    0.000    0.000    0.000    0.000 
#    0.000    0.000    0.000    0.000    0.000    0.000 
#
# Total GULP energy -89131.406145 kJ/mol
# GULP energy per Si atom -5570.712884 kJ/mol
# Density = 1.957239 g / cm^3
# Si number density = 19.617036 Si / 1000 Ang^3
#
#
#
# Elastic Constant Matrix: (Units=GPa)
#
#
# Indices 1 2 3 4 5 6 
#
# 1 89.0381 31.9277 24.0630 12.1771 7.3021 -1.2970
# 2 31.9277 94.6068 23.9317 16.7474 8.4609 -6.6392
# 3 24.0630 23.9317 70.6297 22.4556 4.9637 -9.8775
# 4 12.1771 16.7474 22.4556 16.1421 -2.1531 -3.4967
# 5 7.3021 8.4609 4.9637 -2.1531 27.6262 -5.8847
# 6 -1.2970 -6.6392 -9.8775 -3.4967 -5.8847 53.7200
#
#
#
# Elastic Compliance Matrix: (Units=1/GPa)
#
#
# Indices 1 2 3 4 5 6 
#
# 1 0.013789 -0.003058 -0.001978 -0.005106 -0.002978 -0.001067
# 2 -0.003058 0.014401 0.001373 -0.015109 -0.004934 0.000435
# 3 -0.001978 0.001373 0.027463 -0.038735 -0.007460 0.001833
# 4 -0.005106 -0.015109 -0.038735 0.139174 0.024340 0.002613
# 5 -0.002978 -0.004934 -0.007460 0.024340 0.042628 0.004200
# 6 -0.001067 0.000435 0.001833 0.002613 0.004200 0.019610
#
#
# Mechanical properties :
#
#
# Convention : Reuss Voigt Hill
#
# Bulk Modulus (GPa) = 20.69224 46.01327 33.35275
# Shear Modulus (GPa) = 17.82529 31.12113 24.47321
#
# Velocity S-wave (km/s) = 3.01768 3.98733 3.53590
# Velocity P-wave (km/s) = 4.76580 6.68618 5.80594
#
# Compressibility (1/GPa) = 0.04832731
#
# Stress axis : x y z
#
# Youngs Moduli (GPa) = 72.51993 69.43991 36.41295
#
# Poissons Ratio (x) = 0.21234 0.07204
# Poissons Ratio (y) = 0.22175 -0.05001
# Poissons Ratio (z) = 0.14348 -0.09537
#
# Static dielectric constant tensor:
#      x y z
#    x 1.764790 -0.022790 0.046850 
#    y -0.022790 1.716130 -0.095170 
#    z 0.046850 -0.095170 1.771430 
# 
# From -- ./inp_files/185938.got.cif
#   From: 2010.05.17/outbox.cif.g08.bks.cpg/sg2_93_cif.got.tgz:185938.got - 2010.06.03 11:33:40.
