data_PCOD9109108
_publ_section_title
;
Structure prediction by ZEFSAII (Michael W. Deem and Ramdas Pophale) SiO2 
 PCOD9109108
Probable space group: P -1
;
_chemical_formula_sum "Si O2"
_cell_formula_units_Z 16
_cell_length_a 10.328302
_cell_length_b 17.497723
_cell_length_c 5.889625
_cell_angle_alpha 65.055539
_cell_angle_beta 43.812118
_cell_angle_gamma 59.086529
_cell_volume 629.855471
_symmetry_space_group_name_H-M "P -1"
_symmetry_group_IT_number 2
_symmetry_cell_setting 'triclinic'
loop_
_space_group_symop_operation_xyz
x,y,z
-x,-y,-z
loop_
_atom_site_type_symbol
_atom_site_label
_atom_site_fract_x
_atom_site_fract_y
_atom_site_fract_z
Si Si1 0.484396 0.787612 0.735559
Si Si2 0.138000 0.414623 0.064496
Si Si3 0.835212 0.031293 0.973517
Si Si4 0.156357 0.228612 0.389211
Si Si5 0.776247 0.447115 0.738484
Si Si6 0.508128 0.392673 0.851016
Si Si7 0.207193 0.729599 0.878299
Si Si8 0.074712 0.125303 0.253952
O O1 0.358076 0.891164 0.794149
O O2 0.443523 0.712319 0.043549
O O3 0.400914 0.757990 0.644852
O O4 0.703347 0.777035 0.562660
O O5 0.158253 0.312215 0.124021
O O6 0.009344 0.426301 0.445992
O O7 0.358424 0.418636 0.799082
O O8 0.000000 0.500000 0.000000
O O9 0.927971 0.080418 0.610319
O O10 0.810285 0.944057 0.998104
O O11 0.000000 0.000000 0.000000
O O12 0.209022 0.145471 0.255467
O O13 0.941360 0.240205 0.753400
O O14 0.699911 0.417993 0.633927
O O15 0.744021 0.377141 0.051003
O O16 0.641997 0.547131 0.840609
O O17 0.072158 0.783038 0.780390
#
# Coordination Sequence:
#
# PCOD9109108 Si02
#       8
#     2   2   2   2   2   2   2   2
#     4  10  20  41  63  84 131 160 193 265 311 348
#     4  10  21  35  56  85 126 162 194 250 296 348
#     4  11  22  42  69  91 122 160 201 258 315 364
#     4  10  22  41  59  93 128 159 205 250 307 363
#     4   9  19  36  60  82 119 162 203 243 295 358
#     4   9  19  36  57  87 114 160 205 238 301 359
#     4  10  20  41  64  88 125 166 199 256 302 357
#     4  11  22  39  68  94 116 158 214 243 307 382
#
# _framework density 25.402654999999999
#
# number of rings (size 3 to 8) (size 9 to 14) (size 15 to 20)
#    0.000    2.000    2.500    0.375    1.750    1.000 
#    2.250    8.750    0.000    0.000    0.000    0.000 
#    0.000    0.000    0.000    0.000    0.000    0.000 
#
# Total GULP energy -89243.010140 kJ/mol
# GULP energy per Si atom -5577.688134 kJ/mol
# Density = 2.534484 g / cm^3
# Si number density = 25.402655 Si / 1000 Ang^3
#
#
#
# Elastic Constant Matrix: (Units=GPa)
#
#
# Indices 1 2 3 4 5 6 
#
# 1 133.7327 32.0383 22.9624 1.3656 -17.9238 -3.5854
# 2 32.0383 106.9076 26.7623 3.5841 -1.8115 -10.9188
# 3 22.9624 26.7623 44.4592 -6.4758 -6.3823 1.5477
# 4 1.3656 3.5841 -6.4758 34.4371 -3.5721 8.8871
# 5 -17.9238 -1.8115 -6.3823 -3.5721 25.1334 -0.6259
# 6 -3.5854 -10.9188 1.5477 8.8871 -0.6259 54.6721
#
#
#
# Elastic Compliance Matrix: (Units=1/GPa)
#
#
# Indices 1 2 3 4 5 6 
#
# 1 0.009194 -0.001901 -0.002834 -0.000215 0.005679 0.000403
# 2 -0.001901 0.012161 -0.007380 -0.003662 -0.002797 0.003076
# 3 -0.002834 -0.007380 0.030643 0.008278 0.006310 -0.003801
# 4 -0.000215 -0.003662 0.008278 0.033263 0.006255 -0.006315
# 5 0.005679 -0.002797 0.006310 0.006255 0.046107 -0.000854
# 6 0.000403 0.003076 -0.003801 -0.006315 -0.000854 0.020056
#
#
# Mechanical properties :
#
#
# Convention : Reuss Voigt Hill
#
# Bulk Modulus (GPa) = 36.01487 49.84727 42.93107
# Shear Modulus (GPa) = 27.04020 36.40429 31.72225
#
# Velocity S-wave (km/s) = 3.26615 3.78972 3.53764
# Velocity P-wave (km/s) = 5.33217 6.23015 5.79857
#
# Compressibility (1/GPa) = 0.02776631
#
# Stress axis : x y z
#
# Youngs Moduli (GPa) = 108.76789 82.23229 32.63408
#
# Poissons Ratio (x) = 0.15634 0.09249
# Poissons Ratio (y) = 0.20678 0.24085
# Poissons Ratio (z) = 0.30826 0.60690
#
# Static dielectric constant tensor:
#      x y z
#    x 2.047920 0.036390 0.037450 
#    y 0.036390 2.073820 -0.033050 
#    z 0.037450 -0.033050 2.054800 
# 
# From -- ./inp_files/46985.got.cif
#   From: 2010.05.17/outbox.cif.g08.bks.cpg/sg2_24_cif.got.tgz:46985.got - 2010.06.03 11:33:40.
