data_PCOD9109289
_publ_section_title
;
Structure prediction by ZEFSAII (Michael W. Deem and Ramdas Pophale) SiO2 
 PCOD9109289
Probable space group: P -1
;
_chemical_formula_sum "Si O2"
_cell_formula_units_Z 16
_cell_length_a 9.019430
_cell_length_b 16.573163
_cell_length_c 6.172483
_cell_angle_alpha 67.564567
_cell_angle_beta 95.101703
_cell_angle_gamma 120.182769
_cell_volume 731.062654
_symmetry_space_group_name_H-M "P -1"
_symmetry_group_IT_number 2
_symmetry_cell_setting 'triclinic'
loop_
_space_group_symop_operation_xyz
x,y,z
-x,-y,-z
loop_
_atom_site_type_symbol
_atom_site_label
_atom_site_fract_x
_atom_site_fract_y
_atom_site_fract_z
Si Si1 0.922554 0.033244 0.258823
Si Si2 0.669014 0.555155 0.201892
Si Si3 0.256886 0.738035 0.067854
Si Si4 0.424083 0.957078 0.780492
Si Si5 0.170893 0.165831 0.800260
Si Si6 0.015636 0.288302 0.625930
Si Si7 0.467421 0.633769 0.300166
Si Si8 0.950605 0.585579 0.893744
O O1 0.844286 0.934346 0.196530
O O2 0.764963 0.053375 0.248774
O O3 0.000000 0.000000 0.500000
O O4 0.079868 0.129985 0.060000
O O5 0.527536 0.589528 0.155015
O O6 0.592758 0.450872 0.433492
O O7 0.828423 0.648765 0.251776
O O8 0.764800 0.550920 0.006437
O O9 0.171325 0.757550 0.246548
O O10 0.321484 0.660115 0.201809
O O11 0.404089 0.846265 0.893995
O O12 0.100259 0.683200 0.936633
O O13 0.500000 0.000000 0.500000
O O14 0.500000 0.000000 0.000000
O O15 0.365187 0.259064 0.723827
O O16 0.053065 0.203586 0.623690
O O17 0.042447 0.376782 0.382425
O O18 0.000000 0.500000 0.000000
#
# Coordination Sequence:
#
# PCOD9109289 Si02
#       8
#     2   2   2   2   2   2   2   2
#     4  11  26  44  73  99 141 189 244 301 367 445
#     4   9  21  41  63  92 131 173 225 290 345 421
#     4  11  24  41  69  96 137 180 232 290 361 435
#     4  12  30  51  76 112 153 192 247 314 377 439
#     4  10  23  43  67  95 132 181 236 288 365 431
#     4  10  21  41  67  92 131 178 230 284 353 431
#     4  10  20  41  64  92 133 175 223 288 353 420
#     4  11  23  40  65  98 131 182 233 289 361 429
#
# _framework density 21.885950000000001
#
# number of rings (size 3 to 8) (size 9 to 14) (size 15 to 20)
#    0.000    1.500    1.250    2.250    8.750    2.000 
#    2.250   11.250    0.000    0.000    0.000    0.000 
#    0.000    0.000    0.000    0.000    0.000    0.000 
#
# Total GULP energy -89197.022588 kJ/mol
# GULP energy per Si atom -5574.813912 kJ/mol
# Density = 2.183614 g / cm^3
# Si number density = 21.885950 Si / 1000 Ang^3
#
#
#
# Elastic Constant Matrix: (Units=GPa)
#
#
# Indices 1 2 3 4 5 6 
#
# 1 77.1884 4.0287 8.9000 2.3134 6.0912 -3.3868
# 2 4.0287 81.6474 16.9862 -20.6751 -3.0345 4.8505
# 3 8.9000 16.9862 71.6505 -17.3717 -3.3494 6.8253
# 4 2.3134 -20.6751 -17.3717 36.6565 2.5511 5.6443
# 5 6.0912 -3.0345 -3.3494 2.5511 39.5593 -9.1870
# 6 -3.3868 4.8505 6.8253 5.6443 -9.1870 32.5375
#
#
#
# Elastic Compliance Matrix: (Units=1/GPa)
#
#
# Indices 1 2 3 4 5 6 
#
# 1 0.013597 -0.001068 -0.002391 -0.002794 -0.001716 0.002076
# 2 -0.001068 0.014887 -0.000976 0.008578 -0.000181 -0.003665
# 3 -0.002391 -0.000976 0.017026 0.008462 -0.000005 -0.005144
# 4 -0.002794 0.008578 0.008462 0.038200 -0.003183 -0.010870
# 5 -0.001716 -0.000181 -0.000005 -0.003183 0.027639 0.008206
# 6 0.002076 -0.003665 -0.005144 -0.010870 0.008206 0.036778
#
#
# Mechanical properties :
#
#
# Convention : Reuss Voigt Hill
#
# Bulk Modulus (GPa) = 27.29292 32.25735 29.77513
# Shear Modulus (GPa) = 29.54885 35.12210 32.33547
#
# Velocity S-wave (km/s) = 3.67840 4.01031 3.84794
# Velocity P-wave (km/s) = 5.52616 6.01783 5.77723
#
# Compressibility (1/GPa) = 0.03663954
#
# Stress axis : x y z
#
# Youngs Moduli (GPa) = 73.54573 67.17379 58.73227
#
# Poissons Ratio (x) = 0.07175 0.14044
# Poissons Ratio (y) = 0.07855 0.05733
# Poissons Ratio (z) = 0.17586 0.06557
#
# Static dielectric constant tensor:
#      x y z
#    x 1.741230 0.023850 -0.028910 
#    y 0.023850 1.821080 0.064900 
#    z -0.028910 0.064900 1.829830 
# 
# From -- ./inp_files/46685.got.cif
#   From: 2010.05.17/outbox.cif.g08.bks.cpg/sg2_24_cif.got.tgz:46685.got - 2010.06.03 11:33:40.
