data_PCOD9109906
_publ_section_title
;
Structure prediction by ZEFSAII (Michael W. Deem and Ramdas Pophale) SiO2 
 PCOD9109906
Probable space group: P -1
;
_chemical_formula_sum "Si O2"
_cell_formula_units_Z 12
_cell_length_a 7.580652
_cell_length_b 10.734274
_cell_length_c 12.026873
_cell_angle_alpha 68.096330
_cell_angle_beta 36.223113
_cell_angle_gamma 86.585887
_cell_volume 481.768203
_symmetry_space_group_name_H-M "P -1"
_symmetry_group_IT_number 2
_symmetry_cell_setting 'triclinic'
loop_
_space_group_symop_operation_xyz
x,y,z
-x,-y,-z
loop_
_atom_site_type_symbol
_atom_site_label
_atom_site_fract_x
_atom_site_fract_y
_atom_site_fract_z
Si Si1 0.292447 0.954721 0.439737
Si Si2 0.049248 0.989304 0.847593
Si Si3 0.272693 0.745183 0.799521
Si Si4 0.097399 0.471848 0.116905
Si Si5 0.364570 0.098179 0.121376
Si Si6 0.234262 0.564081 0.252819
O O1 0.548891 0.910138 0.390015
O O2 0.377048 0.116632 0.398737
O O3 0.377485 0.995779 0.253407
O O4 0.915940 0.856283 0.695537
O O5 0.031486 0.825964 0.889726
O O6 0.807091 0.996955 0.872531
O O7 0.000000 0.000000 0.000000
O O8 0.176862 0.640739 0.990029
O O9 0.208582 0.635020 0.766940
O O10 0.421672 0.453146 0.917081
O O11 0.045379 0.461021 0.277753
O O12 0.658670 0.259121 0.883788
O O13 0.000000 0.500000 0.500000
#
# Coordination Sequence:
#
# PCOD9109906 Si02
#       6
#     2   2   2   2   2   2
#     4   9  21  39  67  89 125 168 215 269 320 384
#     4  10  21  39  62  96 132 165 216 273 321 389
#     4   9  19  40  65  92 125 167 220 260 328 386
#     4  10  20  41  68  89 132 172 206 272 323 384
#     4  11  20  42  64  90 129 164 221 266 320 389
#     4  11  22  40  64  98 128 170 220 262 323 394
#
# _framework density 24.908244
#
# number of rings (size 3 to 8) (size 9 to 14) (size 15 to 20)
#    1.000    1.000    3.333    0.500    0.000    0.667 
#    9.000    6.667    0.000    0.000    0.000    0.000 
#    0.000    0.000    0.000    0.000    0.000    0.000 
#
# Total GULP energy -66849.719357 kJ/mol
# GULP energy per Si atom -5570.809946 kJ/mol
# Density = 2.485155 g / cm^3
# Si number density = 24.908244 Si / 1000 Ang^3
#
#
#
# Elastic Constant Matrix: (Units=GPa)
#
#
# Indices 1 2 3 4 5 6 
#
# 1 151.8900 6.4575 34.1410 9.6437 31.6850 24.5964
# 2 6.4575 40.1031 31.9039 -6.8236 14.1429 7.5351
# 3 34.1410 31.9039 163.5797 4.4492 38.7508 27.6446
# 4 9.6437 -6.8236 4.4492 36.3270 9.2758 15.9297
# 5 31.6850 14.1429 38.7508 9.2758 33.9565 1.5766
# 6 24.5964 7.5351 27.6446 15.9297 1.5766 38.6100
#
#
#
# Elastic Compliance Matrix: (Units=1/GPa)
#
#
# Indices 1 2 3 4 5 6 
#
# 1 0.010775 0.005803 0.002440 0.007546 -0.016751 -0.012173
# 2 0.005803 0.041127 0.000043 0.021852 -0.027650 -0.019640
# 3 0.002440 0.000043 0.011452 0.007626 -0.016878 -0.012219
# 4 0.007546 0.021852 0.007626 0.053802 -0.037908 -0.035181
# 5 -0.016751 -0.027650 -0.016878 -0.037908 0.084340 0.040349
# 6 -0.012173 -0.019640 -0.012219 -0.035181 0.040349 0.059104
#
#
# Mechanical properties :
#
#
# Convention : Reuss Voigt Hill
#
# Bulk Modulus (GPa) = 12.51189 55.61973 34.06581
# Shear Modulus (GPa) = 18.47260 40.65007 29.56133
#
# Velocity S-wave (km/s) = 2.72624 4.04418 3.44875
# Velocity P-wave (km/s) = 3.86574 6.64721 5.43734
#
# Compressibility (1/GPa) = 0.07992400
#
# Stress axis : x y z
#
# Youngs Moduli (GPa) = 92.80571 24.31486 87.32368
#
# Poissons Ratio (x) = -0.14110 -0.21303
# Poissons Ratio (y) = -0.53855 -0.00371
# Poissons Ratio (z) = -0.22640 -0.00103
#
# Static dielectric constant tensor:
#      x y z
#    x 2.122220 -0.068100 -0.099460 
#    y -0.068100 2.002730 0.086880 
#    z -0.099460 0.086880 2.112020 
# 
# From -- ./inp_files/389656.got.cif
#   From: 2010.05.17/outbox.cif.g08.bks.cpg/sg2_195_cif.got.tgz:389656.got - 2010.06.03 11:33:40.
