data_PCOD9109818
_publ_section_title
;
Structure prediction by ZEFSAII (Michael W. Deem and Ramdas Pophale) SiO2 
 PCOD9109818
Probable space group: P -1
;
_chemical_formula_sum "Si O2"
_cell_formula_units_Z 14
_cell_length_a 13.394044
_cell_length_b 7.551545
_cell_length_c 14.214387
_cell_angle_alpha 134.363646
_cell_angle_beta 31.300848
_cell_angle_gamma 126.029420
_cell_volume 533.836963
_symmetry_space_group_name_H-M "P -1"
_symmetry_group_IT_number 2
_symmetry_cell_setting 'triclinic'
loop_
_space_group_symop_operation_xyz
x,y,z
-x,-y,-z
loop_
_atom_site_type_symbol
_atom_site_label
_atom_site_fract_x
_atom_site_fract_y
_atom_site_fract_z
Si Si1 0.261760 0.981518 0.190808
Si Si2 0.163554 0.695625 0.693622
Si Si3 0.817768 0.156208 0.586431
Si Si4 0.192985 0.303087 0.695069
Si Si5 0.243246 0.728113 0.924164
Si Si6 0.378794 0.507493 0.263557
Si Si7 0.726666 0.869757 0.101185
O O1 0.262935 0.896341 0.265474
O O2 0.393526 0.212009 0.147084
O O3 0.045080 0.102580 0.392953
O O4 0.275313 0.772571 0.023089
O O5 0.167843 0.487940 0.695105
O O6 0.270570 0.595412 0.478447
O O7 0.255317 0.944156 0.754807
O O8 0.940286 0.753365 0.873232
O O9 0.743350 0.956930 0.495776
O O10 0.751528 0.416595 0.693678
O O11 0.316042 0.462059 0.727920
O O12 0.989168 0.260058 0.894145
O O13 0.318407 0.949127 0.883112
O O14 0.571668 0.660561 0.156357
#
# Coordination Sequence:
#
# PCOD9109818 Si02
#       7
#     2   2   2   2   2   2   2
#     4  10  21  40  65  96 136 181 224 272 344 400
#     4  10  20  41  67  94 137 176 219 282 341 400
#     4  10  21  39  66  98 131 179 229 273 337 406
#     4   9  17  37  67  94 126 178 225 273 339 396
#     4   9  19  38  60  92 135 166 223 278 323 401
#     4  12  23  41  70  98 136 177 227 281 334 409
#     4  10  23  40  64 100 133 177 226 277 341 403
#
# _framework density 26.225235000000001
#
# number of rings (size 3 to 8) (size 9 to 14) (size 15 to 20)
#    0.000    2.000    1.429    2.571    0.000    1.714 
#    2.571    3.571    0.000    0.000    0.000    0.000 
#    0.000    0.000    0.000    0.000    0.000    0.000 
#
# Total GULP energy -78578.314820 kJ/mol
# GULP energy per Si atom -5612.736773 kJ/mol
# Density = 2.616554 g / cm^3
# Si number density = 26.225235 Si / 1000 Ang^3
#
#
#
# Elastic Constant Matrix: (Units=GPa)
#
#
# Indices 1 2 3 4 5 6 
#
# 1 82.5864 27.4408 29.8991 -1.0996 19.8552 -6.1000
# 2 27.4408 126.6235 32.0221 -12.2181 25.4195 -6.7546
# 3 29.8991 32.0221 81.2989 -12.9457 24.0577 17.7738
# 4 -1.0996 -12.2181 -12.9457 42.0385 7.2325 1.1858
# 5 19.8552 25.4195 24.0577 7.2325 36.9333 3.5042
# 6 -6.1000 -6.7546 17.7738 1.1858 3.5042 37.9704
#
#
#
# Elastic Compliance Matrix: (Units=1/GPa)
#
#
# Indices 1 2 3 4 5 6 
#
# 1 0.015892 -0.000925 -0.005387 -0.000848 -0.004742 0.005374
# 2 -0.000925 0.010359 -0.002038 0.003347 -0.006256 0.003121
# 3 -0.005387 -0.002038 0.021819 0.008092 -0.010481 -0.010727
# 4 -0.000848 0.003347 0.008092 0.029485 -0.012600 -0.003087
# 5 -0.004742 -0.006256 -0.010481 -0.012600 0.043279 -0.000569
# 6 0.005374 0.003121 -0.010727 -0.003087 -0.000569 0.032925
#
#
# Mechanical properties :
#
#
# Convention : Reuss Voigt Hill
#
# Bulk Modulus (GPa) = 31.87740 52.13697 42.00718
# Shear Modulus (GPa) = 27.63725 36.79823 32.21774
#
# Velocity S-wave (km/s) = 3.24981 3.74994 3.50880
# Velocity P-wave (km/s) = 5.12478 6.21877 5.69809
#
# Compressibility (1/GPa) = 0.03137019
#
# Stress axis : x y z
#
# Youngs Moduli (GPa) = 62.92573 96.53794 45.83106
#
# Poissons Ratio (x) = 0.08928 0.24689
# Poissons Ratio (y) = 0.05820 0.09340
# Poissons Ratio (z) = 0.33898 0.19673
#
# Static dielectric constant tensor:
#      x y z
#    x 2.040340 0.031230 -0.074800 
#    y 0.031230 2.029380 0.029810 
#    z -0.074800 0.029810 2.061950 
# 
# From -- ./inp_files/526828.got.cif
#   From: 2010.05.17/outbox.cif.g08.bks.cpg/sg2_264_cif.got.tgz:526828.got - 2010.06.03 11:33:40.
