data_PCOD9109924
_publ_section_title
;
Structure prediction by ZEFSAII (Michael W. Deem and Ramdas Pophale) SiO2 
 PCOD9109924
Probable space group: P -1
;
_chemical_formula_sum "Si O2"
_cell_formula_units_Z 16
_cell_length_a 15.007443
_cell_length_b 9.389141
_cell_length_c 8.744573
_cell_angle_alpha 104.640382
_cell_angle_beta 96.888303
_cell_angle_gamma 39.253059
_cell_volume 748.535836
_symmetry_space_group_name_H-M "P -1"
_symmetry_group_IT_number 2
_symmetry_cell_setting 'triclinic'
loop_
_space_group_symop_operation_xyz
x,y,z
-x,-y,-z
loop_
_atom_site_type_symbol
_atom_site_label
_atom_site_fract_x
_atom_site_fract_y
_atom_site_fract_z
Si Si1 0.234043 0.161209 0.175815
Si Si2 0.024027 0.741887 0.817101
Si Si3 0.454015 0.347723 0.979156
Si Si4 0.551985 0.468442 0.258383
Si Si5 0.691259 0.134790 0.466226
Si Si6 0.161182 0.337965 0.533941
Si Si7 0.103282 0.888434 0.348939
Si Si8 0.795859 0.509042 0.915846
O O1 0.243578 0.230161 0.361334
O O2 0.191486 0.340032 0.094896
O O3 0.114067 0.188429 0.173660
O O4 0.384869 0.900257 0.093418
O O5 0.140352 0.512205 0.671429
O O6 0.094491 0.667117 0.975272
O O7 0.974882 0.947801 0.771971
O O8 0.388700 0.501378 0.853149
O O9 0.460162 0.465766 0.142765
O O10 0.360687 0.331151 0.012244
O O11 0.662113 0.238367 0.321632
O O12 0.455143 0.680729 0.416994
O O13 0.788085 0.124269 0.578025
O O14 0.767697 0.880876 0.410697
O O15 0.000000 0.500000 0.500000
O O16 0.173073 0.644671 0.255721
O O17 0.000000 0.000000 0.500000
#
# Coordination Sequence:
#
# PCOD9109924 Si02
#       8
#     2   2   2   2   2   2   2   2
#     4  11  23  45  67  91 134 184 219 269 335 400
#     4  11  25  45  68  97 133 179 223 269 335 403
#     4  11  23  44  65  98 138 172 217 285 328 392
#     4  10  23  40  72  94 132 178 221 269 336 404
#     4  11  21  43  67 102 123 176 230 267 326 404
#     4  10  20  41  68  92 130 171 226 270 321 400
#     4  12  25  43  67  97 138 168 217 285 334 392
#     4  12  27  42  65 103 135 171 223 278 336 391
#
# _framework density 21.375063999999998
#
# number of rings (size 3 to 8) (size 9 to 14) (size 15 to 20)
#    0.000    1.000    5.000    1.875    7.000    1.000 
#    0.000    0.625    0.000    0.000    0.000    0.000 
#    0.000    0.000    0.000    0.000    0.000    0.000 
#
# Total GULP energy -89452.924808 kJ/mol
# GULP energy per Si atom -5590.807801 kJ/mol
# Density = 2.132641 g / cm^3
# Si number density = 21.375064 Si / 1000 Ang^3
#
#
#
# Elastic Constant Matrix: (Units=GPa)
#
#
# Indices 1 2 3 4 5 6 
#
# 1 37.1940 9.9056 10.6292 14.0706 -12.5160 2.3515
# 2 9.9056 117.4310 27.0149 -10.0870 -14.4030 14.4778
# 3 10.6292 27.0149 76.5862 1.6004 -9.0130 -1.1420
# 4 14.0706 -10.0870 1.6004 39.9707 -2.8242 -4.4058
# 5 -12.5160 -14.4030 -9.0130 -2.8242 26.1151 0.3914
# 6 2.3515 14.4778 -1.1420 -4.4058 0.3914 26.4436
#
#
#
# Elastic Compliance Matrix: (Units=1/GPa)
#
#
# Indices 1 2 3 4 5 6 
#
# 1 0.038602 -0.001160 -0.002927 -0.013260 0.015497 -0.005363
# 2 -0.001160 0.010891 -0.003270 0.003008 0.004731 -0.005570
# 3 -0.002927 -0.003270 0.014879 0.000038 0.001893 0.002671
# 4 -0.013260 0.003008 0.000038 0.030862 -0.001416 0.004697
# 5 0.015497 0.004731 0.001893 -0.001416 0.048901 -0.004846
# 6 -0.005363 -0.005570 0.002671 0.004697 -0.004846 0.042312
#
#
# Mechanical properties :
#
#
# Convention : Reuss Voigt Hill
#
# Bulk Modulus (GPa) = 20.13815 36.25675 28.19745
# Shear Modulus (GPa) = 22.96603 30.74998 26.85800
#
# Velocity S-wave (km/s) = 3.28141 3.79699 3.54858
# Velocity P-wave (km/s) = 4.87838 6.01846 5.47816
#
# Compressibility (1/GPa) = 0.04965700
#
# Stress axis : x y z
#
# Youngs Moduli (GPa) = 25.90556 91.81865 67.21036
#
# Poissons Ratio (x) = 0.10650 0.19676
# Poissons Ratio (y) = 0.03005 0.21977
# Poissons Ratio (z) = 0.07584 0.30023
#
# Static dielectric constant tensor:
#      x y z
#    x 1.770630 -0.014100 -0.007050 
#    y -0.014100 1.768710 -0.006660 
#    z -0.007050 -0.006660 1.789570 
# 
# From -- ./inp_files/207836.got.cif
#   From: 2010.05.17/outbox.cif.g08.bks.cpg/sg2_104_cif.got.tgz:207836.got - 2010.06.03 11:33:40.
