data_PCOD9109125
_publ_section_title
;
Structure prediction by ZEFSAII (Michael W. Deem and Ramdas Pophale) SiO2 
 PCOD9109125
Probable space group: P -1
;
_chemical_formula_sum "Si O2"
_cell_formula_units_Z 16
_cell_length_a 16.688704
_cell_length_b 18.763870
_cell_length_c 9.179886
_cell_angle_alpha 43.228735
_cell_angle_beta 31.481317
_cell_angle_gamma 30.404194
_cell_volume 759.489354
_symmetry_space_group_name_H-M "P -1"
_symmetry_group_IT_number 2
_symmetry_cell_setting 'triclinic'
loop_
_space_group_symop_operation_xyz
x,y,z
-x,-y,-z
loop_
_atom_site_type_symbol
_atom_site_label
_atom_site_fract_x
_atom_site_fract_y
_atom_site_fract_z
Si Si1 0.385045 0.316501 0.477937
Si Si2 0.115881 0.556935 0.734286
Si Si3 0.424392 0.118385 0.281674
Si Si4 0.027253 0.165356 0.360398
Si Si5 0.221031 0.197568 0.763384
Si Si6 0.394117 0.766839 0.031026
Si Si7 0.563795 0.588478 0.288354
Si Si8 0.567901 0.157530 0.732016
O O1 0.275299 0.469287 0.483996
O O2 0.223607 0.311589 0.657043
O O3 0.480747 0.214361 0.622019
O O4 0.556889 0.260999 0.173053
O O5 0.992122 0.721130 0.681591
O O6 0.242353 0.499757 0.774345
O O7 0.000000 0.500000 0.000000
O O8 0.229901 0.198083 0.573463
O O9 0.551076 0.953691 0.322902
O O10 0.584498 0.125182 0.104946
O O11 0.402937 0.176300 0.068473
O O12 0.818859 0.193308 0.658516
O O13 0.224576 0.005436 0.336929
O O14 0.065204 0.193209 0.096704
O O15 0.578226 0.627518 0.045638
O O16 0.500000 0.500000 0.500000
O O17 0.405675 0.740190 0.389068
#
# Coordination Sequence:
#
# PCOD9109125 Si02
#       8
#     2   2   2   2   2   2   2   2
#     4  10  21  39  62  82 126 167 206 244 312 368
#     4  11  22  41  63  90 121 163 206 261 306 367
#     4   8  17  33  55  83 116 150 202 239 308 359
#     4  11  21  36  62  91 126 153 210 254 310 346
#     4   9  17  33  57  83 116 158 194 253 302 362
#     4  10  21  38  62  90 120 165 204 253 301 374
#     4  10  20  41  63  88 122 163 203 244 314 376
#     4   9  21  36  60  91 118 164 202 254 297 369
#
# _framework density 21.066786
#
# number of rings (size 3 to 8) (size 9 to 14) (size 15 to 20)
#    0.000    2.250    2.500    0.000    0.000    7.500 
#    2.250    0.625    2.750    4.500    0.000    0.000 
#    0.000    0.000    0.000    0.000    0.000    0.000 
#
# Total GULP energy -89198.353459 kJ/mol
# GULP energy per Si atom -5574.897091 kJ/mol
# Density = 2.101884 g / cm^3
# Si number density = 21.066786 Si / 1000 Ang^3
#
#
#
# Elastic Constant Matrix: (Units=GPa)
#
#
# Indices 1 2 3 4 5 6 
#
# 1 89.9734 35.8616 42.4845 0.9576 13.4045 7.9859
# 2 35.8616 122.3628 20.9335 -6.0023 2.6777 30.3463
# 3 42.4845 20.9335 135.6867 11.9484 18.1219 6.5485
# 4 0.9576 -6.0023 11.9484 27.4805 5.8866 -1.9721
# 5 13.4045 2.6777 18.1219 5.8866 46.4035 -2.2356
# 6 7.9859 30.3463 6.5485 -1.9721 -2.2356 18.8797
#
#
#
# Elastic Compliance Matrix: (Units=1/GPa)
#
#
# Indices 1 2 3 4 5 6 
#
# 1 0.014719 -0.003808 -0.003803 0.000941 -0.002618 0.001003
# 2 -0.003808 0.014963 -0.000077 0.002062 -0.001070 -0.022324
# 3 -0.003803 -0.000077 0.009282 -0.003608 -0.002166 -0.002120
# 4 0.000941 0.002062 -0.003608 0.039298 -0.003910 0.001182
# 5 -0.002618 -0.001070 -0.002166 -0.003910 0.024000 0.006012
# 6 0.001003 -0.022324 -0.002120 0.001182 0.006012 0.089996
#
#
# Mechanical properties :
#
#
# Convention : Reuss Voigt Hill
#
# Bulk Modulus (GPa) = 42.39630 60.73133 51.56381
# Shear Modulus (GPa) = 23.20223 35.13564 29.16893
#
# Velocity S-wave (km/s) = 3.32228 4.08833 3.72505
# Velocity P-wave (km/s) = 5.90637 7.15377 6.55979
#
# Compressibility (1/GPa) = 0.02358697
#
# Stress axis : x y z
#
# Youngs Moduli (GPa) = 67.93948 66.83263 107.73694
#
# Poissons Ratio (x) = 0.25453 0.40969
# Poissons Ratio (y) = 0.25874 0.00832
# Poissons Ratio (z) = 0.25835 0.00516
#
# Static dielectric constant tensor:
#      x y z
#    x 1.782290 0.029150 0.006430 
#    y 0.029150 1.838510 -0.003990 
#    z 0.006430 -0.003990 1.830360 
# 
# From -- ./inp_files/337394.got.cif
#   From: 2010.05.17/outbox.cif.g08.bks.cpg/sg2_169_cif.got.tgz:337394.got - 2010.06.03 11:33:40.
