data_PCOD9109143
_publ_section_title
;
Structure prediction by ZEFSAII (Michael W. Deem and Ramdas Pophale) SiO2 
 PCOD9109143
Probable space group: P -1
;
_chemical_formula_sum "Si O2"
_cell_formula_units_Z 16
_cell_length_a 25.231661
_cell_length_b 18.928845
_cell_length_c 5.247861
_cell_angle_alpha 69.085172
_cell_angle_beta 122.253790
_cell_angle_gamma 159.735753
_cell_volume 639.777611
_symmetry_space_group_name_H-M "P -1"
_symmetry_group_IT_number 2
_symmetry_cell_setting 'triclinic'
loop_
_space_group_symop_operation_xyz
x,y,z
-x,-y,-z
loop_
_atom_site_type_symbol
_atom_site_label
_atom_site_fract_x
_atom_site_fract_y
_atom_site_fract_z
Si Si1 0.879149 0.674104 0.610667
Si Si2 0.301374 0.758571 0.648931
Si Si3 0.988248 0.660039 0.200644
Si Si4 0.458527 0.784177 0.884662
Si Si5 0.435404 0.471861 0.116734
Si Si6 0.957481 0.016826 0.068620
Si Si7 0.288214 0.913336 0.340872
Si Si8 0.211645 0.033763 0.614394
O O1 0.717023 0.476084 0.236637
O O2 0.093131 0.905878 0.738728
O O3 0.855423 0.577215 0.868413
O O4 0.875939 0.749753 0.648457
O O5 0.358674 0.752996 0.628515
O O6 0.134786 0.538818 0.693060
O O7 0.246275 0.776344 0.368790
O O8 0.500000 0.000000 0.000000
O O9 0.095893 0.739745 0.145424
O O10 0.144139 0.882176 0.489439
O O11 0.599607 0.931019 0.820263
O O12 0.574791 0.920491 0.271917
O O13 0.500000 0.500000 0.500000
O O14 0.558563 0.689870 0.139597
O O15 0.204650 0.203458 0.880260
O O16 0.500000 0.500000 0.000000
O O17 0.867277 0.984538 0.723838
O O18 0.000000 0.000000 0.000000
#
# Coordination Sequence:
#
# PCOD9109143 Si02
#       8
#     2   2   2   2   2   2   2   2
#     4  11  22  42  70  93 137 182 221 274 343 408
#     4  10  21  44  69  96 135 183 223 278 340 399
#     4  11  24  43  67  99 133 177 231 277 334 401
#     4  11  24  44  68  99 139 180 226 276 345 401
#     4  10  20  41  63  90 125 165 207 262 325 393
#     4  10  23  41  66 100 129 170 226 279 333 401
#     4  11  26  43  66 103 137 176 233 287 330 393
#     4  10  22  41  66  90 133 176 218 272 343 399
#
# _framework density 25.008690000000001
#
# number of rings (size 3 to 8) (size 9 to 14) (size 15 to 20)
#    0.000    1.500    2.500    2.250    3.500    2.500 
#    0.000    3.750    0.000    0.000    0.000    0.000 
#    0.000    0.000    0.000    0.000    0.000    0.000 
#
# Total GULP energy -89600.285759 kJ/mol
# GULP energy per Si atom -5600.017860 kJ/mol
# Density = 2.495177 g / cm^3
# Si number density = 25.008690 Si / 1000 Ang^3
#
#
#
# Elastic Constant Matrix: (Units=GPa)
#
#
# Indices 1 2 3 4 5 6 
#
# 1 155.6939 43.5074 33.5044 9.8830 -15.2107 5.1906
# 2 43.5074 140.8534 27.1269 18.2296 -14.5101 5.1196
# 3 33.5044 27.1269 78.4977 -1.5751 -12.9385 -17.0300
# 4 9.8830 18.2296 -1.5751 41.1000 -8.7420 -13.6679
# 5 -15.2107 -14.5101 -12.9385 -8.7420 46.5467 -2.4942
# 6 5.1906 5.1196 -17.0300 -13.6679 -2.4942 51.1141
#
#
#
# Elastic Compliance Matrix: (Units=1/GPa)
#
#
# Indices 1 2 3 4 5 6 
#
# 1 0.007774 -0.001364 -0.003251 -0.001977 0.000721 -0.002230
# 2 -0.001364 0.008887 -0.003174 -0.004659 0.000405 -0.003035
# 3 -0.003251 -0.003174 0.018019 0.006769 0.004694 0.008691
# 4 -0.001977 -0.004659 0.006769 0.032486 0.006523 0.011928
# 5 0.000721 0.000405 0.004694 0.006523 0.024611 0.004395
# 6 -0.002230 -0.003035 0.008691 0.011928 0.004395 0.026394
#
#
# Mechanical properties :
#
#
# Convention : Reuss Voigt Hill
#
# Bulk Modulus (GPa) = 52.35402 64.81359 58.58381
# Shear Modulus (GPa) = 35.68446 45.81259 40.74853
#
# Velocity S-wave (km/s) = 3.78151 4.28467 4.04093
# Velocity P-wave (km/s) = 6.32821 7.10286 6.72669
#
# Compressibility (1/GPa) = 0.01910073
#
# Stress axis : x y z
#
# Youngs Moduli (GPa) = 128.63555 112.52160 55.49767
#
# Poissons Ratio (x) = 0.15347 0.18044
# Poissons Ratio (y) = 0.17544 0.17617
# Poissons Ratio (z) = 0.41824 0.35718
#
# Static dielectric constant tensor:
#      x y z
#    x 1.957660 -0.011150 0.020360 
#    y -0.011150 1.959280 0.015790 
#    z 0.020360 0.015790 2.048890 
# 
# From -- ./inp_files/124736.got.cif
#   From: 2010.05.17/outbox.cif.g08.bks.cpg/sg2_63_cif.got.tgz:124736.got - 2010.06.03 11:33:40.
