data_PCOD9109324
_publ_section_title
;
Structure prediction by ZEFSAII (Michael W. Deem and Ramdas Pophale) SiO2 
 PCOD9109324
Probable space group: P -1
;
_chemical_formula_sum "Si O2"
_cell_formula_units_Z 16
_cell_length_a 12.081235
_cell_length_b 12.660279
_cell_length_c 8.671036
_cell_angle_alpha 72.831709
_cell_angle_beta 133.384509
_cell_angle_gamma 128.329762
_cell_volume 735.933583
_symmetry_space_group_name_H-M "P -1"
_symmetry_group_IT_number 2
_symmetry_cell_setting 'triclinic'
loop_
_space_group_symop_operation_xyz
x,y,z
-x,-y,-z
loop_
_atom_site_type_symbol
_atom_site_label
_atom_site_fract_x
_atom_site_fract_y
_atom_site_fract_z
Si Si1 0.151686 0.072208 0.976116
Si Si2 0.876254 0.723853 0.355318
Si Si3 0.077033 0.205812 0.285764
Si Si4 0.428647 0.400121 0.333917
Si Si5 0.165001 0.663373 0.635085
Si Si6 0.241890 0.487862 0.907684
Si Si7 0.570602 0.239200 0.441434
Si Si8 0.923079 0.351242 0.918772
O O1 0.352621 0.125980 0.225345
O O2 0.146392 0.189347 0.832992
O O3 0.080662 0.955618 0.828123
O O4 0.000000 0.000000 0.000000
O O5 0.760017 0.570753 0.236541
O O6 0.841384 0.755020 0.479472
O O7 0.078088 0.744675 0.554320
O O8 0.240094 0.261632 0.286781
O O9 0.983546 0.282799 0.123747
O O10 0.500000 0.500000 0.500000
O O11 0.569149 0.368482 0.423546
O O12 0.390256 0.476710 0.140527
O O13 0.273698 0.633254 0.875679
O O14 0.306994 0.737578 0.599024
O O15 0.000000 0.500000 0.500000
O O16 0.047815 0.385637 0.866654
O O17 0.699652 0.248432 0.702239
O O18 0.000000 0.500000 0.000000
#
# Coordination Sequence:
#
# PCOD9109324 Si02
#       8
#     2   2   2   2   2   2   2   2
#     4  12  25  48  69  94 137 182 235 275 327 407
#     4  11  22  44  69  92 135 178 224 276 340 394
#     4  11  25  44  68  96 135 185 218 289 332 387
#     4  11  24  39  65 105 134 172 233 275 336 406
#     4  10  22  38  68  97 132 173 215 276 339 402
#     4  10  20  41  64  95 139 175 206 277 346 398
#     4  12  23  41  69 101 131 183 229 270 342 405
#     4  11  22  41  70 101 137 170 224 278 339 403
#
# _framework density 21.74109
#
# number of rings (size 3 to 8) (size 9 to 14) (size 15 to 20)
#    0.000    1.000    5.000    3.375    5.250    2.000 
#    0.000    0.625    0.000    0.000    0.000    0.000 
#    0.000    0.000    0.000    0.000    0.000    0.000 
#
# Total GULP energy -89104.568540 kJ/mol
# GULP energy per Si atom -5569.035534 kJ/mol
# Density = 2.169161 g / cm^3
# Si number density = 21.741090 Si / 1000 Ang^3
#
#
#
# Elastic Constant Matrix: (Units=GPa)
#
#
# Indices 1 2 3 4 5 6 
#
# 1 75.8504 7.1156 24.3680 4.0505 -1.3816 1.6962
# 2 7.1156 56.4334 13.4740 3.8730 -0.3954 -7.0484
# 3 24.3680 13.4740 100.7563 -1.7225 -15.9394 11.5171
# 4 4.0505 3.8730 -1.7225 43.6280 -4.6459 -1.1270
# 5 -1.3816 -0.3954 -15.9394 -4.6459 27.8003 0.8228
# 6 1.6962 -7.0484 11.5171 -1.1270 0.8228 30.6311
#
#
#
# Elastic Compliance Matrix: (Units=1/GPa)
#
#
# Indices 1 2 3 4 5 6 
#
# 1 0.014507 -0.000784 -0.003750 -0.001598 -0.001720 0.000414
# 2 -0.000784 0.019488 -0.003468 -0.001882 -0.002237 0.005822
# 3 -0.003750 -0.003468 0.013217 0.001864 0.007822 -0.005701
# 4 -0.001598 -0.001882 0.001864 0.023830 0.004954 -0.000302
# 5 -0.001720 -0.002237 0.007822 0.004954 0.041293 -0.004288
# 6 0.000414 0.005822 -0.005701 -0.000302 -0.004288 0.036211
#
#
# Mechanical properties :
#
#
# Convention : Reuss Voigt Hill
#
# Bulk Modulus (GPa) = 32.04512 35.88393 33.96453
# Shear Modulus (GPa) = 28.57911 32.95069 30.76490
#
# Velocity S-wave (km/s) = 3.62956 3.89729 3.76581
# Velocity P-wave (km/s) = 5.68651 6.06570 5.87917
#
# Compressibility (1/GPa) = 0.03120600
#
# Stress axis : x y z
#
# Youngs Moduli (GPa) = 68.93213 51.31464 75.66158
#
# Poissons Ratio (x) = 0.04026 0.28375
# Poissons Ratio (y) = 0.05408 0.26239
# Poissons Ratio (z) = 0.25851 0.17796
#
# Static dielectric constant tensor:
#      x y z
#    x 1.809460 0.036710 0.021620 
#    y 0.036710 1.871040 -0.002260 
#    z 0.021620 -0.002260 1.953410 
# 
# From -- ./inp_files/262348.got.cif
#   From: 2010.05.17/outbox.cif.g08.bks.cpg/sg2_132_cif.got.tgz:262348.got - 2010.06.03 11:33:40.
