data_PCOD9109245
_publ_section_title
;
Structure prediction by ZEFSAII (Michael W. Deem and Ramdas Pophale) SiO2 
 PCOD9109245
Probable space group: P -1
;
_chemical_formula_sum "Si O2"
_cell_formula_units_Z 16
_cell_length_a 15.875903
_cell_length_b 19.868021
_cell_length_c 11.758142
_cell_angle_alpha 138.257298
_cell_angle_beta 27.043581
_cell_angle_gamma 155.857180
_cell_volume 643.940363
_symmetry_space_group_name_H-M "P -1"
_symmetry_group_IT_number 2
_symmetry_cell_setting 'triclinic'
loop_
_space_group_symop_operation_xyz
x,y,z
-x,-y,-z
loop_
_atom_site_type_symbol
_atom_site_label
_atom_site_fract_x
_atom_site_fract_y
_atom_site_fract_z
Si Si1 0.363415 0.068346 0.827943
Si Si2 0.829391 0.327855 0.429157
Si Si3 0.281888 0.502413 0.744995
Si Si4 0.767194 0.558401 0.521204
Si Si5 0.666024 0.781941 0.268651
Si Si6 0.490691 0.917524 0.086618
Si Si7 0.459742 0.629053 0.924296
Si Si8 0.499629 0.139255 0.243047
O O1 0.430265 0.217932 0.959139
O O2 0.680282 0.182845 0.516098
O O3 0.321121 0.998660 0.914942
O O4 0.026181 0.911134 0.969984
O O5 0.521403 0.231607 0.610871
O O6 0.000000 0.500000 0.500000
O O7 0.113658 0.427177 0.125605
O O8 0.500000 0.500000 0.500000
O O9 0.318513 0.540432 0.616254
O O10 0.420720 0.633183 0.842549
O O11 0.893712 0.320963 0.997161
O O12 0.556561 0.415642 0.692901
O O13 0.696928 0.643944 0.688474
O O14 0.145186 0.717571 0.286117
O O15 0.665461 0.848040 0.468199
O O16 0.433634 0.004439 0.216711
O O17 0.614172 0.917451 0.823146
#
# Coordination Sequence:
#
# PCOD9109245 Si02
#       8
#     2   2   2   2   2   2   2   2
#     4  11  25  40  64  92 128 170 214 262 309 375
#     4  10  22  44  66  88 125 169 215 267 313 368
#     4   9  19  34  63  89 125 157 204 250 315 369
#     4  10  22  38  62  94 127 165 207 259 314 382
#     4  12  24  40  65  96 129 162 220 256 319 372
#     4  10  23  42  62  93 133 166 213 251 325 373
#     4  10  20  41  64  89 126 167 211 259 318 367
#     4  10  22  40  65  91 131 170 202 269 310 379
#
# _framework density 24.847021000000002
#
# number of rings (size 3 to 8) (size 9 to 14) (size 15 to 20)
#    0.000    1.750    1.250    2.625    5.250    2.500 
#    0.000    9.375    0.000    0.000    0.000    0.000 
#    0.000    0.000    0.000    0.000    0.000    0.000 
#
# Total GULP energy -89441.457233 kJ/mol
# GULP energy per Si atom -5590.091077 kJ/mol
# Density = 2.479047 g / cm^3
# Si number density = 24.847021 Si / 1000 Ang^3
#
#
#
# Elastic Constant Matrix: (Units=GPa)
#
#
# Indices 1 2 3 4 5 6 
#
# 1 69.7185 0.8097 18.0613 -10.3168 -2.3140 -6.2346
# 2 0.8097 53.3523 8.7766 -10.9488 0.9383 -23.3799
# 3 18.0613 8.7766 79.0736 -14.1692 -15.6982 -10.9959
# 4 -10.3168 -10.9488 -14.1692 29.5951 -3.5542 1.4026
# 5 -2.3140 0.9383 -15.6982 -3.5542 26.3253 -4.2906
# 6 -6.2346 -23.3799 -10.9959 1.4026 -4.2906 34.0059
#
#
#
# Elastic Compliance Matrix: (Units=1/GPa)
#
#
# Indices 1 2 3 4 5 6 
#
# 1 0.016154 0.003215 -0.002071 0.005807 0.001581 0.004462
# 2 0.003215 0.031018 0.002730 0.013579 0.006394 0.023045
# 3 -0.002071 0.002730 0.018625 0.010429 0.013672 0.008815
# 4 0.005807 0.013579 0.010429 0.046961 0.014819 0.013706
# 5 0.001581 0.006394 0.013672 0.014819 0.050473 0.014864
# 6 0.004462 0.023045 0.008815 0.013706 0.014864 0.050229
#
#
# Mechanical properties :
#
#
# Convention : Reuss Voigt Hill
#
# Bulk Modulus (GPa) = 13.59734 28.60442 21.10088
# Shear Modulus (GPa) = 21.71763 29.61835 25.66799
#
# Velocity S-wave (km/s) = 2.95965 3.45632 3.21758
# Velocity P-wave (km/s) = 4.14290 5.24075 4.72383
#
# Compressibility (1/GPa) = 0.07354378
#
# Stress axis : x y z
#
# Youngs Moduli (GPa) = 61.90593 32.23922 53.69031
#
# Poissons Ratio (x) = -0.10364 0.11122
# Poissons Ratio (y) = -0.19902 -0.14657
# Poissons Ratio (z) = 0.12824 -0.08801
#
# Static dielectric constant tensor:
#      x y z
#    x 1.962180 0.003680 0.064920 
#    y 0.003680 1.984660 0.021150 
#    z 0.064920 0.021150 1.982530 
# 
# From -- ./inp_files/216942.got.cif
#   From: 2010.05.17/outbox.cif.g08.bks.cpg/sg2_109_cif.got.tgz:216942.got - 2010.06.03 11:33:40.
