data_PCOD9109411
_publ_section_title
;
Structure prediction by ZEFSAII (Michael W. Deem and Ramdas Pophale) SiO2 
 PCOD9109411
Probable space group: P -1
;
_chemical_formula_sum "Si O2"
_cell_formula_units_Z 16
_cell_length_a 14.751342
_cell_length_b 20.159652
_cell_length_c 26.158664
_cell_angle_alpha 158.873985
_cell_angle_beta 16.773319
_cell_angle_gamma 150.533508
_cell_volume 790.034062
_symmetry_space_group_name_H-M "P -1"
_symmetry_group_IT_number 2
_symmetry_cell_setting 'triclinic'
loop_
_space_group_symop_operation_xyz
x,y,z
-x,-y,-z
loop_
_atom_site_type_symbol
_atom_site_label
_atom_site_fract_x
_atom_site_fract_y
_atom_site_fract_z
Si Si1 0.581199 0.279884 0.284573
Si Si2 0.656653 0.101534 0.283216
Si Si3 0.252743 0.245542 0.950400
Si Si4 0.693962 0.960340 0.666742
Si Si5 0.625421 0.486462 0.635229
Si Si6 0.395341 0.395739 0.158835
Si Si7 0.582005 0.781576 0.786264
Si Si8 0.302829 0.576308 0.235685
O O1 0.500000 0.500000 0.500000
O O2 0.573332 0.254455 0.209842
O O3 0.930359 0.205988 0.069587
O O4 0.318985 0.170266 0.370966
O O5 0.617267 0.286131 0.471159
O O6 0.452672 0.149177 0.376819
O O7 0.565539 0.940578 0.252137
O O8 0.000000 0.000000 0.000000
O O9 0.191849 0.408155 0.143408
O O10 0.468301 0.323614 0.849054
O O11 0.486533 0.169060 0.942296
O O12 0.000000 0.000000 0.500000
O O13 0.484341 0.534175 0.802404
O O14 0.486098 0.652813 0.790515
O O15 0.010032 0.469120 0.419237
O O16 0.490669 0.485781 0.119829
O O17 0.969107 0.719259 0.529421
O O18 0.500000 0.000000 0.000000
#
# Coordination Sequence:
#
# PCOD9109411 Si02
#       8
#     2   2   2   2   2   2   2   2
#     4  12  24  39  64  95 128 164 212 262 319 374
#     4  12  20  41  65  92 121 161 218 260 308 375
#     4  11  22  39  68  94 125 164 216 269 311 372
#     4  12  26  38  64  97 129 165 214 266 321 374
#     4  10  21  40  66  91 121 168 213 259 307 384
#     4  10  20  41  65  90 125 164 214 257 314 375
#     4  11  23  41  63  91 131 168 207 254 327 383
#     4  10  22  40  66  95 125 169 213 265 313 379
#
# _framework density 20.252291
#
# number of rings (size 3 to 8) (size 9 to 14) (size 15 to 20)
#    0.000    1.000    5.000    2.250    3.500    2.000 
#    0.000    3.125    0.000    0.000    0.000    0.000 
#    0.000    0.000    0.000    0.000    0.000    0.000 
#
# Total GULP energy -89282.129657 kJ/mol
# GULP energy per Si atom -5580.133104 kJ/mol
# Density = 2.020620 g / cm^3
# Si number density = 20.252291 Si / 1000 Ang^3
#
#
#
# Elastic Constant Matrix: (Units=GPa)
#
#
# Indices 1 2 3 4 5 6 
#
# 1 148.7718 40.2819 42.6137 23.2115 28.9774 -12.8265
# 2 40.2819 79.8812 29.8725 24.6710 12.3935 -18.4871
# 3 42.6137 29.8725 68.1791 36.3809 15.7771 -8.3723
# 4 23.2115 24.6710 36.3809 39.2704 6.5981 -5.7819
# 5 28.9774 12.3935 15.7771 6.5981 25.6579 6.9046
# 6 -12.8265 -18.4871 -8.3723 -5.7819 6.9046 35.7070
#
#
#
# Elastic Compliance Matrix: (Units=1/GPa)
#
#
# Indices 1 2 3 4 5 6 
#
# 1 0.010337 -0.001527 -0.002756 -0.000241 -0.010319 0.004233
# 2 -0.001527 0.019409 0.000109 -0.008599 -0.008117 0.009703
# 3 -0.002756 0.000109 0.034622 -0.027661 -0.012495 0.005122
# 4 -0.000241 -0.008599 -0.027661 0.054665 0.008399 -0.003797
# 5 -0.010319 -0.008117 -0.012495 0.008399 0.066061 -0.022253
# 6 0.004233 0.009703 0.005122 -0.003797 -0.022253 0.039439
#
#
# Mechanical properties :
#
#
# Convention : Reuss Voigt Hill
#
# Bulk Modulus (GPa) = 17.85062 58.04094 37.94578
# Shear Modulus (GPa) = 19.87646 32.39799 26.13722
#
# Velocity S-wave (km/s) = 3.13620 4.00399 3.59636
# Velocity P-wave (km/s) = 4.68482 7.07793 6.00186
#
# Compressibility (1/GPa) = 0.05602045
#
# Stress axis : x y z
#
# Youngs Moduli (GPa) = 96.74006 51.52349 28.88306
#
# Poissons Ratio (x) = 0.07869 0.07959
# Poissons Ratio (y) = 0.14774 -0.00315
# Poissons Ratio (z) = 0.26658 -0.00562
#
# Static dielectric constant tensor:
#      x y z
#    x 1.761150 -0.006350 -0.014460 
#    y -0.006350 1.743230 -0.039370 
#    z -0.014460 -0.039370 1.720810 
# 
# From -- ./inp_files/619825.got.cif
#   From: 2010.05.17/outbox.cif.g08.bks.cpg/sg2_310_cif.got.tgz:619825.got - 2010.06.03 11:33:40.
