data_PCOD9109569
_publ_section_title
;
Structure prediction by ZEFSAII (Michael W. Deem and Ramdas Pophale) SiO2 
 PCOD9109569
Probable space group: P -1
;
_chemical_formula_sum "Si O2"
_cell_formula_units_Z 14
_cell_length_a 6.767779
_cell_length_b 7.008179
_cell_length_c 15.061993
_cell_angle_alpha 99.307943
_cell_angle_beta 99.672850
_cell_angle_gamma 61.866778
_cell_volume 618.224832
_symmetry_space_group_name_H-M "P -1"
_symmetry_group_IT_number 2
_symmetry_cell_setting 'triclinic'
loop_
_space_group_symop_operation_xyz
x,y,z
-x,-y,-z
loop_
_atom_site_type_symbol
_atom_site_label
_atom_site_fract_x
_atom_site_fract_y
_atom_site_fract_z
Si Si1 0.688780 0.228457 0.293339
Si Si2 0.077568 0.677611 0.540948
Si Si3 0.908227 0.118665 0.626439
Si Si4 0.859001 0.661610 0.080631
Si Si5 0.749150 0.464799 0.788850
Si Si6 0.348977 0.757392 0.070549
Si Si7 0.906753 0.107205 0.114679
O O1 0.721100 0.388695 0.377886
O O2 0.434052 0.314224 0.250970
O O3 0.825391 0.209916 0.211843
O O4 0.824319 0.996267 0.334618
O O5 0.137830 0.751432 0.458150
O O6 0.000000 0.500000 0.500000
O O7 0.885994 0.899692 0.588410
O O8 0.782791 0.272755 0.709218
O O9 0.599407 0.720675 0.071845
O O10 0.010206 0.549508 0.170535
O O11 0.000000 0.500000 0.000000
O O12 0.864334 0.892982 0.091872
O O13 0.659291 0.408532 0.869273
O O14 0.236688 0.747681 0.967159
O O15 0.174376 0.999523 0.110009
#
# Coordination Sequence:
#
# PCOD9109569 Si02
#       7
#     2   2   2   2   2   2   2
#     4  10  20  41  66  88 130 176 206 271 347 381
#     4   9  19  40  70  95 130 168 220 271 335 408
#     4   9  20  43  64  92 137 169 211 279 335 390
#     4  11  22  37  57  91 127 172 226 272 316 388
#     4  11  23  41  64  92 131 181 211 269 342 378
#     4  10  21  37  61  86 129 171 218 265 314 390
#     4  10  21  40  59  88 130 175 216 272 334 373
#
# _framework density 22.645481
#
# number of rings (size 3 to 8) (size 9 to 14) (size 15 to 20)
#    0.857    1.143    2.857    1.286    0.000    8.000 
#    0.000    3.571    0.000    0.000    0.000    0.000 
#    0.000    0.000    0.000    0.000    0.000    0.000 
#
# Total GULP energy -78106.182271 kJ/mol
# GULP energy per Si atom -5579.013019 kJ/mol
# Density = 2.259394 g / cm^3
# Si number density = 22.645481 Si / 1000 Ang^3
#
#
#
# Elastic Constant Matrix: (Units=GPa)
#
#
# Indices 1 2 3 4 5 6 
#
# 1 106.6641 46.0557 40.4599 -5.0586 15.1837 -32.1536
# 2 46.0557 86.5867 43.7498 -2.2600 12.3099 -14.5208
# 3 40.4599 43.7498 166.1412 -6.7686 12.6955 -15.5325
# 4 -5.0586 -2.2600 -6.7686 33.5017 -9.0114 5.5662
# 5 15.1837 12.3099 12.6955 -9.0114 17.3691 -4.2881
# 6 -32.1536 -14.5208 -15.5325 5.5662 -4.2881 38.7889
#
#
#
# Elastic Compliance Matrix: (Units=1/GPa)
#
#
# Indices 1 2 3 4 5 6 
#
# 1 0.016278 -0.005250 -0.001057 -0.002063 -0.008216 0.010492
# 2 -0.005250 0.016569 -0.002660 -0.001920 -0.006110 0.000385
# 3 -0.001057 -0.002660 0.007220 0.000445 -0.002058 0.000728
# 4 -0.002063 -0.001920 0.000445 0.035768 0.020122 -0.005159
# 5 -0.008216 -0.006110 -0.002058 0.020122 0.080052 -0.003960
# 6 0.010492 0.000385 0.000728 -0.005159 -0.003960 0.035216
#
#
# Mechanical properties :
#
#
# Convention : Reuss Voigt Hill
#
# Bulk Modulus (GPa) = 45.18167 68.88031 57.03099
# Shear Modulus (GPa) = 23.10379 33.20704 28.15542
#
# Velocity S-wave (km/s) = 3.19758 3.83350 3.52989
# Velocity P-wave (km/s) = 5.79895 7.07652 6.46935
#
# Compressibility (1/GPa) = 0.02213287
#
# Stress axis : x y z
#
# Youngs Moduli (GPa) = 61.43369 60.35417 138.50066
#
# Poissons Ratio (x) = 0.31688 0.14637
# Poissons Ratio (y) = 0.32255 0.36838
# Poissons Ratio (z) = 0.06492 0.16053
#
# Static dielectric constant tensor:
#      x y z
#    x 1.873130 0.001440 0.028650 
#    y 0.001440 1.904780 -0.007200 
#    z 0.028650 -0.007200 1.856820 
# 
# From -- ./inp_files/479239.got.cif
#   From: 2010.05.17/outbox.cif.g08.bks.cpg/sg2_240_cif.got.tgz:479239.got - 2010.06.03 11:33:40.
