data_PCOD9109355
_publ_section_title
;
Structure prediction by ZEFSAII (Michael W. Deem and Ramdas Pophale) SiO2 
 PCOD9109355
Probable space group: P -1
;
_chemical_formula_sum "Si O2"
_cell_formula_units_Z 13
_cell_length_a 11.905634
_cell_length_b 5.183440
_cell_length_c 12.481570
_cell_angle_alpha 90.735127
_cell_angle_beta 120.472617
_cell_angle_gamma 55.994789
_cell_volume 509.280944
_symmetry_space_group_name_H-M "P -1"
_symmetry_group_IT_number 2
_symmetry_cell_setting 'triclinic'
loop_
_space_group_symop_operation_xyz
x,y,z
-x,-y,-z
loop_
_atom_site_type_symbol
_atom_site_label
_atom_site_fract_x
_atom_site_fract_y
_atom_site_fract_z
Si Si1 0.285062 0.532834 0.196296
Si Si2 0.677086 0.648689 0.550213
Si Si3 0.000000 0.500000 0.000000
Si Si4 0.496220 0.252972 0.736696
Si Si5 0.007023 0.481845 0.376159
Si Si6 0.790560 0.962039 0.107220
Si Si7 0.703221 0.570171 0.143534
O O1 0.258189 0.573475 0.312829
O O2 0.350306 0.735647 0.198789
O O3 0.429130 0.131621 0.241189
O O4 0.121240 0.609670 0.065040
O O5 0.632367 0.537034 0.423559
O O6 0.804945 0.711376 0.576736
O O7 0.500000 0.000000 0.500000
O O8 0.092691 0.292761 0.931454
O O9 0.397669 0.388975 0.800474
O O10 0.900883 0.843792 0.269046
O O11 0.897526 0.386811 0.275923
O O12 0.000000 0.500000 0.500000
O O13 0.658746 0.904807 0.073486
O O14 0.706209 0.344675 0.055451
#
# Coordination Sequence:
#
# PCOD9109355 Si02
#       7
#     2   2   1   2   2   2   2
#     4  11  25  42  68  98 133 182 226 278 342 396
#     4  10  20  41  65 102 138 175 224 285 344 407
#     4  12  26  50  70  96 138 180 244 274 334 418
#     4  11  23  43  67 101 136 173 220 289 346 408
#     4  10  20  41  66 103 135 179 223 279 342 410
#     4  10  24  41  67  95 130 178 225 282 326 405
#     4  10  22  43  65  97 137 171 231 272 349 405
#
# _framework density 25.526185000000002
#
# number of rings (size 3 to 8) (size 9 to 14) (size 15 to 20)
#    0.923    0.615    3.077    1.385    0.000    6.769 
#    5.538    4.615    0.000    0.000    0.000    0.000 
#    0.000    0.000    0.000    0.000    0.000    0.000 
#
# Total GULP energy -72432.344228 kJ/mol
# GULP energy per Si atom -5571.718787 kJ/mol
# Density = 2.546809 g / cm^3
# Si number density = 25.526185 Si / 1000 Ang^3
#
#
#
# Elastic Constant Matrix: (Units=GPa)
#
#
# Indices 1 2 3 4 5 6 
#
# 1 198.7369 15.8370 42.2366 11.9825 -1.7975 -6.3943
# 2 15.8370 59.2580 22.7257 12.7276 -15.7771 22.5083
# 3 42.2366 22.7257 128.3036 19.5887 -0.1662 0.4847
# 4 11.9825 12.7276 19.5887 26.0677 -9.9908 2.3936
# 5 -1.7975 -15.7771 -0.1662 -9.9908 44.9417 12.6268
# 6 -6.3943 22.5083 0.4847 2.3936 12.6268 42.5715
#
#
#
# Elastic Compliance Matrix: (Units=1/GPa)
#
#
# Indices 1 2 3 4 5 6 
#
# 1 0.005618 -0.002041 -0.001282 -0.001427 -0.001506 0.002464
# 2 -0.002041 0.033005 -0.004598 -0.003066 0.017162 -0.022623
# 3 -0.001282 -0.004598 0.010023 -0.006631 -0.004150 0.003728
# 4 -0.001427 -0.003066 -0.006631 0.050276 0.011342 -0.004708
# 5 -0.001506 0.017162 -0.004150 0.011342 0.036546 -0.020730
# 6 0.002464 -0.022623 0.003728 -0.004708 -0.020730 0.042192
#
#
# Mechanical properties :
#
#
# Convention : Reuss Voigt Hill
#
# Bulk Modulus (GPa) = 30.48257 60.87748 45.68003
# Shear Modulus (GPa) = 24.45733 43.08278 33.77005
#
# Velocity S-wave (km/s) = 3.09872 4.11273 3.64119
# Velocity P-wave (km/s) = 4.97698 6.81568 5.96757
#
# Compressibility (1/GPa) = 0.03280563
#
# Stress axis : x y z
#
# Youngs Moduli (GPa) = 177.98539 30.29833 99.76804
#
# Poissons Ratio (x) = 0.06183 0.12786
# Poissons Ratio (y) = 0.36320 0.45878
# Poissons Ratio (z) = 0.22810 0.13932
#
# Static dielectric constant tensor:
#      x y z
#    x 1.923250 -0.051340 0.074900 
#    y -0.051340 2.016370 -0.087130 
#    z 0.074900 -0.087130 2.069090 
# 
# From -- ./inp_files/408658.got.cif
#   From: 2010.05.17/outbox.cif.g08.bks.cpg/sg2_205_cif.got.tgz:408658.got - 2010.06.03 11:33:40.
