data_PCOD9109299
_publ_section_title
;
Structure prediction by ZEFSAII (Michael W. Deem and Ramdas Pophale) SiO2 
 PCOD9109299
Probable space group: P -1
;
_chemical_formula_sum "Si O2"
_cell_formula_units_Z 14
_cell_length_a 11.970527
_cell_length_b 9.975399
_cell_length_c 10.527332
_cell_angle_alpha 41.054507
_cell_angle_beta 52.631929
_cell_angle_gamma 45.234403
_cell_volume 578.366988
_symmetry_space_group_name_H-M "P -1"
_symmetry_group_IT_number 2
_symmetry_cell_setting 'triclinic'
loop_
_space_group_symop_operation_xyz
x,y,z
-x,-y,-z
loop_
_atom_site_type_symbol
_atom_site_label
_atom_site_fract_x
_atom_site_fract_y
_atom_site_fract_z
Si Si1 0.092928 0.295050 0.685006
Si Si2 0.563378 0.641705 0.938010
Si Si3 0.113694 0.168358 0.202488
Si Si4 0.117107 0.604363 0.004154
Si Si5 0.337043 0.123566 0.849936
Si Si6 0.656749 0.960954 0.494457
Si Si7 0.390639 0.765043 0.422643
O O1 0.233109 0.289841 0.685845
O O2 0.199918 0.085648 0.665611
O O3 0.000000 0.500000 0.500000
O O4 0.973099 0.281901 0.881834
O O5 0.695214 0.485507 0.058952
O O6 0.671928 0.737744 0.721191
O O7 0.407501 0.859829 0.943407
O O8 0.500000 0.500000 0.000000
O O9 0.087157 0.379951 0.161754
O O10 0.215888 0.916376 0.373910
O O11 0.223953 0.180254 0.005745
O O12 0.956815 0.229578 0.185490
O O13 0.494406 0.132283 0.776940
O O14 0.500000 0.000000 0.500000
O O15 0.623166 0.160980 0.474022
O O16 0.500000 0.500000 0.500000
#
# Coordination Sequence:
#
# PCOD9109299 Si02
#       7
#     2   2   2   2   2   2   2
#     4  11  19  37  68  92 127 173 211 266 333 387
#     4  11  22  39  63  97 126 167 221 266 324 390
#     4  10  20  41  64  93 128 170 218 267 332 390
#     4  10  21  37  68  97 126 175 215 269 336 389
#     4  10  22  40  61  92 127 173 223 263 326 392
#     4  11  21  42  66  95 129 170 220 268 327 395
#     4  11  22  38  66  98 128 168 223 272 321 391
#
# _framework density 24.206085000000002
#
# number of rings (size 3 to 8) (size 9 to 14) (size 15 to 20)
#    0.000    1.429    7.143    0.429    0.000    1.143 
#    0.000    4.286    0.000    8.571    0.000    0.000 
#    0.000    0.000    0.000    0.000    0.000    0.000 
#
# Total GULP energy -78096.368659 kJ/mol
# GULP energy per Si atom -5578.312047 kJ/mol
# Density = 2.415099 g / cm^3
# Si number density = 24.206085 Si / 1000 Ang^3
#
#
#
# Elastic Constant Matrix: (Units=GPa)
#
#
# Indices 1 2 3 4 5 6 
#
# 1 133.6269 41.2987 43.4762 -22.6465 53.4054 -11.1104
# 2 41.2987 185.8505 43.9746 -8.4121 11.6362 13.4005
# 3 43.4762 43.9746 89.4777 -2.6065 19.9892 3.5195
# 4 -22.6465 -8.4121 -2.6065 41.6217 -7.5171 4.9016
# 5 53.4054 11.6362 19.9892 -7.5171 48.9347 -11.2868
# 6 -11.1104 13.4005 3.5195 4.9016 -11.2868 38.8298
#
#
#
# Elastic Compliance Matrix: (Units=1/GPa)
#
#
# Indices 1 2 3 4 5 6 
#
# 1 0.015927 -0.001571 -0.003565 0.005430 -0.014605 0.000492
# 2 -0.001571 0.006467 -0.002472 0.000708 0.000759 -0.002326
# 3 -0.003565 -0.002472 0.014642 -0.001695 -0.002206 -0.001921
# 4 0.005430 0.000708 -0.001695 0.026978 -0.001828 -0.002474
# 5 -0.014605 0.000759 -0.002206 -0.001828 0.038468 0.007172
# 6 0.000492 -0.002326 -0.001921 -0.002474 0.007172 0.029268
#
#
# Mechanical properties :
#
#
# Convention : Reuss Voigt Hill
#
# Bulk Modulus (GPa) = 45.83102 74.05045 59.94074
# Shear Modulus (GPa) = 32.41676 44.55761 38.48718
#
# Velocity S-wave (km/s) = 3.66348 4.29506 3.99178
# Velocity P-wave (km/s) = 6.07203 7.43336 6.78691
#
# Compressibility (1/GPa) = 0.02181928
#
# Stress axis : x y z
#
# Youngs Moduli (GPa) = 62.78649 154.63067 68.29511
#
# Poissons Ratio (x) = 0.24292 0.24349
# Poissons Ratio (y) = 0.09863 0.16885
# Poissons Ratio (z) = 0.22385 0.38231
#
# Static dielectric constant tensor:
#      x y z
#    x 2.676300 1.936620 0.842180 
#    y 1.936620 7.512620 1.846230 
#    z 0.842180 1.846230 2.951950 
# 
# From -- ./inp_files/418881.got.cif
#   From: 2010.05.17/outbox.cif.g08.bks.cpg/sg2_210_cif.got.tgz:418881.got - 2010.06.03 11:33:40.
