data_PCOD9109393
_publ_section_title
;
Structure prediction by ZEFSAII (Michael W. Deem and Ramdas Pophale) SiO2 
 PCOD9109393
Probable space group: P -1
;
_chemical_formula_sum "Si O2"
_cell_formula_units_Z 15
_cell_length_a 14.897980
_cell_length_b 15.376529
_cell_length_c 9.160567
_cell_angle_alpha 100.485850
_cell_angle_beta 52.174843
_cell_angle_gamma 143.617728
_cell_volume 734.036909
_symmetry_space_group_name_H-M "P -1"
_symmetry_group_IT_number 2
_symmetry_cell_setting 'triclinic'
loop_
_space_group_symop_operation_xyz
x,y,z
-x,-y,-z
loop_
_atom_site_type_symbol
_atom_site_label
_atom_site_fract_x
_atom_site_fract_y
_atom_site_fract_z
Si Si1 0.037872 0.160224 0.936391
Si Si2 0.389194 0.163947 0.974082
Si Si3 0.225028 0.105760 0.616880
Si Si4 0.324875 0.812373 0.207828
Si Si5 0.000000 0.000000 0.500000
Si Si6 0.734408 0.212233 0.403716
Si Si7 0.794222 0.531829 0.165738
Si Si8 0.812649 0.467840 0.436086
O O1 0.193087 0.179173 0.751740
O O2 0.207459 0.364888 0.831628
O O3 0.830276 0.024422 0.972989
O O4 0.891745 0.044706 0.198953
O O5 0.535028 0.183861 0.909410
O O6 0.594399 0.354209 0.723625
O O7 0.254704 0.131991 0.214676
O O8 0.519552 0.298514 0.350317
O O9 0.070439 0.005897 0.592227
O O10 0.271456 0.809046 0.423870
O O11 0.062022 0.622099 0.327217
O O12 0.500000 0.000000 0.000000
O O13 0.713430 0.303253 0.432273
O O14 0.500000 0.000000 0.500000
O O15 0.992761 0.361347 0.116772
O O16 0.866987 0.565232 0.272110
#
# Coordination Sequence:
#
# PCOD9109393 Si02
#       8
#     2   2   2   2   1   2   2   2
#     4  10  21  43  63  95 123 175 217 265 325 396
#     4  10  20  41  65  88 131 168 220 263 328 388
#     4  10  23  41  66  93 127 168 218 271 329 381
#     4  11  24  41  65  94 136 180 217 270 336 397
#     4  10  24  40  68  92 124 172 212 278 324 380
#     4  11  24  40  62  99 132 170 224 272 323 391
#     4  12  23  39  71  93 132 169 221 267 328 398
#     4  11  23  42  65  97 133 179 217 269 334 400
#
# _framework density 20.434937999999999
#
# number of rings (size 3 to 8) (size 9 to 14) (size 15 to 20)
#    0.000    1.333    1.333    5.600    3.733    1.067 
#    0.000    0.667    0.000    0.000    0.000    0.000 
#    0.000    0.000    0.000    0.000    0.000    0.000 
#
# Total GULP energy -83602.555869 kJ/mol
# GULP energy per Si atom -5573.503725 kJ/mol
# Density = 2.038843 g / cm^3
# Si number density = 20.434938 Si / 1000 Ang^3
#
#
#
# Elastic Constant Matrix: (Units=GPa)
#
#
# Indices 1 2 3 4 5 6 
#
# 1 92.5794 22.4241 45.4158 -0.1093 22.8202 12.0827
# 2 22.4241 52.2968 26.6539 -11.0769 10.2311 1.7189
# 3 45.4158 26.6539 183.4708 4.9332 7.9263 -8.7408
# 4 -0.1093 -11.0769 4.9332 25.8517 0.0588 -2.4498
# 5 22.8202 10.2311 7.9263 0.0588 41.7675 -11.5981
# 6 12.0827 1.7189 -8.7408 -2.4498 -11.5981 28.6084
#
#
#
# Elastic Compliance Matrix: (Units=1/GPa)
#
#
# Indices 1 2 3 4 5 6 
#
# 1 0.018585 -0.003313 -0.004205 -0.001851 -0.012471 -0.014150
# 2 -0.003313 0.025419 -0.003077 0.011297 -0.004368 -0.001871
# 3 -0.004205 -0.003077 0.007110 -0.002205 0.003155 0.005223
# 4 -0.001851 0.011297 -0.002205 0.044220 -0.000571 0.002985
# 5 -0.012471 -0.004368 0.003155 -0.000571 0.037206 0.021528
# 6 -0.014150 -0.001871 0.005223 0.002985 0.021528 0.051623
#
#
# Mechanical properties :
#
#
# Convention : Reuss Voigt Hill
#
# Bulk Modulus (GPa) = 33.41691 57.48163 45.44927
# Shear Modulus (GPa) = 23.22035 34.83571 29.02803
#
# Velocity S-wave (km/s) = 3.37457 4.13330 3.77305
# Velocity P-wave (km/s) = 5.61889 7.13926 6.42421
#
# Compressibility (1/GPa) = 0.02992497
#
# Stress axis : x y z
#
# Youngs Moduli (GPa) = 53.80578 39.33999 140.64461
#
# Poissons Ratio (x) = 0.13035 0.59138
# Poissons Ratio (y) = 0.17828 0.43275
# Poissons Ratio (z) = 0.22624 0.12104
#
# Static dielectric constant tensor:
#      x y z
#    x 1.719000 0.002550 -0.011100 
#    y 0.002550 1.726160 0.007040 
#    z -0.011100 0.007040 1.729960 
# 
# From -- ./inp_files/236693.got.cif
#   From: 2010.05.17/outbox.cif.g08.bks.cpg/sg2_119_cif.got.tgz:236693.got - 2010.06.03 11:33:40.
