data_PCOD9109395
_publ_section_title
;
Structure prediction by ZEFSAII (Michael W. Deem and Ramdas Pophale) SiO2 
 PCOD9109395
Probable space group: P -1
;
_chemical_formula_sum "Si O2"
_cell_formula_units_Z 16
_cell_length_a 9.882782
_cell_length_b 10.994079
_cell_length_c 10.529919
_cell_angle_alpha 143.383006
_cell_angle_beta 113.725389
_cell_angle_gamma 59.091516
_cell_volume 585.391393
_symmetry_space_group_name_H-M "P -1"
_symmetry_group_IT_number 2
_symmetry_cell_setting 'triclinic'
loop_
_space_group_symop_operation_xyz
x,y,z
-x,-y,-z
loop_
_atom_site_type_symbol
_atom_site_label
_atom_site_fract_x
_atom_site_fract_y
_atom_site_fract_z
Si Si1 0.155490 0.007844 0.635915
Si Si2 0.317991 0.037870 0.470929
Si Si3 0.732516 0.467287 0.644605
Si Si4 0.607023 0.887457 0.824871
Si Si5 0.565314 0.690702 0.020246
Si Si6 0.714198 0.376929 0.032866
Si Si7 0.023870 0.322269 0.466991
Si Si8 0.060073 0.112133 0.961533
O O1 0.268179 0.773890 0.536011
O O2 0.293655 0.817424 0.226321
O O3 0.097619 0.145321 0.855932
O O4 0.000000 0.000000 0.500000
O O5 0.245757 0.077725 0.617992
O O6 0.205130 0.222344 0.491839
O O7 0.500000 0.000000 0.500000
O O8 0.415449 0.606584 0.895133
O O9 0.632901 0.631838 0.635522
O O10 0.912199 0.419179 0.627550
O O11 0.677852 0.588829 0.858743
O O12 0.519662 0.050850 0.818015
O O13 0.500000 0.000000 0.000000
O O14 0.783186 0.897872 0.913218
O O15 0.654559 0.586306 0.095704
O O16 0.892041 0.295085 0.079928
O O17 0.000000 0.500000 0.500000
O O18 0.969723 0.118216 0.234933
#
# Coordination Sequence:
#
# PCOD9109395 Si02
#       8
#     2   2   2   2   2   2   2   2
#     4  11  18  43  72  90 129 170 225 269 331 397
#     4  11  23  39  67  99 127 165 215 287 331 380
#     4  10  20  41  65  88 132 173 211 271 319 394
#     4  10  24  42  61  97 136 171 218 273 329 392
#     4  10  21  40  63  88 134 170 214 267 324 385
#     4  10  21  40  65  92 127 174 217 270 327 391
#     4  10  23  43  67  96 130 170 223 269 329 401
#     4  10  22  42  71  95 125 181 221 272 333 398
#
# _framework density 27.332142000000001
#
# number of rings (size 3 to 8) (size 9 to 14) (size 15 to 20)
#    0.000    1.750    5.000    0.000    3.500    3.500 
#    6.750   10.625    0.000    0.000    0.000    0.000 
#    0.000    0.000    0.000    0.000    0.000    0.000 
#
# Total GULP energy -89731.270637 kJ/mol
# GULP energy per Si atom -5608.204415 kJ/mol
# Density = 2.726993 g / cm^3
# Si number density = 27.332142 Si / 1000 Ang^3
#
#
#
# Elastic Constant Matrix: (Units=GPa)
#
#
# Indices 1 2 3 4 5 6 
#
# 1 209.1883 107.0906 44.3615 2.5343 -0.5254 -7.8546
# 2 107.0906 247.4115 61.0367 21.0543 6.4519 -7.8473
# 3 44.3615 61.0367 77.2493 6.7288 -4.3535 -5.0741
# 4 2.5343 21.0543 6.7288 55.8581 -0.4640 4.7746
# 5 -0.5254 6.4519 -4.3535 -0.4640 47.4592 0.1447
# 6 -7.8546 -7.8473 -5.0741 4.7746 0.1447 67.0062
#
#
#
# Elastic Compliance Matrix: (Units=1/GPa)
#
#
# Indices 1 2 3 4 5 6 
#
# 1 0.006387 -0.002380 -0.001826 0.000806 0.000234 0.000274
# 2 -0.002380 0.006090 -0.003332 -0.001823 -0.001179 0.000314
# 3 -0.001826 -0.003332 0.016849 -0.000736 0.001969 0.000720
# 4 0.000806 -0.001823 -0.000736 0.018774 0.000377 -0.001513
# 5 0.000234 -0.001179 0.001969 0.000377 0.021418 -0.000035
# 6 0.000274 0.000314 0.000720 -0.001513 -0.000035 0.015155
#
#
# Mechanical properties :
#
#
# Convention : Reuss Voigt Hill
#
# Bulk Modulus (GPa) = 70.17984 106.53632 88.35808
# Shear Modulus (GPa) = 47.84675 55.48871 51.66773
#
# Velocity S-wave (km/s) = 4.18852 4.51062 4.35255
# Velocity P-wave (km/s) = 7.00885 8.13576 7.59324
#
# Compressibility (1/GPa) = 0.01424911
#
# Stress axis : x y z
#
# Youngs Moduli (GPa) = 156.56158 164.20671 59.35067
#
# Poissons Ratio (x) = 0.39083 0.10840
# Poissons Ratio (y) = 0.37263 0.19776
# Poissons Ratio (z) = 0.28595 0.54713
#
# Static dielectric constant tensor:
#      x y z
#    x 2.117360 0.028460 0.034550 
#    y 0.028460 2.057370 0.015780 
#    z 0.034550 0.015780 2.255040 
# 
# From -- ./inp_files/427015.got.cif
#   From: 2010.05.17/outbox.cif.g08.bks.cpg/sg2_214_cif.got.tgz:427015.got - 2010.06.03 11:33:40.
