data_PCOD9109281
_publ_section_title
;
Structure prediction by ZEFSAII (Michael W. Deem and Ramdas Pophale) SiO2 
 PCOD9109281
Probable space group: P -1
;
_chemical_formula_sum "Si O2"
_cell_formula_units_Z 16
_cell_length_a 9.080129
_cell_length_b 15.812190
_cell_length_c 8.053212
_cell_angle_alpha 127.528906
_cell_angle_beta 87.583011
_cell_angle_gamma 59.812045
_cell_volume 682.544409
_symmetry_space_group_name_H-M "P -1"
_symmetry_group_IT_number 2
_symmetry_cell_setting 'triclinic'
loop_
_space_group_symop_operation_xyz
x,y,z
-x,-y,-z
loop_
_atom_site_type_symbol
_atom_site_label
_atom_site_fract_x
_atom_site_fract_y
_atom_site_fract_z
Si Si1 0.113194 0.412421 0.214165
Si Si2 0.600939 0.089071 0.155400
Si Si3 0.691384 0.909846 0.264554
Si Si4 0.308418 0.743069 0.518044
Si Si5 0.734618 0.508339 0.215003
Si Si6 0.032904 0.772546 0.319731
Si Si7 0.221413 0.571424 0.500142
Si Si8 0.804427 0.800787 0.658788
O O1 0.247296 0.453073 0.245042
O O2 0.000000 0.500000 0.500000
O O3 0.928754 0.489685 0.189224
O O4 0.237509 0.244065 0.976922
O O5 0.709234 0.149000 0.228494
O O6 0.362097 0.205359 0.295062
O O7 0.642702 0.005156 0.222492
O O8 0.688950 0.968924 0.869391
O O9 0.874458 0.876554 0.311973
O O10 0.500000 0.000000 0.500000
O O11 0.530203 0.653834 0.331732
O O12 0.133628 0.813760 0.478382
O O13 0.315626 0.628158 0.478056
O O14 0.717044 0.482062 0.378893
O O15 0.790771 0.377494 0.952090
O O16 0.912158 0.748767 0.415645
O O17 0.986478 0.714126 0.674313
#
# Coordination Sequence:
#
# PCOD9109281 Si02
#       8
#     2   2   2   2   2   2   2   2
#     4   9  19  38  69  93 118 162 220 270 306 368
#     4  11  23  41  66  90 132 167 211 263 316 393
#     4  11  22  43  66  95 125 167 222 264 320 376
#     4  11  24  40  62  95 133 168 208 256 334 383
#     4  10  20  41  64  92 127 164 216 266 312 373
#     4  10  22  41  62  91 128 167 211 266 318 377
#     4  10  21  40  66  95 124 165 217 262 317 380
#     4  10  21  40  64  95 122 168 217 262 312 377
#
# _framework density 23.441697999999999
#
# number of rings (size 3 to 8) (size 9 to 14) (size 15 to 20)
#    0.000    1.750    1.250    3.750    0.000    5.500 
#    6.750    6.875    0.000    0.000    0.000    0.000 
#    0.000    0.000    0.000    0.000    0.000    0.000 
#
# Total GULP energy -89309.205741 kJ/mol
# GULP energy per Si atom -5581.825359 kJ/mol
# Density = 2.338834 g / cm^3
# Si number density = 23.441698 Si / 1000 Ang^3
#
#
#
# Elastic Constant Matrix: (Units=GPa)
#
#
# Indices 1 2 3 4 5 6 
#
# 1 132.3615 28.9905 35.4779 4.2911 33.9018 -15.6230
# 2 28.9905 67.8472 14.7937 5.3495 -2.2342 -18.7395
# 3 35.4779 14.7937 75.7243 9.2870 3.8533 -7.1971
# 4 4.2911 5.3495 9.2870 30.1875 -4.7806 0.9609
# 5 33.9018 -2.2342 3.8533 -4.7806 35.3321 9.1960
# 6 -15.6230 -18.7395 -7.1971 0.9609 9.1960 40.2948
#
#
#
# Elastic Compliance Matrix: (Units=1/GPa)
#
#
# Indices 1 2 3 4 5 6 
#
# 1 0.014424 -0.003657 -0.004252 -0.002806 -0.015756 0.006795
# 2 -0.003657 0.018599 -0.001190 -0.002163 0.002851 0.006420
# 3 -0.004252 -0.001190 0.015844 -0.003805 0.001674 0.000337
# 4 -0.002806 -0.002163 -0.003805 0.036761 0.009456 -0.005808
# 5 -0.015756 0.002851 0.001674 0.009456 0.048824 -0.015852
# 6 0.006795 0.006420 0.000337 -0.005808 -0.015852 0.034254
#
#
# Mechanical properties :
#
#
# Convention : Reuss Voigt Hill
#
# Bulk Modulus (GPa) = 32.60587 48.27303 40.43945
# Shear Modulus (GPa) = 25.36442 34.27427 29.81934
#
# Velocity S-wave (km/s) = 3.29298 3.82790 3.57047
# Velocity P-wave (km/s) = 5.32896 6.33834 5.85544
#
# Compressibility (1/GPa) = 0.03066933
#
# Stress axis : x y z
#
# Youngs Moduli (GPa) = 69.32701 53.76728 63.11653
#
# Poissons Ratio (x) = 0.19663 0.26836
# Poissons Ratio (y) = 0.25354 0.07509
# Poissons Ratio (z) = 0.29477 0.06397
#
# Static dielectric constant tensor:
#      x y z
#    x 1.967450 0.039910 0.007080 
#    y 0.039910 1.960240 -0.007900 
#    z 0.007080 -0.007900 1.912350 
# 
# From -- ./inp_files/218622.got.cif
#   From: 2010.05.17/outbox.cif.g08.bks.cpg/sg2_110_cif.got.tgz:218622.got - 2010.06.03 11:33:40.
