data_PCOD9109396
_publ_section_title
;
Structure prediction by ZEFSAII (Michael W. Deem and Ramdas Pophale) SiO2 
 PCOD9109396
Probable space group: P -1
;
_chemical_formula_sum "Si O2"
_cell_formula_units_Z 16
_cell_length_a 5.506952
_cell_length_b 20.273314
_cell_length_c 10.725763
_cell_angle_alpha 144.833056
_cell_angle_beta 59.935698
_cell_angle_gamma 109.322719
_cell_volume 589.430331
_symmetry_space_group_name_H-M "P -1"
_symmetry_group_IT_number 2
_symmetry_cell_setting 'triclinic'
loop_
_space_group_symop_operation_xyz
x,y,z
-x,-y,-z
loop_
_atom_site_type_symbol
_atom_site_label
_atom_site_fract_x
_atom_site_fract_y
_atom_site_fract_z
Si Si1 0.251744 0.636079 0.684004
Si Si2 0.352328 0.963155 0.308038
Si Si3 0.150288 0.117500 0.075680
Si Si4 0.122639 0.182039 0.791745
Si Si5 0.710615 0.344312 0.565188
Si Si6 0.116204 0.084920 0.297378
Si Si7 0.085835 0.325659 0.786426
Si Si8 0.161051 0.474535 0.691888
O O1 0.204072 0.597456 0.496441
O O2 0.193974 0.552558 0.681220
O O3 0.590206 0.632653 0.572026
O O4 0.039375 0.752798 0.949528
O O5 0.120749 0.889883 0.305490
O O6 0.378010 0.075012 0.560281
O O7 0.262609 0.021281 0.283560
O O8 0.614042 0.864116 0.056426
O O9 0.290000 0.107083 0.161848
O O10 0.868986 0.212136 0.308272
O O11 0.078113 0.997924 0.848309
O O12 0.190286 0.274197 0.816784
O O13 0.379593 0.350618 0.687213
O O14 0.889908 0.417401 0.718705
O O15 0.987291 0.215390 0.573801
O O16 0.838486 0.429967 0.049800
#
# Coordination Sequence:
#
# PCOD9109396 Si02
#       8
#     2   2   2   2   2   2   2   2
#     4  10  22  44  70  93 128 170 213 271 319 383
#     4  10  20  41  65  88 134 173 215 265 314 383
#     4  11  25  38  67  98 131 169 217 266 320 389
#     4   9  20  39  65  92 129 171 210 264 323 368
#     4  12  25  40  68 100 129 170 216 266 320 386
#     4  10  24  41  62  98 129 170 216 263 323 376
#     4  10  24  43  65  95 135 170 206 275 321 378
#     4  10  23  47  69  95 128 170 218 262 327 382
#
# _framework density 27.144853999999999
#
# number of rings (size 3 to 8) (size 9 to 14) (size 15 to 20)
#    0.000    1.750    0.000    2.625   12.250    0.500 
#    2.250   15.000    0.000    0.000    0.000    0.000 
#    0.000    0.000    0.000    0.000    0.000    0.000 
#
# Total GULP energy -89131.647220 kJ/mol
# GULP energy per Si atom -5570.727951 kJ/mol
# Density = 2.708307 g / cm^3
# Si number density = 27.144854 Si / 1000 Ang^3
#
#
#
# Elastic Constant Matrix: (Units=GPa)
#
#
# Indices 1 2 3 4 5 6 
#
# 1 50.1522 26.3965 42.6023 0.6577 -9.5884 -6.3202
# 2 26.3965 104.0697 64.5278 -33.3744 -17.9622 0.6679
# 3 42.6023 64.5278 219.0958 -21.0940 -11.0091 -1.8930
# 4 0.6577 -33.3744 -21.0940 37.1456 7.5046 -0.4272
# 5 -9.5884 -17.9622 -11.0091 7.5046 33.4585 12.7068
# 6 -6.3202 0.6679 -1.8930 -0.4272 12.7068 28.1575
#
#
#
# Elastic Compliance Matrix: (Units=1/GPa)
#
#
# Indices 1 2 3 4 5 6 
#
# 1 0.028759 -0.007409 -0.004178 -0.010172 0.003401 0.004661
# 2 -0.007409 0.018541 -0.002408 0.014243 0.005577 -0.004565
# 3 -0.004178 -0.002408 0.006199 0.001585 -0.000771 -0.000092
# 4 -0.010172 0.014243 0.001585 0.041619 -0.004063 -0.000049
# 5 0.003401 0.005577 -0.000771 -0.004063 0.041416 -0.018172
# 6 0.004661 -0.004565 -0.000092 -0.000049 -0.018172 0.044863
#
#
# Mechanical properties :
#
#
# Convention : Reuss Voigt Hill
#
# Bulk Modulus (GPa) = 39.20238 71.15230 55.17734
# Shear Modulus (GPa) = 22.94752 35.73840 29.34296
#
# Velocity S-wave (km/s) = 2.91068 3.63241 3.29139
# Velocity P-wave (km/s) = 5.07635 6.62280 5.90046
#
# Compressibility (1/GPa) = 0.02550865
#
# Stress axis : x y z
#
# Youngs Moduli (GPa) = 34.77173 53.93552 161.31847
#
# Poissons Ratio (x) = 0.39960 0.67402
# Poissons Ratio (y) = 0.25762 0.38843
# Poissons Ratio (z) = 0.14528 0.12987
#
# Static dielectric constant tensor:
#      x y z
#    x 2.444230 -0.056020 -0.045800 
#    y -0.056020 2.130840 0.006090 
#    z -0.045800 0.006090 2.112040 
# 
# From -- ./inp_files/371082.got.cif
#   From: 2010.05.17/outbox.cif.g08.bks.cpg/sg2_186_cif.got.tgz:371082.got - 2010.06.03 11:33:40.
