data_PCOD9109987
_publ_section_title
;
Structure prediction by ZEFSAII (Michael W. Deem and Ramdas Pophale) SiO2 
 PCOD9109987
Probable space group: P -1
;
_chemical_formula_sum "Si O2"
_cell_formula_units_Z 16
_cell_length_a 19.141176
_cell_length_b 5.538772
_cell_length_c 8.250050
_cell_angle_alpha 52.138126
_cell_angle_beta 75.616271
_cell_angle_gamma 81.086623
_cell_volume 668.887496
_symmetry_space_group_name_H-M "P -1"
_symmetry_group_IT_number 2
_symmetry_cell_setting 'triclinic'
loop_
_space_group_symop_operation_xyz
x,y,z
-x,-y,-z
loop_
_atom_site_type_symbol
_atom_site_label
_atom_site_fract_x
_atom_site_fract_y
_atom_site_fract_z
Si Si1 0.831935 0.686852 0.661862
Si Si2 0.085756 0.286590 0.714138
Si Si3 0.674634 0.671944 0.111520
Si Si4 0.208285 0.622347 0.652543
Si Si5 0.300024 0.626547 0.267262
Si Si6 0.053004 0.588676 0.077863
Si Si7 0.455089 0.217440 0.070686
Si Si8 0.579745 0.417870 0.549807
O O1 0.879871 0.579893 0.524398
O O2 0.751165 0.549993 0.756704
O O3 0.880255 0.618274 0.818559
O O4 0.821499 0.040571 0.485962
O O5 0.141373 0.395854 0.774704
O O6 0.004714 0.394013 0.749048
O O7 0.082798 0.921768 0.879628
O O8 0.741374 0.445619 0.194763
O O9 0.627915 0.622807 0.320429
O O10 0.614825 0.618248 0.032667
O O11 0.699338 0.019855 0.931287
O O12 0.257102 0.585834 0.478156
O O13 0.381840 0.539073 0.312751
O O14 0.000000 0.500000 0.000000
O O15 0.422348 0.952186 0.314535
O O16 0.500000 0.500000 0.000000
O O17 0.500000 0.000000 0.000000
O O18 0.500000 0.500000 0.500000
#
# Coordination Sequence:
#
# PCOD9109987 Si02
#       8
#     2   2   2   2   2   2   2   2
#     4  11  23  42  66  93 126 172 220 275 333 403
#     4  10  23  42  64  92 131 169 214 271 334 399
#     4  10  21  44  63  94 132 170 222 276 337 410
#     4  10  22  40  63  93 126 170 220 270 335 395
#     4   9  22  40  61  91 129 168 218 270 332 395
#     4  11  24  40  65  98 128 169 218 269 337 400
#     4  11  24  44  68 101 137 182 228 287 347 414
#     4  10  20  41  68  97 130 176 222 279 342 409
#
# _framework density 23.920316
#
# number of rings (size 3 to 8) (size 9 to 14) (size 15 to 20)
#    0.000    1.750    1.250    1.875    0.000    9.500 
#   15.750    0.000    0.000    0.000    0.000    0.000 
#    0.000    0.000    0.000    0.000    0.000    0.000 
#
# Total GULP energy -89264.704407 kJ/mol
# GULP energy per Si atom -5579.044025 kJ/mol
# Density = 2.386587 g / cm^3
# Si number density = 23.920316 Si / 1000 Ang^3
#
#
#
# Elastic Constant Matrix: (Units=GPa)
#
#
# Indices 1 2 3 4 5 6 
#
# 1 212.5257 68.0580 88.4913 -16.7872 39.3029 31.5589
# 2 68.0580 76.5866 30.7169 -20.4974 15.1658 36.0202
# 3 88.4913 30.7169 109.2343 -11.0564 25.0907 25.2768
# 4 -16.7872 -20.4974 -11.0564 30.8184 -2.4761 -17.2875
# 5 39.3029 15.1658 25.0907 -2.4761 68.8640 -0.1753
# 6 31.5589 36.0202 25.2768 -17.2875 -0.1753 47.5359
#
#
#
# Elastic Compliance Matrix: (Units=1/GPa)
#
#
# Indices 1 2 3 4 5 6 
#
# 1 0.009151 -0.006409 -0.005620 -0.000563 -0.001780 0.001558
# 2 -0.006409 0.027421 0.002424 0.006749 -0.003061 -0.015369
# 3 -0.005620 0.002424 0.015105 0.000369 -0.002832 -0.006014
# 4 -0.000563 0.006749 0.000369 0.042733 0.000264 0.010605
# 5 -0.001780 -0.003061 -0.002832 0.000264 0.017266 0.005167
# 6 0.001558 -0.015369 -0.006014 0.010605 0.005167 0.038722
#
#
# Mechanical properties :
#
#
# Convention : Reuss Voigt Hill
#
# Bulk Modulus (GPa) = 30.80054 85.87545 58.33800
# Shear Modulus (GPa) = 27.71156 43.51568 35.61362
#
# Velocity S-wave (km/s) = 3.40736 4.26983 3.86274
# Velocity P-wave (km/s) = 5.32770 7.76448 6.65851
#
# Compressibility (1/GPa) = 0.03246696
#
# Stress axis : x y z
#
# Youngs Moduli (GPa) = 109.27811 36.46835 66.20287
#
# Poissons Ratio (x) = 0.23372 0.37204
# Poissons Ratio (y) = 0.70036 -0.16045
# Poissons Ratio (z) = 0.61411 -0.08838
#
# Static dielectric constant tensor:
#      x y z
#    x 1.961180 -0.049770 -0.015250 
#    y -0.049770 2.019490 0.123850 
#    z -0.015250 0.123850 1.919430 
# 
# From -- ./inp_files/323202.got.cif
#   From: 2010.05.17/outbox.cif.g08.bks.cpg/sg2_162_cif.got.tgz:323202.got - 2010.06.03 11:33:40.
