data_PCOD9109695
_publ_section_title
;
Structure prediction by ZEFSAII (Michael W. Deem and Ramdas Pophale) SiO2 
 PCOD9109695
Probable space group: P -1
;
_chemical_formula_sum "Si O2"
_cell_formula_units_Z 16
_cell_length_a 16.095010
_cell_length_b 9.400658
_cell_length_c 9.198539
_cell_angle_alpha 103.555644
_cell_angle_beta 114.602648
_cell_angle_gamma 34.256197
_cell_volume 695.740408
_symmetry_space_group_name_H-M "P -1"
_symmetry_group_IT_number 2
_symmetry_cell_setting 'triclinic'
loop_
_space_group_symop_operation_xyz
x,y,z
-x,-y,-z
loop_
_atom_site_type_symbol
_atom_site_label
_atom_site_fract_x
_atom_site_fract_y
_atom_site_fract_z
Si Si1 0.190404 0.228611 0.605361
Si Si2 0.349545 0.262188 0.539685
Si Si3 0.087283 0.902903 0.821774
Si Si4 0.210224 0.179665 0.947590
Si Si5 0.643704 0.290503 0.886480
Si Si6 0.692101 0.362598 0.338766
Si Si7 0.200983 0.917658 0.365959
Si Si8 0.882347 0.450316 0.829469
O O1 0.286997 0.232750 0.605734
O O2 0.239046 0.151540 0.790504
O O3 0.000000 0.500000 0.500000
O O4 0.224974 0.036211 0.495980
O O5 0.373912 0.386109 0.660923
O O6 0.215739 0.454172 0.363300
O O7 0.500000 0.000000 0.500000
O O8 0.143353 0.868850 0.689777
O O9 0.258876 0.698172 0.977575
O O10 0.985206 0.888725 0.746165
O O11 0.970504 0.182118 0.871984
O O12 0.024189 0.373149 0.868168
O O13 0.219039 0.324817 0.071048
O O14 0.302621 0.926731 0.038493
O O15 0.450426 0.552899 0.803286
O O16 0.707948 0.192327 0.745539
O O17 0.725104 0.293416 0.515682
#
# Coordination Sequence:
#
# PCOD9109695 Si02
#       8
#     2   2   2   2   2   2   2   2
#     4  12  25  42  72 106 137 183 243 289 342 415
#     4  12  25  45  70 104 140 186 231 291 354 415
#     4  11  24  42  70 101 139 186 229 287 346 417
#     4  10  22  42  71  97 140 184 232 287 349 411
#     4  11  25  45  70 103 142 189 230 288 359 414
#     4  12  25  46  70 104 145 181 236 292 350 418
#     4  12  24  44  72 107 136 186 238 286 350 421
#     4  10  20  41  66  97 137 182 225 284 347 409
#
# _framework density 22.997081000000001
#
# number of rings (size 3 to 8) (size 9 to 14) (size 15 to 20)
#    0.000    0.750    2.500    6.000    3.500    0.000 
#    2.250    2.500    0.000    0.000    0.000    0.000 
#    0.000    0.000    0.000    0.000    0.000    0.000 
#
# Total GULP energy -89501.209331 kJ/mol
# GULP energy per Si atom -5593.825583 kJ/mol
# Density = 2.294474 g / cm^3
# Si number density = 22.997081 Si / 1000 Ang^3
#
#
#
# Elastic Constant Matrix: (Units=GPa)
#
#
# Indices 1 2 3 4 5 6 
#
# 1 69.3695 27.6617 33.3892 -1.5228 -9.8662 -0.0909
# 2 27.6617 61.0323 17.9824 7.3946 -8.9448 -2.1838
# 3 33.3892 17.9824 119.7335 11.7228 -11.0086 0.4317
# 4 -1.5228 7.3946 11.7228 32.5065 -4.1913 9.1005
# 5 -9.8662 -8.9448 -11.0086 -4.1913 46.1988 5.2956
# 6 -0.0909 -2.1838 0.4317 9.1005 5.2956 31.8755
#
#
#
# Elastic Compliance Matrix: (Units=1/GPa)
#
#
# Indices 1 2 3 4 5 6 
#
# 1 0.020481 -0.008281 -0.004781 0.005560 0.002415 -0.002433
# 2 -0.008281 0.021204 -0.000190 -0.005750 0.001445 0.002833
# 3 -0.004781 -0.000190 0.010183 -0.003963 0.000916 0.000815
# 4 0.005560 -0.005750 -0.003963 0.037531 0.003874 -0.011683
# 5 0.002415 0.001445 0.000916 0.003874 0.023576 -0.004929
# 6 -0.002433 0.002833 0.000815 -0.011683 -0.004929 0.035703
#
#
# Mechanical properties :
#
#
# Convention : Reuss Voigt Hill
#
# Bulk Modulus (GPa) = 39.42565 45.35576 42.39071
# Shear Modulus (GPa) = 27.22785 33.52295 30.37540
#
# Velocity S-wave (km/s) = 3.44462 3.82213 3.63828
# Velocity P-wave (km/s) = 5.74469 6.26446 6.01020
#
# Compressibility (1/GPa) = 0.02536420
#
# Stress axis : x y z
#
# Youngs Moduli (GPa) = 48.82518 47.16186 98.20290
#
# Poissons Ratio (x) = 0.39054 0.46954
# Poissons Ratio (y) = 0.40431 0.01863
# Poissons Ratio (z) = 0.23345 0.00895
#
# Static dielectric constant tensor:
#      x y z
#    x 1.850770 0.053520 0.007400 
#    y 0.053520 1.944260 0.008770 
#    z 0.007400 0.008770 1.881700 
# 
# From -- ./inp_files/298874.got.cif
#   From: 2010.05.17/outbox.cif.g08.bks.cpg/sg2_150_cif.got.tgz:298874.got - 2010.06.03 11:33:40.
