data_PCOD9109738
_publ_section_title
;
Structure prediction by ZEFSAII (Michael W. Deem and Ramdas Pophale) SiO2 
 PCOD9109738
Probable space group: P -1
;
_chemical_formula_sum "Si O2"
_cell_formula_units_Z 16
_cell_length_a 18.337541
_cell_length_b 11.068538
_cell_length_c 7.124153
_cell_angle_alpha 97.632949
_cell_angle_beta 97.913067
_cell_angle_gamma 149.513525
_cell_volume 629.090097
_symmetry_space_group_name_H-M "P -1"
_symmetry_group_IT_number 2
_symmetry_cell_setting 'triclinic'
loop_
_space_group_symop_operation_xyz
x,y,z
-x,-y,-z
loop_
_atom_site_type_symbol
_atom_site_label
_atom_site_fract_x
_atom_site_fract_y
_atom_site_fract_z
Si Si1 0.661509 0.227746 0.474567
Si Si2 0.321484 0.481883 0.452064
Si Si3 0.097863 0.942039 0.385354
Si Si4 0.978069 0.201043 0.249942
Si Si5 0.652105 0.848380 0.974395
Si Si6 0.165978 0.286077 0.954182
Si Si7 0.516666 0.882699 0.030851
Si Si8 0.581513 0.710553 0.367103
O O1 0.662288 0.364360 0.411320
O O2 0.840560 0.487980 0.688463
O O3 0.500000 0.000000 0.500000
O O4 0.635044 0.076591 0.296228
O O5 0.219428 0.240892 0.500696
O O6 0.478693 0.654469 0.440905
O O7 0.208918 0.343095 0.200369
O O8 0.240707 0.053177 0.424696
O O9 0.015649 0.778681 0.516481
O O10 0.957590 0.787357 0.164935
O O11 0.839637 0.080052 0.080878
O O12 0.907344 0.957389 0.161317
O O13 0.606375 0.920363 0.932396
O O14 0.610913 0.779457 0.170146
O O15 0.538331 0.585958 0.762605
O O16 0.341009 0.568593 0.972725
O O17 0.500000 0.000000 0.000000
#
# Coordination Sequence:
#
# PCOD9109738 Si02
#       8
#     2   2   2   2   2   2   2   2
#     4  12  26  45  65 100 140 185 222 277 352 421
#     4  12  23  41  67 100 144 180 221 284 349 405
#     4  11  24  36  69 108 138 166 233 299 330 393
#     4  11  24  43  74 102 132 179 243 290 335 399
#     4  10  20  42  70  96 136 180 235 282 343 407
#     4  12  22  43  67 103 137 181 235 284 340 402
#     4  12  26  43  69  97 142 189 228 276 348 415
#     4  10  20  41  67 107 136 178 224 298 343 392
#
# _framework density 25.43356
#
# number of rings (size 3 to 8) (size 9 to 14) (size 15 to 20)
#    0.000    0.750    5.000    3.375    3.500    0.500 
#    0.000    1.250    0.000    1.500    0.000    0.000 
#    0.000    0.000    0.000    0.000    0.000    0.000 
#
# Total GULP energy -89437.373091 kJ/mol
# GULP energy per Si atom -5589.835818 kJ/mol
# Density = 2.537567 g / cm^3
# Si number density = 25.433560 Si / 1000 Ang^3
#
#
#
# Elastic Constant Matrix: (Units=GPa)
#
#
# Indices 1 2 3 4 5 6 
#
# 1 163.8134 3.3552 68.3312 36.3159 21.4751 21.5087
# 2 3.3552 84.5101 21.1923 23.5360 8.6643 16.8507
# 3 68.3312 21.1923 125.1300 19.4980 15.9883 18.8836
# 4 36.3159 23.5360 19.4980 46.8018 2.7996 12.9249
# 5 21.4751 8.6643 15.9883 2.7996 64.3044 2.7625
# 6 21.5087 16.8507 18.8836 12.9249 2.7625 29.4136
#
#
#
# Elastic Compliance Matrix: (Units=1/GPa)
#
#
# Indices 1 2 3 4 5 6 
#
# 1 0.010021 0.003438 -0.004197 -0.006662 -0.002328 -0.003457
# 2 0.003438 0.015955 -0.002074 -0.007857 -0.002154 -0.006668
# 3 -0.004197 -0.002074 0.011132 0.000561 -0.000980 -0.003044
# 4 -0.006662 -0.007857 0.000561 0.031522 0.001987 -0.005026
# 5 -0.002328 -0.002154 -0.000980 0.001987 0.016728 0.001121
# 6 -0.003457 -0.006668 -0.003044 -0.005026 0.001121 0.044403
#
#
# Mechanical properties :
#
#
# Convention : Reuss Voigt Hill
#
# Bulk Modulus (GPa) = 31.80483 62.13454 46.96968
# Shear Modulus (GPa) = 34.26813 46.80896 40.53854
#
# Velocity S-wave (km/s) = 3.67462 4.29469 3.99670
# Velocity P-wave (km/s) = 5.52594 7.00540 6.30919
#
# Compressibility (1/GPa) = 0.03144177
#
# Stress axis : x y z
#
# Youngs Moduli (GPa) = 99.79239 62.67623 89.82983
#
# Poissons Ratio (x) = -0.21548 0.37704
# Poissons Ratio (y) = -0.34308 0.18629
# Poissons Ratio (z) = 0.41886 0.12998
#
# Static dielectric constant tensor:
#      x y z
#    x 2.096480 -0.011160 0.056440 
#    y -0.011160 2.016910 -0.061050 
#    z 0.056440 -0.061050 2.112170 
# 
# From -- ./inp_files/346183.got.cif
#   From: 2010.05.17/outbox.cif.g08.bks.cpg/sg2_174_cif.got.tgz:346183.got - 2010.06.03 11:33:40.
