data_PCOD9109409
_publ_section_title
;
Structure prediction by ZEFSAII (Michael W. Deem and Ramdas Pophale) SiO2 
 PCOD9109409
Probable space group: P -1
;
_chemical_formula_sum "Si O2"
_cell_formula_units_Z 14
_cell_length_a 11.286249
_cell_length_b 7.202100
_cell_length_c 25.996044
_cell_angle_alpha 124.268195
_cell_angle_beta 161.890751
_cell_angle_gamma 56.632710
_cell_volume 541.888691
_symmetry_space_group_name_H-M "P -1"
_symmetry_group_IT_number 2
_symmetry_cell_setting 'triclinic'
loop_
_space_group_symop_operation_xyz
x,y,z
-x,-y,-z
loop_
_atom_site_type_symbol
_atom_site_label
_atom_site_fract_x
_atom_site_fract_y
_atom_site_fract_z
Si Si1 0.239317 0.735853 0.865312
Si Si2 0.050538 0.152484 0.995823
Si Si3 0.534707 0.017130 0.671211
Si Si4 0.788367 0.385309 0.477505
Si Si5 0.758042 0.005186 0.192491
Si Si6 0.753082 0.372242 0.629331
Si Si7 0.478803 0.503461 0.720428
O O1 0.160821 0.481122 0.806131
O O2 0.207620 0.785763 0.799468
O O3 0.606543 0.825563 0.059426
O O4 0.878395 0.877622 0.763560
O O5 0.122267 0.405086 0.083501
O O6 0.428685 0.066257 0.107038
O O7 0.704329 0.113270 0.808977
O O8 0.000000 0.000000 0.000000
O O9 0.459953 0.254261 0.649510
O O10 0.214850 0.843458 0.525595
O O11 0.471836 0.545920 0.399950
O O12 0.648842 0.334535 0.354143
O O13 0.180445 0.498305 0.643687
O O14 0.127349 0.891330 0.356120
O O15 0.500000 0.500000 0.500000
#
# Coordination Sequence:
#
# PCOD9109409 Si02
#       7
#     2   2   2   2   2   2   2
#     4   9  21  42  66  94 119 167 213 256 321 371
#     4  11  23  41  62  94 126 161 212 260 310 370
#     4  10  20  41  65  90 124 161 209 262 308 374
#     4  10  23  41  61  91 128 161 213 248 316 385
#     4  10  22  43  65  90 129 163 210 265 309 377
#     4  11  24  41  63  96 126 165 207 263 319 373
#     4  11  22  40  64  91 123 171 203 256 315 371
#
# _framework density 25.835564000000002
#
# number of rings (size 3 to 8) (size 9 to 14) (size 15 to 20)
#    0.000    1.714    1.429    2.143    2.000    1.714 
#   18.000    0.000    0.000    0.000    0.000    0.000 
#    0.000    0.000    0.000    0.000    0.000    0.000 
#
# Total GULP energy -78199.837323 kJ/mol
# GULP energy per Si atom -5585.702666 kJ/mol
# Density = 2.577676 g / cm^3
# Si number density = 25.835564 Si / 1000 Ang^3
#
#
#
# Elastic Constant Matrix: (Units=GPa)
#
#
# Indices 1 2 3 4 5 6 
#
# 1 128.0154 33.9425 11.9746 -4.2872 6.0013 37.0101
# 2 33.9425 106.5351 13.1140 4.5102 5.3348 28.5638
# 3 11.9746 13.1140 52.7647 8.7450 -3.5324 12.9192
# 4 -4.2872 4.5102 8.7450 53.7030 3.5276 3.0572
# 5 6.0013 5.3348 -3.5324 3.5276 33.2604 3.6795
# 6 37.0101 28.5638 12.9192 3.0572 3.6795 45.7326
#
#
#
# Elastic Compliance Matrix: (Units=1/GPa)
#
#
# Indices 1 2 3 4 5 6 
#
# 1 0.010483 -0.001257 -0.000541 0.001532 -0.001073 -0.007562
# 2 -0.001257 0.011545 -0.001168 -0.000483 -0.001062 -0.005746
# 3 -0.000541 -0.001168 0.021360 -0.003370 0.003455 -0.004919
# 4 0.001532 -0.000483 -0.003370 0.019560 -0.002511 -0.001091
# 5 -0.001073 -0.001062 0.003455 -0.002511 0.031261 -0.001791
# 6 -0.007562 -0.005746 -0.004919 -0.001091 -0.001791 0.033181
#
#
# Mechanical properties :
#
#
# Convention : Reuss Voigt Hill
#
# Bulk Modulus (GPa) = 26.69853 45.04194 35.87023
# Shear Modulus (GPa) = 34.29178 41.75814 38.02496
#
# Velocity S-wave (km/s) = 3.64718 4.02469 3.84058
# Velocity P-wave (km/s) = 5.30022 6.25056 5.79490
#
# Compressibility (1/GPa) = 0.03745525
#
# Stress axis : x y z
#
# Youngs Moduli (GPa) = 95.39028 86.61715 46.81756
#
# Poissons Ratio (x) = 0.10888 0.02532
# Poissons Ratio (y) = 0.11991 0.05470
# Poissons Ratio (z) = 0.05159 0.10120
#
# Static dielectric constant tensor:
#      x y z
#    x 1.969440 -0.038120 -0.035900 
#    y -0.038120 2.149750 0.009770 
#    z -0.035900 0.009770 2.083060 
# 
# From -- ./inp_files/68855.got.cif
#   From: 2010.05.17/outbox.cif.g08.bks.cpg/sg2_35_cif.got.tgz:68855.got - 2010.06.03 11:33:40.
