data_PCOD9109780
_publ_section_title
;
Structure prediction by ZEFSAII (Michael W. Deem and Ramdas Pophale) SiO2 
 PCOD9109780
Probable space group: P -1
;
_chemical_formula_sum "Si O2"
_cell_formula_units_Z 16
_cell_length_a 20.780256
_cell_length_b 8.383251
_cell_length_c 6.148672
_cell_angle_alpha 100.324407
_cell_angle_beta 145.431072
_cell_angle_gamma 79.752107
_cell_volume 597.036205
_symmetry_space_group_name_H-M "P -1"
_symmetry_group_IT_number 2
_symmetry_cell_setting 'triclinic'
loop_
_space_group_symop_operation_xyz
x,y,z
-x,-y,-z
loop_
_atom_site_type_symbol
_atom_site_label
_atom_site_fract_x
_atom_site_fract_y
_atom_site_fract_z
Si Si1 0.731368 0.554344 0.562366
Si Si2 0.472807 0.135703 0.637529
Si Si3 0.938836 0.107519 0.547037
Si Si4 0.265114 0.097821 0.360149
Si Si5 0.150715 0.161517 0.480450
Si Si6 0.120309 0.529697 0.447928
Si Si7 0.537394 0.666128 0.728765
Si Si8 0.335144 0.759460 0.480224
O O1 0.790250 0.724198 0.820802
O O2 0.795815 0.460565 0.521441
O O3 0.708784 0.419248 0.644214
O O4 0.615571 0.625201 0.144536
O O5 0.385860 0.090663 0.571697
O O6 0.413843 0.267166 0.344262
O O7 0.500000 0.000000 0.500000
O O8 0.585332 0.197510 0.080634
O O9 0.891602 0.295025 0.425588
O O10 0.854721 0.979675 0.390589
O O11 0.000000 0.000000 0.500000
O O12 0.040041 0.136314 0.012826
O O13 0.255431 0.122904 0.599126
O O14 0.239749 0.906812 0.228996
O O15 0.149118 0.351362 0.589491
O O16 0.000000 0.500000 0.000000
O O17 0.500000 0.500000 0.500000
O O18 0.421649 0.754923 0.517706
#
# Coordination Sequence:
#
# PCOD9109780 Si02
#       8
#     2   2   2   2   2   2   2   2
#     4  11  22  40  67  92 125 172 217 260 323 386
#     4  12  23  40  62  89 130 174 217 263 320 376
#     4  10  20  41  67  92 124 159 203 266 324 383
#     4  11  22  41  64  92 124 173 214 260 319 374
#     4   9  21  41  63  91 126 161 209 259 319 386
#     4   9  20  41  68  92 126 166 206 263 329 380
#     4  12  23  40  61  90 129 173 215 264 314 380
#     4  12  23  42  63  89 134 170 215 272 316 376
#
# _framework density 26.799046000000001
#
# number of rings (size 3 to 8) (size 9 to 14) (size 15 to 20)
#    0.000    1.250    3.750    3.000    0.000    0.500 
#   11.250    0.000    5.500    0.000    0.000    0.000 
#    0.000    0.000    0.000    0.000    0.000    0.000 
#
# Total GULP energy -89312.172258 kJ/mol
# GULP energy per Si atom -5582.010766 kJ/mol
# Density = 2.673805 g / cm^3
# Si number density = 26.799046 Si / 1000 Ang^3
#
#
#
# Elastic Constant Matrix: (Units=GPa)
#
#
# Indices 1 2 3 4 5 6 
#
# 1 146.6508 97.1296 16.8626 -9.7888 -5.5575 9.6187
# 2 97.1296 276.3660 64.6544 22.5860 -15.9121 -9.2898
# 3 16.8626 64.6544 65.6849 7.1132 -21.0865 0.9066
# 4 -9.7888 22.5860 7.1132 52.4568 0.5933 -8.8092
# 5 -5.5575 -15.9121 -21.0865 0.5933 26.4471 -1.8534
# 6 9.6187 -9.2898 0.9066 -8.8092 -1.8534 64.1044
#
#
#
# Elastic Compliance Matrix: (Units=1/GPa)
#
#
# Indices 1 2 3 4 5 6 
#
# 1 0.009617 -0.003952 0.001263 0.003051 0.000470 -0.001601
# 2 -0.003952 0.006469 -0.005462 -0.002564 -0.001149 0.001222
# 3 0.001263 -0.005462 0.026142 -0.001330 0.017781 -0.001019
# 4 0.003051 -0.002564 -0.001330 0.021287 -0.002296 0.002048
# 5 0.000470 -0.001149 0.017781 -0.002296 0.051495 0.000685
# 6 -0.001601 0.001222 -0.001019 0.002048 0.000685 0.016333
#
#
# Mechanical properties :
#
#
# Convention : Reuss Voigt Hill
#
# Bulk Modulus (GPa) = 38.56699 93.99943 66.28321
# Shear Modulus (GPa) = 31.99261 49.27200 40.63231
#
# Velocity S-wave (km/s) = 3.45888 4.29251 3.89805
# Velocity P-wave (km/s) = 5.51129 7.72783 6.71169
#
# Compressibility (1/GPa) = 0.02592891
#
# Stress axis : x y z
#
# Youngs Moduli (GPa) = 103.97879 154.57452 38.25252
#
# Poissons Ratio (x) = 0.61082 -0.04833
# Poissons Ratio (y) = 0.41089 0.20892
# Poissons Ratio (z) = -0.13136 0.84423
#
# Static dielectric constant tensor:
#      x y z
#    x 3.940340 0.983040 -0.527750 
#    y 0.983040 2.570980 -0.268520 
#    z -0.527750 -0.268520 2.414830 
# 
# From -- ./inp_files/107296.got.cif
#   From: 2010.05.17/outbox.cif.g08.bks.cpg/sg2_54_cif.got.tgz:107296.got - 2010.06.03 11:33:40.
