data_PCOD9110563
_publ_section_title
;
Structure prediction by ZEFSAII (Michael W. Deem and Ramdas Pophale) SiO2 
 PCOD9110563
Probable space group: P -1
;
_chemical_formula_sum "Si O2"
_cell_formula_units_Z 14
_cell_length_a 6.949841
_cell_length_b 16.841387
_cell_length_c 8.954532
_cell_angle_alpha 119.690820
_cell_angle_beta 56.251575
_cell_angle_gamma 134.771415
_cell_volume 608.983584
_symmetry_space_group_name_H-M "P -1"
_symmetry_group_IT_number 2
_symmetry_cell_setting 'triclinic'
loop_
_space_group_symop_operation_xyz
x,y,z
-x,-y,-z
loop_
_atom_site_type_symbol
_atom_site_label
_atom_site_fract_x
_atom_site_fract_y
_atom_site_fract_z
Si Si1 0.822003 0.953890 0.686679
Si Si2 0.792326 0.513452 0.898604
Si Si3 0.439349 0.652851 0.397280
Si Si4 0.195025 0.782978 0.712166
Si Si5 0.335948 0.667584 0.964991
Si Si6 0.209503 0.188921 0.891952
Si Si7 0.787012 0.734284 0.590991
O O1 0.493769 0.901584 0.738198
O O2 0.826099 0.851245 0.649955
O O3 0.000000 0.000000 0.500000
O O4 0.977750 0.058147 0.830467
O O5 0.794278 0.465048 0.692366
O O6 0.057544 0.632856 0.961031
O O7 0.500000 0.500000 0.000000
O O8 0.753151 0.423164 0.951432
O O9 0.281929 0.697293 0.594845
O O10 0.666602 0.661428 0.422940
O O11 0.632742 0.742376 0.264012
O O12 0.073545 0.769202 0.583803
O O13 0.953587 0.766170 0.911553
O O14 0.532036 0.662929 0.754189
O O15 0.454182 0.213703 0.927902
#
# Coordination Sequence:
#
# PCOD9110563 Si02
#       7
#     2   2   2   2   2   2   2
#     4  11  21  41  63  95 132 163 217 258 302 381
#     4  10  22  43  67  93 126 168 207 262 328 372
#     4  10  22  42  63  92 132 160 213 265 307 378
#     4  10  22  39  62  90 128 169 213 254 317 367
#     4   9  22  40  62  95 129 157 219 257 307 385
#     4  10  20  42  64  88 131 171 203 262 310 367
#     4  10  22  39  63  95 126 168 211 257 315 367
#
# _framework density 22.989125000000001
#
# number of rings (size 3 to 8) (size 9 to 14) (size 15 to 20)
#    0.000    2.000    2.857    0.429    0.000   13.714 
#    0.000    7.857    0.000    0.000    0.000    0.000 
#    0.000    0.000    0.000    0.000    0.000    0.000 
#
# Total GULP energy -78146.787170 kJ/mol
# GULP energy per Si atom -5581.913369 kJ/mol
# Density = 2.293680 g / cm^3
# Si number density = 22.989125 Si / 1000 Ang^3
#
#
#
# Elastic Constant Matrix: (Units=GPa)
#
#
# Indices 1 2 3 4 5 6 
#
# 1 150.5024 61.5491 14.2394 23.7854 27.0176 56.1895
# 2 61.5491 82.1956 37.9171 12.9152 17.1056 46.6727
# 3 14.2394 37.9171 99.2470 14.4592 11.7320 16.4623
# 4 23.7854 12.9152 14.4592 31.2300 8.9385 8.7493
# 5 27.0176 17.1056 11.7320 8.9385 41.8831 12.3341
# 6 56.1895 46.6727 16.4623 8.7493 12.3341 47.5109
#
#
#
# Elastic Compliance Matrix: (Units=1/GPa)
#
#
# Indices 1 2 3 4 5 6 
#
# 1 0.013718 -0.002636 0.002388 -0.005973 -0.003500 -0.012454
# 2 -0.002636 0.032803 -0.007594 -0.000236 -0.001879 -0.025945
# 3 0.002388 -0.007594 0.013293 -0.004760 -0.001531 0.001304
# 4 -0.005973 -0.000236 -0.004760 0.039219 -0.003892 0.002734
# 5 -0.003500 -0.001879 -0.001531 -0.003892 0.028185 -0.000085
# 6 -0.012454 -0.025945 0.001304 0.002734 -0.000085 0.060331
#
#
# Mechanical properties :
#
#
# Convention : Reuss Voigt Hill
#
# Bulk Modulus (GPa) = 22.65970 62.15068 42.40519
# Shear Modulus (GPa) = 22.94182 38.67408 30.80795
#
# Velocity S-wave (km/s) = 3.16245 4.10601 3.66472
# Velocity P-wave (km/s) = 4.81798 7.04078 6.03264
#
# Compressibility (1/GPa) = 0.04413120
#
# Stress axis : x y z
#
# Youngs Moduli (GPa) = 72.89605 30.48496 75.22914
#
# Poissons Ratio (x) = 0.08035 -0.17968
# Poissons Ratio (y) = 0.19212 0.57130
# Poissons Ratio (z) = -0.17410 0.23151
#
# Static dielectric constant tensor:
#      x y z
#    x 1.881550 0.038900 0.008090 
#    y 0.038900 1.930880 0.042580 
#    z 0.008090 0.042580 1.929970 
# 
# From -- ./inp_files/222291.got.cif
#   From: 2010.05.17/outbox.cif.g08.bks.cpg/sg2_112_cif.got.tgz:222291.got - 2010.06.03 11:33:40.
