data_PCOD9110865
_publ_section_title
;
Structure prediction by ZEFSAII (Michael W. Deem and Ramdas Pophale) SiO2 
 PCOD9110865
Probable space group: P -1
;
_chemical_formula_sum "Si O2"
_cell_formula_units_Z 16
_cell_length_a 14.836299
_cell_length_b 12.853058
_cell_length_c 9.643582
_cell_angle_alpha 97.922246
_cell_angle_beta 104.248862
_cell_angle_gamma 148.626707
_cell_volume 671.982374
_symmetry_space_group_name_H-M "P -1"
_symmetry_group_IT_number 2
_symmetry_cell_setting 'triclinic'
loop_
_space_group_symop_operation_xyz
x,y,z
-x,-y,-z
loop_
_atom_site_type_symbol
_atom_site_label
_atom_site_fract_x
_atom_site_fract_y
_atom_site_fract_z
Si Si1 0.669611 0.179873 0.463820
Si Si2 0.094388 0.864593 0.151562
Si Si3 0.441286 0.834071 0.862265
Si Si4 0.521840 0.466605 0.353137
Si Si5 0.197926 0.238835 0.997800
Si Si6 0.943103 0.265248 0.163299
Si Si7 0.119697 0.821188 0.456908
Si Si8 0.966959 0.100685 0.338144
O O1 0.547755 0.120970 0.286396
O O2 0.919719 0.497101 0.665306
O O3 0.735393 0.131005 0.432269
O O4 0.500000 0.000000 0.500000
O O5 0.877978 0.723360 0.064792
O O6 0.185759 0.917408 0.341952
O O7 0.320387 0.163923 0.223717
O O8 0.004493 0.686641 0.972151
O O9 0.168595 0.507590 0.719069
O O10 0.500000 0.000000 0.000000
O O11 0.652460 0.974495 0.011100
O O12 0.500000 0.500000 0.500000
O O13 0.786556 0.694736 0.474999
O O14 0.448701 0.474956 0.212159
O O15 0.174980 0.139337 0.838899
O O16 0.000000 0.000000 0.000000
O O17 0.031079 0.250752 0.267371
O O18 0.149275 0.948312 0.596630
#
# Coordination Sequence:
#
# PCOD9110865 Si02
#       8
#     2   2   2   2   2   2   2   2
#     4  12  28  48  71 103 136 179 235 285 337 414
#     4  11  24  43  68 103 137 175 237 280 336 410
#     4  12  25  46  70  95 144 180 222 288 347 404
#     4  11  20  42  73  97 134 183 228 280 335 400
#     4  10  20  42  66  99 135 173 230 276 325 411
#     4  12  24  45  74  97 133 185 235 275 339 413
#     4  12  27  45  67 105 141 179 226 285 354 402
#     4  12  23  42  73  98 135 181 226 280 343 405
#
# _framework density 23.810147000000001
#
# number of rings (size 3 to 8) (size 9 to 14) (size 15 to 20)
#    0.000    0.500    7.500    2.625    3.500    1.500 
#    0.000    0.625    0.000    0.000    0.000    0.000 
#    0.000    0.000    0.000    0.000    0.000    0.000 
#
# Total GULP energy -89629.016788 kJ/mol
# GULP energy per Si atom -5601.813549 kJ/mol
# Density = 2.375595 g / cm^3
# Si number density = 23.810147 Si / 1000 Ang^3
#
#
#
# Elastic Constant Matrix: (Units=GPa)
#
#
# Indices 1 2 3 4 5 6 
#
# 1 108.0595 -7.5715 31.0127 9.6942 -13.0211 19.8579
# 2 -7.5715 52.3718 6.8439 4.2606 -11.2956 1.0181
# 3 31.0127 6.8439 113.0616 -2.0709 -6.0368 6.9549
# 4 9.6942 4.2606 -2.0709 31.6088 15.5508 -0.0109
# 5 -13.0211 -11.2956 -6.0368 15.5508 48.5724 -8.7630
# 6 19.8579 1.0181 6.9549 -0.0109 -8.7630 23.2297
#
#
#
# Elastic Compliance Matrix: (Units=1/GPa)
#
#
# Indices 1 2 3 4 5 6 
#
# 1 0.013328 0.004165 -0.003241 -0.007267 0.004884 -0.008766
# 2 0.004165 0.022609 -0.002166 -0.008806 0.008820 -0.000580
# 3 -0.003241 -0.002166 0.009885 0.002429 -0.001007 -0.000473
# 4 -0.007267 -0.008806 0.002429 0.044045 -0.017954 -0.000881
# 5 0.004884 0.008820 -0.001007 -0.017954 0.030905 0.007390
# 6 -0.008766 -0.000580 -0.000473 -0.000881 0.007390 0.053496
#
#
# Mechanical properties :
#
#
# Convention : Reuss Voigt Hill
#
# Bulk Modulus (GPa) = 23.07415 37.11812 30.09613
# Shear Modulus (GPa) = 26.15113 36.89604 31.52358
#
# Velocity S-wave (km/s) = 3.31768 3.94076 3.64257
# Velocity P-wave (km/s) = 4.93842 6.02737 5.50986
#
# Compressibility (1/GPa) = 0.04333854
#
# Stress axis : x y z
#
# Youngs Moduli (GPa) = 75.03263 44.22926 101.16717
#
# Poissons Ratio (x) = -0.18422 0.32788
# Poissons Ratio (y) = -0.31253 0.21911
# Poissons Ratio (z) = 0.24318 0.09579
#
# Static dielectric constant tensor:
#      x y z
#    x 1.893530 0.008960 -0.014580 
#    y 0.008960 1.937340 0.003000 
#    z -0.014580 0.003000 1.897160 
# 
# From -- ./inp_files/312672.got.cif
#   From: 2010.05.17/outbox.cif.g08.bks.cpg/sg2_157_cif.got.tgz:312672.got - 2010.06.03 11:33:40.
