data_PCOD9110181
_publ_section_title
;
Structure prediction by ZEFSAII (Michael W. Deem and Ramdas Pophale) SiO2 
 PCOD9110181
Probable space group: P -1
;
_chemical_formula_sum "Si O2"
_cell_formula_units_Z 10
_cell_length_a 10.051749
_cell_length_b 6.714803
_cell_length_c 29.268743
_cell_angle_alpha 33.991902
_cell_angle_beta 153.759834
_cell_angle_gamma 146.335048
_cell_volume 455.859544
_symmetry_space_group_name_H-M "P -1"
_symmetry_group_IT_number 2
_symmetry_cell_setting 'triclinic'
loop_
_space_group_symop_operation_xyz
x,y,z
-x,-y,-z
loop_
_atom_site_type_symbol
_atom_site_label
_atom_site_fract_x
_atom_site_fract_y
_atom_site_fract_z
Si Si1 0.228168 0.580823 0.369631
Si Si2 0.167838 0.696863 0.228081
Si Si3 0.770760 0.846329 0.241300
Si Si4 0.809556 0.727134 0.373799
Si Si5 0.216921 0.077220 0.004415
O O1 0.500000 0.500000 0.500000
O O2 0.296196 0.794383 0.300677
O O3 0.018288 0.773895 0.296657
O O4 0.006173 0.161062 0.365082
O O5 0.458440 0.650179 0.298744
O O6 0.026214 0.968697 0.104236
O O7 0.898593 0.274075 0.220564
O O8 0.773117 0.610026 0.332081
O O9 0.423923 0.802242 0.122728
O O10 0.000000 0.500000 0.500000
O O11 0.500000 0.500000 0.000000
O O12 0.000000 0.000000 0.000000
#
# Coordination Sequence:
#
# PCOD9110181 Si02
#       5
#     2   2   2   2   2
#     4  11  24  40  59  94 128 164 218 266 320 388
#     4  10  22  40  63  88 127 163 215 263 323 387
#     4  10  22  40  63  89 126 167 210 266 326 381
#     4  11  22  38  62  88 122 168 211 263 323 385
#     4  10  20  41  70  96 128 173 218 267 330 391
#
# _framework density 21.936581
#
# number of rings (size 3 to 8) (size 9 to 14) (size 15 to 20)
#    0.000    1.600    2.000    2.400    0.000    8.800 
#    0.000    1.000    0.000    0.000    0.000    0.000 
#    0.000    0.000    0.000    0.000    0.000    0.000 
#
# Total GULP energy -55680.094367 kJ/mol
# GULP energy per Si atom -5568.009437 kJ/mol
# Density = 2.188665 g / cm^3
# Si number density = 21.936581 Si / 1000 Ang^3
#
#
#
# Elastic Constant Matrix: (Units=GPa)
#
#
# Indices 1 2 3 4 5 6 
#
# 1 243.7111 -41.2045 149.9225 -9.2972 -16.2100 -13.1159
# 2 -41.2045 77.3449 -33.3286 12.0967 -13.1447 -7.4185
# 3 149.9225 -33.3286 301.6018 -4.4677 -19.1107 -12.2114
# 4 -9.2972 12.0967 -4.4677 23.6471 0.1652 4.7141
# 5 -16.2100 -13.1447 -19.1107 0.1652 42.1456 1.8684
# 6 -13.1159 -7.4185 -12.2114 4.7141 1.8684 27.4207
#
#
#
# Elastic Compliance Matrix: (Units=1/GPa)
#
#
# Indices 1 2 3 4 5 6 
#
# 1 0.006526 0.002914 -0.002685 0.000042 0.002087 0.002565
# 2 0.002914 0.018541 0.001238 -0.009781 0.007142 0.008156
# 3 -0.002685 0.001238 0.004922 -0.001032 0.001531 0.001316
# 4 0.000042 -0.009781 -0.001032 0.049401 -0.003192 -0.011361
# 5 0.002087 0.007142 0.001531 -0.003192 0.027362 0.002297
# 6 0.002565 0.008156 0.001316 -0.011361 0.002297 0.042285
#
#
# Mechanical properties :
#
#
# Convention : Reuss Voigt Hill
#
# Bulk Modulus (GPa) = 30.37434 85.93741 58.15588
# Shear Modulus (GPa) = 31.83134 55.12723 43.47929
#
# Velocity S-wave (km/s) = 3.81341 5.01845 4.45685
# Velocity P-wave (km/s) = 5.76767 8.53465 7.28376
#
# Compressibility (1/GPa) = 0.03292252
#
# Stress axis : x y z
#
# Youngs Moduli (GPa) = 153.22629 53.93560 203.15453
#
# Poissons Ratio (x) = -0.15715 0.54556
# Poissons Ratio (y) = -0.44646 -0.25157
# Poissons Ratio (z) = 0.41148 -0.06679
#
# Static dielectric constant tensor:
#      x y z
#    x 1.837320 0.101500 -0.088620 
#    y 0.101500 1.958160 -0.022530 
#    z -0.088620 -0.022530 1.834200 
# 
# From -- ./inp_files/1431.got.cif
#   From: 2010.05.17/outbox.cif.g08.bks.cpg/sg2_1_cif.got.tgz:1431.got - 2010.06.03 11:33:40.
