data_PCOD9110484
_publ_section_title
;
Structure prediction by ZEFSAII (Michael W. Deem and Ramdas Pophale) SiO2 
 PCOD9110484
Probable space group: P -1
;
_chemical_formula_sum "Si O2"
_cell_formula_units_Z 16
_cell_length_a 12.982109
_cell_length_b 10.329705
_cell_length_c 5.118506
_cell_angle_alpha 76.597461
_cell_angle_beta 79.076133
_cell_angle_gamma 107.131879
_cell_volume 613.054194
_symmetry_space_group_name_H-M "P -1"
_symmetry_group_IT_number 2
_symmetry_cell_setting 'triclinic'
loop_
_space_group_symop_operation_xyz
x,y,z
-x,-y,-z
loop_
_atom_site_type_symbol
_atom_site_label
_atom_site_fract_x
_atom_site_fract_y
_atom_site_fract_z
Si Si1 0.165237 0.495331 0.311543
Si Si2 0.419916 0.464433 0.807246
Si Si3 0.102182 0.941076 0.285140
Si Si4 0.402125 0.159622 0.910312
Si Si5 0.304297 0.975156 0.539403
Si Si6 0.650686 0.301506 0.492887
Si Si7 0.038916 0.673275 0.120757
Si Si8 0.893800 0.777704 0.757378
O O1 0.259515 0.611040 0.377283
O O2 0.114823 0.577617 0.089233
O O3 0.197710 0.363931 0.248680
O O4 0.061740 0.414325 0.594921
O O5 0.500000 0.500000 0.500000
O O6 0.362113 0.294343 0.898195
O O7 0.357748 0.577627 0.757434
O O8 0.500000 0.500000 0.000000
O O9 0.182463 0.954817 0.488969
O O10 0.128717 0.103575 0.111143
O O11 0.115942 0.821674 0.146192
O O12 0.969916 0.873310 0.445681
O O13 0.335594 0.054218 0.762319
O O14 0.531334 0.224305 0.728176
O O15 0.385707 0.076252 0.230606
O O16 0.318541 0.823209 0.598836
O O17 0.978271 0.715187 0.890139
#
# Coordination Sequence:
#
# PCOD9110484 Si02
#       8
#     2   2   2   2   2   2   2   2
#     4  10  22  40  64  98 132 169 231 273 351 411
#     4  10  23  46  71  98 135 179 226 289 346 404
#     4  10  23  40  66  94 137 170 236 270 352 402
#     4  11  26  47  71  99 146 180 241 284 349 413
#     4  12  26  46  71 107 137 190 232 294 341 424
#     4  11  24  46  70 101 141 184 233 293 353 412
#     4  10  20  42  62  96 132 173 219 288 340 413
#     4  10  22  41  66  96 133 179 222 286 339 419
#
# _framework density 26.098832999999999
#
# number of rings (size 3 to 8) (size 9 to 14) (size 15 to 20)
#    0.000    1.500    1.250    3.000    3.500    3.000 
#    9.000    0.000    0.000    0.000    0.000    0.000 
#    0.000    0.000    0.000    0.000    0.000    0.000 
#
# Total GULP energy -89642.512868 kJ/mol
# GULP energy per Si atom -5602.657054 kJ/mol
# Density = 2.603943 g / cm^3
# Si number density = 26.098833 Si / 1000 Ang^3
#
#
#
# Elastic Constant Matrix: (Units=GPa)
#
#
# Indices 1 2 3 4 5 6 
#
# 1 97.3110 77.0953 20.9471 -4.6869 5.9250 -9.6445
# 2 77.0953 280.2699 44.8409 0.5931 8.6015 -19.5685
# 3 20.9471 44.8409 88.2628 -4.1463 7.3156 -1.0410
# 4 -4.6869 0.5931 -4.1463 44.8914 5.6574 1.6557
# 5 5.9250 8.6015 7.3156 5.6574 44.6014 -14.0478
# 6 -9.6445 -19.5685 -1.0410 1.6557 -14.0478 60.0323
#
#
#
# Elastic Compliance Matrix: (Units=1/GPa)
#
#
# Indices 1 2 3 4 5 6 
#
# 1 0.013462 -0.003415 -0.001315 0.001406 -0.000844 0.000791
# 2 -0.003415 0.004847 -0.001687 -0.000643 0.000214 0.001070
# 3 -0.001315 -0.001687 0.012724 0.001364 -0.002097 -0.001069
# 4 0.001406 -0.000643 0.001364 0.023074 -0.003672 -0.001456
# 5 -0.000844 0.000214 -0.002097 -0.003672 0.025155 0.005886
# 6 0.000791 0.001070 -0.001069 -0.001456 0.005886 0.018532
#
#
# Mechanical properties :
#
#
# Convention : Reuss Voigt Hill
#
# Bulk Modulus (GPa) = 54.94620 83.51224 69.22922
# Shear Modulus (GPa) = 42.84713 51.43573 47.14143
#
# Velocity S-wave (km/s) = 4.05622 4.44419 4.25463
# Velocity P-wave (km/s) = 6.56019 7.64214 7.12174
#
# Compressibility (1/GPa) = 0.01819962
#
# Stress axis : x y z
#
# Youngs Moduli (GPa) = 74.28283 206.32621 78.58989
#
# Poissons Ratio (x) = 0.70452 0.10333
# Poissons Ratio (y) = 0.25365 0.13260
# Poissons Ratio (z) = 0.09767 0.34813
#
# Static dielectric constant tensor:
#      x y z
#    x 2.077090 -0.027750 -0.065760 
#    y -0.027750 2.058700 -0.021780 
#    z -0.065760 -0.021780 2.032410 
# 
# From -- ./inp_files/90110.got.cif
#   From: 2010.05.17/outbox.cif.g08.bks.cpg/sg2_46_cif.got.tgz:90110.got - 2010.06.03 11:33:40.
