data_PCOD9110531
_publ_section_title
;
Structure prediction by ZEFSAII (Michael W. Deem and Ramdas Pophale) SiO2 
 PCOD9110531
Probable space group: P -1
;
_chemical_formula_sum "Si O2"
_cell_formula_units_Z 14
_cell_length_a 5.126895
_cell_length_b 15.481572
_cell_length_c 11.845283
_cell_angle_alpha 41.925303
_cell_angle_beta 70.935886
_cell_angle_gamma 82.986777
_cell_volume 582.757867
_symmetry_space_group_name_H-M "P -1"
_symmetry_group_IT_number 2
_symmetry_cell_setting 'triclinic'
loop_
_space_group_symop_operation_xyz
x,y,z
-x,-y,-z
loop_
_atom_site_type_symbol
_atom_site_label
_atom_site_fract_x
_atom_site_fract_y
_atom_site_fract_z
Si Si1 0.571400 0.684745 0.205554
Si Si2 0.977510 0.063969 0.119154
Si Si3 0.019285 0.336282 0.285963
Si Si4 0.903899 0.431976 0.785195
Si Si5 0.391031 0.689238 0.833224
Si Si6 0.827118 0.929822 0.488597
Si Si7 0.741882 0.127387 0.858906
O O1 0.355185 0.599561 0.233115
O O2 0.384646 0.741957 0.271192
O O3 0.815874 0.603963 0.274408
O O4 0.747652 0.825363 0.996285
O O5 0.812056 0.023363 0.294955
O O6 0.020008 0.923784 0.196267
O O7 0.839099 0.131378 0.971492
O O8 0.032834 0.423458 0.310335
O O9 0.322907 0.369711 0.147337
O O10 0.996064 0.182512 0.464621
O O11 0.783990 0.355607 0.211300
O O12 0.800650 0.344040 0.997463
O O13 0.527783 0.843148 0.648542
O O14 0.000000 0.000000 0.500000
O O15 0.500000 0.000000 0.000000
#
# Coordination Sequence:
#
# PCOD9110531 Si02
#       7
#     2   2   2   2   2   2   2
#     4  11  22  35  64  94 117 156 203 269 308 358
#     4  10  20  42  63  95 126 163 203 261 317 371
#     4  10  23  40  57  85 125 169 208 254 301 368
#     4  12  21  37  62  88 125 160 214 258 304 359
#     4  10  22  38  57  85 122 171 207 247 305 363
#     4  10  24  39  62  91 132 167 205 247 312 387
#     4   9  20  38  65  93 121 157 213 261 320 353
#
# _framework density 24.023698
#
# number of rings (size 3 to 8) (size 9 to 14) (size 15 to 20)
#    0.857    0.857    1.429    3.429    2.000    2.857 
#    0.000    0.000    0.000    1.714    0.000    0.000 
#    0.000    0.000    0.000    0.000    0.000    0.000 
#
# Total GULP energy -78129.397236 kJ/mol
# GULP energy per Si atom -5580.671231 kJ/mol
# Density = 2.396902 g / cm^3
# Si number density = 24.023698 Si / 1000 Ang^3
#
#
#
# Elastic Constant Matrix: (Units=GPa)
#
#
# Indices 1 2 3 4 5 6 
#
# 1 129.3413 62.2473 5.2320 -5.9401 -7.6405 14.3413
# 2 62.2473 129.6173 18.7135 -23.6978 -9.4331 10.1683
# 3 5.2320 18.7135 50.2434 -4.0322 -0.1251 7.2477
# 4 -5.9401 -23.6978 -4.0322 23.7851 5.6511 -4.8920
# 5 -7.6405 -9.4331 -0.1251 5.6511 11.9036 -5.5255
# 6 14.3413 10.1683 7.2477 -4.8920 -5.5255 58.1444
#
#
#
# Elastic Compliance Matrix: (Units=1/GPa)
#
#
# Indices 1 2 3 4 5 6 
#
# 1 0.010578 -0.005535 0.000909 -0.003900 0.003449 -0.001755
# 2 -0.005535 0.012893 -0.003462 0.010549 0.001903 0.000611
# 3 0.000909 -0.003462 0.021518 0.000721 -0.003469 -0.002570
# 4 -0.003900 0.010549 0.000721 0.056908 -0.020276 0.001888
# 5 0.003449 0.001903 -0.003469 -0.020276 0.100617 0.007105
# 6 -0.001755 0.000611 -0.002570 0.001888 0.007105 0.018679
#
#
# Mechanical properties :
#
#
# Convention : Reuss Voigt Hill
#
# Bulk Modulus (GPa) = 34.70904 53.50973 44.10939
# Shear Modulus (GPa) = 20.24508 33.63390 26.93949
#
# Velocity S-wave (km/s) = 2.90610 3.74576 3.35232
# Velocity P-wave (km/s) = 5.07344 6.40544 5.77795
#
# Compressibility (1/GPa) = 0.02881094
#
# Stress axis : x y z
#
# Youngs Moduli (GPa) = 94.53618 77.56427 46.47279
#
# Poissons Ratio (x) = 0.42936 -0.04224
# Poissons Ratio (y) = 0.52330 0.16090
# Poissons Ratio (z) = -0.08593 0.26854
#
# Static dielectric constant tensor:
#      x y z
#    x 1.944110 -0.100290 -0.003890 
#    y -0.100290 1.971880 -0.058230 
#    z -0.003890 -0.058230 1.954650 
# 
# From -- ./inp_files/367460.got.cif
#   From: 2010.05.17/outbox.cif.g08.bks.cpg/sg2_184_cif.got.tgz:367460.got - 2010.06.03 11:33:40.
