data_PCOD9110500
_publ_section_title
;
Structure prediction by ZEFSAII (Michael W. Deem and Ramdas Pophale) SiO2 
 PCOD9110500
Probable space group: P -1
;
_chemical_formula_sum "Si O2"
_cell_formula_units_Z 14
_cell_length_a 11.835835
_cell_length_b 6.915399
_cell_length_c 8.757395
_cell_angle_alpha 86.571511
_cell_angle_beta 97.736110
_cell_angle_gamma 89.926985
_cell_volume 708.962057
_symmetry_space_group_name_H-M "P -1"
_symmetry_group_IT_number 2
_symmetry_cell_setting 'triclinic'
loop_
_space_group_symop_operation_xyz
x,y,z
-x,-y,-z
loop_
_atom_site_type_symbol
_atom_site_label
_atom_site_fract_x
_atom_site_fract_y
_atom_site_fract_z
Si Si1 0.519862 0.572385 0.700075
Si Si2 0.185545 0.004012 0.486436
Si Si3 0.960383 0.014737 0.242244
Si Si4 0.046930 0.701112 0.059401
Si Si5 0.464634 0.042254 0.162333
Si Si6 0.392484 0.245095 0.592054
Si Si7 0.285182 0.755562 0.263108
O O1 0.407402 0.440427 0.684558
O O2 0.531471 0.702813 0.543927
O O3 0.623524 0.417851 0.721901
O O4 0.532280 0.728262 0.826073
O O5 0.270191 0.183631 0.512434
O O6 0.079801 0.046505 0.351753
O O7 0.135308 0.964101 0.646674
O O8 0.252506 0.827345 0.424244
O O9 0.947093 0.161914 0.094015
O O10 0.968826 0.805401 0.170275
O O11 0.171616 0.692770 0.158432
O O12 0.000000 0.500000 0.000000
O O13 0.553983 0.933247 0.296261
O O14 0.344438 0.943055 0.187390
O O15 0.500000 0.000000 0.000000
#
# Coordination Sequence:
#
# PCOD9110500 Si02
#       7
#     2   2   2   2   2   2   2
#     4  10  22  40  62  90 118 158 200 248 294 352
#     4  10  20  42  63  89 120 159 201 248 298 346
#     4   9  22  42  63  87 122 158 199 247 297 354
#     4  10  22  42  62  90 122 156 199 245 299 357
#     4  11  24  42  59  87 126 159 197 244 298 366
#     4  10  22  37  64  88 119 154 202 245 292 355
#     4  10  23  39  63  90 121 159 198 246 300 354
#
# _framework density 19.747178000000002
#
# number of rings (size 3 to 8) (size 9 to 14) (size 15 to 20)
#    0.000    2.000    1.429    0.429    8.000    3.429 
#    5.143    2.143    0.000    0.000    0.000    0.000 
#    0.000    0.000    0.000    0.000    0.000    0.000 
#
# Total GULP energy -78119.921017 kJ/mol
# GULP energy per Si atom -5579.994358 kJ/mol
# Density = 1.970223 g / cm^3
# Si number density = 19.747178 Si / 1000 Ang^3
#
#
#
# Elastic Constant Matrix: (Units=GPa)
#
#
# Indices 1 2 3 4 5 6 
#
# 1 71.4616 60.8991 44.6014 30.6961 -6.5182 14.9134
# 2 60.8991 146.8991 64.5821 46.6764 1.8484 8.7184
# 3 44.6014 64.5821 104.7357 31.7210 -11.8328 -3.8097
# 4 30.6961 46.6764 31.7210 38.4535 -1.7920 7.2279
# 5 -6.5182 1.8484 -11.8328 -1.7920 22.0853 9.4120
# 6 14.9134 8.7184 -3.8097 7.2279 9.4120 25.5001
#
#
#
# Elastic Compliance Matrix: (Units=1/GPa)
#
#
# Indices 1 2 3 4 5 6 
#
# 1 0.033750 -0.007734 -0.006330 -0.007498 0.015890 -0.021779
# 2 -0.007734 0.014448 -0.003367 -0.009891 -0.008189 0.004906
# 3 -0.006330 -0.003367 0.016841 -0.006036 0.003652 0.007732
# 4 -0.007498 -0.009891 -0.006036 0.050763 0.003211 -0.008709
# 5 0.015890 -0.008189 0.003652 0.003211 0.066208 -0.031295
# 6 -0.021779 0.004906 0.007732 -0.008709 -0.031295 0.065450
#
#
# Mechanical properties :
#
#
# Convention : Reuss Voigt Hill
#
# Bulk Modulus (GPa) = 33.13500 73.69574 53.41537
# Shear Modulus (GPa) = 17.10103 27.40871 22.25487
#
# Velocity S-wave (km/s) = 2.94598 3.72960 3.36071
# Velocity P-wave (km/s) = 5.32802 7.47979 6.49365
#
# Compressibility (1/GPa) = 0.03017957
#
# Stress axis : x y z
#
# Youngs Moduli (GPa) = 29.62978 69.21239 59.37726
#
# Poissons Ratio (x) = 0.53526 0.37583
# Poissons Ratio (y) = 0.22914 0.19992
# Poissons Ratio (z) = 0.18754 0.23303
#
# Static dielectric constant tensor:
#      x y z
#    x 1.715130 -0.004670 0.018370 
#    y -0.004670 1.716710 0.037320 
#    z 0.018370 0.037320 1.704090 
# 
# From -- ./inp_files/82934.got.cif
#   From: 2010.05.17/outbox.cif.g08.bks.cpg/sg2_42_cif.got.tgz:82934.got - 2010.06.03 11:33:40.
