data_PCOD9110792
_publ_section_title
;
Structure prediction by ZEFSAII (Michael W. Deem and Ramdas Pophale) SiO2 
 PCOD9110792
Probable space group: P -1
;
_chemical_formula_sum "Si O2"
_cell_formula_units_Z 16
_cell_length_a 10.893147
_cell_length_b 13.365073
_cell_length_c 6.837005
_cell_angle_alpha 132.970629
_cell_angle_beta 92.285203
_cell_angle_gamma 82.836896
_cell_volume 721.244120
_symmetry_space_group_name_H-M "P -1"
_symmetry_group_IT_number 2
_symmetry_cell_setting 'triclinic'
loop_
_space_group_symop_operation_xyz
x,y,z
-x,-y,-z
loop_
_atom_site_type_symbol
_atom_site_label
_atom_site_fract_x
_atom_site_fract_y
_atom_site_fract_z
Si Si1 0.894454 0.070956 0.939939
Si Si2 0.498802 0.476003 0.694961
Si Si3 0.922065 0.477989 0.772967
Si Si4 0.236391 0.172994 0.405739
Si Si5 0.496188 0.000736 0.268993
Si Si6 0.935346 0.722712 0.803060
Si Si7 0.369817 0.825657 0.752111
Si Si8 0.694858 0.556028 0.067121
O O1 0.771089 0.151022 0.144585
O O2 0.971108 0.176295 0.972805
O O3 0.841822 0.941620 0.662749
O O4 0.000000 0.000000 0.000000
O O5 0.500000 0.500000 0.500000
O O6 0.572568 0.322467 0.523625
O O7 0.361090 0.487364 0.789987
O O8 0.573853 0.580763 0.956361
O O9 0.904265 0.613691 0.815479
O O10 0.988403 0.359918 0.479842
O O11 0.791692 0.449732 0.814845
O O12 0.000000 0.500000 0.000000
O O13 0.378636 0.108281 0.335765
O O14 0.184176 0.203555 0.223696
O O15 0.235627 0.313277 0.711291
O O16 0.612857 0.059575 0.258629
O O17 0.500000 0.000000 0.500000
O O18 0.460289 0.861271 0.983813
#
# Coordination Sequence:
#
# PCOD9110792 Si02
#       8
#     2   2   2   2   2   2   2   2
#     4   9  20  41  65  91 126 168 216 266 319 382
#     4  11  26  41  66  95 131 174 213 274 331 390
#     4  11  23  40  68  98 132 176 216 267 319 394
#     4  10  20  42  66  92 130 166 219 268 323 394
#     4  10  22  39  67  93 123 166 215 268 329 387
#     4  10  22  42  68  95 132 176 216 266 328 380
#     4  10  21  41  62  91 126 165 214 265 324 394
#     4  11  24  41  61  97 133 164 223 267 317 395
#
# _framework density 22.183888
#
# number of rings (size 3 to 8) (size 9 to 14) (size 15 to 20)
#    0.000    1.750    2.500    0.750    3.500    1.000 
#    6.750    4.375    0.000    0.000    0.000    0.000 
#    0.000    0.000    0.000    0.000    0.000    0.000 
#
# Total GULP energy -89262.645769 kJ/mol
# GULP energy per Si atom -5578.915361 kJ/mol
# Density = 2.213340 g / cm^3
# Si number density = 22.183888 Si / 1000 Ang^3
#
#
#
# Elastic Constant Matrix: (Units=GPa)
#
#
# Indices 1 2 3 4 5 6 
#
# 1 109.3457 37.2373 29.3844 -0.6036 -9.8797 10.9979
# 2 37.2373 68.3338 33.9466 -14.3534 1.4785 -1.2588
# 3 29.3844 33.9466 92.1948 -18.3937 9.3851 17.1795
# 4 -0.6036 -14.3534 -18.3937 31.4029 12.7039 -3.1568
# 5 -9.8797 1.4785 9.3851 12.7039 38.9620 6.2809
# 6 10.9979 -1.2588 17.1795 -3.1568 6.2809 22.5548
#
#
#
# Elastic Compliance Matrix: (Units=1/GPa)
#
#
# Indices 1 2 3 4 5 6 
#
# 1 0.014867 -0.009477 -0.002442 -0.010434 0.009747 -0.010092
# 2 -0.009477 0.025891 -0.005709 0.013315 -0.008723 0.014707
# 3 -0.002442 -0.005709 0.018090 0.009487 -0.006268 -0.009833
# 4 -0.010434 0.013315 0.009487 0.054956 -0.025516 0.013402
# 5 0.009747 -0.008723 -0.006268 -0.025516 0.040779 -0.015392
# 6 -0.010092 0.014707 -0.009833 0.013402 -0.015392 0.063730
#
#
# Mechanical properties :
#
#
# Convention : Reuss Voigt Hill
#
# Bulk Modulus (GPa) = 42.38622 52.33456 47.36039
# Shear Modulus (GPa) = 19.12538 29.87100 24.49819
#
# Velocity S-wave (km/s) = 2.93939 3.67347 3.32674
# Velocity P-wave (km/s) = 5.53789 6.45252 6.01262
#
# Compressibility (1/GPa) = 0.02359258
#
# Stress axis : x y z
#
# Youngs Moduli (GPa) = 67.26300 38.62403 55.27875
#
# Poissons Ratio (x) = 0.36603 0.13501
# Poissons Ratio (y) = 0.63743 0.31557
# Poissons Ratio (z) = 0.16427 0.22049
#
# Static dielectric constant tensor:
#      x y z
#    x 1.898360 0.026300 -0.010240 
#    y 0.026300 1.849280 0.065230 
#    z -0.010240 0.065230 1.881040 
# 
# From -- ./inp_files/72289.got.cif
#   From: 2010.05.17/outbox.cif.g08.bks.cpg/sg2_37_cif.got.tgz:72289.got - 2010.06.03 11:33:40.
