data_PCOD9110867
_publ_section_title
;
Structure prediction by ZEFSAII (Michael W. Deem and Ramdas Pophale) SiO2 
 PCOD9110867
Probable space group: P -1
;
_chemical_formula_sum "Si O2"
_cell_formula_units_Z 16
_cell_length_a 10.049418
_cell_length_b 12.365252
_cell_length_c 11.984115
_cell_angle_alpha 89.777401
_cell_angle_beta 52.223235
_cell_angle_gamma 50.099429
_cell_volume 692.606506
_symmetry_space_group_name_H-M "P -1"
_symmetry_group_IT_number 2
_symmetry_cell_setting 'triclinic'
loop_
_space_group_symop_operation_xyz
x,y,z
-x,-y,-z
loop_
_atom_site_type_symbol
_atom_site_label
_atom_site_fract_x
_atom_site_fract_y
_atom_site_fract_z
Si Si1 0.189827 0.565783 0.063973
Si Si2 0.112306 0.179745 0.965687
Si Si3 0.534552 0.376700 0.260516
Si Si4 0.437505 0.403735 0.544030
Si Si5 0.102059 0.969989 0.574235
Si Si6 0.164596 0.673578 0.302854
Si Si7 0.314850 0.872864 0.003468
Si Si8 0.796914 0.680777 0.927767
O O1 0.131344 0.601667 0.225337
O O2 0.185125 0.446076 0.024801
O O3 0.520954 0.433571 0.880291
O O4 0.929756 0.768656 0.141806
O O5 0.277137 0.188303 0.945559
O O6 0.767690 0.349610 0.162614
O O7 0.215012 0.014254 0.964987
O O8 0.527149 0.311375 0.376122
O O9 0.224514 0.588024 0.391392
O O10 0.629855 0.260409 0.102312
O O11 0.500000 0.500000 0.500000
O O12 0.614571 0.245796 0.545659
O O13 0.106191 0.554597 0.727665
O O14 0.000000 0.000000 0.500000
O O15 0.081599 0.110668 0.584306
O O16 0.899433 0.040076 0.783275
O O17 0.586203 0.777833 0.931383
#
# Coordination Sequence:
#
# PCOD9110867 Si02
#       8
#     2   2   2   2   2   2   2   2
#     4  10  21  40  69  99 135 176 233 283 339 407
#     4  11  23  37  72 100 136 176 232 289 331 414
#     4  11  22  43  76  97 138 183 235 278 340 419
#     4  12  26  46  67 105 145 183 222 283 357 405
#     4  12  25  41  71 103 141 179 233 283 340 418
#     4  10  20  42  67 100 131 179 228 282 340 409
#     4  12  24  45  70 107 130 184 241 281 342 409
#     4  12  24  44  67 101 144 178 231 284 349 406
#
# _framework density 23.101140000000001
#
# number of rings (size 3 to 8) (size 9 to 14) (size 15 to 20)
#    0.000    0.750    5.000    3.375    3.500    1.500 
#    0.000    1.875    0.000    0.000    0.000    0.000 
#    0.000    0.000    0.000    0.000    0.000    0.000 
#
# Total GULP energy -89214.392471 kJ/mol
# GULP energy per Si atom -5575.899529 kJ/mol
# Density = 2.304856 g / cm^3
# Si number density = 23.101140 Si / 1000 Ang^3
#
#
#
# Elastic Constant Matrix: (Units=GPa)
#
#
# Indices 1 2 3 4 5 6 
#
# 1 89.7568 20.7893 13.2785 -3.3040 5.2380 -5.6130
# 2 20.7893 157.8064 -9.1377 1.6526 1.5784 -19.4077
# 3 13.2785 -9.1377 35.1406 -1.4687 3.3238 -9.4628
# 4 -3.3040 1.6526 -1.4687 26.0082 -6.5966 5.2161
# 5 5.2380 1.5784 3.3238 -6.5966 29.3292 1.1931
# 6 -5.6130 -19.4077 -9.4628 5.2161 1.1931 46.9100
#
#
#
# Elastic Compliance Matrix: (Units=1/GPa)
#
#
# Indices 1 2 3 4 5 6 
#
# 1 0.012459 -0.002002 -0.005192 0.001200 -0.001239 -0.000487
# 2 -0.002002 0.007295 0.003679 -0.001492 -0.000939 0.003710
# 3 -0.005192 0.003679 0.033820 -0.001544 -0.003776 0.007991
# 4 0.001200 -0.001492 -0.001544 0.042238 0.009774 -0.005730
# 5 -0.001239 -0.000939 -0.003776 0.009774 0.037129 -0.003329
# 6 -0.000487 0.003710 0.007991 -0.005730 -0.003329 0.025128
#
#
# Mechanical properties :
#
#
# Convention : Reuss Voigt Hill
#
# Bulk Modulus (GPa) = 21.48513 36.95156 29.21834
# Shear Modulus (GPa) = 27.68332 37.63440 32.65886
#
# Velocity S-wave (km/s) = 3.46548 4.04061 3.76404
# Velocity P-wave (km/s) = 5.03323 6.14809 5.61838
#
# Compressibility (1/GPa) = 0.04654381
#
# Stress axis : x y z
#
# Youngs Moduli (GPa) = 80.26263 137.08011 29.56817
#
# Poissons Ratio (x) = 0.27444 0.15352
# Poissons Ratio (y) = 0.16069 -0.10878
# Poissons Ratio (z) = 0.41674 -0.50432
#
# Static dielectric constant tensor:
#      x y z
#    x 1.856780 -0.022330 0.053860 
#    y -0.022330 1.960790 -0.043350 
#    z 0.053860 -0.043350 1.964200 
# 
# From -- ./inp_files/392575.got.cif
#   From: 2010.05.17/outbox.cif.g08.bks.cpg/sg2_197_cif.got.tgz:392575.got - 2010.06.03 11:33:40.
