data_PCOD9110219
_publ_section_title
;
Structure prediction by ZEFSAII (Michael W. Deem and Ramdas Pophale) SiO2 
 PCOD9110219
Probable space group: P -1
;
_chemical_formula_sum "Si O2"
_cell_formula_units_Z 14
_cell_length_a 8.869134
_cell_length_b 8.940770
_cell_length_c 11.617220
_cell_angle_alpha 130.010693
_cell_angle_beta 93.675831
_cell_angle_gamma 65.487680
_cell_volume 614.247028
_symmetry_space_group_name_H-M "P -1"
_symmetry_group_IT_number 2
_symmetry_cell_setting 'triclinic'
loop_
_space_group_symop_operation_xyz
x,y,z
-x,-y,-z
loop_
_atom_site_type_symbol
_atom_site_label
_atom_site_fract_x
_atom_site_fract_y
_atom_site_fract_z
Si Si1 0.250499 0.391254 0.153033
Si Si2 0.900219 0.110287 0.931925
Si Si3 0.227147 0.057585 0.831798
Si Si4 0.154010 0.275081 0.338571
Si Si5 0.077834 0.149748 0.630356
Si Si6 0.395278 0.626911 0.790796
Si Si7 0.649768 0.796708 0.475819
O O1 0.196276 0.309698 0.226719
O O2 0.408278 0.433617 0.211964
O O3 0.086074 0.621761 0.223644
O O4 0.303907 0.204769 0.964096
O O5 0.022964 0.193384 0.924299
O O6 0.901303 0.915829 0.759450
O O7 0.709164 0.280949 0.048846
O O8 0.000000 0.000000 0.000000
O O9 0.215138 0.034168 0.683541
O O10 0.314101 0.821546 0.786184
O O11 0.327746 0.186795 0.378876
O O12 0.000000 0.500000 0.500000
O O13 0.175903 0.218006 0.574624
O O14 0.000000 0.000000 0.500000
O O15 0.367287 0.421978 0.653428
O O16 0.500000 0.000000 0.500000
#
# Coordination Sequence:
#
# PCOD9110219 Si02
#       7
#     2   2   2   2   2   2   2
#     4  12  25  44  72 107 139 183 239 290 351 412
#     4  10  20  41  71 102 133 176 234 285 344 412
#     4  11  24  45  74 103 139 183 234 291 348 416
#     4  12  23  43  74 102 138 185 235 287 348 422
#     4  12  27  47  69 105 146 183 231 291 355 417
#     4  11  25  45  73 103 139 183 241 286 348 424
#     4  12  28  47  68 103 146 187 231 292 358 415
#
# _framework density 22.792133
#
# number of rings (size 3 to 8) (size 9 to 14) (size 15 to 20)
#    0.000    0.571    4.286    5.143    4.000    0.571 
#    0.000    2.143    0.000    0.000    0.000    0.000 
#    0.000    0.000    0.000    0.000    0.000    0.000 
#
# Total GULP energy -78322.145600 kJ/mol
# GULP energy per Si atom -5594.438971 kJ/mol
# Density = 2.274026 g / cm^3
# Si number density = 22.792133 Si / 1000 Ang^3
#
#
#
# Elastic Constant Matrix: (Units=GPa)
#
#
# Indices 1 2 3 4 5 6 
#
# 1 103.3118 15.3944 18.8720 4.2546 28.3906 1.0453
# 2 15.3944 114.2317 39.3287 -0.7923 21.1445 -17.2761
# 3 18.8720 39.3287 112.2103 4.0940 48.0221 -4.0815
# 4 4.2546 -0.7923 4.0940 38.7081 4.5777 0.1493
# 5 28.3906 21.1445 48.0221 4.5777 50.5512 4.1191
# 6 1.0453 -17.2761 -4.0815 0.1493 4.1191 30.8843
#
#
#
# Elastic Compliance Matrix: (Units=1/GPa)
#
#
# Indices 1 2 3 4 5 6 
#
# 1 0.011642 -0.000608 0.001654 -0.000541 -0.007849 0.000534
# 2 -0.000608 0.011117 -0.002535 0.000832 -0.002483 0.006231
# 3 0.001654 -0.002535 0.016281 -0.000128 -0.015547 0.002752
# 4 -0.000541 0.000832 -0.000128 0.026200 -0.002349 0.000654
# 5 -0.007849 -0.002483 -0.015547 -0.002349 0.040913 -0.008623
# 6 0.000534 0.006231 0.002752 0.000654 -0.008623 0.037357
#
#
# Mechanical properties :
#
#
# Convention : Reuss Voigt Hill
#
# Bulk Modulus (GPa) = 27.73185 52.99377 40.36281
# Shear Modulus (GPa) = 31.54400 41.10596 36.32498
#
# Velocity S-wave (km/s) = 3.72423 4.25139 3.99651
# Velocity P-wave (km/s) = 5.53958 6.88480 6.24849
#
# Compressibility (1/GPa) = 0.03605963
#
# Stress axis : x y z
#
# Youngs Moduli (GPa) = 85.89658 89.95478 61.42299
#
# Poissons Ratio (x) = 0.05472 -0.10157
# Poissons Ratio (y) = 0.05226 0.15571
# Poissons Ratio (z) = -0.14204 0.22803
#
# Static dielectric constant tensor:
#      x y z
#    x 1.868440 0.016590 -0.048270 
#    y 0.016590 1.858770 -0.026260 
#    z -0.048270 -0.026260 1.879620 
# 
# From -- ./inp_files/158813.got.cif
#   From: 2010.05.17/outbox.cif.g08.bks.cpg/sg2_80_cif.got.tgz:158813.got - 2010.06.03 11:33:40.
