data_PCOD9110116
_publ_section_title
;
Structure prediction by ZEFSAII (Michael W. Deem and Ramdas Pophale) SiO2 
 PCOD9110116
Probable space group: P -1
;
_chemical_formula_sum "Si O2"
_cell_formula_units_Z 12
_cell_length_a 7.026335
_cell_length_b 9.576692
_cell_length_c 13.382466
_cell_angle_alpha 145.101748
_cell_angle_beta 69.450231
_cell_angle_gamma 111.963020
_cell_volume 476.135260
_symmetry_space_group_name_H-M "P -1"
_symmetry_group_IT_number 2
_symmetry_cell_setting 'triclinic'
loop_
_space_group_symop_operation_xyz
x,y,z
-x,-y,-z
loop_
_atom_site_type_symbol
_atom_site_label
_atom_site_fract_x
_atom_site_fract_y
_atom_site_fract_z
Si Si1 0.558583 0.436493 0.062876
Si Si2 0.084446 0.327753 0.631327
Si Si3 0.459710 0.714150 0.816294
Si Si4 0.438231 0.130620 0.324997
Si Si5 0.879339 0.248764 0.422204
Si Si6 0.954020 0.766129 0.198304
O O1 0.444690 0.394930 0.166801
O O2 0.708105 0.691937 0.209823
O O3 0.500000 0.500000 0.000000
O O4 0.618913 0.160111 0.867941
O O5 0.215482 0.599564 0.791429
O O6 0.271767 0.213523 0.478606
O O7 0.987495 0.213183 0.684294
O O8 0.905801 0.304789 0.568556
O O9 0.546991 0.707175 0.684461
O O10 0.500000 0.000000 0.000000
O O11 0.659731 0.177177 0.366969
O O12 0.000000 0.500000 0.500000
O O13 0.986036 0.998056 0.253821
O O14 0.000000 0.500000 0.000000
#
# Coordination Sequence:
#
# PCOD9110116 Si02
#       6
#     2   2   2   2   2   2
#     4  10  20  41  69  98 133 188 238 280 341 420
#     4  11  24  45  68 101 140 189 230 293 363 411
#     4   9  20  38  65  94 137 179 223 286 345 408
#     4  11  22  44  71 101 143 181 237 291 355 421
#     4  12  25  43  72 108 142 181 236 292 358 427
#     4  11  25  49  70  98 144 188 236 296 354 423
#
# _framework density 25.202921
#
# number of rings (size 3 to 8) (size 9 to 14) (size 15 to 20)
#    0.000    1.333    3.333    2.000    0.000    0.667 
#    6.000    0.833    0.000    0.000    0.000    0.000 
#    0.000    0.000    0.000    0.000    0.000    0.000 
#
# Total GULP energy -66823.972233 kJ/mol
# GULP energy per Si atom -5568.664353 kJ/mol
# Density = 2.514556 g / cm^3
# Si number density = 25.202921 Si / 1000 Ang^3
#
#
#
# Elastic Constant Matrix: (Units=GPa)
#
#
# Indices 1 2 3 4 5 6 
#
# 1 79.2813 38.6679 41.9754 -0.6858 14.9680 -13.6423
# 2 38.6679 217.7261 58.7667 -6.7306 -0.0671 -28.5162
# 3 41.9754 58.7667 137.7168 -1.6713 12.8932 -12.6669
# 4 -0.6858 -6.7306 -1.6713 67.2436 -4.3397 24.8700
# 5 14.9680 -0.0671 12.8932 -4.3397 50.0438 5.3554
# 6 -13.6423 -28.5162 -12.6669 24.8700 5.3554 49.1960
#
#
#
# Elastic Compliance Matrix: (Units=1/GPa)
#
#
# Indices 1 2 3 4 5 6 
#
# 1 0.016942 -0.001496 -0.003698 -0.002008 -0.004763 0.004412
# 2 -0.001496 0.005662 -0.001788 -0.000392 0.000610 0.002538
# 3 -0.003698 -0.001788 0.009339 -0.000317 -0.001400 0.000655
# 4 -0.002008 -0.000392 -0.000317 0.019053 0.003498 -0.010879
# 5 -0.004763 0.000610 -0.001400 0.003498 0.022667 -0.005564
# 6 0.004412 0.002538 0.000655 -0.010879 -0.005564 0.029296
#
#
# Mechanical properties :
#
#
# Convention : Reuss Voigt Hill
#
# Bulk Modulus (GPa) = 55.62490 79.28269 67.45379
# Shear Modulus (GPa) = 40.67787 52.98430 46.83108
#
# Velocity S-wave (km/s) = 4.02184 4.59007 4.31532
# Velocity P-wave (km/s) = 6.60951 7.72125 7.18691
#
# Compressibility (1/GPa) = 0.01797756
#
# Stress axis : x y z
#
# Youngs Moduli (GPa) = 59.02448 176.61873 107.07743
#
# Poissons Ratio (x) = 0.26430 0.39597
# Poissons Ratio (y) = 0.08833 0.19149
# Poissons Ratio (z) = 0.21827 0.31586
#
# Static dielectric constant tensor:
#      x y z
#    x 2.175390 -0.013390 0.025550 
#    y -0.013390 1.921140 0.045850 
#    z 0.025550 0.045850 2.129390 
# 
# From -- ./inp_files/380768.got.cif
#   From: 2010.05.17/outbox.cif.g08.bks.cpg/sg2_191_cif.got.tgz:380768.got - 2010.06.03 11:33:40.
