data_PCOD9110191
_publ_section_title
;
Structure prediction by ZEFSAII (Michael W. Deem and Ramdas Pophale) SiO2 
 PCOD9110191
Probable space group: P -1
;
_chemical_formula_sum "Si O2"
_cell_formula_units_Z 14
_cell_length_a 7.492674
_cell_length_b 11.170805
_cell_length_c 9.106189
_cell_angle_alpha 49.761203
_cell_angle_beta 71.203611
_cell_angle_gamma 66.478224
_cell_volume 531.210419
_symmetry_space_group_name_H-M "P -1"
_symmetry_group_IT_number 2
_symmetry_cell_setting 'triclinic'
loop_
_space_group_symop_operation_xyz
x,y,z
-x,-y,-z
loop_
_atom_site_type_symbol
_atom_site_label
_atom_site_fract_x
_atom_site_fract_y
_atom_site_fract_z
Si Si1 0.353854 0.386074 0.636512
Si Si2 0.092139 0.864085 0.962532
Si Si3 0.120830 0.607906 0.719992
Si Si4 0.580627 0.318983 0.184014
Si Si5 0.131429 0.110314 0.298225
Si Si6 0.552518 0.879841 0.382814
Si Si7 0.042411 0.291076 0.627008
O O1 0.500000 0.500000 0.500000
O O2 0.234114 0.423981 0.790077
O O3 0.473301 0.206638 0.698633
O O4 0.185956 0.405257 0.539913
O O5 0.077114 0.714470 0.190362
O O6 0.936889 0.888314 0.852211
O O7 0.303129 0.797275 0.882271
O O8 0.000000 0.000000 0.000000
O O9 0.266708 0.664454 0.742901
O O10 0.920665 0.701936 0.777905
O O11 0.083631 0.682037 0.507379
O O12 0.449807 0.232512 0.384625
O O13 0.500000 0.500000 0.000000
O O14 0.358871 0.025237 0.329601
O O15 0.000000 0.000000 0.500000
O O16 0.781193 0.876665 0.317395
#
# Coordination Sequence:
#
# PCOD9110191 Si02
#       7
#     2   2   2   2   2   2   2
#     4  10  20  41  70  97 131 184 232 275 344 406
#     4  11  25  43  70 103 141 181 229 294 339 417
#     4  11  21  40  70  95 137 185 218 289 345 413
#     4  11  25  44  69 104 138 181 239 285 348 411
#     4  11  20  42  69  98 136 186 232 274 357 407
#     4  10  23  43  69  97 137 180 236 276 344 415
#     4  10  25  40  70 105 137 178 242 275 355 407
#
# _framework density 26.354904999999999
#
# number of rings (size 3 to 8) (size 9 to 14) (size 15 to 20)
#    0.857    0.571    4.286    1.286    2.000    2.286 
#    0.000    6.429    0.000    0.000    0.000    0.000 
#    0.000    0.000    0.000    0.000    0.000    0.000 
#
# Total GULP energy -77986.155839 kJ/mol
# GULP energy per Si atom -5570.439703 kJ/mol
# Density = 2.629492 g / cm^3
# Si number density = 26.354905 Si / 1000 Ang^3
#
#
#
# Elastic Constant Matrix: (Units=GPa)
#
#
# Indices 1 2 3 4 5 6 
#
# 1 75.2148 20.6121 13.6950 29.2085 7.8036 -20.8405
# 2 20.6121 215.6984 45.3193 37.8125 -5.7782 -6.0357
# 3 13.6950 45.3193 131.4862 54.8899 -1.9245 -13.7373
# 4 29.2085 37.8125 54.8899 33.0839 -7.1508 -0.3903
# 5 7.8036 -5.7782 -1.9245 -7.1508 40.0217 18.4810
# 6 -20.8405 -6.0357 -13.7373 -0.3903 18.4810 34.2733
#
#
#
# Elastic Compliance Matrix: (Units=1/GPa)
#
#
# Indices 1 2 3 4 5 6 
#
# 1 -0.006656 -0.003212 -0.017976 0.042828 0.017116 -0.020559
# 2 -0.003212 0.005111 -0.002697 0.002170 0.003457 -0.003974
# 3 -0.017976 -0.002697 -0.003745 0.028903 0.018519 -0.022564
# 4 0.042828 0.002170 0.028903 -0.067615 -0.047836 0.063034
# 5 0.017116 0.003457 0.018519 -0.047836 0.008294 0.013422
# 6 -0.020559 -0.003974 -0.022564 0.063034 0.013422 0.000412
#
#
# Mechanical properties :
#
#
# Convention : Reuss Voigt Hill
#
# Bulk Modulus (GPa) = -18.84638 64.62804 22.89083
# Shear Modulus (GPa) = -146.56738 44.32731 -51.12003
#
# Velocity S-wave (km/s) = -7.46550 4.10559 -4.40896
# Velocity P-wave (km/s) = 9.02652 6.85930 4.14898
#
# Compressibility (1/GPa) = -0.05306060
#
# Stress axis : x y z
#
# Youngs Moduli (GPa) = -150.25004 195.66525 -267.04484
#
# Poissons Ratio (x) = 0.62844 -4.80047
# Poissons Ratio (y) = -0.48257 -0.72035
# Poissons Ratio (z) = -2.70094 0.52780
#
# Static dielectric constant tensor:
#      x y z
#    x 2.064860 -0.021870 -0.081200 
#    y -0.021870 2.500020 -0.231150 
#    z -0.081200 -0.231150 2.114960 
# 
# From -- ./inp_files/184911.got.cif
#   From: 2010.05.17/outbox.cif.g08.bks.cpg/sg2_93_cif.got.tgz:184911.got - 2010.06.03 11:33:40.
