data_PCOD9110909
_publ_section_title
;
Structure prediction by ZEFSAII (Michael W. Deem and Ramdas Pophale) SiO2 
 PCOD9110909
Probable space group: P -1
;
_chemical_formula_sum "Si O2"
_cell_formula_units_Z 16
_cell_length_a 14.278013
_cell_length_b 12.053061
_cell_length_c 12.953734
_cell_angle_alpha 119.998324
_cell_angle_beta 41.721342
_cell_angle_gamma 150.073852
_cell_volume 663.750013
_symmetry_space_group_name_H-M "P -1"
_symmetry_group_IT_number 2
_symmetry_cell_setting 'triclinic'
loop_
_space_group_symop_operation_xyz
x,y,z
-x,-y,-z
loop_
_atom_site_type_symbol
_atom_site_label
_atom_site_fract_x
_atom_site_fract_y
_atom_site_fract_z
Si Si1 0.423595 0.909377 0.379137
Si Si2 0.176470 0.241127 0.154467
Si Si3 0.706389 0.967166 0.315004
Si Si4 0.895418 0.076239 0.827013
Si Si5 0.324081 0.471254 0.498341
Si Si6 0.538350 0.714317 0.755897
Si Si7 0.938065 0.335136 0.047151
Si Si8 0.105407 0.824192 0.458157
O O1 0.285421 0.887136 0.570839
O O2 0.718611 0.202444 0.250209
O O3 0.515564 0.841878 0.313905
O O4 0.236219 0.795704 0.381969
O O5 0.068575 0.244845 0.339735
O O6 0.090462 0.031451 0.158467
O O7 0.500000 0.500000 0.000000
O O8 0.015506 0.159199 0.145524
O O9 0.565331 0.758073 0.412748
O O10 0.187070 0.345861 0.664535
O O11 0.706022 0.887187 0.799871
O O12 0.790136 0.113316 0.995644
O O13 0.402390 0.389219 0.359326
O O14 0.086332 0.340169 0.559034
O O15 0.663058 0.896420 0.643848
O O16 0.221158 0.498375 0.929548
O O17 0.000000 0.500000 0.000000
#
# Coordination Sequence:
#
# PCOD9110909 Si02
#       8
#     2   2   2   2   2   2   2   2
#     4  10  23  45  58  96 136 178 223 267 323 407
#     4  11  23  41  66  99 131 173 220 278 337 390
#     4  10  24  42  70  92 131 183 227 267 336 400
#     4  11  24  42  67 105 133 171 224 281 341 390
#     4  11  21  41  72 101 123 173 225 282 336 396
#     4  11  22  42  70 100 134 169 223 281 335 397
#     4  12  25  41  67  98 140 180 220 277 333 401
#     4  10  20  42  67  90 135 167 216 274 328 396
#
# _framework density 24.105461999999999
#
# number of rings (size 3 to 8) (size 9 to 14) (size 15 to 20)
#    0.000    1.250    3.750    2.250    3.500    3.000 
#    2.250    1.875    0.000    0.000    0.000    0.000 
#    0.000    0.000    0.000    0.000    0.000    0.000 
#
# Total GULP energy -89468.525616 kJ/mol
# GULP energy per Si atom -5591.782851 kJ/mol
# Density = 2.405060 g / cm^3
# Si number density = 24.105462 Si / 1000 Ang^3
#
#
#
# Elastic Constant Matrix: (Units=GPa)
#
#
# Indices 1 2 3 4 5 6 
#
# 1 172.8095 38.7416 46.8852 -6.8816 -26.5340 -15.8564
# 2 38.7416 53.9416 9.7349 -1.5265 -5.1335 -6.2711
# 3 46.8852 9.7349 87.7388 -12.5667 -18.6025 -1.3694
# 4 -6.8816 -1.5265 -12.5667 29.0013 0.0895 2.5413
# 5 -26.5340 -5.1335 -18.6025 0.0895 39.0453 -9.0382
# 6 -15.8564 -6.2711 -1.3694 2.5413 -9.0382 31.7648
#
#
#
# Elastic Compliance Matrix: (Units=1/GPa)
#
#
# Indices 1 2 3 4 5 6 
#
# 1 0.008923 -0.004809 -0.003068 0.000098 0.005083 0.004811
# 2 -0.004809 0.022219 0.000170 -0.000079 0.000211 0.002060
# 3 -0.003068 0.000170 0.014911 0.005715 0.005058 0.000127
# 4 0.000098 -0.000079 0.005715 0.037151 0.002216 -0.002062
# 5 0.005083 0.000211 0.005058 0.002216 0.034368 0.012399
# 6 0.004811 0.002060 0.000127 -0.002062 0.012399 0.037988
#
#
# Mechanical properties :
#
#
# Convention : Reuss Voigt Hill
#
# Bulk Modulus (GPa) = 32.63747 56.13482 44.38614
# Shear Modulus (GPa) = 27.59583 34.57084 31.08333
#
# Velocity S-wave (km/s) = 3.38715 3.79113 3.59482
# Velocity P-wave (km/s) = 5.37270 6.51930 5.97357
#
# Compressibility (1/GPa) = 0.03063963
#
# Stress axis : x y z
#
# Youngs Moduli (GPa) = 112.06907 45.00623 67.06500
#
# Poissons Ratio (x) = 0.21644 0.20574
# Poissons Ratio (y) = 0.53896 -0.01141
# Poissons Ratio (z) = 0.34380 -0.00766
#
# Static dielectric constant tensor:
#      x y z
#    x 1.989130 0.029650 0.005060 
#    y 0.029650 1.921760 -0.027830 
#    z 0.005060 -0.027830 1.943300 
# 
# From -- ./inp_files/209207.got.cif
#   From: 2010.05.17/outbox.cif.g08.bks.cpg/sg2_105_cif.got.tgz:209207.got - 2010.06.03 11:33:40.
