data_PCOD9110651
_publ_section_title
;
Structure prediction by ZEFSAII (Michael W. Deem and Ramdas Pophale) SiO2 
 PCOD9110651
Probable space group: P -1
;
_chemical_formula_sum "Si O2"
_cell_formula_units_Z 14
_cell_length_a 21.020154
_cell_length_b 15.016100
_cell_length_c 10.944660
_cell_angle_alpha 140.273699
_cell_angle_beta 148.230424
_cell_angle_gamma 19.359948
_cell_volume 592.082031
_symmetry_space_group_name_H-M "P -1"
_symmetry_group_IT_number 2
_symmetry_cell_setting 'triclinic'
loop_
_space_group_symop_operation_xyz
x,y,z
-x,-y,-z
loop_
_atom_site_type_symbol
_atom_site_label
_atom_site_fract_x
_atom_site_fract_y
_atom_site_fract_z
Si Si1 0.962648 0.856338 0.430122
Si Si2 0.534974 0.626307 0.375027
Si Si3 0.395082 0.074740 0.541462
Si Si4 0.557331 0.735739 0.768379
Si Si5 0.107483 0.352353 0.762789
Si Si6 0.531321 0.723756 0.995613
Si Si7 0.129071 0.817372 0.897351
O O1 0.200688 0.660420 0.543097
O O2 0.959859 0.949601 0.648073
O O3 0.974251 0.682173 0.308768
O O4 0.718782 0.107536 0.222821
O O5 0.535458 0.632281 0.529163
O O6 0.458306 0.857173 0.453635
O O7 0.337014 0.718645 0.099764
O O8 0.113660 0.379166 0.394614
O O9 0.500000 0.000000 0.500000
O O10 0.498672 0.086947 0.814938
O O11 0.598136 0.650454 0.884834
O O12 0.313043 0.067484 0.722702
O O13 0.768002 0.632083 0.966347
O O14 0.731640 0.460531 0.130054
O O15 0.000000 0.000000 0.000000
#
# Coordination Sequence:
#
# PCOD9110651 Si02
#       7
#     2   2   2   2   2   2   2
#     4  11  24  47  72  98 141 179 231 286 337 410
#     4  12  26  43  69 104 140 178 230 284 343 407
#     4  12  24  41  74 106 138 180 227 284 351 401
#     4  10  24  40  67 104 135 184 225 282 344 398
#     4  10  20  42  65 101 138 171 231 276 337 402
#     4  11  26  47  72  98 140 184 231 278 344 409
#     4  12  27  48  71 100 139 183 230 286 341 408
#
# _framework density 23.645371000000001
#
# number of rings (size 3 to 8) (size 9 to 14) (size 15 to 20)
#    0.000    0.857    2.857    4.714    4.000    5.143 
#    0.000    0.000    0.000    0.000    0.000    0.000 
#    0.000    0.000    0.000    0.000    0.000    0.000 
#
# Total GULP energy -78440.899441 kJ/mol
# GULP energy per Si atom -5602.921389 kJ/mol
# Density = 2.359155 g / cm^3
# Si number density = 23.645371 Si / 1000 Ang^3
#
#
#
# Elastic Constant Matrix: (Units=GPa)
#
#
# Indices 1 2 3 4 5 6 
#
# 1 62.2435 1.3910 4.7054 2.4029 6.6272 -1.8714
# 2 1.3910 44.6571 9.3447 -8.7764 -0.8016 -0.8102
# 3 4.7054 9.3447 96.4718 -17.3526 8.1411 2.2863
# 4 2.4029 -8.7764 -17.3526 36.4359 2.0196 10.1832
# 5 6.6272 -0.8016 8.1411 2.0196 41.5275 -3.1278
# 6 -1.8714 -0.8102 2.2863 10.1832 -3.1278 19.6069
#
#
#
# Elastic Compliance Matrix: (Units=1/GPa)
#
#
# Indices 1 2 3 4 5 6 
#
# 1 0.016558 -0.000755 -0.001039 -0.002364 -0.002146 0.002556
# 2 -0.000755 0.023764 -0.001236 0.005674 0.000408 -0.001828
# 3 -0.001039 -0.001236 0.012276 0.007448 -0.003074 -0.005940
# 4 -0.002364 0.005674 0.007448 0.038844 -0.004501 -0.021752
# 5 -0.002146 0.000408 -0.003074 -0.004501 0.025751 0.006616
# 6 0.002556 -0.001828 -0.005940 -0.021752 0.006616 0.064216
#
#
# Mechanical properties :
#
#
# Convention : Reuss Voigt Hill
#
# Bulk Modulus (GPa) = 21.48771 26.02827 23.75799
# Shear Modulus (GPa) = 24.63281 32.04282 28.33781
#
# Velocity S-wave (km/s) = 3.23113 3.68522 3.46562
# Velocity P-wave (km/s) = 4.79870 5.39810 5.10720
#
# Compressibility (1/GPa) = 0.04653823
#
# Stress axis : x y z
#
# Youngs Moduli (GPa) = 60.39390 42.08026 81.45976
#
# Poissons Ratio (x) = 0.03177 0.08465
# Poissons Ratio (y) = 0.04560 0.10066
# Poissons Ratio (z) = 0.06276 0.05200
#
# Static dielectric constant tensor:
#      x y z
#    x 1.911940 0.005200 0.011330 
#    y 0.005200 1.874660 -0.002560 
#    z 0.011330 -0.002560 1.879310 
# 
# From -- ./inp_files/471961.got.cif
#   From: 2010.05.17/outbox.cif.g08.bks.cpg/sg2_236_cif.got.tgz:471961.got - 2010.06.03 11:33:40.
