data_PCOD9110660
_publ_section_title
;
Structure prediction by ZEFSAII (Michael W. Deem and Ramdas Pophale) SiO2 
 PCOD9110660
Probable space group: P -1
;
_chemical_formula_sum "Si O2"
_cell_formula_units_Z 14
_cell_length_a 11.288455
_cell_length_b 17.834643
_cell_length_c 13.492231
_cell_angle_alpha 144.882575
_cell_angle_beta 52.407418
_cell_angle_gamma 154.049722
_cell_volume 592.795061
_symmetry_space_group_name_H-M "P -1"
_symmetry_group_IT_number 2
_symmetry_cell_setting 'triclinic'
loop_
_space_group_symop_operation_xyz
x,y,z
-x,-y,-z
loop_
_atom_site_type_symbol
_atom_site_label
_atom_site_fract_x
_atom_site_fract_y
_atom_site_fract_z
Si Si1 0.531203 0.530046 0.767528
Si Si2 0.193517 0.470659 0.003776
Si Si3 0.809253 0.675821 0.982058
Si Si4 0.471358 0.962793 0.792199
Si Si5 0.359442 0.620186 0.807248
Si Si6 0.511425 0.742890 0.648599
Si Si7 0.373338 0.882629 0.328044
O O1 0.545109 0.651380 0.806748
O O2 0.475838 0.353544 0.548360
O O3 0.269445 0.395792 0.826229
O O4 0.788443 0.692800 0.895749
O O5 0.389814 0.738577 0.148411
O O6 0.225696 0.492858 0.131195
O O7 0.840928 0.230498 0.903272
O O8 0.500000 0.500000 0.000000
O O9 0.132931 0.970127 0.182918
O O10 0.424888 0.905930 0.637193
O O11 0.362757 0.763534 0.703855
O O12 0.446000 0.094253 0.978970
O O13 0.329274 0.560004 0.641923
O O14 0.997006 0.360270 0.747922
O O15 0.500000 0.000000 0.500000
#
# Coordination Sequence:
#
# PCOD9110660 Si02
#       7
#     2   2   2   2   2   2   2
#     4  11  21  40  64  89 133 161 203 254 311 371
#     4   9  18  39  62  90 121 157 207 261 299 362
#     4   9  22  38  60  95 123 162 209 251 299 369
#     4  10  20  42  65  86 117 168 207 252 313 357
#     4  11  22  44  61  89 129 163 204 256 317 362
#     4  11  25  40  65  92 128 169 200 253 317 372
#     4  11  22  38  68  93 118 160 219 258 301 372
#
# _framework density 23.61693
#
# number of rings (size 3 to 8) (size 9 to 14) (size 15 to 20)
#    0.000    1.714    2.857    1.714    2.000    8.000 
#    2.571    0.714    0.000    0.000    0.000    0.000 
#    0.000    0.000    0.000    0.000    0.000    0.000 
#
# Total GULP energy -77943.486323 kJ/mol
# GULP energy per Si atom -5567.391880 kJ/mol
# Density = 2.356318 g / cm^3
# Si number density = 23.616930 Si / 1000 Ang^3
#
#
#
# Elastic Constant Matrix: (Units=GPa)
#
#
# Indices 1 2 3 4 5 6 
#
# 1 133.2863 25.1893 62.5660 -6.2875 28.2081 -29.9193
# 2 25.1893 54.5145 23.8214 -8.3828 6.7956 2.1090
# 3 62.5660 23.8214 101.2437 -24.3025 17.9796 -6.3848
# 4 -6.2875 -8.3828 -24.3025 22.2271 -6.8695 6.3413
# 5 28.2081 6.7956 17.9796 -6.8695 31.8069 -10.7822
# 6 -29.9193 2.1090 -6.3848 6.3413 -10.7822 37.8447
#
#
#
# Elastic Compliance Matrix: (Units=1/GPa)
#
#
# Indices 1 2 3 4 5 6 
#
# 1 0.017159 -0.005034 -0.010934 -0.014698 -0.006899 0.012499
# 2 -0.005034 0.022513 -0.000530 0.008266 -0.000592 -0.006878
# 3 -0.010934 -0.000530 0.021800 0.022910 -0.000597 -0.008946
# 4 -0.014698 0.008266 0.022910 0.076987 0.008620 -0.018659
# 5 -0.006899 -0.000592 -0.000597 0.008620 0.041533 0.004867
# 6 0.012499 -0.006878 -0.008946 -0.018659 0.004867 0.039692
#
#
# Mechanical properties :
#
#
# Convention : Reuss Voigt Hill
#
# Bulk Modulus (GPa) = 35.11945 56.91089 46.01517
# Shear Modulus (GPa) = 19.07142 30.20693 24.63918
#
# Velocity S-wave (km/s) = 2.84479 3.58024 3.23350
# Velocity P-wave (km/s) = 5.06885 6.42189 5.78506
#
# Compressibility (1/GPa) = 0.02847425
#
# Stress axis : x y z
#
# Youngs Moduli (GPa) = 58.27905 44.41961 45.87139
#
# Poissons Ratio (x) = 0.22362 0.50155
# Poissons Ratio (y) = 0.29340 0.02433
# Poissons Ratio (z) = 0.63722 0.02356
#
# Static dielectric constant tensor:
#      x y z
#    x 0.371430 1.166610 -0.729370 
#    y 1.166610 1.026740 0.514360 
#    z -0.729370 0.514360 1.601790 
# 
# From -- ./inp_files/351448.got.cif
#   From: 2010.05.17/outbox.cif.g08.bks.cpg/sg2_176_cif.got.tgz:351448.got - 2010.06.03 11:33:40.
