data_PCOD9110882
_publ_section_title
;
Structure prediction by ZEFSAII (Michael W. Deem and Ramdas Pophale) SiO2 
 PCOD9110882
Probable space group: P -1
;
_chemical_formula_sum "Si O2"
_cell_formula_units_Z 14
_cell_length_a 17.398712
_cell_length_b 8.096465
_cell_length_c 12.832272
_cell_angle_alpha 135.776844
_cell_angle_beta 151.700338
_cell_angle_gamma 58.482094
_cell_volume 564.789396
_symmetry_space_group_name_H-M "P -1"
_symmetry_group_IT_number 2
_symmetry_cell_setting 'triclinic'
loop_
_space_group_symop_operation_xyz
x,y,z
-x,-y,-z
loop_
_atom_site_type_symbol
_atom_site_label
_atom_site_fract_x
_atom_site_fract_y
_atom_site_fract_z
Si Si1 0.444065 0.016104 0.556980
Si Si2 0.976386 0.141313 0.779716
Si Si3 0.350130 0.230773 0.174950
Si Si4 0.577809 0.480443 0.193080
Si Si5 0.925036 0.587144 0.553902
Si Si6 0.925614 0.225204 0.978073
Si Si7 0.328500 0.077355 0.839743
O O1 0.373169 0.249593 0.575895
O O2 0.500000 0.000000 0.500000
O O3 0.588811 0.982941 0.790703
O O4 0.272002 0.813959 0.299144
O O5 0.001219 0.307680 0.990774
O O6 0.915362 0.857299 0.627779
O O7 0.832774 0.107019 0.500717
O O8 0.165288 0.211749 0.990226
O O9 0.500000 0.500000 0.500000
O O10 0.316272 0.153545 0.978561
O O11 0.750575 0.429584 0.338881
O O12 0.500000 0.500000 0.000000
O O13 0.408558 0.331793 0.987254
O O14 0.000000 0.500000 0.500000
O O15 0.052305 0.621887 0.818842
O O16 0.000000 0.000000 0.000000
O O17 0.500000 0.000000 0.000000
#
# Coordination Sequence:
#
# PCOD9110882 Si02
#       7
#     2   2   2   2   2   2   2
#     4  12  24  44  76 106 144 197 247 308 360 443
#     4  11  24  49  72  99 153 194 252 304 370 447
#     4  12  29  48  73 108 151 199 252 304 380 449
#     4  12  24  45  73 106 149 187 256 301 368 443
#     4  11  25  40  75 114 142 188 251 313 364 432
#     4  10  20  42  67 103 144 183 242 312 366 418
#     4  12  27  48  73 110 153 199 240 311 381 445
#
# _framework density 24.788001999999999
#
# number of rings (size 3 to 8) (size 9 to 14) (size 15 to 20)
#    0.000    0.571    4.286    4.714    8.000    1.143 
#    2.571    1.429    0.000    0.000    0.000    0.000 
#    0.000    0.000    0.000    0.000    0.000    0.000 
#
# Total GULP energy -77938.224384 kJ/mol
# GULP energy per Si atom -5567.016027 kJ/mol
# Density = 2.473158 g / cm^3
# Si number density = 24.788002 Si / 1000 Ang^3
#
#
#
# Elastic Constant Matrix: (Units=GPa)
#
#
# Indices 1 2 3 4 5 6 
#
# 1 275.0145 23.8659 74.9904 -8.8225 -14.6744 -17.3646
# 2 23.8659 33.2918 26.0111 -4.3596 -8.0905 -0.1601
# 3 74.9904 26.0111 144.3222 -18.3187 6.9979 -13.6008
# 4 -8.8225 -4.3596 -18.3187 31.5419 -3.0454 -1.8218
# 5 -14.6744 -8.0905 6.9979 -3.0454 53.2577 -5.6173
# 6 -17.3646 -0.1601 -13.6008 -1.8218 -5.6173 41.8445
#
#
#
# Elastic Compliance Matrix: (Units=1/GPa)
#
#
# Indices 1 2 3 4 5 6 
#
# 1 0.004465 -0.001245 -0.002019 0.000126 0.001460 0.001393
# 2 -0.001245 0.037602 -0.006363 0.001657 0.006137 -0.001545
# 3 -0.002019 -0.006363 0.009993 0.004262 -0.002354 0.002255
# 4 0.000126 0.001657 0.004262 0.034829 0.002059 0.003237
# 5 0.001460 0.006137 -0.002354 0.002059 0.020828 0.002750
# 6 0.001393 -0.001545 0.002255 0.003237 0.002750 0.025713
#
#
# Mechanical properties :
#
#
# Convention : Reuss Voigt Hill
#
# Bulk Modulus (GPa) = 30.48277 78.04038 54.26157
# Shear Modulus (GPa) = 30.55865 47.17955 38.86910
#
# Velocity S-wave (km/s) = 3.51493 4.36744 3.96417
# Velocity P-wave (km/s) = 5.36629 7.54879 6.54910
#
# Compressibility (1/GPa) = 0.03280542
#
# Stress axis : x y z
#
# Youngs Moduli (GPa) = 223.97923 26.59407 100.07487
#
# Poissons Ratio (x) = 0.03311 0.20206
# Poissons Ratio (y) = 0.27886 0.63677
# Poissons Ratio (z) = 0.45223 0.16922
#
# Static dielectric constant tensor:
#      x y z
#    x 2.610920 -1.184910 -0.164590 
#    y -1.184910 3.683790 0.268390 
#    z -0.164590 0.268390 2.050120 
# 
# From -- ./inp_files/448273.got.cif
#   From: 2010.05.17/outbox.cif.g08.bks.cpg/sg2_225_cif.got.tgz:448273.got - 2010.06.03 11:33:40.
