data_PCOD9110169
_publ_section_title
;
Structure prediction by ZEFSAII (Michael W. Deem and Ramdas Pophale) SiO2 
 PCOD9110169
Probable space group: P -1
;
_chemical_formula_sum "Si O2"
_cell_formula_units_Z 16
_cell_length_a 10.565683
_cell_length_b 18.655682
_cell_length_c 15.893195
_cell_angle_alpha 22.552866
_cell_angle_beta 130.533086
_cell_angle_gamma 141.976911
_cell_volume 699.003072
_symmetry_space_group_name_H-M "P -1"
_symmetry_group_IT_number 2
_symmetry_cell_setting 'triclinic'
loop_
_space_group_symop_operation_xyz
x,y,z
-x,-y,-z
loop_
_atom_site_type_symbol
_atom_site_label
_atom_site_fract_x
_atom_site_fract_y
_atom_site_fract_z
Si Si1 0.175062 0.615154 0.312556
Si Si2 0.661760 0.137500 0.310938
Si Si3 0.163898 0.759273 0.549041
Si Si4 0.695087 0.713339 0.794004
Si Si5 0.391334 0.140712 0.856982
Si Si6 0.230063 0.267596 0.799178
Si Si7 0.895782 0.885995 0.372960
Si Si8 0.645121 0.481419 0.845845
O O1 0.359035 0.722831 0.202341
O O2 0.189478 0.454039 0.557871
O O3 0.947362 0.446604 0.347210
O O4 0.249375 0.857623 0.127134
O O5 0.803372 0.295539 0.282911
O O6 0.407907 0.991312 0.378895
O O7 0.681829 0.928361 0.538157
O O8 0.705752 0.306209 0.069563
O O9 0.015102 0.835416 0.413075
O O10 0.690810 0.604801 0.822034
O O11 0.500000 0.500000 0.000000
O O12 0.920195 0.852314 0.790385
O O13 0.355684 0.270771 0.769932
O O14 0.287780 0.132896 0.733341
O O15 0.394160 0.342343 0.864914
O O16 0.000000 0.000000 0.000000
O O17 0.789734 0.685530 0.617092
#
# Coordination Sequence:
#
# PCOD9110169 Si02
#       8
#     2   2   2   2   2   2   2   2
#     4  11  23  43  70  98 126 182 221 270 329 391
#     4  10  24  42  63 103 130 175 222 270 328 398
#     4  10  20  41  70  94 132 173 225 263 332 387
#     4  11  26  44  70  99 133 177 221 273 332 394
#     4  11  25  44  68  99 130 177 229 265 328 395
#     4  12  26  43  68  99 138 171 220 277 330 389
#     4  11  23  44  70  97 136 175 220 277 326 393
#     4  12  25  44  66  99 140 171 219 276 332 392
#
# _framework density 22.889741999999998
#
# number of rings (size 3 to 8) (size 9 to 14) (size 15 to 20)
#    0.000    1.000    2.500    4.500    5.250    3.500 
#    2.250    0.000    0.000    0.000    0.000    0.000 
#    0.000    0.000    0.000    0.000    0.000    0.000 
#
# Total GULP energy -89571.756629 kJ/mol
# GULP energy per Si atom -5598.234789 kJ/mol
# Density = 2.283764 g / cm^3
# Si number density = 22.889742 Si / 1000 Ang^3
#
#
#
# Elastic Constant Matrix: (Units=GPa)
#
#
# Indices 1 2 3 4 5 6 
#
# 1 37.1607 -8.6672 -4.1911 0.2681 1.3726 0.2328
# 2 -8.6672 108.9692 30.0588 -14.1057 6.4737 -1.9049
# 3 -4.1911 30.0588 139.4654 16.1702 9.2647 -8.5845
# 4 0.2681 -14.1057 16.1702 34.4740 3.7325 -2.4219
# 5 1.3726 6.4737 9.2647 3.7325 24.9645 -5.2388
# 6 0.2328 -1.9049 -8.5845 -2.4219 -5.2388 25.8560
#
#
#
# Elastic Compliance Matrix: (Units=1/GPa)
#
#
# Indices 1 2 3 4 5 6 
#
# 1 0.027584 0.002335 0.000372 0.000806 -0.002460 -0.000375
# 2 0.002335 0.011121 -0.002860 0.006177 -0.002908 -0.000162
# 3 0.000372 -0.002860 0.008573 -0.004917 -0.001326 0.001903
# 4 0.000806 0.006177 -0.004917 0.034424 -0.004742 0.001079
# 5 -0.002460 -0.002908 -0.001326 -0.004742 0.043783 0.007794
# 6 -0.000375 -0.000162 0.001903 0.001079 0.007794 0.040979
#
#
# Mechanical properties :
#
#
# Convention : Reuss Voigt Hill
#
# Bulk Modulus (GPa) = 21.28826 35.55514 28.42170
# Shear Modulus (GPa) = 27.40822 34.95188 31.18005
#
# Velocity S-wave (km/s) = 3.46410 3.91188 3.69478
# Velocity P-wave (km/s) = 5.03195 5.99756 5.53585
#
# Compressibility (1/GPa) = 0.04697426
#
# Stress axis : x y z
#
# Youngs Moduli (GPa) = 36.25261 89.91972 116.64401
#
# Poissons Ratio (x) = -0.20998 -0.04344
# Poissons Ratio (y) = -0.08466 0.33356
# Poissons Ratio (z) = -0.01350 0.25714
#
# Static dielectric constant tensor:
#      x y z
#    x 1.843610 0.014250 0.025750 
#    y 0.014250 1.834730 0.010270 
#    z 0.025750 0.010270 1.892970 
# 
# From -- ./inp_files/470230.got.cif
#   From: 2010.05.17/outbox.cif.g08.bks.cpg/sg2_236_cif.got.tgz:470230.got - 2010.06.03 11:33:40.
