data_PCOD9110904
_publ_section_title
;
Structure prediction by ZEFSAII (Michael W. Deem and Ramdas Pophale) SiO2 
 PCOD9110904
Probable space group: P -1
;
_chemical_formula_sum "Si O2"
_cell_formula_units_Z 14
_cell_length_a 8.028068
_cell_length_b 5.601305
_cell_length_c 15.309590
_cell_angle_alpha 119.195910
_cell_angle_beta 94.917493
_cell_angle_gamma 95.459525
_cell_volume 591.293070
_symmetry_space_group_name_H-M "P -1"
_symmetry_group_IT_number 2
_symmetry_cell_setting 'triclinic'
loop_
_space_group_symop_operation_xyz
x,y,z
-x,-y,-z
loop_
_atom_site_type_symbol
_atom_site_label
_atom_site_fract_x
_atom_site_fract_y
_atom_site_fract_z
Si Si1 0.090781 0.744155 0.434205
Si Si2 0.752315 0.718960 0.086351
Si Si3 0.814024 0.686429 0.883699
Si Si4 0.434487 0.795536 0.542997
Si Si5 0.283623 0.905629 0.289437
Si Si6 0.003319 0.800934 0.744561
Si Si7 0.401842 0.870438 0.056383
O O1 0.233390 0.728831 0.510847
O O2 0.195912 0.801235 0.358819
O O3 0.963485 0.462166 0.356878
O O4 0.000000 0.000000 0.500000
O O5 0.558964 0.774799 0.097022
O O6 0.829394 0.774484 0.001223
O O7 0.733145 0.387738 0.028813
O O8 0.865793 0.915209 0.194020
O O9 0.735626 0.362457 0.820956
O O10 0.970013 0.714209 0.829022
O O11 0.690501 0.882476 0.870754
O O12 0.500000 0.500000 0.500000
O O13 0.500000 0.000000 0.500000
O O14 0.523661 0.964470 0.659360
O O15 0.169618 0.125861 0.290906
O O16 0.500000 0.000000 0.000000
#
# Coordination Sequence:
#
# PCOD9110904 Si02
#       7
#     2   2   2   2   2   2   2
#     4  10  23  42  64  93 128 168 219 278 336 394
#     4  10  21  38  60  89 128 167 206 264 326 386
#     4  10  21  37  60  90 125 166 212 260 317 396
#     4  10  20  42  67  90 128 173 216 273 336 401
#     4  10  22  38  62  91 123 168 217 263 327 401
#     4  11  22  38  61  93 127 163 217 269 328 393
#     4   9  20  38  58  80 120 165 211 258 317 383
#
# _framework density 23.676922000000001
#
# number of rings (size 3 to 8) (size 9 to 14) (size 15 to 20)
#    0.000    2.000    1.429    1.286    0.000    8.571 
#    0.000    4.286    0.000    0.000    0.000    0.000 
#    0.000    0.000    0.000    0.000    0.000    0.000 
#
# Total GULP energy -78127.427176 kJ/mol
# GULP energy per Si atom -5580.530513 kJ/mol
# Density = 2.362303 g / cm^3
# Si number density = 23.676922 Si / 1000 Ang^3
#
#
#
# Elastic Constant Matrix: (Units=GPa)
#
#
# Indices 1 2 3 4 5 6 
#
# 1 59.0137 15.3390 52.8585 7.3430 7.0347 -11.0789
# 2 15.3390 88.1581 28.8327 19.6018 -1.9828 -7.3327
# 3 52.8585 28.8327 163.1374 41.2253 23.7527 -8.1191
# 4 7.3430 19.6018 41.2253 42.5193 -1.7472 -10.0189
# 5 7.0347 -1.9828 23.7527 -1.7472 37.4301 4.1613
# 6 -11.0789 -7.3327 -8.1191 -10.0189 4.1613 45.2267
#
#
#
# Elastic Compliance Matrix: (Units=1/GPa)
#
#
# Indices 1 2 3 4 5 6 
#
# 1 0.026545 -0.002564 -0.009908 0.007634 0.000861 0.005920
# 2 -0.002564 0.013090 -0.000326 -0.005186 0.001120 0.000184
# 3 -0.009908 -0.000326 0.013277 -0.011783 -0.006900 -0.002072
# 4 0.007634 -0.005186 -0.011783 0.037868 0.006793 0.006678
# 5 0.000861 0.001120 -0.006900 0.006793 0.031560 -0.002245
# 6 0.005920 0.000184 -0.002072 0.006678 -0.002245 0.024905
#
#
# Mechanical properties :
#
#
# Convention : Reuss Voigt Hill
#
# Bulk Modulus (GPa) = 36.60832 56.04108 46.32470
# Shear Modulus (GPa) = 27.48096 39.25381 33.36739
#
# Velocity S-wave (km/s) = 3.41055 4.07614 3.75811
# Velocity P-wave (km/s) = 5.56815 6.77301 6.19992
#
# Compressibility (1/GPa) = 0.02731620
#
# Stress axis : x y z
#
# Youngs Moduli (GPa) = 37.67223 76.39645 75.31969
#
# Poissons Ratio (x) = 0.19588 0.74623
# Poissons Ratio (y) = 0.09659 0.02455
# Poissons Ratio (z) = 0.37324 0.02490
#
# Static dielectric constant tensor:
#      x y z
#    x 1.908760 0.019260 0.001130 
#    y 0.019260 1.858940 -0.023360 
#    z 0.001130 -0.023360 1.912760 
# 
# From -- ./inp_files/45057.got.cif
#   From: 2010.05.17/outbox.cif.g08.bks.cpg/sg2_23_cif.got.tgz:45057.got - 2010.06.03 11:33:40.
