data_PCOD9110387
_publ_section_title
;
Structure prediction by ZEFSAII (Michael W. Deem and Ramdas Pophale) SiO2 
 PCOD9110387
Probable space group: P -1
;
_chemical_formula_sum "Si O2"
_cell_formula_units_Z 16
_cell_length_a 5.188558
_cell_length_b 6.479356
_cell_length_c 20.237385
_cell_angle_alpha 77.636618
_cell_angle_beta 88.424313
_cell_angle_gamma 78.165789
_cell_volume 650.351740
_symmetry_space_group_name_H-M "P -1"
_symmetry_group_IT_number 2
_symmetry_cell_setting 'triclinic'
loop_
_space_group_symop_operation_xyz
x,y,z
-x,-y,-z
loop_
_atom_site_type_symbol
_atom_site_label
_atom_site_fract_x
_atom_site_fract_y
_atom_site_fract_z
Si Si1 0.363573 0.371412 0.258453
Si Si2 0.433786 0.685295 0.134770
Si Si3 0.085170 0.090577 0.180902
Si Si4 0.653967 0.978443 0.636080
Si Si5 0.971602 0.230435 0.696211
Si Si6 0.958828 0.515028 0.077179
Si Si7 0.041775 0.771096 0.550672
Si Si8 0.715851 0.663259 0.444464
O O1 0.524043 0.516931 0.206262
O O2 0.235178 0.223726 0.220186
O O3 0.132593 0.547843 0.280944
O O4 0.499714 0.198311 0.323412
O O5 0.689708 0.677075 0.089103
O O6 0.206702 0.593724 0.103511
O O7 0.292879 0.913336 0.150876
O O8 0.938549 0.276852 0.120608
O O9 0.918709 0.951680 0.236722
O O10 0.714336 0.148081 0.677389
O O11 0.523001 0.133309 0.568527
O O12 0.927848 0.835027 0.618839
O O13 0.125226 0.268982 0.625783
O O14 0.000000 0.500000 0.000000
O O15 0.842981 0.662388 0.515749
O O16 0.300816 0.582425 0.556353
O O17 0.000000 0.000000 0.500000
#
# Coordination Sequence:
#
# PCOD9110387 Si02
#       8
#     2   2   2   2   2   2   2   2
#     4   9  20  42  62  90 128 161 215 269 322 385
#     4  10  23  43  67 101 137 179 224 270 326 393
#     4   9  22  42  65  93 134 174 213 277 320 387
#     4  11  22  39  62  88 117 162 207 263 330 384
#     4  10  20  42  60  92 121 158 218 262 320 389
#     4  11  24  43  70 104 140 179 222 269 325 391
#     4  11  23  42  57  84 122 156 207 262 321 396
#     4  11  24  38  62  84 117 160 203 264 320 392
#
# _framework density 24.602074000000002
#
# number of rings (size 3 to 8) (size 9 to 14) (size 15 to 20)
#    0.000    1.750    2.500    0.750    1.750    4.500 
#   18.000    0.000    0.000    0.000    0.000    0.000 
#    0.000    0.000    0.000    0.000    0.000    0.000 
#
# Total GULP energy -89320.726751 kJ/mol
# GULP energy per Si atom -5582.545422 kJ/mol
# Density = 2.454608 g / cm^3
# Si number density = 24.602074 Si / 1000 Ang^3
#
#
#
# Elastic Constant Matrix: (Units=GPa)
#
#
# Indices 1 2 3 4 5 6 
#
# 1 75.3536 22.3043 22.8658 11.6006 -11.3361 -10.3479
# 2 22.3043 158.0246 40.1060 12.0996 2.1564 -15.0009
# 3 22.8658 40.1060 96.1888 7.1203 -11.2888 -2.4498
# 4 11.6006 12.0996 7.1203 33.7782 -7.7763 -1.1268
# 5 -11.3361 2.1564 -11.2888 -7.7763 32.6402 7.0685
# 6 -10.3479 -15.0009 -2.4498 -1.1268 7.0685 22.6101
#
#
#
# Elastic Compliance Matrix: (Units=1/GPa)
#
#
# Indices 1 2 3 4 5 6 
#
# 1 0.016087 -0.000777 -0.002772 -0.003890 0.002550 0.005556
# 2 -0.000777 0.008064 -0.003284 -0.002613 -0.003794 0.005695
# 3 -0.002772 -0.003284 0.012842 0.000348 0.004527 -0.003454
# 4 -0.003890 -0.002613 0.000348 0.033466 0.007837 -0.004259
# 5 0.002550 -0.003794 0.004527 0.007837 0.037872 -0.012309
# 6 0.005556 0.005695 -0.003454 -0.004259 -0.012309 0.053810
#
#
# Mechanical properties :
#
#
# Convention : Reuss Voigt Hill
#
# Bulk Modulus (GPa) = 42.86791 55.56879 49.21835
# Shear Modulus (GPa) = 27.23581 34.09178 30.66379
#
# Velocity S-wave (km/s) = 3.33085 3.72657 3.53426
# Velocity P-wave (km/s) = 5.67936 6.41503 6.05837
#
# Compressibility (1/GPa) = 0.02332747
#
# Stress axis : x y z
#
# Youngs Moduli (GPa) = 62.16142 124.01226 77.86937
#
# Poissons Ratio (x) = 0.09632 0.21583
# Poissons Ratio (y) = 0.04828 0.25575
# Poissons Ratio (z) = 0.17229 0.40730
#
# Static dielectric constant tensor:
#      x y z
#    x 2.797040 -0.683710 -0.427040 
#    y -0.683710 2.503620 0.296380 
#    z -0.427040 0.296380 2.249140 
# 
# From -- ./inp_files/11181.got.cif
#   From: 2010.05.17/outbox.cif.g08.bks.cpg/sg2_6_cif.got.tgz:11181.got - 2010.06.03 11:33:40.
