data_PCOD9110158
_publ_section_title
;
Structure prediction by ZEFSAII (Michael W. Deem and Ramdas Pophale) SiO2 
 PCOD9110158
Probable space group: P -1
;
_chemical_formula_sum "Si O2"
_cell_formula_units_Z 14
_cell_length_a 7.942864
_cell_length_b 11.378971
_cell_length_c 10.973688
_cell_angle_alpha 45.310960
_cell_angle_beta 59.449896
_cell_angle_gamma 68.530458
_cell_volume 607.178186
_symmetry_space_group_name_H-M "P -1"
_symmetry_group_IT_number 2
_symmetry_cell_setting 'triclinic'
loop_
_space_group_symop_operation_xyz
x,y,z
-x,-y,-z
loop_
_atom_site_type_symbol
_atom_site_label
_atom_site_fract_x
_atom_site_fract_y
_atom_site_fract_z
Si Si1 0.697584 0.203459 0.828032
Si Si2 0.619907 0.955694 0.610660
Si Si3 0.358749 0.360527 0.698909
Si Si4 0.018986 0.355244 0.000232
Si Si5 0.621876 0.356615 0.992076
Si Si6 0.305933 0.086038 0.765407
Si Si7 0.983682 0.973172 0.308151
O O1 0.493754 0.226652 0.817213
O O2 0.858460 0.166319 0.690160
O O3 0.685312 0.349789 0.830213
O O4 0.720919 0.042852 0.021957
O O5 0.524621 0.795424 0.822106
O O6 0.843429 0.938205 0.501297
O O7 0.500000 0.000000 0.500000
O O8 0.533740 0.093187 0.634263
O O9 0.500000 0.500000 0.500000
O O10 0.194433 0.419083 0.807330
O O11 0.250411 0.267367 0.697918
O O12 0.000000 0.500000 0.000000
O O13 0.819595 0.342706 0.006741
O O14 0.062192 0.160836 0.160384
O O15 0.500000 0.500000 0.000000
O O16 0.165341 0.029635 0.750225
#
# Coordination Sequence:
#
# PCOD9110158 Si02
#       7
#     2   2   2   2   2   2   2
#     4  11  22  43  69  94 127 179 224 262 325 397
#     4   9  19  37  67  96 123 165 216 263 312 389
#     4  12  28  43  63  98 136 172 219 281 333 383
#     4  12  25  42  66  97 139 171 214 273 341 382
#     4  11  23  43  69  98 133 174 217 269 332 395
#     4  10  20  41  70  91 132 168 224 264 323 393
#     4  11  21  41  73 100 125 175 226 268 320 403
#
# _framework density 23.057482
#
# number of rings (size 3 to 8) (size 9 to 14) (size 15 to 20)
#    0.000    1.143    5.714    2.571    2.000    3.429 
#    0.000    2.857    0.000    0.000    0.000    0.000 
#    0.000    0.000    0.000    0.000    0.000    0.000 
#
# Total GULP energy -78053.221701 kJ/mol
# GULP energy per Si atom -5575.230121 kJ/mol
# Density = 2.300500 g / cm^3
# Si number density = 23.057482 Si / 1000 Ang^3
#
#
#
# Elastic Constant Matrix: (Units=GPa)
#
#
# Indices 1 2 3 4 5 6 
#
# 1 73.4556 28.4076 12.2997 7.5577 -10.5142 6.0297
# 2 28.4076 191.4290 31.5451 41.6190 -27.0364 1.6459
# 3 12.2997 31.5451 76.3828 28.3390 -29.2117 -4.0526
# 4 7.5577 41.6190 28.3390 43.9746 -9.8215 -14.7311
# 5 -10.5142 -27.0364 -29.2117 -9.8215 24.4110 4.9009
# 6 6.0297 1.6459 -4.0526 -14.7311 4.9009 45.9431
#
#
#
# Elastic Compliance Matrix: (Units=1/GPa)
#
#
# Indices 1 2 3 4 5 6 
#
# 1 0.015237 -0.001092 0.000950 -0.001824 0.006388 -0.003143
# 2 -0.001092 0.008224 0.003960 -0.009090 0.010490 -0.003836
# 3 0.000950 0.003960 0.032063 -0.018772 0.037100 -0.007415
# 4 -0.001824 -0.009090 -0.018772 0.044750 -0.018368 0.015217
# 5 0.006388 0.010490 0.037100 -0.018368 0.095148 -0.013981
# 6 -0.003143 -0.003836 -0.007415 0.015217 -0.013981 0.028032
#
#
# Mechanical properties :
#
#
# Convention : Reuss Voigt Hill
#
# Bulk Modulus (GPa) = 15.83258 53.97469 34.90364
# Shear Modulus (GPa) = 21.10853 40.80007 30.95430
#
# Velocity S-wave (km/s) = 3.02896 4.21110 3.66797
# Velocity P-wave (km/s) = 4.37199 6.86324 5.75406
#
# Compressibility (1/GPa) = 0.06316090
#
# Stress axis : x y z
#
# Youngs Moduli (GPa) = 65.63059 121.59259 31.18847
#
# Poissons Ratio (x) = 0.13278 -0.02963
# Poissons Ratio (y) = 0.07167 -0.12351
# Poissons Ratio (z) = -0.06236 -0.48154
#
# Static dielectric constant tensor:
#      x y z
#    x 1.980410 0.277570 0.015980 
#    y 0.277570 3.036860 0.031350 
#    z 0.015980 0.031350 1.859260 
# 
# From -- ./inp_files/303792.got.cif
#   From: 2010.05.17/outbox.cif.g08.bks.cpg/sg2_152_cif.got.tgz:303792.got - 2010.06.03 11:33:40.
