data_PCOD9110528
_publ_section_title
;
Structure prediction by ZEFSAII (Michael W. Deem and Ramdas Pophale) SiO2 
 PCOD9110528
Probable space group: P -1
;
_chemical_formula_sum "Si O2"
_cell_formula_units_Z 16
_cell_length_a 9.699947
_cell_length_b 6.994259
_cell_length_c 24.549328
_cell_angle_alpha 37.402326
_cell_angle_beta 130.834257
_cell_angle_gamma 117.626175
_cell_volume 759.771726
_symmetry_space_group_name_H-M "P -1"
_symmetry_group_IT_number 2
_symmetry_cell_setting 'triclinic'
loop_
_space_group_symop_operation_xyz
x,y,z
-x,-y,-z
loop_
_atom_site_type_symbol
_atom_site_label
_atom_site_fract_x
_atom_site_fract_y
_atom_site_fract_z
Si Si1 0.521572 0.832723 0.602388
Si Si2 0.510211 0.107608 0.735548
Si Si3 0.120369 0.892351 0.323957
Si Si4 0.113571 0.803938 0.027026
Si Si5 0.718987 0.217451 0.161565
Si Si6 0.647840 0.715627 0.462910
Si Si7 0.546277 0.931894 0.964537
Si Si8 0.907872 0.901750 0.846892
O O1 0.519674 0.461189 0.679845
O O2 0.500000 0.000000 0.500000
O O3 0.713372 0.911054 0.660336
O O4 0.358767 0.997189 0.561464
O O5 0.422294 0.150258 0.643334
O O6 0.394558 0.915515 0.788950
O O7 0.715327 0.934037 0.821443
O O8 0.171852 0.535177 0.439810
O O9 0.111469 0.867276 0.261701
O O10 0.930001 0.077760 0.252249
O O11 0.059532 0.449638 0.090629
O O12 0.330989 0.811806 0.086499
O O13 0.058562 0.945858 0.920919
O O14 0.000000 0.000000 0.000000
O O15 0.634743 0.097388 0.110862
O O16 0.674012 0.596436 0.065618
O O17 0.500000 0.500000 0.500000
O O18 0.500000 0.000000 0.000000
#
# Coordination Sequence:
#
# PCOD9110528 Si02
#       8
#     2   2   2   2   2   2   2   2
#     4  11  21  40  68  93 124 170 214 258 320 381
#     4  12  23  40  67  94 129 167 212 265 321 382
#     4  11  22  43  65  93 131 166 214 265 317 378
#     4  11  24  40  65  97 124 164 220 275 313 377
#     4  11  27  42  64  97 130 170 216 265 320 386
#     4  10  20  42  63  94 131 160 206 270 318 372
#     4  11  24  47  63  85 137 176 208 260 334 379
#     4  11  23  39  65  98 127 162 222 270 311 382
#
# _framework density 21.058956999999999
#
# number of rings (size 3 to 8) (size 9 to 14) (size 15 to 20)
#    0.000    1.000    5.000    3.000    5.250    5.500 
#    2.250    0.625    0.000    0.000    0.000    0.000 
#    0.000    0.000    0.000    0.000    0.000    0.000 
#
# Total GULP energy -89491.211466 kJ/mol
# GULP energy per Si atom -5593.200717 kJ/mol
# Density = 2.101103 g / cm^3
# Si number density = 21.058957 Si / 1000 Ang^3
#
#
#
# Elastic Constant Matrix: (Units=GPa)
#
#
# Indices 1 2 3 4 5 6 
#
# 1 48.2586 -6.0574 -7.2282 -1.8666 4.8411 -6.8597
# 2 -6.0574 94.2506 9.7118 2.3507 -3.7269 -15.1243
# 3 -7.2282 9.7118 65.7203 11.4080 9.1772 -1.0773
# 4 -1.8666 2.3507 11.4080 28.5440 -8.2751 1.6971
# 5 4.8411 -3.7269 9.1772 -8.2751 36.2881 2.0559
# 6 -6.8597 -15.1243 -1.0773 1.6971 2.0559 26.8625
#
#
#
# Elastic Compliance Matrix: (Units=1/GPa)
#
#
# Indices 1 2 3 4 5 6 
#
# 1 0.022970 0.002245 0.003250 -0.001742 -0.004490 0.007714
# 2 0.002245 0.012120 -0.001452 -0.000477 0.000790 0.007308
# 3 0.003250 -0.001452 0.018489 -0.009345 -0.007498 0.001918
# 4 -0.001742 -0.000477 -0.009345 0.042609 0.012532 -0.004739
# 5 -0.004490 0.000790 -0.007498 0.012532 0.033237 -0.004338
# 6 0.007714 0.007308 0.001918 -0.004739 -0.004338 0.044020
#
#
# Mechanical properties :
#
#
# Convention : Reuss Voigt Hill
#
# Bulk Modulus (GPa) = 16.21648 22.34245 19.27946
# Shear Modulus (GPa) = 26.89451 32.45914 29.67683
#
# Velocity S-wave (km/s) = 3.57754 3.93026 3.75804
# Velocity P-wave (km/s) = 4.97818 5.58824 5.29201
#
# Compressibility (1/GPa) = 0.06166567
#
# Stress axis : x y z
#
# Youngs Moduli (GPa) = 43.53527 82.50968 54.08723
#
# Poissons Ratio (x) = -0.18524 -0.17581
# Poissons Ratio (y) = -0.09774 0.07852
# Poissons Ratio (z) = -0.14151 0.11979
#
# Static dielectric constant tensor:
#      x y z
#    x 1.742650 0.003510 0.005050 
#    y 0.003510 1.777150 -0.002420 
#    z 0.005050 -0.002420 1.781780 
# 
# From -- ./inp_files/323563.got.cif
#   From: 2010.05.17/outbox.cif.g08.bks.cpg/sg2_162_cif.got.tgz:323563.got - 2010.06.03 11:33:40.
