data_PCOD9110674
_publ_section_title
;
Structure prediction by ZEFSAII (Michael W. Deem and Ramdas Pophale) SiO2 
 PCOD9110674
Probable space group: P -1
;
_chemical_formula_sum "Si O2"
_cell_formula_units_Z 14
_cell_length_a 9.546143
_cell_length_b 6.533075
_cell_length_c 18.663217
_cell_angle_alpha 113.832865
_cell_angle_beta 120.672568
_cell_angle_gamma 46.964454
_cell_volume 728.836055
_symmetry_space_group_name_H-M "P -1"
_symmetry_group_IT_number 2
_symmetry_cell_setting 'triclinic'
loop_
_space_group_symop_operation_xyz
x,y,z
-x,-y,-z
loop_
_atom_site_type_symbol
_atom_site_label
_atom_site_fract_x
_atom_site_fract_y
_atom_site_fract_z
Si Si1 0.649599 0.433900 0.791766
Si Si2 0.900481 0.061195 0.209472
Si Si3 0.612412 0.673877 0.192928
Si Si4 0.082190 0.763497 0.599959
Si Si5 0.528144 0.032490 0.094375
Si Si6 0.339132 0.105071 0.536564
Si Si7 0.373291 0.882030 0.659829
O O1 0.536673 0.327836 0.789976
O O2 0.635311 0.653992 0.873612
O O3 0.527318 0.615845 0.713944
O O4 0.877276 0.183100 0.794659
O O5 0.794041 0.350478 0.179294
O O6 0.911430 0.151808 0.305233
O O7 0.745526 0.980215 0.154672
O O8 0.516110 0.830197 0.115002
O O9 0.681158 0.846355 0.273261
O O10 0.233533 0.426303 0.579264
O O11 0.176096 0.891040 0.598357
O O12 0.853839 0.881186 0.537739
O O13 0.500000 0.000000 0.000000
O O14 0.500000 0.000000 0.500000
O O15 0.447306 0.898932 0.603813
#
# Coordination Sequence:
#
# PCOD9110674 Si02
#       7
#     2   2   2   2   2   2   2
#     4  10  23  39  64  97 124 164 210 251 305 373
#     4  11  22  41  66  93 125 165 207 253 312 370
#     4  10  20  42  65  89 125 164 204 250 312 366
#     4  11  23  43  61  92 124 162 213 258 311 365
#     4  10  23  44  66  94 129 160 202 256 309 370
#     4  11  26  42  61  90 127 165 209 265 309 358
#     4  11  20  44  62  88 128 164 212 256 306 367
#
# _framework density 19.208708999999999
#
# number of rings (size 3 to 8) (size 9 to 14) (size 15 to 20)
#    0.000    1.429    5.714    0.429    4.000    5.714 
#    5.143    1.429    0.000    0.000    0.000    0.000 
#    0.000    0.000    0.000    0.000    0.000    0.000 
#
# Total GULP energy -78137.703459 kJ/mol
# GULP energy per Si atom -5581.264533 kJ/mol
# Density = 1.916499 g / cm^3
# Si number density = 19.208709 Si / 1000 Ang^3
#
#
#
# Elastic Constant Matrix: (Units=GPa)
#
#
# Indices 1 2 3 4 5 6 
#
# 1 127.0695 95.4853 63.7057 -2.0489 -25.0739 -6.4086
# 2 95.4853 109.6240 42.5083 -1.4537 -6.2746 -10.8292
# 3 63.7057 42.5083 127.6949 3.8759 -26.4934 1.9636
# 4 -2.0489 -1.4537 3.8759 13.5527 4.8754 -9.0726
# 5 -25.0739 -6.2746 -26.4934 4.8754 24.9983 -4.4010
# 6 -6.4086 -10.8292 1.9636 -9.0726 -4.4010 44.5394
#
#
#
# Elastic Compliance Matrix: (Units=1/GPa)
#
#
# Indices 1 2 3 4 5 6 
#
# 1 0.036757 -0.029630 -0.002371 -0.007478 0.028281 -0.000540
# 2 -0.029630 0.035062 -0.002545 0.011964 -0.025189 0.004322
# 3 -0.002371 -0.002545 0.012698 -0.010195 0.012005 -0.002410
# 4 -0.007478 0.011964 -0.010195 0.101503 -0.031607 0.019835
# 5 0.028281 -0.025189 0.012005 -0.031607 0.080751 -0.001044
# 6 -0.000540 0.004322 -0.002410 0.019835 -0.001044 0.027469
#
#
# Mechanical properties :
#
#
# Convention : Reuss Voigt Hill
#
# Bulk Modulus (GPa) = 64.83390 85.30965 75.07177
# Shear Modulus (GPa) = 13.56953 27.46403 20.51678
#
# Velocity S-wave (km/s) = 2.66075 3.78533 3.27172
# Velocity P-wave (km/s) = 6.57762 7.97580 7.31021
#
# Compressibility (1/GPa) = 0.01542403
#
# Stress axis : x y z
#
# Youngs Moduli (GPa) = 27.20595 28.52128 78.74962
#
# Poissons Ratio (x) = 0.84510 0.18671
# Poissons Ratio (y) = 0.80612 0.20042
# Poissons Ratio (z) = 0.06450 0.07259
#
# Static dielectric constant tensor:
#      x y z
#    x 1.670890 0.033240 -0.001340 
#    y 0.033240 1.676380 -0.017720 
#    z -0.001340 -0.017720 1.689360 
# 
# From -- ./inp_files/44834.got.cif
#   From: 2010.05.17/outbox.cif.g08.bks.cpg/sg2_23_cif.got.tgz:44834.got - 2010.06.03 11:33:40.
