data_PCOD9110185
_publ_section_title
;
Structure prediction by ZEFSAII (Michael W. Deem and Ramdas Pophale) SiO2 
 PCOD9110185
Probable space group: P -1
;
_chemical_formula_sum "Si O2"
_cell_formula_units_Z 16
_cell_length_a 9.330826
_cell_length_b 21.512255
_cell_length_c 9.525773
_cell_angle_alpha 152.200470
_cell_angle_beta 49.155680
_cell_angle_gamma 132.896137
_cell_volume 645.710247
_symmetry_space_group_name_H-M "P -1"
_symmetry_group_IT_number 2
_symmetry_cell_setting 'triclinic'
loop_
_space_group_symop_operation_xyz
x,y,z
-x,-y,-z
loop_
_atom_site_type_symbol
_atom_site_label
_atom_site_fract_x
_atom_site_fract_y
_atom_site_fract_z
Si Si1 0.287830 0.943848 0.100561
Si Si2 0.810390 0.612367 0.516677
Si Si3 0.487223 0.069376 0.496231
Si Si4 0.075846 0.864700 0.676063
Si Si5 0.588219 0.327506 0.124028
Si Si6 0.862142 0.825720 0.460113
Si Si7 0.157903 0.410929 0.224772
Si Si8 0.584131 0.297198 0.381249
O O1 0.321488 0.002054 0.355556
O O2 0.136519 0.018684 0.279183
O O3 0.272538 0.780056 0.785901
O O4 0.500000 0.000000 0.000000
O O5 0.784179 0.447231 0.191302
O O6 0.598250 0.618026 0.608301
O O7 0.825290 0.634785 0.718139
O O8 0.967480 0.732383 0.574107
O O9 0.698239 0.082192 0.317982
O O10 0.500000 0.000000 0.500000
O O11 0.505199 0.224694 0.844463
O O12 0.031654 0.824153 0.460391
O O13 0.000000 0.000000 0.000000
O O14 0.617194 0.265764 0.133191
O O15 0.644127 0.766343 0.553834
O O16 0.873214 0.720897 0.119019
O O17 0.352595 0.536726 0.310028
O O18 0.000000 0.500000 0.500000
#
# Coordination Sequence:
#
# PCOD9110185 Si02
#       8
#     2   2   2   2   2   2   2   2
#     4  10  22  42  68 102 136 178 232 282 350 411
#     4  10  23  44  66  95 135 179 225 279 342 403
#     4  12  24  41  71  98 133 180 231 273 349 406
#     4  12  26  45  69 101 140 177 232 289 338 414
#     4  10  20  41  70  96 130 176 231 282 331 410
#     4  11  24  44  70 104 136 187 231 281 357 407
#     4  11  26  43  67 100 143 180 231 287 346 416
#     4  10  20  43  70  94 139 181 227 287 342 411
#
# _framework density 24.778917
#
# number of rings (size 3 to 8) (size 9 to 14) (size 15 to 20)
#    0.000    1.250    2.500    3.375    3.500    3.500 
#    4.500    1.875    0.000    0.000    0.000    0.000 
#    0.000    0.000    0.000    0.000    0.000    0.000 
#
# Total GULP energy -89410.970224 kJ/mol
# GULP energy per Si atom -5588.185639 kJ/mol
# Density = 2.472252 g / cm^3
# Si number density = 24.778917 Si / 1000 Ang^3
#
#
#
# Elastic Constant Matrix: (Units=GPa)
#
#
# Indices 1 2 3 4 5 6 
#
# 1 85.7896 31.6887 11.6424 6.0269 -0.4689 -22.1342
# 2 31.6887 112.9354 1.0795 5.3478 -9.0015 -18.6126
# 3 11.6424 1.0795 90.4378 -3.6539 6.9357 -22.2172
# 4 6.0269 5.3478 -3.6539 15.9441 -2.2000 -3.7620
# 5 -0.4689 -9.0015 6.9357 -2.2000 43.8444 -5.0270
# 6 -22.1342 -18.6126 -22.2172 -3.7620 -5.0270 44.1427
#
#
#
# Elastic Compliance Matrix: (Units=1/GPa)
#
#
# Indices 1 2 3 4 5 6 
#
# 1 0.014480 -0.003002 -0.000644 -0.003328 0.000092 0.005397
# 2 -0.003002 0.010511 0.000917 -0.001016 0.002339 0.003568
# 3 -0.000644 0.000917 0.013077 0.004447 -0.000870 0.006925
# 4 -0.003328 -0.001016 0.004447 0.067240 0.003141 0.006229
# 5 0.000092 0.002339 -0.000870 0.003141 0.023996 0.003595
# 6 0.005397 0.003568 0.006925 0.006229 0.003595 0.031290
#
#
# Mechanical properties :
#
#
# Convention : Reuss Voigt Hill
#
# Bulk Modulus (GPa) = 30.66591 41.99824 36.33207
# Shear Modulus (GPa) = 28.26109 37.10304 32.68207
#
# Velocity S-wave (km/s) = 3.38084 3.87378 3.63567
# Velocity P-wave (km/s) = 5.25764 6.08228 5.68493
#
# Compressibility (1/GPa) = 0.03260950
#
# Stress axis : x y z
#
# Youngs Moduli (GPa) = 69.06271 95.14042 76.47045
#
# Poissons Ratio (x) = 0.28564 0.04923
# Poissons Ratio (y) = 0.20734 -0.07013
# Poissons Ratio (z) = 0.04446 -0.08725
#
# Static dielectric constant tensor:
#      x y z
#    x 1.885130 0.136220 0.049900 
#    y 0.136220 1.802520 -0.066190 
#    z 0.049900 -0.066190 1.981540 
# 
# From -- ./inp_files/224338.got.cif
#   From: 2010.05.17/outbox.cif.g08.bks.cpg/sg2_113_cif.got.tgz:224338.got - 2010.06.03 11:33:40.
