data_PCOD9110208
_publ_section_title
;
Structure prediction by ZEFSAII (Michael W. Deem and Ramdas Pophale) SiO2 
 PCOD9110208
Probable space group: P -1
;
_chemical_formula_sum "Si O2"
_cell_formula_units_Z 14
_cell_length_a 12.844679
_cell_length_b 11.179030
_cell_length_c 9.802087
_cell_angle_alpha 80.675159
_cell_angle_beta 34.792546
_cell_angle_gamma 100.688761
_cell_volume 653.502887
_symmetry_space_group_name_H-M "P -1"
_symmetry_group_IT_number 2
_symmetry_cell_setting 'triclinic'
loop_
_space_group_symop_operation_xyz
x,y,z
-x,-y,-z
loop_
_atom_site_type_symbol
_atom_site_label
_atom_site_fract_x
_atom_site_fract_y
_atom_site_fract_z
Si Si1 0.081499 0.681925 0.634694
Si Si2 0.841976 0.737232 0.382169
Si Si3 0.575199 0.398124 0.793704
Si Si4 0.070088 0.165573 0.414508
Si Si5 0.220685 0.822151 0.743393
Si Si6 0.475681 0.162363 0.373686
Si Si7 0.224058 0.577307 0.158209
O O1 0.083424 0.799409 0.511608
O O2 0.000000 0.500000 0.500000
O O3 0.285767 0.668857 0.386226
O O4 0.854820 0.526776 0.868343
O O5 0.698658 0.559712 0.567354
O O6 0.916219 0.795575 0.446773
O O7 0.693123 0.790801 0.474027
O O8 0.053174 0.798258 0.047085
O O9 0.317646 0.280683 0.067878
O O10 0.608293 0.421065 0.918207
O O11 0.000000 0.000000 0.500000
O O12 0.400823 0.800362 0.621062
O O13 0.351120 0.989632 0.520995
O O14 0.092190 0.719811 0.773300
O O15 0.666713 0.258477 0.038873
#
# Coordination Sequence:
#
# PCOD9110208 Si02
#       7
#     2   2   2   2   2   2   2
#     4  11  25  44  68 103 140 171 235 285 334 407
#     4  12  24  45  75  96 139 185 229 278 342 417
#     4  11  24  44  71 102 135 180 227 286 353 392
#     4  12  26  42  71 106 134 174 235 291 339 399
#     4  11  27  45  66 103 141 188 223 275 347 415
#     4  11  24  44  70  93 142 186 226 270 349 409
#     4  10  20  41  70  99 130 176 228 278 336 399
#
# _framework density 21.423012
#
# number of rings (size 3 to 8) (size 9 to 14) (size 15 to 20)
#    0.000    0.857    2.857    4.286    2.000    6.286 
#    0.000    2.143    0.000    0.000    0.000    0.000 
#    0.000    0.000    0.000    0.000    0.000    0.000 
#
# Total GULP energy -78279.668953 kJ/mol
# GULP energy per Si atom -5591.404925 kJ/mol
# Density = 2.137425 g / cm^3
# Si number density = 21.423012 Si / 1000 Ang^3
#
#
#
# Elastic Constant Matrix: (Units=GPa)
#
#
# Indices 1 2 3 4 5 6 
#
# 1 92.1074 43.0203 4.1496 8.2632 4.4094 -13.6201
# 2 43.0203 102.1226 30.6827 2.3305 7.6030 -20.7268
# 3 4.1496 30.6827 110.1362 -16.8094 9.9341 5.6118
# 4 8.2632 2.3305 -16.8094 35.7213 -4.0217 1.9073
# 5 4.4094 7.6030 9.9341 -4.0217 25.1698 -3.8267
# 6 -13.6201 -20.7268 5.6118 1.9073 -3.8267 44.2422
#
#
#
# Elastic Compliance Matrix: (Units=1/GPa)
#
#
# Indices 1 2 3 4 5 6 
#
# 1 0.013993 -0.005603 0.000634 -0.002796 -0.001210 0.001619
# 2 -0.005603 0.014792 -0.004429 -0.002197 -0.001215 0.005756
# 3 0.000634 -0.004429 0.011595 0.005460 -0.003063 -0.003851
# 4 -0.002796 -0.002197 0.005460 0.031948 0.003548 -0.003653
# 5 -0.001210 -0.001215 -0.003063 0.003548 0.042537 0.002973
# 6 0.001619 0.005756 -0.003851 -0.003653 0.002973 0.026701
#
#
# Mechanical properties :
#
#
# Convention : Reuss Voigt Hill
#
# Bulk Modulus (GPa) = 46.32978 51.11904 48.72441
# Shear Modulus (GPa) = 29.84047 36.12757 32.98402
#
# Velocity S-wave (km/s) = 3.73623 4.11102 3.92810
# Velocity P-wave (km/s) = 6.34710 6.81525 6.58533
#
# Compressibility (1/GPa) = 0.02158439
#
# Stress axis : x y z
#
# Youngs Moduli (GPa) = 71.46258 67.60445 86.24133
#
# Poissons Ratio (x) = 0.37878 -0.05464
# Poissons Ratio (y) = 0.40039 0.38195
# Poissons Ratio (z) = -0.04528 0.29941
#
# Static dielectric constant tensor:
#      x y z
#    x 1.788680 -0.018090 -0.005920 
#    y -0.018090 1.812090 0.025880 
#    z -0.005920 0.025880 1.792170 
# 
# From -- ./inp_files/537282.got.cif
#   From: 2010.05.17/outbox.cif.g08.bks.cpg/sg2_269_cif.got.tgz:537282.got - 2010.06.03 11:33:40.
