data_PCOD9110833
_publ_section_title
;
Structure prediction by ZEFSAII (Michael W. Deem and Ramdas Pophale) SiO2 
 PCOD9110833
Probable space group: P -1
;
_chemical_formula_sum "Si O2"
_cell_formula_units_Z 16
_cell_length_a 8.724187
_cell_length_b 14.884306
_cell_length_c 15.819209
_cell_angle_alpha 140.629551
_cell_angle_beta 143.356593
_cell_angle_gamma 39.301940
_cell_volume 710.863365
_symmetry_space_group_name_H-M "P -1"
_symmetry_group_IT_number 2
_symmetry_cell_setting 'triclinic'
loop_
_space_group_symop_operation_xyz
x,y,z
-x,-y,-z
loop_
_atom_site_type_symbol
_atom_site_label
_atom_site_fract_x
_atom_site_fract_y
_atom_site_fract_z
Si Si1 0.342977 0.663048 0.097028
Si Si2 0.714367 0.512085 0.671785
Si Si3 0.067037 0.293002 0.369323
Si Si4 0.679675 0.221690 0.516675
Si Si5 0.849871 0.651875 0.983698
Si Si6 0.881282 0.532912 0.329532
Si Si7 0.211151 0.959434 0.143482
Si Si8 0.741159 0.934818 0.257932
O O1 0.586531 0.664391 0.267692
O O2 0.228272 0.809442 0.091599
O O3 0.101960 0.657107 0.044217
O O4 0.500000 0.500000 0.000000
O O5 0.500000 0.500000 0.500000
O O6 0.798541 0.346555 0.632906
O O7 0.944244 0.528829 0.723473
O O8 0.647693 0.626178 0.805133
O O9 0.376269 0.285466 0.473286
O O10 0.981320 0.386264 0.486077
O O11 0.867851 0.392410 0.277093
O O12 0.098959 0.118692 0.262423
O O13 0.928161 0.120271 0.615781
O O14 0.648765 0.121073 0.349785
O O15 0.716659 0.815675 0.091987
O O16 0.000000 0.500000 0.000000
O O17 0.528652 0.927160 0.231228
O O18 0.000000 0.000000 0.000000
#
# Coordination Sequence:
#
# PCOD9110833 Si02
#       8
#     2   2   2   2   2   2   2   2
#     4  12  24  42  69  97 132 177 227 280 333 408
#     4  12  24  39  65  96 137 171 222 278 334 397
#     4  10  23  42  68  97 136 178 220 276 342 410
#     4  10  20  42  66  95 131 177 219 277 338 397
#     4  12  25  42  68 102 134 177 232 279 340 410
#     4  11  23  41  68 101 133 175 228 275 341 403
#     4  11  25  44  67  94 137 177 223 285 346 398
#     4  10  22  41  68  95 129 176 226 275 339 407
#
# _framework density 22.507842
#
# number of rings (size 3 to 8) (size 9 to 14) (size 15 to 20)
#    0.000    1.000    3.750    3.000    0.000    2.500 
#    0.000    1.250    0.000    0.000    0.000    0.000 
#    0.000    0.000    0.000    0.000    0.000    0.000 
#
# Total GULP energy -89242.819376 kJ/mol
# GULP energy per Si atom -5577.676211 kJ/mol
# Density = 2.245661 g / cm^3
# Si number density = 22.507842 Si / 1000 Ang^3
#
#
#
# Elastic Constant Matrix: (Units=GPa)
#
#
# Indices 1 2 3 4 5 6 
#
# 1 54.3684 23.7342 13.7117 13.1481 -7.4739 15.5561
# 2 23.7342 93.4737 36.4918 13.7973 -4.3479 17.1406
# 3 13.7117 36.4918 129.9186 22.0999 -26.3380 1.0618
# 4 13.1481 13.7973 22.0999 60.6672 -15.8976 1.6455
# 5 -7.4739 -4.3479 -26.3380 -15.8976 35.4459 5.2813
# 6 15.5561 17.1406 1.0618 1.6455 5.2813 33.3999
#
#
#
# Elastic Compliance Matrix: (Units=1/GPa)
#
#
# Indices 1 2 3 4 5 6 
#
# 1 0.024225 -0.003675 0.000038 -0.002875 0.004890 -0.010030
# 2 -0.003675 0.014108 -0.003623 -0.001372 -0.001592 -0.005094
# 3 0.000038 -0.003623 0.010240 -0.001213 0.006548 0.000540
# 4 -0.002875 -0.001372 -0.001213 0.019743 0.007183 -0.000027
# 5 0.004890 -0.001592 0.006548 0.007183 0.038339 -0.008085
# 6 -0.010030 -0.005094 0.000540 -0.000027 -0.008085 0.038488
#
#
# Mechanical properties :
#
#
# Convention : Reuss Voigt Hill
#
# Bulk Modulus (GPa) = 29.36534 47.29290 38.32912
# Shear Modulus (GPa) = 29.23724 39.49082 34.36403
#
# Velocity S-wave (km/s) = 3.60805 4.19326 3.91161
# Velocity P-wave (km/s) = 5.51655 6.67098 6.12104
#
# Compressibility (1/GPa) = 0.03405375
#
# Stress axis : x y z
#
# Youngs Moduli (GPa) = 41.27975 70.88136 97.65539
#
# Poissons Ratio (x) = 0.26048 -0.00370
# Poissons Ratio (y) = 0.15170 0.35378
# Poissons Ratio (z) = -0.00156 0.25678
#
# Static dielectric constant tensor:
#      x y z
#    x 1.548190 -0.296040 -0.220480 
#    y -0.296040 1.549030 -0.295650 
#    z -0.220480 -0.295650 1.763920 
# 
# From -- ./inp_files/505646.got.cif
#   From: 2010.05.17/outbox.cif.g08.bks.cpg/sg2_253_cif.got.tgz:505646.got - 2010.06.03 11:33:40.
