data_PCOD9110386
_publ_section_title
;
Structure prediction by ZEFSAII (Michael W. Deem and Ramdas Pophale) SiO2 
 PCOD9110386
Probable space group: P -1
;
_chemical_formula_sum "Si O2"
_cell_formula_units_Z 16
_cell_length_a 19.931980
_cell_length_b 7.872096
_cell_length_c 11.116716
_cell_angle_alpha 139.544569
_cell_angle_beta 41.147791
_cell_angle_gamma 143.828554
_cell_volume 622.590480
_symmetry_space_group_name_H-M "P -1"
_symmetry_group_IT_number 2
_symmetry_cell_setting 'triclinic'
loop_
_space_group_symop_operation_xyz
x,y,z
-x,-y,-z
loop_
_atom_site_type_symbol
_atom_site_label
_atom_site_fract_x
_atom_site_fract_y
_atom_site_fract_z
Si Si1 0.283686 0.621886 0.244803
Si Si2 0.705427 0.694663 0.569166
Si Si3 0.197557 0.975833 0.144981
Si Si4 0.315184 0.877783 0.595271
Si Si5 0.290675 0.555913 0.817884
Si Si6 0.958368 0.334173 0.133536
Si Si7 0.458348 0.608162 0.815501
Si Si8 0.914888 0.690966 0.833193
O O1 0.318209 0.849766 0.432303
O O2 0.165592 0.552542 0.292698
O O3 0.239997 0.283487 0.178777
O O4 0.394609 0.704712 0.051599
O O5 0.650961 0.350849 0.515075
O O6 0.744931 0.664919 0.367623
O O7 0.599378 0.756942 0.729195
O O8 0.799971 0.932061 0.668459
O O9 0.065965 0.673801 0.126716
O O10 0.289361 0.859410 0.947041
O O11 0.174775 0.738163 0.744465
O O12 0.395726 0.235724 0.715570
O O13 0.414384 0.639277 0.759773
O O14 0.188283 0.387345 0.968381
O O15 0.987877 0.337144 0.238288
O O16 0.964689 0.045992 0.920440
#
# Coordination Sequence:
#
# PCOD9110386 Si02
#       8
#     2   2   2   2   2   2   2   2
#     4  10  22  40  63  93 123 161 200 253 305 358
#     4  11  25  41  63  91 124 162 204 254 303 358
#     4  10  24  41  60  95 125 156 204 248 309 362
#     4  11  23  41  64  93 120 162 208 246 304 363
#     4  10  21  41  64  89 121 162 204 252 303 357
#     4  10  20  42  60  91 126 157 204 246 300 369
#     4  11  23  43  63  89 124 161 209 251 300 360
#     4   9  20  41  62  91 124 160 201 244 308 360
#
# _framework density 25.699076999999999
#
# number of rings (size 3 to 8) (size 9 to 14) (size 15 to 20)
#    0.000    1.750    2.500    1.500    0.000    9.500 
#   11.250    0.000    0.000    0.000    0.000    0.000 
#    0.000    0.000    0.000    0.000    0.000    0.000 
#
# Total GULP energy -89705.727140 kJ/mol
# GULP energy per Si atom -5606.607946 kJ/mol
# Density = 2.564058 g / cm^3
# Si number density = 25.699077 Si / 1000 Ang^3
#
#
#
# Elastic Constant Matrix: (Units=GPa)
#
#
# Indices 1 2 3 4 5 6 
#
# 1 108.6794 17.2099 15.0936 -4.2941 -4.3706 -4.7799
# 2 17.2099 82.3556 17.3451 17.2126 -1.5283 -0.4576
# 3 15.0936 17.3451 83.8241 9.0616 23.7989 3.3341
# 4 -4.2941 17.2126 9.0616 30.9445 -7.2875 -5.2977
# 5 -4.3706 -1.5283 23.7989 -7.2875 47.6987 5.9957
# 6 -4.7799 -0.4576 3.3341 -5.2977 5.9957 40.1425
#
#
#
# Elastic Compliance Matrix: (Units=1/GPa)
#
#
# Indices 1 2 3 4 5 6 
#
# 1 0.010319 -0.002478 -0.002654 0.004494 0.002674 0.001615
# 2 -0.002478 0.014725 -0.001650 -0.008248 -0.000058 -0.001070
# 3 -0.002654 -0.001650 0.016109 -0.006530 -0.009185 -0.001163
# 4 0.004494 -0.008248 -0.006530 0.042509 0.009245 0.005213
# 5 0.002674 -0.000058 -0.009185 0.009245 0.027429 -0.001796
# 6 0.001615 -0.001070 -0.001163 0.005213 -0.001796 0.026144
#
#
# Mechanical properties :
#
#
# Convention : Reuss Voigt Hill
#
# Bulk Modulus (GPa) = 36.24856 41.57293 38.91074
# Shear Modulus (GPa) = 31.25090 38.77116 35.01103
#
# Velocity S-wave (km/s) = 3.49095 3.88836 3.69500
# Velocity P-wave (km/s) = 5.51222 6.03084 5.77735
#
# Compressibility (1/GPa) = 0.02758730
#
# Stress axis : x y z
#
# Youngs Moduli (GPa) = 96.91323 67.91350 62.07660
#
# Poissons Ratio (x) = 0.16828 0.16478
# Poissons Ratio (y) = 0.24013 0.10244
# Poissons Ratio (z) = 0.25725 0.11207
#
# Static dielectric constant tensor:
#      x y z
#    x 2.036460 -0.022830 0.025230 
#    y -0.022830 2.026320 -0.009660 
#    z 0.025230 -0.009660 1.985200 
# 
# From -- ./inp_files/315728.got.cif
#   From: 2010.05.17/outbox.cif.g08.bks.cpg/sg2_158_cif.got.tgz:315728.got - 2010.06.03 11:33:40.
