data_PCOD9110900
_publ_section_title
;
Structure prediction by ZEFSAII (Michael W. Deem and Ramdas Pophale) SiO2 
 PCOD9110900
Probable space group: P -1
;
_chemical_formula_sum "Si O2"
_cell_formula_units_Z 16
_cell_length_a 8.867071
_cell_length_b 7.749101
_cell_length_c 23.358825
_cell_angle_alpha 144.652578
_cell_angle_beta 47.538567
_cell_angle_gamma 118.626380
_cell_volume 675.334646
_symmetry_space_group_name_H-M "P -1"
_symmetry_group_IT_number 2
_symmetry_cell_setting 'triclinic'
loop_
_space_group_symop_operation_xyz
x,y,z
-x,-y,-z
loop_
_atom_site_type_symbol
_atom_site_label
_atom_site_fract_x
_atom_site_fract_y
_atom_site_fract_z
Si Si1 0.740312 0.540153 0.156559
Si Si2 0.629512 0.761752 0.037765
Si Si3 0.718560 0.013439 0.205088
Si Si4 0.358804 0.285178 0.173828
Si Si5 0.141521 0.682391 0.433207
Si Si6 0.485060 0.010500 0.575064
Si Si7 0.699204 0.571937 0.551961
Si Si8 0.099104 0.137764 0.095275
O O1 0.833316 0.778332 0.158359
O O2 0.523746 0.494915 0.169098
O O3 0.658152 0.697322 0.279910
O O4 0.874734 0.207035 0.028675
O O5 0.670587 0.852671 0.115658
O O6 0.494261 0.039625 0.113634
O O7 0.500000 0.500000 0.000000
O O8 0.834712 0.670762 0.922082
O O9 0.506738 0.182277 0.330796
O O10 0.872825 0.235109 0.205208
O O11 0.188933 0.472650 0.308853
O O12 0.258232 0.149100 0.109222
O O13 0.245999 0.518589 0.419976
O O14 0.897164 0.707193 0.514721
O O15 0.275677 0.953583 0.461231
O O16 0.369680 0.723912 0.540561
O O17 0.500000 0.000000 0.500000
#
# Coordination Sequence:
#
# PCOD9110900 Si02
#       8
#     2   2   2   2   2   2   2   2
#     4  10  22  41  65  90 131 174 215 262 323 399
#     4  11  22  42  64  94 128 169 218 268 323 389
#     4  12  24  41  61 100 134 160 218 277 323 379
#     4  10  20  42  67  89 125 176 218 258 327 401
#     4   9  19  41  65  90 123 173 216 261 330 391
#     4   9  20  40  66  92 123 173 220 264 318 390
#     4  10  21  40  64  93 130 164 219 270 322 385
#     4  11  24  41  65  93 132 174 209 266 334 389
#
# _framework density 23.691958
#
# number of rings (size 3 to 8) (size 9 to 14) (size 15 to 20)
#    0.000    1.750    1.250    3.750    3.500    0.500 
#    4.500    1.250    0.000    0.000    0.000    0.000 
#    0.000    0.000    0.000    0.000    0.000    0.000 
#
# Total GULP energy -89363.891988 kJ/mol
# GULP energy per Si atom -5585.243249 kJ/mol
# Density = 2.363803 g / cm^3
# Si number density = 23.691958 Si / 1000 Ang^3
#
#
#
# Elastic Constant Matrix: (Units=GPa)
#
#
# Indices 1 2 3 4 5 6 
#
# 1 69.4793 31.5240 33.7487 -4.5932 20.7660 13.4961
# 2 31.5240 87.6387 22.2636 -8.5753 1.5079 20.8166
# 3 33.7487 22.2636 89.3272 -13.7626 20.4045 19.6240
# 4 -4.5932 -8.5753 -13.7626 33.3713 2.3513 -0.9748
# 5 20.7660 1.5079 20.4045 2.3513 39.0397 -9.3729
# 6 13.4961 20.8166 19.6240 -0.9748 -9.3729 46.2018
#
#
#
# Elastic Compliance Matrix: (Units=1/GPa)
#
#
# Indices 1 2 3 4 5 6 
#
# 1 0.023288 -0.006040 -0.003402 0.000924 -0.011626 -0.004975
# 2 -0.006040 0.014968 -0.000470 0.002575 0.001673 -0.004386
# 3 -0.003402 -0.000470 0.017751 0.007186 -0.009847 -0.008180
# 4 0.000924 0.002575 0.007186 0.034104 -0.007678 -0.005321
# 5 -0.011626 0.001673 -0.009847 -0.007678 0.040937 0.014968
# 6 -0.004975 -0.004386 -0.008180 -0.005321 0.014968 0.031472
#
#
# Mechanical properties :
#
#
# Convention : Reuss Voigt Hill
#
# Bulk Modulus (GPa) = 27.63837 46.83531 37.23684
# Shear Modulus (GPa) = 25.71947 34.31649 30.01798
#
# Velocity S-wave (km/s) = 3.29839 3.80997 3.56337
# Velocity P-wave (km/s) = 5.11828 6.25826 5.71676
#
# Compressibility (1/GPa) = 0.03618159
#
# Stress axis : x y z
#
# Youngs Moduli (GPa) = 42.94010 66.81079 56.33593
#
# Poissons Ratio (x) = 0.40357 0.19165
# Poissons Ratio (y) = 0.25938 0.02649
# Poissons Ratio (z) = 0.14608 0.03141
#
# Static dielectric constant tensor:
#      x y z
#    x 1.927180 -0.028620 -0.058050 
#    y -0.028620 2.087620 0.032550 
#    z -0.058050 0.032550 1.903900 
# 
# From -- ./inp_files/297388.got.cif
#   From: 2010.05.17/outbox.cif.g08.bks.cpg/sg2_149_cif.got.tgz:297388.got - 2010.06.03 11:33:40.
