data_PCOD9110168
_publ_section_title
;
Structure prediction by ZEFSAII (Michael W. Deem and Ramdas Pophale) SiO2 
 PCOD9110168
Probable space group: P -1
;
_chemical_formula_sum "Si O2"
_cell_formula_units_Z 16
_cell_length_a 9.176616
_cell_length_b 8.345653
_cell_length_c 16.451207
_cell_angle_alpha 82.225183
_cell_angle_beta 141.350570
_cell_angle_gamma 111.874264
_cell_volume 703.391174
_symmetry_space_group_name_H-M "P -1"
_symmetry_group_IT_number 2
_symmetry_cell_setting 'triclinic'
loop_
_space_group_symop_operation_xyz
x,y,z
-x,-y,-z
loop_
_atom_site_type_symbol
_atom_site_label
_atom_site_fract_x
_atom_site_fract_y
_atom_site_fract_z
Si Si1 0.073052 0.861213 0.458590
Si Si2 0.728970 0.210392 0.163756
Si Si3 0.601935 0.934819 0.267681
Si Si4 0.998452 0.317784 0.980572
Si Si5 0.578445 0.840367 0.523224
Si Si6 0.781806 0.738935 0.080876
Si Si7 0.040663 0.590071 0.327933
Si Si8 0.081749 0.156928 0.189391
O O1 0.080964 0.697818 0.422416
O O2 0.779747 0.826665 0.352501
O O3 0.261626 0.914495 0.614342
O O4 0.188843 0.050401 0.444467
O O5 0.865610 0.190133 0.143304
O O6 0.929673 0.377777 0.292260
O O7 0.629215 0.032498 0.186680
O O8 0.489940 0.253385 0.035449
O O9 0.299834 0.816673 0.159680
O O10 0.173367 0.346730 0.975805
O O11 0.104783 0.236998 0.104976
O O12 0.000000 0.500000 0.000000
O O13 0.313223 0.677885 0.391636
O O14 0.675826 0.774816 0.649190
O O15 0.500000 0.000000 0.500000
O O16 0.840895 0.643692 0.188885
O O17 0.991941 0.945206 0.158326
#
# Coordination Sequence:
#
# PCOD9110168 Si02
#       8
#     2   2   2   2   2   2   2   2
#     4  10  22  42  68  95 132 187 219 276 337 407
#     4  12  26  42  70 105 137 176 234 278 339 405
#     4  11  24  43  68  94 138 177 227 274 344 403
#     4  12  29  46  69 103 139 178 229 290 341 402
#     4  10  20  41  70  94 131 174 228 271 336 401
#     4  12  24  45  71  99 136 184 226 279 344 408
#     4  11  24  41  70 100 138 178 228 281 336 398
#     4  12  24  45  72 101 133 187 224 280 344 411
#
# _framework density 22.746945
#
# number of rings (size 3 to 8) (size 9 to 14) (size 15 to 20)
#    0.000    0.750    5.000    2.625    5.250    1.000 
#    4.500    0.000    0.000    0.000    0.000    0.000 
#    0.000    0.000    0.000    0.000    0.000    0.000 
#
# Total GULP energy -89525.927288 kJ/mol
# GULP energy per Si atom -5595.370456 kJ/mol
# Density = 2.269517 g / cm^3
# Si number density = 22.746945 Si / 1000 Ang^3
#
#
#
# Elastic Constant Matrix: (Units=GPa)
#
#
# Indices 1 2 3 4 5 6 
#
# 1 81.0831 -10.2806 19.4740 2.9268 2.3277 -22.8340
# 2 -10.2806 54.6355 -7.2714 10.3989 -0.1868 -9.2904
# 3 19.4740 -7.2714 101.9984 -8.0440 11.1540 2.8423
# 4 2.9268 10.3989 -8.0440 20.8232 -6.4734 -2.2003
# 5 2.3277 -0.1868 11.1540 -6.4734 37.3141 6.0552
# 6 -22.8340 -9.2904 2.8423 -2.2003 6.0552 27.5082
#
#
#
# Elastic Compliance Matrix: (Units=1/GPa)
#
#
# Indices 1 2 3 4 5 6 
#
# 1 0.020645 0.008380 -0.004025 -0.007934 -0.004795 0.020804
# 2 0.008380 0.025047 -0.000788 -0.013936 -0.005095 0.015504
# 3 -0.004025 -0.000788 0.011154 0.004318 -0.001681 -0.004045
# 4 -0.007934 -0.013936 0.004318 0.060228 0.011103 -0.009366
# 5 -0.004795 -0.005095 -0.001681 0.011103 0.031376 -0.011546
# 6 0.020804 0.015504 -0.004045 -0.009366 -0.011546 0.061069
#
#
# Mechanical properties :
#
#
# Convention : Reuss Voigt Hill
#
# Bulk Modulus (GPa) = 15.63019 26.84011 21.23515
# Shear Modulus (GPa) = 22.35030 32.84876 27.59953
#
# Velocity S-wave (km/s) = 3.13799 3.80425 3.48707
# Velocity P-wave (km/s) = 4.47387 5.57866 5.05653
#
# Compressibility (1/GPa) = 0.06397876
#
# Stress axis : x y z
#
# Youngs Moduli (GPa) = 48.43745 39.92561 89.65787
#
# Poissons Ratio (x) = -0.33459 0.36090
# Poissons Ratio (y) = -0.40593 0.07069
# Poissons Ratio (z) = 0.19498 0.03148
#
# Static dielectric constant tensor:
#      x y z
#    x 1.868120 0.022430 0.004820 
#    y 0.022430 1.830450 0.020640 
#    z 0.004820 0.020640 1.874640 
# 
# From -- ./inp_files/494992.got.cif
#   From: 2010.05.17/outbox.cif.g08.bks.cpg/sg2_248_cif.got.tgz:494992.got - 2010.06.03 11:33:40.
