data_PCOD9110729
_publ_section_title
;
Structure prediction by ZEFSAII (Michael W. Deem and Ramdas Pophale) SiO2 
 PCOD9110729
Probable space group: P -1
;
_chemical_formula_sum "Si O2"
_cell_formula_units_Z 15
_cell_length_a 11.516238
_cell_length_b 9.028696
_cell_length_c 12.293622
_cell_angle_alpha 89.826775
_cell_angle_beta 47.354200
_cell_angle_gamma 125.984081
_cell_volume 562.137585
_symmetry_space_group_name_H-M "P -1"
_symmetry_group_IT_number 2
_symmetry_cell_setting 'triclinic'
loop_
_space_group_symop_operation_xyz
x,y,z
-x,-y,-z
loop_
_atom_site_type_symbol
_atom_site_label
_atom_site_fract_x
_atom_site_fract_y
_atom_site_fract_z
Si Si1 0.500000 0.000000 0.500000
Si Si2 0.448861 0.867184 0.324026
Si Si3 0.244454 0.129890 0.462371
Si Si4 0.270599 0.538573 0.705841
Si Si5 0.970604 0.136232 0.076030
Si Si6 0.765129 0.609468 0.861935
Si Si7 0.074146 0.327905 0.592580
Si Si8 0.492175 0.860024 0.891585
O O1 0.337968 0.895355 0.484312
O O2 0.271396 0.714570 0.691687
O O3 0.238776 0.583508 0.429987
O O4 0.572961 0.045966 0.143126
O O5 0.661643 0.952904 0.275478
O O6 0.429993 0.279065 0.452013
O O7 0.159905 0.234009 0.493920
O O8 0.416802 0.191503 0.256522
O O9 0.983845 0.836499 0.641599
O O10 0.164319 0.396830 0.660632
O O11 0.099738 0.350018 0.912718
O O12 0.117554 0.250574 0.096111
O O13 0.000000 0.000000 0.000000
O O14 0.500000 0.500000 0.000000
O O15 0.700821 0.385116 0.911883
O O16 0.759549 0.106475 0.783950
#
# Coordination Sequence:
#
# PCOD9110729 Si02
#       8
#     1   2   2   2   2   2   2   2
#     4  10  20  42  66 100 132 184 234 286 352 416
#     4  11  25  45  74 103 145 188 243 294 362 424
#     4  12  23  46  74 100 141 195 236 298 350 431
#     4  11  23  43  71 102 140 186 246 285 363 411
#     4  12  26  45  73 106 144 184 245 300 350 432
#     4  12  26  44  73 108 143 184 241 295 356 427
#     4  11  24  44  71 102 146 187 238 293 356 432
#     4  12  26  48  70 109 147 189 241 293 368 426
#
# _framework density 26.683859999999999
#
# number of rings (size 3 to 8) (size 9 to 14) (size 15 to 20)
#    0.000    0.533    4.000    4.400    0.000    3.200 
#    0.000    0.667    0.000    0.000    0.000    0.000 
#    0.000    0.000    0.000    0.000    0.000    0.000 
#
# Total GULP energy -83873.255274 kJ/mol
# GULP energy per Si atom -5591.550352 kJ/mol
# Density = 2.662313 g / cm^3
# Si number density = 26.683860 Si / 1000 Ang^3
#
#
#
# Elastic Constant Matrix: (Units=GPa)
#
#
# Indices 1 2 3 4 5 6 
#
# 1 169.5469 51.0094 41.3806 -11.4607 -9.4805 35.0906
# 2 51.0094 125.5640 35.4741 -29.5739 9.1520 3.2055
# 3 41.3806 35.4741 100.7097 -37.7212 9.5414 3.9579
# 4 -11.4607 -29.5739 -37.7212 43.5370 1.1412 -3.4451
# 5 -9.4805 9.1520 9.5414 1.1412 62.3437 -6.7766
# 6 35.0906 3.2055 3.9579 -3.4451 -6.7766 34.1067
#
#
#
# Elastic Compliance Matrix: (Units=1/GPa)
#
#
# Indices 1 2 3 4 5 6 
#
# 1 0.009740 -0.003694 -0.004101 -0.004279 0.001720 -0.009288
# 2 -0.003694 0.011129 0.000371 0.007202 -0.002055 0.003031
# 3 -0.004101 0.000371 0.016997 0.014221 -0.003212 0.003011
# 4 -0.004279 0.007202 0.014221 0.039579 -0.004036 0.005271
# 5 0.001720 -0.002055 -0.003212 -0.004036 0.017369 0.001840
# 6 -0.009288 0.003031 0.003011 0.005271 0.001840 0.039139
#
#
# Mechanical properties :
#
#
# Convention : Reuss Voigt Hill
#
# Bulk Modulus (GPa) = 43.44759 72.39431 57.92095
# Shear Modulus (GPa) = 31.95442 45.86126 38.90784
#
# Velocity S-wave (km/s) = 3.46427 4.15020 3.82266
# Velocity P-wave (km/s) = 5.68500 7.08201 6.42161
#
# Compressibility (1/GPa) = 0.02301624
#
# Stress axis : x y z
#
# Youngs Moduli (GPa) = 102.67276 89.85852 58.83527
#
# Poissons Ratio (x) = 0.33194 0.24130
# Poissons Ratio (y) = 0.37927 -0.02183
# Poissons Ratio (z) = 0.42110 -0.03334
#
# Static dielectric constant tensor:
#      x y z
#    x 2.071470 0.073920 0.011180 
#    y 0.073920 1.914090 -0.124440 
#    z 0.011180 -0.124440 1.978160 
# 
# From -- ./inp_files/514272.got.cif
#   From: 2010.05.17/outbox.cif.g08.bks.cpg/sg2_258_cif.got.tgz:514272.got - 2010.06.03 11:33:40.
