data_PCOD9110892
_publ_section_title
;
Structure prediction by ZEFSAII (Michael W. Deem and Ramdas Pophale) SiO2 
 PCOD9110892
Probable space group: P -1
;
_chemical_formula_sum "Si O2"
_cell_formula_units_Z 16
_cell_length_a 13.621258
_cell_length_b 11.582669
_cell_length_c 9.414860
_cell_angle_alpha 117.343169
_cell_angle_beta 121.782234
_cell_angle_gamma 110.080675
_cell_volume 708.662376
_symmetry_space_group_name_H-M "P -1"
_symmetry_group_IT_number 2
_symmetry_cell_setting 'triclinic'
loop_
_space_group_symop_operation_xyz
x,y,z
-x,-y,-z
loop_
_atom_site_type_symbol
_atom_site_label
_atom_site_fract_x
_atom_site_fract_y
_atom_site_fract_z
Si Si1 0.782671 0.684707 0.469820
Si Si2 0.172926 0.680412 0.629745
Si Si3 0.180891 0.797462 0.400859
Si Si4 0.013902 0.930127 0.324644
Si Si5 0.417107 0.720907 0.008331
Si Si6 0.296971 0.289660 0.264934
Si Si7 0.828437 0.103576 0.061142
Si Si8 0.713671 0.215301 0.813954
O O1 0.621030 0.464197 0.146588
O O2 0.752998 0.683695 0.612292
O O3 0.826497 0.858214 0.523312
O O4 0.970679 0.764142 0.657556
O O5 0.134650 0.672740 0.433554
O O6 0.319093 0.698038 0.783064
O O7 0.000000 0.500000 0.500000
O O8 0.255739 0.887241 0.869696
O O9 0.049537 0.808321 0.300656
O O10 0.193294 0.712426 0.227406
O O11 0.380560 0.043439 0.699876
O O12 0.000000 0.000000 0.500000
O O13 0.836563 0.792517 0.012955
O O14 0.303816 0.675377 0.033732
O O15 0.500000 0.500000 0.500000
O O16 0.275342 0.117793 0.177215
O O17 0.808898 0.182481 0.957617
O O18 0.500000 0.000000 0.500000
#
# Coordination Sequence:
#
# PCOD9110892 Si02
#       8
#     2   2   2   2   2   2   2   2
#     4  11  22  42  70  94 135 179 229 267 343 410
#     4  11  22  41  68  96 132 180 227 269 332 410
#     4  11  22  42  68  96 140 172 223 286 338 390
#     4  11  25  45  69 101 136 179 221 289 343 388
#     4  10  23  40  68  99 130 182 226 269 335 415
#     4  11  25  44  68 100 131 181 234 270 335 417
#     4  10  20  42  67  86 136 179 217 274 329 406
#     4   9  20  40  62  96 132 170 217 280 344 381
#
# _framework density 22.577748
#
# number of rings (size 3 to 8) (size 9 to 14) (size 15 to 20)
#    0.000    1.500    1.250    4.875    3.500    0.500 
#    4.500    2.500    0.000    0.000    0.000    0.000 
#    0.000    0.000    0.000    0.000    0.000    0.000 
#
# Total GULP energy -89413.257953 kJ/mol
# GULP energy per Si atom -5588.328622 kJ/mol
# Density = 2.252636 g / cm^3
# Si number density = 22.577748 Si / 1000 Ang^3
#
#
#
# Elastic Constant Matrix: (Units=GPa)
#
#
# Indices 1 2 3 4 5 6 
#
# 1 71.0563 53.2311 18.6498 -7.0765 -25.1577 8.8876
# 2 53.2311 101.3228 44.5060 -23.3009 -8.3683 22.4926
# 3 18.6498 44.5060 99.6339 7.2453 -19.7076 11.0394
# 4 -7.0765 -23.3009 7.2453 40.0075 6.6509 -9.4574
# 5 -25.1577 -8.3683 -19.7076 6.6509 38.5890 -4.5727
# 6 8.8876 22.4926 11.0394 -9.4574 -4.5727 37.3279
#
#
#
# Elastic Compliance Matrix: (Units=1/GPa)
#
#
# Indices 1 2 3 4 5 6 
#
# 1 0.040801 -0.028506 0.011646 -0.015521 0.029479 0.003697
# 2 -0.028506 0.036829 -0.016465 0.021429 -0.023648 -0.008003
# 3 0.011646 -0.016465 0.019454 -0.013789 0.016322 -0.000099
# 4 -0.015521 0.021429 -0.013789 0.041119 -0.019255 0.002920
# 5 0.029479 -0.023648 0.016322 -0.019255 0.052122 0.003910
# 6 0.003697 -0.008003 -0.000099 0.002920 0.003910 0.031980
#
#
# Mechanical properties :
#
#
# Convention : Reuss Voigt Hill
#
# Bulk Modulus (GPa) = 32.85725 56.08742 44.47233
# Shear Modulus (GPa) = 16.71695 33.55996 25.13845
#
# Velocity S-wave (km/s) = 2.72401 3.85959 3.34041
# Velocity P-wave (km/s) = 4.94754 6.69012 5.88370
#
# Compressibility (1/GPa) = 0.03043469
#
# Stress axis : x y z
#
# Youngs Moduli (GPa) = 24.50947 27.15254 51.40424
#
# Poissons Ratio (x) = 0.77401 -0.59868
# Poissons Ratio (y) = 0.69867 0.84635
# Poissons Ratio (z) = -0.28545 0.44705
#
# Static dielectric constant tensor:
#      x y z
#    x 1.874080 0.028970 0.015480 
#    y 0.028970 1.837910 0.012550 
#    z 0.015480 0.012550 1.885060 
# 
# From -- ./inp_files/308166.got.cif
#   From: 2010.05.17/outbox.cif.g08.bks.cpg/sg2_155_cif.got.tgz:308166.got - 2010.06.03 11:33:40.
