data_PCOD9110881
_publ_section_title
;
Structure prediction by ZEFSAII (Michael W. Deem and Ramdas Pophale) SiO2 
 PCOD9110881
Probable space group: P -1
;
_chemical_formula_sum "Si O2"
_cell_formula_units_Z 15
_cell_length_a 7.157087
_cell_length_b 9.818584
_cell_length_c 16.389256
_cell_angle_alpha 148.613690
_cell_angle_beta 75.645401
_cell_angle_gamma 96.932623
_cell_volume 571.574922
_symmetry_space_group_name_H-M "P -1"
_symmetry_group_IT_number 2
_symmetry_cell_setting 'triclinic'
loop_
_space_group_symop_operation_xyz
x,y,z
-x,-y,-z
loop_
_atom_site_type_symbol
_atom_site_label
_atom_site_fract_x
_atom_site_fract_y
_atom_site_fract_z
Si Si1 0.000000 0.000000 0.000000
Si Si2 0.930195 0.719992 0.015224
Si Si3 0.367704 0.137429 0.282608
Si Si4 0.909543 0.799458 0.507079
Si Si5 0.653318 0.930721 0.276983
Si Si6 0.172987 0.207032 0.660612
Si Si7 0.710071 0.655552 0.780172
Si Si8 0.528918 0.570046 0.917423
O O1 0.059956 0.029759 0.914337
O O2 0.207502 0.100700 0.060625
O O3 0.738295 0.605836 0.949575
O O4 0.115668 0.500676 0.856161
O O5 0.873283 0.815418 0.161017
O O6 0.185302 0.218435 0.404202
O O7 0.364557 0.292700 0.277596
O O8 0.549763 0.132907 0.323701
O O9 0.380846 0.832960 0.095777
O O10 0.775748 0.768184 0.426606
O O11 0.095741 0.568966 0.358234
O O12 0.978064 0.077615 0.624379
O O13 0.679054 0.989084 0.398599
O O14 0.529065 0.694499 0.176248
O O15 0.557320 0.569433 0.816598
#
# Coordination Sequence:
#
# PCOD9110881 Si02
#       8
#     1   2   2   2   2   2   2   2
#     4  10  22  38  70 100 128 170 228 268 328 386
#     4  10  20  42  67 103 131 170 225 279 324 391
#     4  11  24  41  66  99 137 173 212 274 344 391
#     4  11  24  44  68  94 134 180 224 272 331 390
#     4  11  24  40  69 103 131 175 227 276 330 390
#     4  11  23  41  68  97 131 175 229 275 320 395
#     4  11  24  45  70  98 135 177 221 272 334 399
#     4  10  21  43  69  97 135 172 220 275 336 381
#
# _framework density 26.243278
#
# number of rings (size 3 to 8) (size 9 to 14) (size 15 to 20)
#    0.000    1.333    2.667    4.400    5.600    0.533 
#    0.000    0.667    0.000    0.000    0.000    0.000 
#    0.000    0.000    0.000    0.000    0.000    0.000 
#
# Total GULP energy -83648.183624 kJ/mol
# GULP energy per Si atom -5576.545575 kJ/mol
# Density = 2.618355 g / cm^3
# Si number density = 26.243278 Si / 1000 Ang^3
#
#
#
# Elastic Constant Matrix: (Units=GPa)
#
#
# Indices 1 2 3 4 5 6 
#
# 1 62.2652 34.5455 20.9953 -14.8222 -2.8408 -12.6507
# 2 34.5455 185.6073 43.5325 -66.5389 -4.0715 -21.6890
# 3 20.9953 43.5325 67.1041 -34.4195 -17.5287 -20.0590
# 4 -14.8222 -66.5389 -34.4195 43.3406 1.8612 2.7101
# 5 -2.8408 -4.0715 -17.5287 1.8612 33.8392 -9.8366
# 6 -12.6507 -21.6890 -20.0590 2.7101 -9.8366 45.4303
#
#
#
# Elastic Compliance Matrix: (Units=1/GPa)
#
#
# Indices 1 2 3 4 5 6 
#
# 1 0.019160 -0.002689 -0.004102 -0.000971 -0.000127 0.002271
# 2 -0.002689 0.017935 0.017629 0.039015 0.013633 0.016222
# 3 -0.004102 0.017629 0.067367 0.074592 0.044861 0.042283
# 4 -0.000971 0.039015 0.074592 0.136267 0.051548 0.054323
# 5 -0.000127 0.013633 0.044861 0.051548 0.062248 0.036684
# 6 0.002271 0.016222 0.042283 0.054323 0.036684 0.053760
#
#
# Mechanical properties :
#
#
# Convention : Reuss Voigt Hill
#
# Bulk Modulus (GPa) = 7.92790 57.01367 32.47079
# Shear Modulus (GPa) = 13.25878 38.91559 26.08718
#
# Velocity S-wave (km/s) = 2.25016 3.85499 3.15628
# Velocity P-wave (km/s) = 3.12705 6.44879 5.06781
#
# Compressibility (1/GPa) = 0.12613673
#
# Stress axis : x y z
#
# Youngs Moduli (GPa) = 52.19154 55.75716 14.84398
#
# Poissons Ratio (x) = 0.14995 0.06089
# Poissons Ratio (y) = 0.14036 -0.26168
# Poissons Ratio (z) = 0.21410 -0.98293
#
# Static dielectric constant tensor:
#      x y z
#    x 2.170420 -0.041920 0.016970 
#    y -0.041920 2.025830 0.020450 
#    z 0.016970 0.020450 2.149820 
# 
# From -- ./inp_files/494060.got.cif
#   From: 2010.05.17/outbox.cif.g08.bks.cpg/sg2_248_cif.got.tgz:494060.got - 2010.06.03 11:33:40.
