data_PCOD9110196
_publ_section_title
;
Structure prediction by ZEFSAII (Michael W. Deem and Ramdas Pophale) SiO2 
 PCOD9110196
Probable space group: P -1
;
_chemical_formula_sum "Si O2"
_cell_formula_units_Z 15
_cell_length_a 11.041102
_cell_length_b 8.732325
_cell_length_c 11.404078
_cell_angle_alpha 89.794225
_cell_angle_beta 43.538508
_cell_angle_gamma 72.461579
_cell_volume 682.455067
_symmetry_space_group_name_H-M "P -1"
_symmetry_group_IT_number 2
_symmetry_cell_setting 'triclinic'
loop_
_space_group_symop_operation_xyz
x,y,z
-x,-y,-z
loop_
_atom_site_type_symbol
_atom_site_label
_atom_site_fract_x
_atom_site_fract_y
_atom_site_fract_z
Si Si1 0.912747 0.662801 0.411753
Si Si2 0.605545 0.997098 0.733255
Si Si3 0.103712 0.481274 0.804330
Si Si4 0.898544 0.182107 0.306010
Si Si5 0.500000 0.500000 0.000000
Si Si6 0.303914 0.894487 0.080199
Si Si7 0.765909 0.411599 0.616936
Si Si8 0.495166 0.839056 0.435486
O O1 0.984058 0.600851 0.231816
O O2 0.778340 0.565990 0.537190
O O3 0.098205 0.600348 0.366450
O O4 0.781168 0.856451 0.535238
O O5 0.689823 0.042959 0.790919
O O6 0.494257 0.136114 0.712371
O O7 0.459571 0.926860 0.890958
O O8 0.077510 0.666155 0.779533
O O9 0.327657 0.339545 0.654499
O O10 0.000000 0.500000 0.000000
O O11 0.852880 0.251345 0.471799
O O12 0.710344 0.163775 0.392992
O O13 0.092238 0.007286 0.174624
O O14 0.376365 0.696079 0.042974
O O15 0.435099 0.556799 0.183858
O O16 0.500000 0.000000 0.500000
#
# Coordination Sequence:
#
# PCOD9110196 Si02
#       8
#     2   2   2   2   1   2   2   2
#     4  10  20  41  70  97 141 179 228 282 352 425
#     4  11  22  44  69 100 141 184 228 287 348 436
#     4  11  25  47  74 103 139 191 242 290 349 424
#     4  11  25  47  72 101 142 187 240 298 351 433
#     4  12  24  36  60 108 146 162 222 286 346 430
#     4  11  25  42  71 107 137 180 231 295 366 413
#     4  10  22  39  67 104 136 178 222 292 365 407
#     4  12  26  45  70  99 140 197 240 288 354 418
#
# _framework density 21.979469000000002
#
# number of rings (size 3 to 8) (size 9 to 14) (size 15 to 20)
#    0.000    1.067    4.000    2.000    1.867    3.200 
#    0.000    4.000    0.000    0.000    0.000    0.000 
#    0.000    0.000    0.000    0.000    0.000    0.000 
#
# Total GULP energy -83574.000576 kJ/mol
# GULP energy per Si atom -5571.600038 kJ/mol
# Density = 2.192944 g / cm^3
# Si number density = 21.979469 Si / 1000 Ang^3
#
#
#
# Elastic Constant Matrix: (Units=GPa)
#
#
# Indices 1 2 3 4 5 6 
#
# 1 105.2540 44.8309 43.1290 7.4823 4.7350 -7.7618
# 2 44.8309 132.0287 48.8153 22.8084 -14.8003 -19.3011
# 3 43.1290 48.8153 99.6024 5.3696 19.7771 0.6023
# 4 7.4823 22.8084 5.3696 40.0681 -11.4740 -0.1386
# 5 4.7350 -14.8003 19.7771 -11.4740 31.4542 -0.2563
# 6 -7.7618 -19.3011 0.6023 -0.1386 -0.2563 31.7877
#
#
#
# Elastic Compliance Matrix: (Units=1/GPa)
#
#
# Indices 1 2 3 4 5 6 
#
# 1 0.012378 -0.002485 -0.003977 -0.000566 -0.000726 0.001580
# 2 -0.002485 0.014478 -0.008077 -0.003500 0.011057 0.008411
# 3 -0.003977 -0.008077 0.019000 -0.001765 -0.015844 -0.006371
# 4 -0.000566 -0.003500 -0.001765 0.030318 0.010591 -0.002012
# 5 -0.000726 0.011057 -0.015844 0.010591 0.050990 0.007294
# 6 0.001580 0.008411 -0.006371 -0.002012 0.007294 0.037122
#
#
# Mechanical properties :
#
#
# Convention : Reuss Voigt Hill
#
# Bulk Modulus (GPa) = 59.60167 67.82617 63.71392
# Shear Modulus (GPa) = 25.13087 34.00265 29.56676
#
# Velocity S-wave (km/s) = 3.38506 3.93748 3.67167
# Velocity P-wave (km/s) = 6.51567 7.18314 6.85753
#
# Compressibility (1/GPa) = 0.01677805
#
# Stress axis : x y z
#
# Youngs Moduli (GPa) = 80.78583 69.06984 52.63059
#
# Poissons Ratio (x) = 0.17166 0.20930
# Poissons Ratio (y) = 0.20078 0.42511
# Poissons Ratio (z) = 0.32127 0.55790
#
# Static dielectric constant tensor:
#      x y z
#    x 1.843860 0.007720 -0.039450 
#    y 0.007720 1.804780 -0.031270 
#    z -0.039450 -0.031270 1.843170 
# 
# From -- ./inp_files/417265.got.cif
#   From: 2010.05.17/outbox.cif.g08.bks.cpg/sg2_209_cif.got.tgz:417265.got - 2010.06.03 11:33:40.
