data_PCOD9110791
_publ_section_title
;
Structure prediction by ZEFSAII (Michael W. Deem and Ramdas Pophale) SiO2 
 PCOD9110791
Probable space group: P -1
;
_chemical_formula_sum "Si O2"
_cell_formula_units_Z 14
_cell_length_a 5.769667
_cell_length_b 5.316946
_cell_length_c 21.170433
_cell_angle_alpha 118.560676
_cell_angle_beta 72.457896
_cell_angle_gamma 84.568271
_cell_volume 521.316553
_symmetry_space_group_name_H-M "P -1"
_symmetry_group_IT_number 2
_symmetry_cell_setting 'triclinic'
loop_
_space_group_symop_operation_xyz
x,y,z
-x,-y,-z
loop_
_atom_site_type_symbol
_atom_site_label
_atom_site_fract_x
_atom_site_fract_y
_atom_site_fract_z
Si Si1 0.197959 0.559085 0.856611
Si Si2 0.730363 0.987500 0.883833
Si Si3 0.696669 0.573451 0.030696
Si Si4 0.724588 0.221599 0.559882
Si Si5 0.342822 0.655361 0.284387
Si Si6 0.979678 0.944218 0.246404
Si Si7 0.499454 0.829943 0.608093
O O1 0.340632 0.534092 0.907987
O O2 0.387158 0.560817 0.783022
O O3 0.151718 0.232984 0.811798
O O4 0.926212 0.798529 0.895462
O O5 0.425513 0.063526 0.921521
O O6 0.845861 0.920061 0.796474
O O7 0.684577 0.343190 0.946436
O O8 0.000000 0.500000 0.000000
O O9 0.738223 0.398829 0.645572
O O10 0.646007 0.483922 0.547065
O O11 0.521945 0.036203 0.570786
O O12 0.000000 0.000000 0.500000
O O13 0.152675 0.688910 0.246654
O O14 0.370837 0.991589 0.331657
O O15 0.772483 0.144760 0.335138
#
# Coordination Sequence:
#
# PCOD9110791 Si02
#       7
#     2   2   2   2   2   2   2
#     4  11  19  38  60  84 118 165 209 259 325 370
#     4   9  20  36  58  79 125 158 204 266 313 378
#     4   8  19  37  55  87 119 159 213 259 323 382
#     4  10  20  42  66  92 128 166 205 261 317 375
#     4   9  21  37  59  91 121 163 208 264 308 385
#     4  11  21  38  60  89 120 162 214 257 313 380
#     4   9  22  38  63  91 126 165 207 256 317 375
#
# _framework density 26.855087999999999
#
# number of rings (size 3 to 8) (size 9 to 14) (size 15 to 20)
#    1.714    0.571    1.429    1.714    0.000    1.714 
#    2.571    4.286    0.000    0.000    0.000    0.000 
#    0.000    0.000    0.000    0.000    0.000    0.000 
#
# Total GULP energy -78106.538469 kJ/mol
# GULP energy per Si atom -5579.038462 kJ/mol
# Density = 2.679396 g / cm^3
# Si number density = 26.855088 Si / 1000 Ang^3
#
#
#
# Elastic Constant Matrix: (Units=GPa)
#
#
# Indices 1 2 3 4 5 6 
#
# 1 44.5870 34.2209 27.7168 7.9794 1.8569 -30.5828
# 2 34.2209 135.2748 38.9877 19.9743 4.2763 -25.2930
# 3 27.7168 38.9877 117.6951 -2.5588 -20.4546 -11.5962
# 4 7.9794 19.9743 -2.5588 43.6197 -15.9402 -0.5303
# 5 1.8569 4.2763 -20.4546 -15.9402 49.9061 1.4656
# 6 -30.5828 -25.2930 -11.5962 -0.5303 1.4656 45.7677
#
#
#
# Elastic Compliance Matrix: (Units=1/GPa)
#
#
# Indices 1 2 3 4 5 6 
#
# 1 0.059347 -0.002234 -0.012284 -0.014809 -0.012826 0.035549
# 2 -0.002234 0.010729 -0.003577 -0.006284 -0.004415 0.003599
# 3 -0.012284 -0.003577 0.013644 0.007923 0.009090 -0.006928
# 4 -0.014809 -0.006284 0.007923 0.034582 0.015719 -0.011463
# 5 -0.012826 -0.004415 0.009090 0.015719 0.029918 -0.009483
# 6 0.035549 0.003599 -0.006928 -0.011463 -0.009483 0.046008
#
#
# Mechanical properties :
#
#
# Convention : Reuss Voigt Hill
#
# Bulk Modulus (GPa) = 21.04010 55.48974 38.26492
# Shear Modulus (GPa) = 20.30365 40.96745 30.63555
#
# Velocity S-wave (km/s) = 2.75261 3.91000 3.38120
# Velocity P-wave (km/s) = 4.23724 6.41028 5.43350
#
# Compressibility (1/GPa) = 0.04752829
#
# Stress axis : x y z
#
# Youngs Moduli (GPa) = 16.85013 93.20724 73.29275
#
# Poissons Ratio (x) = 0.20821 0.90036
# Poissons Ratio (y) = 0.03764 0.26219
# Poissons Ratio (z) = 0.20699 0.33343
#
# Static dielectric constant tensor:
#      x y z
#    x 3.528030 -0.203880 0.010210 
#    y -0.203880 2.222070 -0.091990 
#    z 0.010210 -0.091990 2.186630 
# 
# From -- ./inp_files/11203.got.cif
#   From: 2010.05.17/outbox.cif.g08.bks.cpg/sg2_6_cif.got.tgz:11203.got - 2010.06.03 11:33:40.
