data_PCOD9110963
_publ_section_title
;
Structure prediction by ZEFSAII (Michael W. Deem and Ramdas Pophale) SiO2 
 PCOD9110963
Probable space group: P -1
;
_chemical_formula_sum "Si O2"
_cell_formula_units_Z 14
_cell_length_a 5.555983
_cell_length_b 8.416014
_cell_length_c 12.967297
_cell_angle_alpha 105.254209
_cell_angle_beta 92.292858
_cell_angle_gamma 62.843714
_cell_volume 518.223424
_symmetry_space_group_name_H-M "P -1"
_symmetry_group_IT_number 2
_symmetry_cell_setting 'triclinic'
loop_
_space_group_symop_operation_xyz
x,y,z
-x,-y,-z
loop_
_atom_site_type_symbol
_atom_site_label
_atom_site_fract_x
_atom_site_fract_y
_atom_site_fract_z
Si Si1 0.316591 0.852562 0.759851
Si Si2 0.782442 0.457355 0.729419
Si Si3 0.890962 0.706792 0.485066
Si Si4 0.509831 0.044008 0.643498
Si Si5 0.756908 0.954599 0.890414
Si Si6 0.954646 0.401478 0.081197
Si Si7 0.594197 0.294911 0.857599
O O1 0.491540 0.627605 0.723792
O O2 0.513912 0.912812 0.839813
O O3 0.021831 0.908095 0.812954
O O4 0.333381 0.943772 0.665735
O O5 0.817313 0.320309 0.801609
O O6 0.892639 0.334509 0.608729
O O7 0.952218 0.554627 0.798554
O O8 0.612627 0.815038 0.431022
O O9 0.000000 0.500000 0.500000
O O10 0.806923 0.869257 0.596018
O O11 0.508040 0.179795 0.756378
O O12 0.885927 0.817686 0.963938
O O13 0.642378 0.173339 0.938761
O O14 0.634072 0.497222 0.098898
O O15 0.000000 0.500000 0.000000
#
# Coordination Sequence:
#
# PCOD9110963 Si02
#       7
#     2   2   2   2   2   2   2
#     4  10  20  42  67  98 135 184 223 279 340 407
#     4  11  22  42  70  92 141 179 228 283 346 402
#     4  11  21  38  66  99 133 183 227 280 334 414
#     4  10  22  38  66  98 139 174 234 274 340 408
#     4  10  23  41  70  99 134 177 230 280 345 408
#     4  11  25  46  69  99 135 180 230 285 348 413
#     4  11  23  42  71  96 136 182 223 288 348 401
#
# _framework density 27.015373
#
# number of rings (size 3 to 8) (size 9 to 14) (size 15 to 20)
#    0.000    1.429    4.286    0.857    2.000    1.714 
#    0.000    2.857    0.000    0.000    0.000    0.000 
#    0.000    0.000    0.000    0.000    0.000    0.000 
#
# Total GULP energy -78100.735147 kJ/mol
# GULP energy per Si atom -5578.623939 kJ/mol
# Density = 2.695388 g / cm^3
# Si number density = 27.015373 Si / 1000 Ang^3
#
#
#
# Elastic Constant Matrix: (Units=GPa)
#
#
# Indices 1 2 3 4 5 6 
#
# 1 75.5680 21.5276 45.9470 -2.1893 -18.3622 2.6108
# 2 21.5276 241.5856 50.6348 -9.1149 -6.3333 -6.1999
# 3 45.9470 50.6348 99.7789 2.4816 -20.8377 3.9698
# 4 -2.1893 -9.1149 2.4816 58.4482 -7.4734 -11.0813
# 5 -18.3622 -6.3333 -20.8377 -7.4734 35.5468 -1.8135
# 6 2.6108 -6.1999 3.9698 -11.0813 -1.8135 32.7780
#
#
#
# Elastic Compliance Matrix: (Units=1/GPa)
#
#
# Indices 1 2 3 4 5 6 
#
# 1 0.019443 0.000153 -0.007866 0.001915 0.005883 0.000406
# 2 0.000153 0.004753 -0.002636 0.001117 -0.000305 0.001567
# 3 -0.007866 -0.002636 0.016033 -0.001181 0.004517 -0.001963
# 4 0.001915 0.001117 -0.001181 0.019366 0.004926 0.007021
# 5 0.005883 -0.000305 0.004517 0.004926 0.034929 0.002525
# 6 0.000406 0.001567 -0.001963 0.007021 0.002525 0.033523
#
#
# Mechanical properties :
#
#
# Convention : Reuss Voigt Hill
#
# Bulk Modulus (GPa) = 51.20197 72.57237 61.88717
# Shear Modulus (GPa) = 32.20482 45.27614 38.74048
#
# Velocity S-wave (km/s) = 3.45641 4.09827 3.79095
# Velocity P-wave (km/s) = 5.90958 7.02254 6.48996
#
# Compressibility (1/GPa) = 0.01953050
#
# Stress axis : x y z
#
# Youngs Moduli (GPa) = 51.43129 210.41437 62.37139
#
# Poissons Ratio (x) = -0.03220 0.49063
# Poissons Ratio (y) = -0.00787 0.16441
# Poissons Ratio (z) = 0.40457 0.55465
#
# Static dielectric constant tensor:
#      x y z
#    x 2.177000 -0.032800 0.018970 
#    y -0.032800 2.187370 -0.052620 
#    z 0.018970 -0.052620 2.350620 
# 
# From -- ./inp_files/40102.got.cif
#   From: 2010.05.17/outbox.cif.g08.bks.cpg/sg2_21_cif.got.tgz:40102.got - 2010.06.03 11:33:40.
