data_PCOD9110137
_publ_section_title
;
Structure prediction by ZEFSAII (Michael W. Deem and Ramdas Pophale) SiO2 
 PCOD9110137
Probable space group: P -1
;
_chemical_formula_sum "Si O2"
_cell_formula_units_Z 16
_cell_length_a 8.006330
_cell_length_b 9.532187
_cell_length_c 11.638863
_cell_angle_alpha 48.286116
_cell_angle_beta 89.439316
_cell_angle_gamma 87.505462
_cell_volume 662.212916
_symmetry_space_group_name_H-M "P -1"
_symmetry_group_IT_number 2
_symmetry_cell_setting 'triclinic'
loop_
_space_group_symop_operation_xyz
x,y,z
-x,-y,-z
loop_
_atom_site_type_symbol
_atom_site_label
_atom_site_fract_x
_atom_site_fract_y
_atom_site_fract_z
Si Si1 0.056504 0.635129 0.097819
Si Si2 0.583606 0.878739 0.915268
Si Si3 0.695128 0.051534 0.482351
Si Si4 0.150346 0.248956 0.178179
Si Si5 0.637119 0.245915 0.829345
Si Si6 0.131201 0.401274 0.641387
Si Si7 0.700455 0.919827 0.315283
Si Si8 0.445403 0.619700 0.571380
O O1 0.115388 0.427232 0.163957
O O2 0.203646 0.743268 0.097319
O O3 0.930307 0.608388 0.220927
O O4 0.990334 0.745834 0.923626
O O5 0.689274 0.735521 0.914261
O O6 0.668221 0.078565 0.827954
O O7 0.407350 0.915984 0.834127
O O8 0.536198 0.805986 0.079707
O O9 0.664393 0.270995 0.388834
O O10 0.500000 0.000000 0.500000
O O11 0.794557 0.933839 0.645259
O O12 0.776686 0.991893 0.393558
O O13 0.587687 0.461014 0.684122
O O14 0.172974 0.192591 0.706690
O O15 0.299133 0.515442 0.566493
O O16 0.000000 0.500000 0.500000
O O17 0.552116 0.778269 0.424912
#
# Coordination Sequence:
#
# PCOD9110137 Si02
#       8
#     2   2   2   2   2   2   2   2
#     4  11  27  46  68 100 146 189 223 278 357 413
#     4  11  24  44  72 103 133 175 240 291 335 403
#     4  10  20  41  70 102 133 174 227 287 340 395
#     4  11  23  47  69  99 144 182 228 287 338 416
#     4  11  25  45  70 102 137 183 231 285 342 414
#     4  12  25  43  69 104 142 182 229 282 346 418
#     4  11  23  44  72 105 134 176 235 288 341 400
#     4  11  22  43  73 101 135 183 235 278 337 413
#
# _framework density 24.161413
#
# number of rings (size 3 to 8) (size 9 to 14) (size 15 to 20)
#    0.000    1.000    3.750    4.125    3.500    1.000 
#    6.750    1.250    0.000    0.000    0.000    0.000 
#    0.000    0.000    0.000    0.000    0.000    0.000 
#
# Total GULP energy -89329.136740 kJ/mol
# GULP energy per Si atom -5583.071046 kJ/mol
# Density = 2.410642 g / cm^3
# Si number density = 24.161413 Si / 1000 Ang^3
#
#
#
# Elastic Constant Matrix: (Units=GPa)
#
#
# Indices 1 2 3 4 5 6 
#
# 1 64.0830 31.4299 26.9084 9.7794 19.8413 -12.9086
# 2 31.4299 165.6256 30.0158 30.0193 2.1122 -39.1645
# 3 26.9084 30.0158 81.9790 13.6354 12.8620 3.4692
# 4 9.7794 30.0193 13.6354 29.1459 3.6067 2.5570
# 5 19.8413 2.1122 12.8620 3.6067 41.0972 11.7903
# 6 -12.9086 -39.1645 3.4692 2.5570 11.7903 46.9746
#
#
#
# Elastic Compliance Matrix: (Units=1/GPa)
#
#
# Indices 1 2 3 4 5 6 
#
# 1 0.024977 -0.000108 -0.005773 -0.004912 -0.012885 0.010701
# 2 -0.000108 0.010869 -0.002309 -0.010756 -0.001775 0.010234
# 3 -0.005773 -0.002309 0.015627 -0.002547 -0.000498 -0.004402
# 4 -0.004912 -0.010756 -0.002547 0.049012 0.003332 -0.013633
# 5 -0.012885 -0.001775 -0.000498 0.003332 0.034472 -0.013818
# 6 0.010701 0.010234 -0.004402 -0.013633 -0.013818 0.037296
#
#
# Mechanical properties :
#
#
# Convention : Reuss Voigt Hill
#
# Bulk Modulus (GPa) = 28.49734 54.26621 41.38177
# Shear Modulus (GPa) = 24.95871 38.33244 31.64558
#
# Velocity S-wave (km/s) = 3.21752 3.98743 3.62298
# Velocity P-wave (km/s) = 5.06196 6.61121 5.88776
#
# Compressibility (1/GPa) = 0.03509100
#
# Stress axis : x y z
#
# Youngs Moduli (GPa) = 40.03761 92.00636 63.99257
#
# Poissons Ratio (x) = 0.00998 0.36941
# Poissons Ratio (y) = 0.00434 0.14779
# Poissons Ratio (z) = 0.23112 0.21249
#
# Static dielectric constant tensor:
#      x y z
#    x 1.959460 0.000660 -0.039300 
#    y 0.000660 1.990050 0.012140 
#    z -0.039300 0.012140 2.027890 
# 
# From -- ./inp_files/381067.got.cif
#   From: 2010.05.17/outbox.cif.g08.bks.cpg/sg2_191_cif.got.tgz:381067.got - 2010.06.03 11:33:40.
