data_PCOD9110532
_publ_section_title
;
Structure prediction by ZEFSAII (Michael W. Deem and Ramdas Pophale) SiO2 
 PCOD9110532
Probable space group: P -1
;
_chemical_formula_sum "Si O2"
_cell_formula_units_Z 15
_cell_length_a 5.916001
_cell_length_b 10.232705
_cell_length_c 13.146902
_cell_angle_alpha 73.055538
_cell_angle_beta 125.753910
_cell_angle_gamma 120.168246
_cell_volume 558.391275
_symmetry_space_group_name_H-M "P -1"
_symmetry_group_IT_number 2
_symmetry_cell_setting 'triclinic'
loop_
_space_group_symop_operation_xyz
x,y,z
-x,-y,-z
loop_
_atom_site_type_symbol
_atom_site_label
_atom_site_fract_x
_atom_site_fract_y
_atom_site_fract_z
Si Si1 0.165452 0.639288 0.937976
Si Si2 0.923146 0.564231 0.204928
Si Si3 0.192526 0.865207 0.749511
Si Si4 0.835749 0.336673 0.395215
Si Si5 0.621246 0.719655 0.358582
Si Si6 0.785163 0.834102 0.153795
Si Si7 0.500000 0.000000 0.000000
Si Si8 0.406157 0.128839 0.485531
O O1 0.287167 0.563592 0.899744
O O2 0.009546 0.721779 0.810059
O O3 0.416706 0.779744 0.036652
O O4 0.000000 0.500000 0.000000
O O5 0.886036 0.717937 0.152305
O O6 0.849964 0.487732 0.313710
O O7 0.277667 0.599940 0.267682
O O8 0.291151 0.794329 0.694840
O O9 0.939974 0.913683 0.628535
O O10 0.464287 0.978154 0.866119
O O11 0.625842 0.280977 0.450907
O O12 0.169627 0.345266 0.511580
O O13 0.788883 0.795407 0.281131
O O14 0.565299 0.833648 0.396255
O O15 0.860991 0.000125 0.099646
O O16 0.500000 0.000000 0.500000
#
# Coordination Sequence:
#
# PCOD9110532 Si02
#       8
#     2   2   2   2   2   2   1   2
#     4  10  20  42  63  95 135 169 209 272 326 382
#     4  11  23  41  70  97 129 172 221 261 336 395
#     4   9  23  43  67  92 131 171 214 272 324 383
#     4  10  24  43  66  97 134 168 212 275 330 386
#     4  11  24  41  66  99 131 169 215 278 327 381
#     4  11  24  41  67  94 134 172 216 272 321 386
#     4  10  24  46  64  94 132 172 222 270 320 378
#     4  11  26  43  67  97 129 178 222 261 329 396
#
# _framework density 26.862881999999999
#
# number of rings (size 3 to 8) (size 9 to 14) (size 15 to 20)
#    0.000    1.600    1.333    1.600    7.467    4.267 
#    0.000    1.333    0.000    0.000    0.000    0.000 
#    0.000    0.000    0.000    0.000    0.000    0.000 
#
# Total GULP energy -83679.259562 kJ/mol
# GULP energy per Si atom -5578.617304 kJ/mol
# Density = 2.680174 g / cm^3
# Si number density = 26.862882 Si / 1000 Ang^3
#
#
#
# Elastic Constant Matrix: (Units=GPa)
#
#
# Indices 1 2 3 4 5 6 
#
# 1 50.1260 21.1142 19.4274 6.1343 -4.1297 -4.2080
# 2 21.1142 111.3262 37.0343 8.9733 4.4992 -28.5642
# 3 19.4274 37.0343 149.4795 18.1363 -7.1220 -18.6549
# 4 6.1343 8.9733 18.1363 56.6263 -6.9418 -3.2020
# 5 -4.1297 4.4992 -7.1220 -6.9418 32.3756 -3.1870
# 6 -4.2080 -28.5642 -18.6549 -3.2020 -3.1870 45.2164
#
#
#
# Elastic Compliance Matrix: (Units=1/GPa)
#
#
# Indices 1 2 3 4 5 6 
#
# 1 0.022589 -0.003974 -0.001836 -0.000954 0.002723 -0.001041
# 2 -0.003974 0.012081 -0.001681 -0.000845 -0.002111 0.006360
# 3 -0.001836 -0.001681 0.007882 -0.001755 0.001554 0.002004
# 4 -0.000954 -0.000845 -0.001755 0.018926 0.003693 0.000254
# 5 0.002723 -0.002111 0.001554 0.003693 0.032872 0.002140
# 6 -0.001041 0.006360 0.002004 0.000254 0.002140 0.027032
#
#
# Mechanical properties :
#
#
# Convention : Reuss Voigt Hill
#
# Bulk Modulus (GPa) = 36.27050 51.78706 44.02878
# Shear Modulus (GPa) = 34.35167 42.40071 38.37619
#
# Velocity S-wave (km/s) = 3.57988 3.97723 3.78378
# Velocity P-wave (km/s) = 5.53343 6.35699 5.95945
#
# Compressibility (1/GPa) = 0.02757061
#
# Stress axis : x y z
#
# Youngs Moduli (GPa) = 44.26985 82.77705 126.86953
#
# Poissons Ratio (x) = 0.32894 0.23289
# Poissons Ratio (y) = 0.17592 0.21326
# Poissons Ratio (z) = 0.08127 0.13915
#
# Static dielectric constant tensor:
#      x y z
#    x 2.187420 -0.191590 0.042420 
#    y -0.191590 3.557550 -0.377430 
#    z 0.042420 -0.377430 2.273160 
# 
# From -- ./inp_files/65422.got.cif
#   From: 2010.05.17/outbox.cif.g08.bks.cpg/sg2_33_cif.got.tgz:65422.got - 2010.06.03 11:33:40.
