data_PCOD9110291
_publ_section_title
;
Structure prediction by ZEFSAII (Michael W. Deem and Ramdas Pophale) SiO2 
 PCOD9110291
Probable space group: P -1
;
_chemical_formula_sum "Si O2"
_cell_formula_units_Z 16
_cell_length_a 12.627855
_cell_length_b 9.493161
_cell_length_c 9.872694
_cell_angle_alpha 66.749825
_cell_angle_beta 100.646224
_cell_angle_gamma 131.224324
_cell_volume 812.995041
_symmetry_space_group_name_H-M "P -1"
_symmetry_group_IT_number 2
_symmetry_cell_setting 'triclinic'
loop_
_space_group_symop_operation_xyz
x,y,z
-x,-y,-z
loop_
_atom_site_type_symbol
_atom_site_label
_atom_site_fract_x
_atom_site_fract_y
_atom_site_fract_z
Si Si1 0.726236 0.377442 0.118556
Si Si2 0.194040 0.811041 0.992511
Si Si3 0.951272 0.835487 0.938860
Si Si4 0.130638 0.177747 0.373844
Si Si5 0.502690 0.245777 0.893725
Si Si6 0.251086 0.626840 0.292119
Si Si7 0.616822 0.239413 0.438027
Si Si8 0.449663 0.398993 0.378411
O O1 0.700923 0.308270 0.292040
O O2 0.803989 0.315235 0.076411
O O3 0.817357 0.615237 0.041342
O O4 0.581398 0.278141 0.039915
O O5 0.179283 0.703137 0.170368
O O6 0.074040 0.825752 0.943466
O O7 0.345483 0.035842 0.937725
O O8 0.910898 0.874813 0.772644
O O9 0.000000 0.000000 0.000000
O O10 0.168034 0.391177 0.333682
O O11 0.279488 0.227418 0.411238
O O12 0.000000 0.000000 0.500000
O O13 0.598405 0.254298 0.796263
O O14 0.512862 0.433820 0.784973
O O15 0.284332 0.679576 0.437002
O O16 0.532679 0.322117 0.393039
O O17 0.500000 0.000000 0.500000
O O18 0.500000 0.500000 0.500000
#
# Coordination Sequence:
#
# PCOD9110291 Si02
#       8
#     2   2   2   2   2   2   2   2
#     4  11  24  44  67  98 137 173 220 288 331 393
#     4  11  23  44  74  92 132 180 220 268 349 399
#     4  12  28  45  67 101 136 176 230 276 330 399
#     4  11  25  44  70  97 138 181 228 268 336 403
#     4  10  20  41  72  95 126 175 227 270 336 396
#     4  10  21  44  65 101 133 174 223 275 326 410
#     4  12  25  40  69 105 136 166 229 282 334 392
#     4  11  23  43  69  97 135 177 225 274 337 395
#
# _framework density 19.680316999999999
#
# number of rings (size 3 to 8) (size 9 to 14) (size 15 to 20)
#    0.000    1.000    6.250    3.375    5.250    2.500 
#    0.000    0.625    0.000    0.000    0.000    0.000 
#    0.000    0.000    0.000    0.000    0.000    0.000 
#
# Total GULP energy -89481.606031 kJ/mol
# GULP energy per Si atom -5592.600377 kJ/mol
# Density = 1.963552 g / cm^3
# Si number density = 19.680317 Si / 1000 Ang^3
#
#
#
# Elastic Constant Matrix: (Units=GPa)
#
#
# Indices 1 2 3 4 5 6 
#
# 1 69.4707 8.2784 20.3485 15.2144 17.1227 -3.6446
# 2 8.2784 93.5528 45.4501 11.1726 -10.0438 5.7502
# 3 20.3485 45.4501 148.1323 26.0488 -7.8219 11.2469
# 4 15.2144 11.1726 26.0488 43.9698 6.3259 -3.7902
# 5 17.1227 -10.0438 -7.8219 6.3259 14.0992 0.2605
# 6 -3.6446 5.7502 11.2469 -3.7902 0.2605 33.4499
#
#
#
# Elastic Compliance Matrix: (Units=1/GPa)
#
#
# Indices 1 2 3 4 5 6 
#
# 1 0.025609 -0.004441 -0.004710 0.000914 -0.037390 0.005532
# 2 -0.004441 0.014431 -0.002165 -0.003392 0.016045 -0.002746
# 3 -0.004710 -0.002165 0.010104 -0.005983 0.012548 -0.004314
# 4 0.000914 -0.003392 -0.005983 0.030335 -0.020572 0.006292
# 5 -0.037390 0.016045 0.012548 -0.020572 0.144223 -0.014505
# 6 0.005532 -0.002746 -0.004314 0.006292 -0.014505 0.033247
#
#
# Mechanical properties :
#
#
# Convention : Reuss Voigt Hill
#
# Bulk Modulus (GPa) = 36.34949 51.03443 43.69196
# Shear Modulus (GPa) = 17.25610 34.10903 25.68256
#
# Velocity S-wave (km/s) = 2.96433 4.16763 3.61638
# Velocity P-wave (km/s) = 5.49785 7.01048 6.29973
#
# Compressibility (1/GPa) = 0.02751070
#
# Stress axis : x y z
#
# Youngs Moduli (GPa) = 39.04849 69.29732 98.96738
#
# Poissons Ratio (x) = 0.30776 0.46616
# Poissons Ratio (y) = 0.17342 0.21429
# Poissons Ratio (z) = 0.18393 0.15005
#
# Static dielectric constant tensor:
#      x y z
#    x 1.686220 -0.004040 0.019750 
#    y -0.004040 1.674110 -0.005360 
#    z 0.019750 -0.005360 1.672050 
# 
# From -- ./inp_files/243558.got.cif
#   From: 2010.05.17/outbox.cif.g08.bks.cpg/sg2_122_cif.got.tgz:243558.got - 2010.06.03 11:33:40.
