data_PCOD9110952
_publ_section_title
;
Structure prediction by ZEFSAII (Michael W. Deem and Ramdas Pophale) SiO2 
 PCOD9110952
Probable space group: P -1
;
_chemical_formula_sum "Si O2"
_cell_formula_units_Z 16
_cell_length_a 25.146795
_cell_length_b 8.156539
_cell_length_c 19.025673
_cell_angle_alpha 134.579839
_cell_angle_beta 160.825957
_cell_angle_gamma 36.165789
_cell_volume 718.403431
_symmetry_space_group_name_H-M "P -1"
_symmetry_group_IT_number 2
_symmetry_cell_setting 'triclinic'
loop_
_space_group_symop_operation_xyz
x,y,z
-x,-y,-z
loop_
_atom_site_type_symbol
_atom_site_label
_atom_site_fract_x
_atom_site_fract_y
_atom_site_fract_z
Si Si1 0.731033 0.317857 0.267950
Si Si2 0.170508 0.890440 0.820090
Si Si3 0.328288 0.247325 0.411514
Si Si4 0.428375 0.092084 0.249661
Si Si5 0.970027 0.298739 0.048551
Si Si6 0.813118 0.144747 0.561073
Si Si7 0.471790 0.755992 0.883311
Si Si8 0.823516 0.757916 0.565818
O O1 0.869486 0.116288 0.314204
O O2 0.694657 0.191334 0.252327
O O3 0.786452 0.530236 0.424021
O O4 0.500000 0.500000 0.000000
O O5 0.315201 0.558129 0.928755
O O6 0.979236 0.074230 0.688857
O O7 0.303435 0.003963 0.027752
O O8 0.128045 0.264421 0.178583
O O9 0.252456 0.567805 0.393825
O O10 0.500000 0.000000 0.500000
O O11 0.442656 0.146156 0.599582
O O12 0.599654 0.045476 0.398314
O O13 0.263538 0.417708 0.170858
O O14 0.034525 0.347597 0.219899
O O15 0.000000 0.000000 0.000000
O O16 0.615974 0.225034 0.296920
O O17 0.898038 0.866137 0.631533
O O18 0.500000 0.000000 0.000000
#
# Coordination Sequence:
#
# PCOD9110952 Si02
#       8
#     2   2   2   2   2   2   2   2
#     4  10  20  42  67  96 134 185 224 268 340 404
#     4  11  23  43  68  97 139 181 224 281 338 405
#     4  11  26  45  72 100 134 177 226 290 351 402
#     4  11  23  47  71  95 138 182 223 282 347 409
#     4  11  27  47  70 102 134 181 233 281 346 411
#     4  12  25  43  66 106 135 171 233 287 336 408
#     4  11  23  41  66 100 141 179 228 278 337 402
#     4  11  25  44  70 100 139 181 229 277 340 412
#
# _framework density 22.271609000000002
#
# number of rings (size 3 to 8) (size 9 to 14) (size 15 to 20)
#    0.000    1.000    5.000    2.250    3.500    6.000 
#    0.000    0.000    0.000    0.000    0.000    0.000 
#    0.000    0.000    0.000    0.000    0.000    0.000 
#
# Total GULP energy -89509.122615 kJ/mol
# GULP energy per Si atom -5594.320163 kJ/mol
# Density = 2.222092 g / cm^3
# Si number density = 22.271609 Si / 1000 Ang^3
#
#
#
# Elastic Constant Matrix: (Units=GPa)
#
#
# Indices 1 2 3 4 5 6 
#
# 1 78.0083 1.4814 -1.0364 2.9921 12.8161 -5.9288
# 2 1.4814 120.9678 14.2984 0.8879 20.0521 3.6310
# 3 -1.0364 14.2984 53.3284 -1.3886 7.9938 -1.8467
# 4 2.9921 0.8879 -1.3886 39.7757 -1.6167 5.3448
# 5 12.8161 20.0521 7.9938 -1.6167 31.7294 -2.9940
# 6 -5.9288 3.6310 -1.8467 5.3448 -2.9940 39.0303
#
#
#
# Elastic Compliance Matrix: (Units=1/GPa)
#
#
# Indices 1 2 3 4 5 6 
#
# 1 0.014052 0.000702 0.001051 -0.001540 -0.006289 0.001848
# 2 0.000702 0.009492 -0.001687 -0.000398 -0.005997 -0.001262
# 3 0.001051 -0.001687 0.019905 0.000361 -0.004272 0.000881
# 4 -0.001540 -0.000398 0.000361 0.025831 0.001760 -0.003582
# 5 -0.006289 -0.005997 -0.004272 0.001760 0.039217 0.002168
# 6 0.001848 -0.001262 0.000881 -0.003582 0.002168 0.026718
#
#
# Mechanical properties :
#
#
# Convention : Reuss Voigt Hill
#
# Bulk Modulus (GPa) = 22.94478 31.31016 27.12747
# Shear Modulus (GPa) = 33.42040 37.94448 35.68244
#
# Velocity S-wave (km/s) = 3.87794 4.13209 4.00703
# Velocity P-wave (km/s) = 5.51143 6.07078 5.79785
#
# Compressibility (1/GPa) = 0.04358289
#
# Stress axis : x y z
#
# Youngs Moduli (GPa) = 71.16201 105.34896 50.23954
#
# Poissons Ratio (x) = -0.07395 -0.05282
# Poissons Ratio (y) = -0.04995 0.08473
# Poissons Ratio (z) = -0.07482 0.17768
#
# Static dielectric constant tensor:
#      x y z
#    x 1.830000 -0.019100 -0.038950 
#    y -0.019100 1.830190 -0.070190 
#    z -0.038950 -0.070190 1.905410 
# 
# From -- ./inp_files/602310.got.cif
#   From: 2010.05.17/outbox.cif.g08.bks.cpg/sg2_302_cif.got.tgz:602310.got - 2010.06.03 11:33:40.
