data_PCOD9110918
_publ_section_title
;
Structure prediction by ZEFSAII (Michael W. Deem and Ramdas Pophale) SiO2 
 PCOD9110918
Probable space group: P -1
;
_chemical_formula_sum "Si O2"
_cell_formula_units_Z 16
_cell_length_a 16.776803
_cell_length_b 7.091424
_cell_length_c 7.743925
_cell_angle_alpha 122.398494
_cell_angle_beta 77.234766
_cell_angle_gamma 127.861999
_cell_volume 606.044275
_symmetry_space_group_name_H-M "P -1"
_symmetry_group_IT_number 2
_symmetry_cell_setting 'triclinic'
loop_
_space_group_symop_operation_xyz
x,y,z
-x,-y,-z
loop_
_atom_site_type_symbol
_atom_site_label
_atom_site_fract_x
_atom_site_fract_y
_atom_site_fract_z
Si Si1 0.112453 0.106159 0.041147
Si Si2 0.934127 0.101148 0.646314
Si Si3 0.669903 0.052961 0.992960
Si Si4 0.480102 0.624594 0.734403
Si Si5 0.288327 0.296346 0.459783
Si Si6 0.756921 0.370897 0.606024
Si Si7 0.869037 0.341103 0.243636
Si Si8 0.566127 0.892894 0.344718
O O1 0.195349 0.439733 0.156232
O O2 0.099273 0.999304 0.191690
O O3 0.152131 0.952099 0.854790
O O4 0.000000 0.000000 0.000000
O O5 0.013489 0.433110 0.755081
O O6 0.825014 0.935779 0.525087
O O7 0.000000 0.000000 0.500000
O O8 0.568153 0.954293 0.879709
O O9 0.691313 0.871086 0.769436
O O10 0.615680 0.975440 0.170829
O O11 0.787203 0.299570 0.121252
O O12 0.500000 0.500000 0.500000
O O13 0.364241 0.498630 0.678051
O O14 0.485409 0.435401 0.780470
O O15 0.288606 0.507260 0.432073
O O16 0.849210 0.429375 0.477000
O O17 0.664558 0.048505 0.503517
O O18 0.500000 0.000000 0.500000
#
# Coordination Sequence:
#
# PCOD9110918 Si02
#       8
#     2   2   2   2   2   2   2   2
#     4  11  24  41  64  95 135 168 223 280 314 390
#     4  11  21  43  69  95 132 180 216 265 337 388
#     4  10  21  40  67  91 130 177 214 259 340 391
#     4  10  22  41  66  98 126 168 220 277 327 390
#     4  10  20  42  67  91 139 166 218 280 316 390
#     4  10  22  43  64  92 133 173 212 269 333 389
#     4  11  21  41  70  93 128 186 216 258 339 396
#     4  11  23  40  66  92 130 176 219 267 334 396
#
# _framework density 26.400713
#
# number of rings (size 3 to 8) (size 9 to 14) (size 15 to 20)
#    0.000    1.500    5.000    2.250    0.000    1.500 
#    6.750   10.000    0.000    0.000    0.000    0.000 
#    0.000    0.000    0.000    0.000    0.000    0.000 
#
# Total GULP energy -89141.317086 kJ/mol
# GULP energy per Si atom -5571.332318 kJ/mol
# Density = 2.634062 g / cm^3
# Si number density = 26.400713 Si / 1000 Ang^3
#
#
#
# Elastic Constant Matrix: (Units=GPa)
#
#
# Indices 1 2 3 4 5 6 
#
# 1 107.4277 13.0717 22.9208 9.1087 11.4169 34.6724
# 2 13.0717 80.8218 23.5966 12.8012 19.5935 33.0057
# 3 22.9208 23.5966 101.3651 13.7408 5.1004 7.1596
# 4 9.1087 12.8012 13.7408 54.8092 18.6047 14.7302
# 5 11.4169 19.5935 5.1004 18.6047 54.9835 13.4840
# 6 34.6724 33.0057 7.1596 14.7302 13.4840 48.9041
#
#
#
# Elastic Compliance Matrix: (Units=1/GPa)
#
#
# Indices 1 2 3 4 5 6 
#
# 1 0.013231 0.003516 -0.003114 0.001262 -0.001367 -0.011301
# 2 0.003516 0.019794 -0.004333 0.001194 -0.004253 -0.014404
# 3 -0.003114 -0.004333 0.011625 -0.002825 0.001092 0.003980
# 4 0.001262 0.001194 -0.002825 0.022331 -0.006453 -0.006234
# 5 -0.001367 -0.004253 0.001092 -0.006453 0.022190 -0.000495
# 6 -0.011301 -0.014404 0.003980 -0.006234 -0.000495 0.039613
#
#
# Mechanical properties :
#
#
# Convention : Reuss Voigt Hill
#
# Bulk Modulus (GPa) = 27.18416 45.42143 36.30279
# Shear Modulus (GPa) = 33.57766 47.07439 40.32603
#
# Velocity S-wave (km/s) = 3.57017 4.22723 3.91251
# Velocity P-wave (km/s) = 5.22627 6.40842 5.84730
#
# Compressibility (1/GPa) = 0.03678613
#
# Stress axis : x y z
#
# Youngs Moduli (GPa) = 75.58133 50.52134 86.02053
#
# Poissons Ratio (x) = -0.17762 0.26789
# Poissons Ratio (y) = -0.26572 0.37274
# Poissons Ratio (z) = 0.23538 0.21892
#
# Static dielectric constant tensor:
#      x y z
#    x 2.906500 -0.570630 -0.371590 
#    y -0.570630 2.853340 0.844090 
#    z -0.371590 0.844090 3.325570 
# 
# From -- ./inp_files/329566.got.cif
#   From: 2010.05.17/outbox.cif.g08.bks.cpg/sg2_165_cif.got.tgz:329566.got - 2010.06.03 11:33:40.
