data_PCOD9110038
_publ_section_title
;
Structure prediction by ZEFSAII (Michael W. Deem and Ramdas Pophale) SiO2 
 PCOD9110038
Probable space group: P -1
;
_chemical_formula_sum "Si O2"
_cell_formula_units_Z 14
_cell_length_a 5.442689
_cell_length_b 8.586813
_cell_length_c 19.677575
_cell_angle_alpha 124.174271
_cell_angle_beta 50.813052
_cell_angle_gamma 104.574533
_cell_volume 582.024837
_symmetry_space_group_name_H-M "P -1"
_symmetry_group_IT_number 2
_symmetry_cell_setting 'triclinic'
loop_
_space_group_symop_operation_xyz
x,y,z
-x,-y,-z
loop_
_atom_site_type_symbol
_atom_site_label
_atom_site_fract_x
_atom_site_fract_y
_atom_site_fract_z
Si Si1 0.196264 0.391626 0.533647
Si Si2 0.395052 0.842377 0.692518
Si Si3 0.798536 0.055430 0.768548
Si Si4 0.454338 0.810098 0.006804
Si Si5 0.495577 0.454265 0.297716
Si Si6 0.738219 0.812017 0.386086
Si Si7 0.896015 0.230364 0.065967
O O1 0.500000 0.500000 0.500000
O O2 0.284715 0.220208 0.423028
O O3 0.161149 0.301054 0.590433
O O4 0.869668 0.530879 0.610866
O O5 0.500958 0.977822 0.765648
O O6 0.301302 0.666625 0.708400
O O7 0.109353 0.914999 0.709204
O O8 0.670214 0.151199 0.885416
O O9 0.960864 0.157493 0.704699
O O10 0.194743 0.726749 0.985848
O O11 0.808509 0.692614 0.929687
O O12 0.500000 0.000000 0.000000
O O13 0.558050 0.669753 0.338196
O O14 0.581442 0.329441 0.185335
O O15 0.500000 0.000000 0.500000
O O16 0.000000 0.000000 0.000000
#
# Coordination Sequence:
#
# PCOD9110038 Si02
#       7
#     2   2   2   2   2   2   2
#     4  12  26  46  73 108 149 194 256 306 363 451
#     4  12  24  44  74 107 147 191 253 300 365 448
#     4  12  26  45  76 112 149 197 244 309 380 435
#     4  10  20  41  69 105 139 181 243 304 357 428
#     4  12  27  44  76 109 147 198 250 310 371 438
#     4  12  28  48  70 108 159 198 242 302 376 453
#     4  10  22  42  72 104 139 180 246 312 358 421
#
# _framework density 24.053954999999998
#
# number of rings (size 3 to 8) (size 9 to 14) (size 15 to 20)
#    0.000    0.571    2.857    6.429    4.000    1.143 
#    0.000    1.429    0.000    0.000    0.000    0.000 
#    0.000    0.000    0.000    0.000    0.000    0.000 
#
# Total GULP energy -78181.707204 kJ/mol
# GULP energy per Si atom -5584.407657 kJ/mol
# Density = 2.399921 g / cm^3
# Si number density = 24.053955 Si / 1000 Ang^3
#
#
#
# Elastic Constant Matrix: (Units=GPa)
#
#
# Indices 1 2 3 4 5 6 
#
# 1 93.2331 -2.8883 -20.2336 7.6782 5.5718 -4.0351
# 2 -2.8883 61.3187 -4.7509 -18.4842 6.2089 6.9608
# 3 -20.2336 -4.7509 109.3541 -10.0422 7.3041 5.8801
# 4 7.6782 -18.4842 -10.0422 33.9769 -3.9500 7.3742
# 5 5.5718 6.2089 7.3041 -3.9500 47.8780 -6.2767
# 6 -4.0351 6.9608 5.8801 7.3742 -6.2767 30.4731
#
#
#
# Elastic Compliance Matrix: (Units=1/GPa)
#
#
# Indices 1 2 3 4 5 6 
#
# 1 0.011515 -0.000090 0.001920 -0.002593 -0.001643 0.001464
# 2 -0.000090 0.022573 0.003119 0.015014 -0.003481 -0.010120
# 3 0.001920 0.003119 0.010476 0.004991 -0.002362 -0.004174
# 4 -0.002593 0.015014 0.004991 0.042878 -0.000874 -0.015292
# 5 -0.001643 -0.003481 -0.002362 -0.000874 0.022590 0.005898
# 6 0.001464 -0.010120 -0.004174 -0.015292 0.005898 0.041042
#
#
# Mechanical properties :
#
#
# Convention : Reuss Voigt Hill
#
# Bulk Modulus (GPa) = 18.36171 23.12892 20.74532
# Shear Modulus (GPa) = 31.38137 41.91751 36.64944
#
# Velocity S-wave (km/s) = 3.61588 4.17903 3.90761
# Velocity P-wave (km/s) = 5.00828 5.73777 5.38539
#
# Compressibility (1/GPa) = 0.05446116
#
# Stress axis : x y z
#
# Youngs Moduli (GPa) = 86.84579 44.30075 95.45812
#
# Poissons Ratio (x) = 0.00400 -0.18324
# Poissons Ratio (y) = 0.00783 -0.29778
# Poissons Ratio (z) = -0.16671 -0.13820
#
# Static dielectric constant tensor:
#      x y z
#    x 2.031180 0.076060 -0.003480 
#    y 0.076060 1.978020 0.055150 
#    z -0.003480 0.055150 2.021640 
# 
# From -- ./inp_files/46128.got.cif
#   From: 2010.05.17/outbox.cif.g08.bks.cpg/sg2_24_cif.got.tgz:46128.got - 2010.06.03 11:33:40.
