data_PCOD9110505
_publ_section_title
;
Structure prediction by ZEFSAII (Michael W. Deem and Ramdas Pophale) SiO2 
 PCOD9110505
Probable space group: P -1
;
_chemical_formula_sum "Si O2"
_cell_formula_units_Z 12
_cell_length_a 8.378278
_cell_length_b 7.600229
_cell_length_c 9.544709
_cell_angle_alpha 103.250574
_cell_angle_beta 67.785095
_cell_angle_gamma 126.261314
_cell_volume 453.678068
_symmetry_space_group_name_H-M "P -1"
_symmetry_group_IT_number 2
_symmetry_cell_setting 'triclinic'
loop_
_space_group_symop_operation_xyz
x,y,z
-x,-y,-z
loop_
_atom_site_type_symbol
_atom_site_label
_atom_site_fract_x
_atom_site_fract_y
_atom_site_fract_z
Si Si1 0.187218 0.222167 0.147416
Si Si2 0.865364 0.769503 0.275797
Si Si3 0.280251 0.839803 0.224880
Si Si4 0.332144 0.589015 0.954894
Si Si5 0.208453 0.512235 0.414119
Si Si6 0.540367 0.837989 0.545328
O O1 0.423713 0.291588 0.068102
O O2 0.171794 0.296975 0.322073
O O3 0.180520 0.383540 0.071177
O O4 0.004372 0.970397 0.156649
O O5 0.726712 0.543786 0.194586
O O6 0.731456 0.836200 0.419092
O O7 0.046505 0.777580 0.305094
O O8 0.323945 0.693647 0.284633
O O9 0.424297 0.077637 0.291410
O O10 0.291423 0.771598 0.050150
O O11 0.344741 0.601668 0.523552
O O12 0.000000 0.500000 0.500000
O O13 0.500000 0.000000 0.500000
#
# Coordination Sequence:
#
# PCOD9110505 Si02
#       6
#     2   2   2   2   2   2
#     4  10  21  38  65  90 118 167 211 245 298 371
#     4  12  22  41  65  93 125 161 202 259 312 351
#     4  10  23  40  61  93 128 157 201 261 307 359
#     4  10  22  42  61  89 129 161 209 246 299 375
#     4  10  20  42  63  90 121 165 210 249 300 370
#     4  10  21  39  64  88 123 161 205 252 298 367
#
# _framework density 26.450474
#
# number of rings (size 3 to 8) (size 9 to 14) (size 15 to 20)
#    0.000    1.667    1.667    3.500    2.333    0.667 
#    9.000    1.667    0.000    0.000    0.000    0.000 
#    0.000    0.000    0.000    0.000    0.000    0.000 
#
# Total GULP energy -67094.623015 kJ/mol
# GULP energy per Si atom -5591.218585 kJ/mol
# Density = 2.639027 g / cm^3
# Si number density = 26.450474 Si / 1000 Ang^3
#
#
#
# Elastic Constant Matrix: (Units=GPa)
#
#
# Indices 1 2 3 4 5 6 
#
# 1 60.3031 8.7152 39.2279 15.1950 -25.3604 -7.4532
# 2 8.7152 126.5593 48.7791 29.4679 -4.6733 12.5069
# 3 39.2279 48.7791 174.8147 44.0748 -14.0395 5.4320
# 4 15.1950 29.4679 44.0748 53.6246 -0.6067 10.2740
# 5 -25.3604 -4.6733 -14.0395 -0.6067 50.1473 -10.9127
# 6 -7.4532 12.5069 5.4320 10.2740 -10.9127 46.2450
#
#
#
# Elastic Compliance Matrix: (Units=1/GPa)
#
#
# Indices 1 2 3 4 5 6 
#
# 1 0.028579 0.000759 -0.003911 -0.007060 0.015541 0.010096
# 2 0.000759 0.009564 -0.001828 -0.003710 0.000430 -0.001324
# 3 -0.003911 -0.001828 0.008304 -0.004704 0.000111 -0.000040
# 4 -0.007060 -0.003710 -0.004704 0.027880 -0.006485 -0.007306
# 5 0.015541 0.000430 0.000111 -0.006485 0.030173 0.010936
# 6 0.010096 -0.001324 -0.000040 -0.007306 0.010936 0.027818
#
#
# Mechanical properties :
#
#
# Convention : Reuss Voigt Hill
#
# Bulk Modulus (GPa) = 27.40595 61.68015 44.54305
# Shear Modulus (GPa) = 32.37508 47.66704 40.02106
#
# Velocity S-wave (km/s) = 3.50235 4.24975 3.89402
# Velocity P-wave (km/s) = 5.17098 6.88841 6.09053
#
# Compressibility (1/GPa) = 0.03648843
#
# Stress axis : x y z
#
# Youngs Moduli (GPa) = 34.99030 104.55603 120.42361
#
# Poissons Ratio (x) = -0.07937 0.47094
# Poissons Ratio (y) = -0.02656 0.22014
# Poissons Ratio (z) = 0.13684 0.19113
#
# Static dielectric constant tensor:
#      x y z
#    x 2.052110 -0.030940 0.086300 
#    y -0.030940 2.168920 -0.051310 
#    z 0.086300 -0.051310 2.109050 
# 
# From -- ./inp_files/198608.got.cif
#   From: 2010.05.17/outbox.cif.g08.bks.cpg/sg2_100_cif.got.tgz:198608.got - 2010.06.03 11:33:40.
