data_PCOD9110696
_publ_section_title
;
Structure prediction by ZEFSAII (Michael W. Deem and Ramdas Pophale) SiO2 
 PCOD9110696
Probable space group: P -1
;
_chemical_formula_sum "Si O2"
_cell_formula_units_Z 16
_cell_length_a 9.986358
_cell_length_b 21.924101
_cell_length_c 8.673978
_cell_angle_alpha 111.557653
_cell_angle_beta 74.768580
_cell_angle_gamma 46.581550
_cell_volume 829.669666
_symmetry_space_group_name_H-M "P -1"
_symmetry_group_IT_number 2
_symmetry_cell_setting 'triclinic'
loop_
_space_group_symop_operation_xyz
x,y,z
-x,-y,-z
loop_
_atom_site_type_symbol
_atom_site_label
_atom_site_fract_x
_atom_site_fract_y
_atom_site_fract_z
Si Si1 0.638723 0.638557 0.108778
Si Si2 0.161042 0.653559 0.084490
Si Si3 0.181513 0.329859 0.677411
Si Si4 0.203511 0.095089 0.743256
Si Si5 0.332355 0.648297 0.347304
Si Si6 0.233732 0.072323 0.077040
Si Si7 0.275288 0.905889 0.928679
Si Si8 0.848746 0.120142 0.753044
O O1 0.719273 0.672382 0.201552
O O2 0.489938 0.652905 0.293299
O O3 0.412611 0.743880 0.141093
O O4 0.921871 0.481369 0.829806
O O5 0.247419 0.663046 0.212441
O O6 0.944876 0.688096 0.250192
O O7 0.022304 0.754586 0.088464
O O8 0.442125 0.498751 0.802676
O O9 0.441140 0.216465 0.374762
O O10 0.079563 0.081043 0.686910
O O11 0.500000 0.000000 0.500000
O O12 0.244108 0.064140 0.882050
O O13 0.051039 0.772146 0.645543
O O14 0.500000 0.000000 0.000000
O O15 0.233835 0.998685 0.074806
O O16 0.273897 0.859728 0.033807
O O17 0.000000 0.000000 0.000000
O O18 0.000000 0.000000 0.500000
#
# Coordination Sequence:
#
# PCOD9110696 Si02
#       8
#     2   2   2   2   2   2   2   2
#     4  10  22  40  68  93 126 166 211 257 316 377
#     4  10  22  40  69  92 125 167 207 260 315 377
#     4  10  22  42  65  97 126 165 209 259 314 381
#     4  12  26  43  64  95 131 166 215 265 315 378
#     4  10  20  42  65  93 126 166 210 254 316 383
#     4  12  26  41  65  96 127 168 209 266 318 376
#     4  12  24  41  65  93 128 168 212 261 317 376
#     4  12  26  42  66  94 129 171 212 263 317 377
#
# _framework density 19.284783999999998
#
# number of rings (size 3 to 8) (size 9 to 14) (size 15 to 20)
#    0.000    1.000    2.500    4.500    3.500    1.000 
#    0.000    0.000    0.000    0.000    0.000    0.000 
#    0.000    0.000    0.000    0.000    0.000    0.000 
#
# Total GULP energy -89461.944738 kJ/mol
# GULP energy per Si atom -5591.371546 kJ/mol
# Density = 1.924089 g / cm^3
# Si number density = 19.284784 Si / 1000 Ang^3
#
#
#
# Elastic Constant Matrix: (Units=GPa)
#
#
# Indices 1 2 3 4 5 6 
#
# 1 131.6841 35.3525 35.2987 17.3971 -5.9159 -2.0525
# 2 35.3525 101.9064 25.6459 16.0011 1.2304 -5.8463
# 3 35.2987 25.6459 122.7625 13.6768 -17.5972 -1.1289
# 4 17.3971 16.0011 13.6768 15.6605 -1.1221 -4.5230
# 5 -5.9159 1.2304 -17.5972 -1.1221 24.8717 2.5774
# 6 -2.0525 -5.8463 -1.1289 -4.5230 2.5774 31.6189
#
#
#
# Elastic Compliance Matrix: (Units=1/GPa)
#
#
# Indices 1 2 3 4 5 6 
#
# 1 0.009496 -0.001815 -0.001334 -0.007726 0.001156 -0.000966
# 2 -0.001815 0.012333 -0.001375 -0.009279 -0.002536 0.000993
# 3 -0.001334 -0.001375 0.010504 -0.006194 0.007051 -0.001427
# 4 -0.007726 -0.009279 -0.006194 0.090216 -0.002799 0.010695
# 5 0.001156 -0.002536 0.007051 -0.002799 0.045913 -0.004285
# 6 -0.000966 0.000993 -0.001427 0.010695 -0.004285 0.033576
#
#
# Mechanical properties :
#
#
# Convention : Reuss Voigt Hill
#
# Bulk Modulus (GPa) = 42.94452 60.99412 51.96932
# Shear Modulus (GPa) = 22.84679 31.76730 27.30705
#
# Velocity S-wave (km/s) = 3.44569 4.06306 3.76705
# Velocity P-wave (km/s) = 6.17635 7.32858 6.77700
#
# Compressibility (1/GPa) = 0.02328586
#
# Stress axis : x y z
#
# Youngs Moduli (GPa) = 105.30378 81.08185 95.19952
#
# Poissons Ratio (x) = 0.14716 0.12697
# Poissons Ratio (y) = 0.19112 0.13093
# Poissons Ratio (z) = 0.14044 0.11151
#
# Static dielectric constant tensor:
#      x y z
#    x 1.583790 -0.025650 0.021040 
#    y -0.025650 1.652350 0.026210 
#    z 0.021040 0.026210 1.658760 
# 
# From -- ./inp_files/223223.got.cif
#   From: 2010.05.17/outbox.cif.g08.bks.cpg/sg2_112_cif.got.tgz:223223.got - 2010.06.03 11:33:40.
