data_PCOD9110021
_publ_section_title
;
Structure prediction by ZEFSAII (Michael W. Deem and Ramdas Pophale) SiO2 
 PCOD9110021
Probable space group: P -1
;
_chemical_formula_sum "Si O2"
_cell_formula_units_Z 16
_cell_length_a 8.782082
_cell_length_b 7.707125
_cell_length_c 13.356922
_cell_angle_alpha 102.172662
_cell_angle_beta 118.414461
_cell_angle_gamma 61.396634
_cell_volume 697.932994
_symmetry_space_group_name_H-M "P -1"
_symmetry_group_IT_number 2
_symmetry_cell_setting 'triclinic'
loop_
_space_group_symop_operation_xyz
x,y,z
-x,-y,-z
loop_
_atom_site_type_symbol
_atom_site_label
_atom_site_fract_x
_atom_site_fract_y
_atom_site_fract_z
Si Si1 0.442536 0.250294 0.417817
Si Si2 0.478511 0.201240 0.651345
Si Si3 0.254369 0.806614 0.766024
Si Si4 0.100208 0.460876 0.186000
Si Si5 0.160075 0.240471 0.711208
Si Si6 0.851444 0.230365 0.476980
Si Si7 0.344350 0.574263 0.140953
Si Si8 0.089047 0.819301 0.930204
O O1 0.408481 0.294758 0.530956
O O2 0.281311 0.394792 0.310312
O O3 0.646398 0.252453 0.455887
O O4 0.452767 0.032745 0.374497
O O5 0.315766 0.261373 0.692233
O O6 0.626278 0.276352 0.753365
O O7 0.167952 0.720509 0.640577
O O8 0.468687 0.635570 0.827555
O O9 0.133770 0.857979 0.836179
O O10 0.242461 0.011226 0.742768
O O11 0.164237 0.541877 0.119951
O O12 0.907310 0.623922 0.196093
O O13 0.059596 0.275106 0.131802
O O14 0.966366 0.312184 0.592573
O O15 0.000000 0.000000 0.500000
O O16 0.288957 0.670512 0.026698
O O17 0.000000 0.000000 0.000000
#
# Coordination Sequence:
#
# PCOD9110021 Si02
#       8
#     2   2   2   2   2   2   2   2
#     4  11  23  42  68 103 144 187 226 286 351 418
#     4  11  24  41  68 105 143 185 230 282 347 418
#     4  11  24  45  72  98 139 188 231 289 346 410
#     4  12  26  45  73 102 140 180 240 284 356 411
#     4  11  24  43  71 108 146 184 226 286 352 419
#     4  10  20  41  69 100 143 180 223 276 349 412
#     4  12  25  47  70 100 143 183 241 287 346 409
#     4  12  28  49  72 101 135 184 239 296 347 411
#
# _framework density 22.924835000000002
#
# number of rings (size 3 to 8) (size 9 to 14) (size 15 to 20)
#    0.000    0.750    3.750    3.750    3.500    3.500 
#    0.000    1.875    0.000    0.000    0.000    0.000 
#    0.000    0.000    0.000    0.000    0.000    0.000 
#
# Total GULP energy -89545.573509 kJ/mol
# GULP energy per Si atom -5596.598344 kJ/mol
# Density = 2.287266 g / cm^3
# Si number density = 22.924835 Si / 1000 Ang^3
#
#
#
# Elastic Constant Matrix: (Units=GPa)
#
#
# Indices 1 2 3 4 5 6 
#
# 1 107.3678 39.6568 45.3357 19.4649 -21.0258 0.7110
# 2 39.6568 61.8280 13.1333 1.3546 -7.2436 -9.1350
# 3 45.3357 13.1333 85.5122 -12.7177 -12.5762 3.3907
# 4 19.4649 1.3546 -12.7177 46.7543 -0.5028 2.9146
# 5 -21.0258 -7.2436 -12.5762 -0.5028 42.5126 -0.6974
# 6 0.7110 -9.1350 3.3907 2.9146 -0.6974 30.6947
#
#
#
# Elastic Compliance Matrix: (Units=1/GPa)
#
#
# Indices 1 2 3 4 5 6 
#
# 1 0.020256 -0.010226 -0.009948 -0.010707 0.005186 -0.001279
# 2 -0.010226 0.023124 0.002120 0.003754 -0.000339 0.006520
# 3 -0.009948 0.002120 0.018219 0.009170 0.000907 -0.002001
# 4 -0.010707 0.003754 0.009170 0.028362 -0.001647 -0.002378
# 5 0.005186 -0.000339 0.000907 -0.001647 0.026285 0.000432
# 6 -0.001279 0.006520 -0.002001 -0.002378 0.000432 0.035006
#
#
# Mechanical properties :
#
#
# Convention : Reuss Voigt Hill
#
# Bulk Modulus (GPa) = 39.22852 50.10664 44.66758
# Shear Modulus (GPa) = 25.52862 34.43113 29.97987
#
# Velocity S-wave (km/s) = 3.34065 3.87966 3.62020
# Velocity P-wave (km/s) = 5.65941 6.47869 6.08286
#
# Compressibility (1/GPa) = 0.02549166
#
# Stress axis : x y z
#
# Youngs Moduli (GPa) = 49.36691 43.24467 54.88729
#
# Poissons Ratio (x) = 0.44224 0.54601
# Poissons Ratio (y) = 0.50485 -0.11637
# Poissons Ratio (z) = 0.49109 -0.09168
#
# Static dielectric constant tensor:
#      x y z
#    x 1.816360 -0.014670 0.006210 
#    y -0.014670 1.909530 -0.004660 
#    z 0.006210 -0.004660 1.866100 
# 
# From -- ./inp_files/382739.got.cif
#   From: 2010.05.17/outbox.cif.g08.bks.cpg/sg2_192_cif.got.tgz:382739.got - 2010.06.03 11:33:40.
