data_PCOD9110267
_publ_section_title
;
Structure prediction by ZEFSAII (Michael W. Deem and Ramdas Pophale) SiO2 
 PCOD9110267
Probable space group: P -1
;
_chemical_formula_sum "Si O2"
_cell_formula_units_Z 15
_cell_length_a 8.460445
_cell_length_b 16.870502
_cell_length_c 9.818574
_cell_angle_alpha 149.719646
_cell_angle_beta 120.385632
_cell_angle_gamma 62.598382
_cell_volume 608.694314
_symmetry_space_group_name_H-M "P -1"
_symmetry_group_IT_number 2
_symmetry_cell_setting 'triclinic'
loop_
_space_group_symop_operation_xyz
x,y,z
-x,-y,-z
loop_
_atom_site_type_symbol
_atom_site_label
_atom_site_fract_x
_atom_site_fract_y
_atom_site_fract_z
Si Si1 0.558477 0.258186 0.941742
Si Si2 0.031121 0.650596 0.473614
Si Si3 0.065461 0.765093 0.352382
Si Si4 0.618309 0.936944 0.625032
Si Si5 0.254645 0.325378 0.113846
Si Si6 0.334258 0.031599 0.868921
Si Si7 0.000000 0.000000 0.000000
Si Si8 0.700775 0.454166 0.073522
O O1 0.639029 0.083774 0.750806
O O2 0.449845 0.327531 0.126547
O O3 0.691247 0.370578 0.091407
O O4 0.406845 0.219296 0.703505
O O5 0.037343 0.676560 0.350616
O O6 0.083609 0.818224 0.799951
O O7 0.167037 0.500906 0.348739
O O8 0.834635 0.594685 0.348907
O O9 0.211333 0.666888 0.178504
O O10 0.883600 0.767816 0.184489
O O11 0.155716 0.931355 0.673289
O O12 0.433624 0.973084 0.685224
O O13 0.799283 0.929826 0.782788
O O14 0.278894 0.215091 0.093325
O O15 0.500000 0.000000 0.000000
O O16 0.500000 0.500000 0.000000
#
# Coordination Sequence:
#
# PCOD9110267 Si02
#       8
#     2   2   2   2   2   2   1   2
#     4  10  20  41  71  99 134 166 234 280 335 391
#     4  11  25  42  67 101 137 182 229 285 350 400
#     4  11  21  40  67 102 136 175 229 281 338 401
#     4  10  22  41  66  99 130 186 217 277 334 410
#     4  10  22  43  69 103 134 178 231 289 332 400
#     4  11  23  41  66 103 143 182 228 268 345 415
#     4  12  24  46  66  88 142 180 224 268 358 410
#     4  11  20  37  66 101 134 171 224 285 331 397
#
# _framework density 24.642911000000002
#
# number of rings (size 3 to 8) (size 9 to 14) (size 15 to 20)
#    0.000    1.333    1.333    6.000    0.000    0.000 
#    9.600    8.000    0.000    0.000    0.000    0.000 
#    0.000    0.000    0.000    0.000    0.000    0.000 
#
# Total GULP energy -83732.227198 kJ/mol
# GULP energy per Si atom -5582.148480 kJ/mol
# Density = 2.458682 g / cm^3
# Si number density = 24.642911 Si / 1000 Ang^3
#
#
#
# Elastic Constant Matrix: (Units=GPa)
#
#
# Indices 1 2 3 4 5 6 
#
# 1 78.4443 29.1029 25.0699 16.5298 23.8699 10.1922
# 2 29.1029 137.4835 56.9602 32.0526 13.2070 10.9725
# 3 25.0699 56.9602 149.0181 36.1317 18.2310 11.6360
# 4 16.5298 32.0526 36.1317 49.6371 4.4564 9.6780
# 5 23.8699 13.2070 18.2310 4.4564 29.7311 13.5806
# 6 10.1922 10.9725 11.6360 9.6780 13.5806 33.7767
#
#
#
# Elastic Compliance Matrix: (Units=1/GPa)
#
#
# Indices 1 2 3 4 5 6 
#
# 1 0.018325 -0.001765 0.000212 -0.004209 -0.014309 0.001930
# 2 -0.001765 0.009591 -0.002346 -0.003754 -0.000640 -0.000442
# 3 0.000212 -0.002346 0.009278 -0.005055 -0.004386 0.000714
# 4 -0.004209 -0.003754 -0.005055 0.028330 0.006952 -0.006682
# 5 -0.014309 -0.000640 -0.004386 0.006952 0.055378 -0.018221
# 6 0.001930 -0.000442 0.000714 -0.006682 -0.018221 0.038162
#
#
# Mechanical properties :
#
#
# Convention : Reuss Voigt Hill
#
# Bulk Modulus (GPa) = 34.01782 65.24575 49.63178
# Shear Modulus (GPa) = 28.30267 39.54984 33.92625
#
# Velocity S-wave (km/s) = 3.39265 4.01049 3.71444
# Velocity P-wave (km/s) = 5.40194 6.92671 6.21129
#
# Compressibility (1/GPa) = 0.02939636
#
# Stress axis : x y z
#
# Youngs Moduli (GPa) = 54.56939 104.26133 107.78062
#
# Poissons Ratio (x) = 0.18405 -0.02287
# Poissons Ratio (y) = 0.09633 0.25286
# Poissons Ratio (z) = -0.01158 0.24460
#
# Static dielectric constant tensor:
#      x y z
#    x 1.943670 0.039370 -0.035320 
#    y 0.039370 1.969350 -0.044430 
#    z -0.035320 -0.044430 1.984540 
# 
# From -- ./inp_files/403661.got.cif
#   From: 2010.05.17/outbox.cif.g08.bks.cpg/sg2_202_cif.got.tgz:403661.got - 2010.06.03 11:33:40.
