data_PCOD9110466
_publ_section_title
;
Structure prediction by ZEFSAII (Michael W. Deem and Ramdas Pophale) SiO2 
 PCOD9110466
Probable space group: P -1
;
_chemical_formula_sum "Si O2"
_cell_formula_units_Z 16
_cell_length_a 8.197062
_cell_length_b 25.017608
_cell_length_c 19.699612
_cell_angle_alpha 160.062031
_cell_angle_beta 136.579528
_cell_angle_gamma 33.730988
_cell_volume 731.399353
_symmetry_space_group_name_H-M "P -1"
_symmetry_group_IT_number 2
_symmetry_cell_setting 'triclinic'
loop_
_space_group_symop_operation_xyz
x,y,z
-x,-y,-z
loop_
_atom_site_type_symbol
_atom_site_label
_atom_site_fract_x
_atom_site_fract_y
_atom_site_fract_z
Si Si1 0.907108 0.792506 0.686671
Si Si2 0.275976 0.418506 0.434105
Si Si3 0.645262 0.331892 0.901650
Si Si4 0.201123 0.027575 0.543417
Si Si5 0.466922 0.630221 0.827884
Si Si6 0.203227 0.560397 0.159779
Si Si7 0.814433 0.009947 0.057637
Si Si8 0.342069 0.108951 0.818548
O O1 0.117983 0.554817 0.481558
O O2 0.089099 0.858072 0.784264
O O3 0.605522 0.889507 0.667129
O O4 0.798709 0.906250 0.862823
O O5 0.462923 0.484582 0.602682
O O6 0.497610 0.179326 0.202049
O O7 0.000000 0.500000 0.500000
O O8 0.009012 0.203821 0.858111
O O9 0.576755 0.181737 0.679523
O O10 0.500000 0.500000 0.000000
O O11 0.499241 0.436445 0.053014
O O12 0.346163 0.087656 0.712505
O O13 0.990721 0.204946 0.637925
O O14 0.000000 0.000000 0.500000
O O15 0.679413 0.504724 0.806367
O O16 0.585780 0.741497 0.963368
O O17 0.107075 0.821691 0.963550
O O18 0.000000 0.500000 0.000000
#
# Coordination Sequence:
#
# PCOD9110466 Si02
#       8
#     2   2   2   2   2   2   2   2
#     4   9  20  39  64  90 119 159 212 262 318 377
#     4  11  24  40  62  93 130 165 212 267 324 385
#     4  11  22  41  64  90 128 172 210 265 321 374
#     4  10  21  40  62  89 126 161 213 260 308 378
#     4  10  23  42  61  90 131 167 211 268 320 380
#     4  12  23  42  63  95 135 169 215 263 321 379
#     4   9  20  42  63  88 123 160 209 265 316 382
#     4  10  20  42  62  91 126 164 216 263 314 383
#
# _framework density 21.875874
#
# number of rings (size 3 to 8) (size 9 to 14) (size 15 to 20)
#    0.000    1.750    3.750    1.125    0.000    7.500 
#   11.250    0.000    0.000    0.000    0.000    0.000 
#    0.000    0.000    0.000    0.000    0.000    0.000 
#
# Total GULP energy -89408.126378 kJ/mol
# GULP energy per Si atom -5588.007899 kJ/mol
# Density = 2.182608 g / cm^3
# Si number density = 21.875874 Si / 1000 Ang^3
#
#
#
# Elastic Constant Matrix: (Units=GPa)
#
#
# Indices 1 2 3 4 5 6 
#
# 1 36.6493 18.4608 6.0152 7.9810 0.4651 0.9252
# 2 18.4608 136.7769 24.3594 24.5715 1.6418 17.8353
# 3 6.0152 24.3594 105.8054 20.7328 2.2325 -0.4040
# 4 7.9810 24.5715 20.7328 34.9212 0.6812 11.4855
# 5 0.4651 1.6418 2.2325 0.6812 29.5476 10.1190
# 6 0.9252 17.8353 -0.4040 11.4855 10.1190 31.0878
#
#
#
# Elastic Compliance Matrix: (Units=1/GPa)
#
#
# Indices 1 2 3 4 5 6 
#
# 1 0.030215 -0.003563 0.000278 -0.005769 -0.001451 0.003752
# 2 -0.003563 0.009192 -0.001265 -0.003522 0.001184 -0.004268
# 3 0.000278 -0.001265 0.011186 -0.007145 -0.002042 0.004167
# 4 -0.005769 -0.003522 -0.007145 0.041455 0.004948 -0.014827
# 5 -0.001451 0.001184 -0.002042 0.004948 0.039046 -0.015200
# 6 0.003752 -0.004268 0.004167 -0.014827 -0.015200 0.044984
#
#
# Mechanical properties :
#
#
# Convention : Reuss Voigt Hill
#
# Bulk Modulus (GPa) = 24.10044 41.87806 32.98925
# Shear Modulus (GPa) = 25.12453 34.47108 29.79780
#
# Velocity S-wave (km/s) = 3.39264 3.97389 3.69471
# Velocity P-wave (km/s) = 5.13687 6.34356 5.77184
#
# Compressibility (1/GPa) = 0.04149302
#
# Stress axis : x y z
#
# Youngs Moduli (GPa) = 33.09635 108.78514 89.39866
#
# Poissons Ratio (x) = 0.38761 -0.02485
# Poissons Ratio (y) = 0.11792 0.11308
# Poissons Ratio (z) = -0.00920 0.13760
#
# Static dielectric constant tensor:
#      x y z
#    x 1.793660 -0.036360 -0.013010 
#    y -0.036360 1.809750 -0.017130 
#    z -0.013010 -0.017130 1.814090 
# 
# From -- ./inp_files/592106.got.cif
#   From: 2010.05.17/outbox.cif.g08.bks.cpg/sg2_297_cif.got.tgz:592106.got - 2010.06.03 11:33:40.
