data_PCOD9110333
_publ_section_title
;
Structure prediction by ZEFSAII (Michael W. Deem and Ramdas Pophale) SiO2 
 PCOD9110333
Probable space group: P -1
;
_chemical_formula_sum "Si O2"
_cell_formula_units_Z 14
_cell_length_a 8.648718
_cell_length_b 9.155951
_cell_length_c 9.066200
_cell_angle_alpha 90.780676
_cell_angle_beta 64.463991
_cell_angle_gamma 78.055363
_cell_volume 629.454676
_symmetry_space_group_name_H-M "P -1"
_symmetry_group_IT_number 2
_symmetry_cell_setting 'triclinic'
loop_
_space_group_symop_operation_xyz
x,y,z
-x,-y,-z
loop_
_atom_site_type_symbol
_atom_site_label
_atom_site_fract_x
_atom_site_fract_y
_atom_site_fract_z
Si Si1 0.609535 0.146515 0.846397
Si Si2 0.285840 0.366449 0.565405
Si Si3 0.625954 0.393028 0.612973
Si Si4 0.385184 0.402638 0.126914
Si Si5 0.822275 0.117346 0.033734
Si Si6 0.508543 0.920135 0.654433
Si Si7 0.052807 0.592178 0.113780
O O1 0.678502 0.262339 0.710356
O O2 0.546580 0.032819 0.764025
O O3 0.454915 0.242296 0.018239
O O4 0.753775 0.070299 0.904168
O O5 0.464850 0.356890 0.587508
O O6 0.236098 0.545406 0.543718
O O7 0.333542 0.228456 0.428417
O O8 0.126966 0.335880 0.726762
O O9 0.568457 0.551005 0.727580
O O10 0.185329 0.479770 0.167243
O O11 0.500000 0.500000 0.000000
O O12 0.673556 0.119566 0.219457
O O13 0.856028 0.281188 0.987403
O O14 0.000000 0.000000 0.000000
O O15 0.500000 0.000000 0.500000
O O16 0.000000 0.500000 0.000000
#
# Coordination Sequence:
#
# PCOD9110333 Si02
#       7
#     2   2   2   2   2   2   2
#     4  11  23  47  75 103 140 196 237 290 354 438
#     4  11  25  42  71 110 143 187 237 295 367 420
#     4  10  21  42  72  99 142 185 236 293 354 422
#     4  10  20  41  73  99 137 179 240 283 357 413
#     4  12  28  48  70 106 144 192 244 297 354 430
#     4  12  26  47  73 104 148 193 238 288 367 439
#     4  12  26  43  72 104 142 180 240 298 349 424
#
# _framework density 22.241474
#
# number of rings (size 3 to 8) (size 9 to 14) (size 15 to 20)
#    0.000    0.857    4.286    3.857    8.000    0.571 
#    0.000    4.286    0.000    0.000    0.000    0.000 
#    0.000    0.000    0.000    0.000    0.000    0.000 
#
# Total GULP energy -78074.153670 kJ/mol
# GULP energy per Si atom -5576.725262 kJ/mol
# Density = 2.219085 g / cm^3
# Si number density = 22.241474 Si / 1000 Ang^3
#
#
#
# Elastic Constant Matrix: (Units=GPa)
#
#
# Indices 1 2 3 4 5 6 
#
# 1 91.9240 42.0588 36.8195 17.9659 7.1615 9.4686
# 2 42.0588 111.4213 46.2647 0.4682 -2.1504 9.7301
# 3 36.8195 46.2647 83.0040 3.6166 -13.7607 19.0274
# 4 17.9659 0.4682 3.6166 59.4723 10.6163 7.6311
# 5 7.1615 -2.1504 -13.7607 10.6163 43.1174 1.2673
# 6 9.4686 9.7301 19.0274 7.6311 1.2673 41.8556
#
#
#
# Elastic Compliance Matrix: (Units=1/GPa)
#
#
# Indices 1 2 3 4 5 6 
#
# 1 0.015767 -0.003795 -0.005450 -0.003832 -0.003621 0.000601
# 2 -0.003795 0.012722 -0.005682 0.001528 -0.000932 0.000234
# 3 -0.005450 -0.005682 0.020446 0.000031 0.007344 -0.006969
# 4 -0.003832 0.001528 0.000031 0.019016 -0.003876 -0.002852
# 5 -0.003621 -0.000932 0.007344 -0.003876 0.027117 -0.002417
# 6 0.000601 0.000234 -0.006969 -0.002852 -0.002417 0.027462
#
#
# Mechanical properties :
#
#
# Convention : Reuss Voigt Hill
#
# Bulk Modulus (GPa) = 52.40922 59.62614 56.01768
# Shear Modulus (GPa) = 31.49696 39.63615 35.56655
#
# Velocity S-wave (km/s) = 3.76724 4.22605 4.00323
# Velocity P-wave (km/s) = 6.52209 7.11895 6.82705
#
# Compressibility (1/GPa) = 0.01908061
#
# Stress axis : x y z
#
# Youngs Moduli (GPa) = 63.42306 78.60371 48.90913
#
# Poissons Ratio (x) = 0.29830 0.26656
# Poissons Ratio (y) = 0.24069 0.27791
# Poissons Ratio (z) = 0.34566 0.44664
#
# Static dielectric constant tensor:
#      x y z
#    x 1.769630 0.088400 -0.142350 
#    y 0.088400 1.559670 0.418580 
#    z -0.142350 0.418580 1.289630 
# 
# From -- ./inp_files/158381.got.cif
#   From: 2010.05.17/outbox.cif.g08.bks.cpg/sg2_80_cif.got.tgz:158381.got - 2010.06.03 11:33:40.
