data_PCOD9110810
_publ_section_title
;
Structure prediction by ZEFSAII (Michael W. Deem and Ramdas Pophale) SiO2 
 PCOD9110810
Probable space group: P -1
;
_chemical_formula_sum "Si O2"
_cell_formula_units_Z 16
_cell_length_a 18.570733
_cell_length_b 9.055928
_cell_length_c 12.098568
_cell_angle_alpha 48.241094
_cell_angle_beta 146.883408
_cell_angle_gamma 139.666281
_cell_volume 717.308907
_symmetry_space_group_name_H-M "P -1"
_symmetry_group_IT_number 2
_symmetry_cell_setting 'triclinic'
loop_
_space_group_symop_operation_xyz
x,y,z
-x,-y,-z
loop_
_atom_site_type_symbol
_atom_site_label
_atom_site_fract_x
_atom_site_fract_y
_atom_site_fract_z
Si Si1 0.783444 0.462633 0.510065
Si Si2 0.436994 0.230112 0.718033
Si Si3 0.724874 0.517923 0.665127
Si Si4 0.565785 0.963210 0.488864
Si Si5 0.358701 0.963603 0.971291
Si Si6 0.093951 0.459960 0.902724
Si Si7 0.328401 0.296707 0.907622
Si Si8 0.732276 0.717624 0.904756
O O1 0.761071 0.505102 0.589127
O O2 0.779888 0.653855 0.334339
O O3 0.933932 0.446272 0.700354
O O4 0.645585 0.216692 0.415463
O O5 0.319404 0.283932 0.477886
O O6 0.377598 0.134604 0.811465
O O7 0.490027 0.058793 0.824739
O O8 0.587675 0.477496 0.799120
O O9 0.574942 0.271713 0.622574
O O10 0.855357 0.556944 0.898784
O O11 0.500000 0.000000 0.500000
O O12 0.699347 0.908212 0.717931
O O13 0.217654 0.713538 0.893071
O O14 0.324993 0.064301 0.986261
O O15 0.120363 0.284411 0.950308
O O16 0.281948 0.286491 0.979636
O O17 0.500000 0.500000 0.000000
#
# Coordination Sequence:
#
# PCOD9110810 Si02
#       8
#     2   2   2   2   2   2   2   2
#     4  11  24  42  63  93 128 166 209 256 311 376
#     4   9  18  40  62  96 124 149 214 265 308 358
#     4  10  20  42  66  94 121 162 212 263 305 367
#     4   9  20  38  67  92 119 158 214 258 308 358
#     4  10  21  36  65  92 125 161 203 257 316 361
#     4  11  26  41  61  92 134 167 203 252 319 377
#     4  12  22  40  67  92 124 162 214 263 304 365
#     4  10  22  40  60  94 130 160 208 261 308 371
#
# _framework density 22.305592000000001
#
# number of rings (size 3 to 8) (size 9 to 14) (size 15 to 20)
#    0.000    1.750    2.500    1.875    5.250    6.000 
#    0.000    0.000    0.000    0.000    0.000    0.000 
#    0.000    0.000    0.000    0.000    0.000    0.000 
#
# Total GULP energy -89450.696373 kJ/mol
# GULP energy per Si atom -5590.668523 kJ/mol
# Density = 2.225482 g / cm^3
# Si number density = 22.305592 Si / 1000 Ang^3
#
#
#
# Elastic Constant Matrix: (Units=GPa)
#
#
# Indices 1 2 3 4 5 6 
#
# 1 96.9824 8.9141 43.1542 -2.0658 10.2975 -28.7032
# 2 8.9141 46.6202 15.2297 -22.4764 13.0244 -16.3426
# 3 43.1542 15.2297 129.9317 -19.0835 26.4401 -21.0390
# 4 -2.0658 -22.4764 -19.0835 32.8095 -3.4329 3.0571
# 5 10.2975 13.0244 26.4401 -3.4329 36.9672 -3.4553
# 6 -28.7032 -16.3426 -21.0390 3.0571 -3.4553 27.9007
#
#
#
# Elastic Compliance Matrix: (Units=1/GPa)
#
#
# Indices 1 2 3 4 5 6 
#
# 1 0.016498 0.005303 -0.002442 0.001292 -0.002940 0.017732
# 2 0.005303 0.052545 0.006608 0.034998 -0.018183 0.035130
# 3 -0.002442 0.006608 0.012338 0.009841 -0.008764 0.008499
# 4 0.001292 0.034998 0.009841 0.056958 -0.012433 0.021468
# 5 -0.002940 -0.018183 -0.008764 -0.012433 0.038062 -0.014208
# 6 0.017732 0.035130 0.008499 0.021468 -0.014208 0.076957
#
#
# Mechanical properties :
#
#
# Convention : Reuss Voigt Hill
#
# Bulk Modulus (GPa) = 9.96812 45.34781 27.65797
# Shear Modulus (GPa) = 18.66660 33.28458 25.97559
#
# Velocity S-wave (km/s) = 2.89599 3.86710 3.41623
# Velocity P-wave (km/s) = 3.95739 6.34931 5.29030
#
# Compressibility (1/GPa) = 0.10031983
#
# Stress axis : x y z
#
# Youngs Moduli (GPa) = 60.61378 19.03140 81.05259
#
# Poissons Ratio (x) = -0.10093 0.19792
# Poissons Ratio (y) = -0.32144 -0.53563
# Poissons Ratio (z) = 0.14801 -0.12577
#
# Static dielectric constant tensor:
#      x y z
#    x 1.859670 -0.034070 -0.029830 
#    y -0.034070 1.812400 0.004940 
#    z -0.029830 0.004940 1.838350 
# 
# From -- ./inp_files/204252.got.cif
#   From: 2010.05.17/outbox.cif.g08.bks.cpg/sg2_103_cif.got.tgz:204252.got - 2010.06.03 11:33:40.
