data_PCOD9110518
_publ_section_title
;
Structure prediction by ZEFSAII (Michael W. Deem and Ramdas Pophale) SiO2 
 PCOD9110518
Probable space group: P -1
;
_chemical_formula_sum "Si O2"
_cell_formula_units_Z 12
_cell_length_a 9.678388
_cell_length_b 9.245912
_cell_length_c 12.005264
_cell_angle_alpha 39.195261
_cell_angle_beta 109.042661
_cell_angle_gamma 126.431020
_cell_volume 526.939502
_symmetry_space_group_name_H-M "P -1"
_symmetry_group_IT_number 2
_symmetry_cell_setting 'triclinic'
loop_
_space_group_symop_operation_xyz
x,y,z
-x,-y,-z
loop_
_atom_site_type_symbol
_atom_site_label
_atom_site_fract_x
_atom_site_fract_y
_atom_site_fract_z
Si Si1 0.941035 0.306171 0.992571
Si Si2 0.179991 0.644614 0.287272
Si Si3 0.422607 0.937744 0.873943
Si Si4 0.469935 0.449877 0.186057
Si Si5 0.794232 0.869659 0.865509
Si Si6 0.426255 0.611147 0.505927
O O1 0.947905 0.467315 0.785836
O O2 0.736392 0.065412 0.111530
O O3 0.000000 0.500000 0.000000
O O4 0.052321 0.176851 0.083345
O O5 0.224537 0.494003 0.482497
O O6 0.377626 0.831938 0.169709
O O7 0.148322 0.851476 0.221305
O O8 0.455288 0.053129 0.687064
O O9 0.394993 0.643467 0.051399
O O10 0.311351 0.167173 0.254508
O O11 0.534255 0.432322 0.334280
O O12 0.642965 0.616290 0.053842
O O13 0.500000 0.500000 0.500000
#
# Coordination Sequence:
#
# PCOD9110518 Si02
#       6
#     2   2   2   2   2   2
#     4  12  21  37  67  93 129 165 208 263 310 372
#     4   9  22  40  60  93 120 167 213 244 319 370
#     4   9  21  39  66  91 117 168 209 252 310 367
#     4  10  20  42  63  92 125 166 211 255 308 379
#     4  10  22  37  66  92 126 171 203 254 321 368
#     4  10  22  37  70  93 120 166 220 257 300 377
#
# _framework density 22.773009999999999
#
# number of rings (size 3 to 8) (size 9 to 14) (size 15 to 20)
#    1.000    1.000    1.667    2.000    4.667    0.667 
#    0.000    1.667    3.667    0.000    0.000    0.000 
#    0.000    0.000    0.000    0.000    0.000    0.000 
#
# Total GULP energy -66888.467861 kJ/mol
# GULP energy per Si atom -5574.038988 kJ/mol
# Density = 2.272118 g / cm^3
# Si number density = 22.773010 Si / 1000 Ang^3
#
#
#
# Elastic Constant Matrix: (Units=GPa)
#
#
# Indices 1 2 3 4 5 6 
#
# 1 178.0197 33.3330 28.4024 17.9243 13.2240 -21.8718
# 2 33.3330 114.1788 48.6582 48.7549 23.9030 -8.0143
# 3 28.4024 48.6582 97.2902 41.9126 28.4500 5.6309
# 4 17.9243 48.7549 41.9126 37.5962 9.3373 6.3995
# 5 13.2240 23.9030 28.4500 9.3373 30.8895 1.9850
# 6 -21.8718 -8.0143 5.6309 6.3995 1.9850 25.0601
#
#
#
# Elastic Compliance Matrix: (Units=1/GPa)
#
#
# Indices 1 2 3 4 5 6 
#
# 1 0.007303 0.002567 0.000747 -0.008283 -0.003905 0.009451
# 2 0.002567 0.034818 0.012725 -0.059396 -0.023578 0.027552
# 3 0.000747 0.012725 0.030266 -0.046450 -0.024757 0.011743
# 4 -0.008283 -0.059396 -0.046450 0.157490 0.048529 -0.059849
# 5 -0.003905 -0.023578 -0.024757 0.048529 0.061880 -0.022680
# 6 0.009451 0.027552 0.011743 -0.059849 -0.022680 0.071405
#
#
# Mechanical properties :
#
#
# Convention : Reuss Voigt Hill
#
# Bulk Modulus (GPa) = 9.57247 67.80843 38.69045
# Shear Modulus (GPa) = 13.66469 37.31551 25.49010
#
# Velocity S-wave (km/s) = 2.45223 4.05234 3.34924
# Velocity P-wave (km/s) = 3.49720 7.19275 5.65536
#
# Compressibility (1/GPa) = 0.10446622
#
# Stress axis : x y z
#
# Youngs Moduli (GPa) = 136.93645 28.72038 33.03985
#
# Poissons Ratio (x) = -0.07373 -0.02469
# Poissons Ratio (y) = -0.35156 -0.42042
# Poissons Ratio (z) = -0.10232 -0.36546
#
# Static dielectric constant tensor:
#      x y z
#    x 1.862740 0.048430 0.009330 
#    y 0.048430 1.926770 -0.019030 
#    z 0.009330 -0.019030 1.981780 
# 
# From -- ./inp_files/373394.got.cif
#   From: 2010.05.17/outbox.cif.g08.bks.cpg/sg2_187_cif.got.tgz:373394.got - 2010.06.03 11:33:40.
