data_PCOD9110300
_publ_section_title
;
Structure prediction by ZEFSAII (Michael W. Deem and Ramdas Pophale) SiO2 
 PCOD9110300
Probable space group: P -1
;
_chemical_formula_sum "Si O2"
_cell_formula_units_Z 12
_cell_length_a 11.540701
_cell_length_b 9.270649
_cell_length_c 7.815334
_cell_angle_alpha 102.274772
_cell_angle_beta 56.461710
_cell_angle_gamma 133.807329
_cell_volume 482.503155
_symmetry_space_group_name_H-M "P -1"
_symmetry_group_IT_number 2
_symmetry_cell_setting 'triclinic'
loop_
_space_group_symop_operation_xyz
x,y,z
-x,-y,-z
loop_
_atom_site_type_symbol
_atom_site_label
_atom_site_fract_x
_atom_site_fract_y
_atom_site_fract_z
Si Si1 0.646193 0.242453 0.739480
Si Si2 0.307811 0.432011 0.056404
Si Si3 0.288125 0.283287 0.664218
Si Si4 0.232878 0.780062 0.888330
Si Si5 0.870508 0.150003 0.374718
Si Si6 0.849204 0.544419 0.329441
O O1 0.647313 0.357449 0.925055
O O2 0.787113 0.206650 0.590520
O O3 0.726880 0.406073 0.560141
O O4 0.429383 0.015494 0.830432
O O5 0.089645 0.266356 0.273790
O O6 0.500000 0.500000 0.000000
O O7 0.265125 0.310859 0.886797
O O8 0.500000 0.500000 0.500000
O O9 0.148739 0.281246 0.663822
O O10 0.257976 0.091675 0.599507
O O11 0.142043 0.784066 0.787944
O O12 0.264651 0.634851 0.769738
O O13 0.072570 0.664388 0.139475
#
# Coordination Sequence:
#
# PCOD9110300 Si02
#       6
#     2   2   2   2   2   2
#     4  11  24  46  71 103 139 176 222 289 352 396
#     4  12  26  43  67 101 142 180 222 284 348 395
#     4  12  24  44  71 101 131 182 235 278 331 418
#     4  10  20  41  72  98 133 179 229 276 336 412
#     4  11  23  45  72  96 139 184 226 273 345 412
#     4  10  21  39  70 100 130 175 234 272 331 409
#
# _framework density 24.870303
#
# number of rings (size 3 to 8) (size 9 to 14) (size 15 to 20)
#    0.000    1.000    1.667    7.000    2.333    0.000 
#    3.000    3.333    0.000    0.000    0.000    0.000 
#    0.000    0.000    0.000    0.000    0.000    0.000 
#
# Total GULP energy -67092.961488 kJ/mol
# GULP energy per Si atom -5591.080124 kJ/mol
# Density = 2.481370 g / cm^3
# Si number density = 24.870303 Si / 1000 Ang^3
#
#
#
# Elastic Constant Matrix: (Units=GPa)
#
#
# Indices 1 2 3 4 5 6 
#
# 1 89.5189 51.5284 45.2867 8.8954 -14.8554 -8.0014
# 2 51.5284 156.1288 56.3538 2.2091 -3.9808 -4.9920
# 3 45.2867 56.3538 70.1562 -10.7368 -22.0049 16.6200
# 4 8.8954 2.2091 -10.7368 49.0467 4.1583 -9.7320
# 5 -14.8554 -3.9808 -22.0049 4.1583 48.2531 3.5339
# 6 -8.0014 -4.9920 16.6200 -9.7320 3.5339 41.7546
#
#
#
# Elastic Compliance Matrix: (Units=1/GPa)
#
#
# Indices 1 2 3 4 5 6 
#
# 1 0.021086 -0.000625 -0.016597 -0.005446 -0.001349 0.009417
# 2 -0.000625 0.010778 -0.011320 -0.001299 -0.004776 0.005776
# 3 -0.016597 -0.011320 0.045377 0.007743 0.015602 -0.022111
# 4 -0.005446 -0.001299 0.007743 0.023399 -0.000357 0.001203
# 5 -0.001349 -0.004776 0.015602 -0.000357 0.027754 -0.009472
# 6 0.009417 0.005776 -0.022111 0.001203 -0.009472 0.036328
#
#
# Mechanical properties :
#
#
# Convention : Reuss Voigt Hill
#
# Bulk Modulus (GPa) = 49.60727 69.12686 59.36706
# Shear Modulus (GPa) = 21.87965 38.65322 30.26643
#
# Velocity S-wave (km/s) = 2.96928 3.94660 3.49230
# Velocity P-wave (km/s) = 5.63428 6.97301 6.33908
#
# Compressibility (1/GPa) = 0.02015834
#
# Stress axis : x y z
#
# Youngs Moduli (GPa) = 47.42583 92.77953 22.03778
#
# Poissons Ratio (x) = 0.05798 0.36575
# Poissons Ratio (y) = 0.02963 0.24946
# Poissons Ratio (z) = 0.78710 1.05023
#
# Static dielectric constant tensor:
#      x y z
#    x 1.847480 -0.000200 -0.008660 
#    y -0.000200 1.927660 0.074660 
#    z -0.008660 0.074660 2.068210 
# 
# From -- ./inp_files/152927.got.cif
#   From: 2010.05.17/outbox.cif.g08.bks.cpg/sg2_77_cif.got.tgz:152927.got - 2010.06.03 11:33:40.
