data_PCOD9110605
_publ_section_title
;
Structure prediction by ZEFSAII (Michael W. Deem and Ramdas Pophale) SiO2 
 PCOD9110605
Probable space group: P -1
;
_chemical_formula_sum "Si O2"
_cell_formula_units_Z 14
_cell_length_a 12.998084
_cell_length_b 12.020116
_cell_length_c 6.732737
_cell_angle_alpha 110.030559
_cell_angle_beta 52.334378
_cell_angle_gamma 125.902881
_cell_volume 674.279000
_symmetry_space_group_name_H-M "P -1"
_symmetry_group_IT_number 2
_symmetry_cell_setting 'triclinic'
loop_
_space_group_symop_operation_xyz
x,y,z
-x,-y,-z
loop_
_atom_site_type_symbol
_atom_site_label
_atom_site_fract_x
_atom_site_fract_y
_atom_site_fract_z
Si Si1 0.037401 0.832223 0.502707
Si Si2 0.482131 0.565276 0.260943
Si Si3 0.213694 0.128458 0.308358
Si Si4 0.259476 0.880321 0.628412
Si Si5 0.251905 0.339891 0.695760
Si Si6 0.526908 0.837858 0.228046
Si Si7 0.032955 0.654205 0.046907
O O1 0.132635 0.858389 0.605511
O O2 0.875970 0.824451 0.705910
O O3 0.126936 0.965700 0.337094
O O4 0.026267 0.708191 0.308952
O O5 0.347381 0.450029 0.479121
O O6 0.637441 0.621210 0.229331
O O7 0.460386 0.694209 0.331635
O O8 0.500000 0.500000 0.000000
O O9 0.210626 0.194264 0.562023
O O10 0.381541 0.175902 0.071460
O O11 0.391055 0.864127 0.358346
O O12 0.182906 0.765773 0.822439
O O13 0.347471 0.032236 0.714196
O O14 0.102970 0.345539 0.911481
O O15 0.000000 0.500000 0.000000
#
# Coordination Sequence:
#
# PCOD9110605 Si02
#       7
#     2   2   2   2   2   2   2
#     4  10  23  41  65  92 122 162 208 254 308 366
#     4  11  22  39  62  94 126 159 204 254 306 366
#     4  10  20  42  64  93 124 158 210 260 300 361
#     4  11  25  42  63  91 125 166 206 251 315 365
#     4  10  23  39  63  93 122 165 205 255 307 355
#     4  11  23  41  62  93 126 162 205 258 304 368
#     4  11  24  43  62  90 127 161 207 255 305 376
#
# _framework density 20.762917999999999
#
# number of rings (size 3 to 8) (size 9 to 14) (size 15 to 20)
#    0.000    1.429    2.857    1.714    2.000    2.857 
#    2.571    0.000    0.000    0.000    0.000    0.000 
#    0.000    0.000    0.000    0.000    0.000    0.000 
#
# Total GULP energy -78217.849678 kJ/mol
# GULP energy per Si atom -5586.989263 kJ/mol
# Density = 2.071566 g / cm^3
# Si number density = 20.762918 Si / 1000 Ang^3
#
#
#
# Elastic Constant Matrix: (Units=GPa)
#
#
# Indices 1 2 3 4 5 6 
#
# 1 84.8648 13.6673 31.4132 15.1005 -2.4644 9.9317
# 2 13.6673 107.9116 19.1839 32.3223 3.3884 -7.5562
# 3 31.4132 19.1839 58.7319 9.2807 -18.4545 -9.6523
# 4 15.1005 32.3223 9.2807 29.3272 0.2176 -5.2184
# 5 -2.4644 3.3884 -18.4545 0.2176 31.0808 1.5471
# 6 9.9317 -7.5562 -9.6523 -5.2184 1.5471 26.5733
#
#
#
# Elastic Compliance Matrix: (Units=1/GPa)
#
#
# Indices 1 2 3 4 5 6 
#
# 1 0.019875 0.002468 -0.013880 -0.010928 -0.006183 -0.013554
# 2 0.002468 0.014727 -0.005190 -0.016100 -0.004303 -0.001531
# 3 -0.013880 -0.005190 0.033887 0.004829 0.018762 0.015877
# 4 -0.010928 -0.016100 0.004829 0.058149 0.002726 0.012521
# 5 -0.006183 -0.004303 0.018762 0.002726 0.042978 0.005936
# 6 -0.013554 -0.001531 0.015877 0.012521 0.005936 0.050142
#
#
# Mechanical properties :
#
#
# Convention : Reuss Voigt Hill
#
# Bulk Modulus (GPa) = 28.34027 42.22633 35.28330
# Shear Modulus (GPa) = 18.88757 29.87919 24.38338
#
# Velocity S-wave (km/s) = 3.01936 3.79762 3.43063
# Velocity P-wave (km/s) = 5.08276 6.29370 5.72037
#
# Compressibility (1/GPa) = 0.03528548
#
# Stress axis : x y z
#
# Youngs Moduli (GPa) = 50.31497 67.90133 29.50966
#
# Poissons Ratio (x) = -0.16761 0.40960
# Poissons Ratio (y) = -0.12420 0.15316
# Poissons Ratio (z) = 0.69838 0.35242
#
# Static dielectric constant tensor:
#      x y z
#    x 1.725890 0.007680 -0.008510 
#    y 0.007680 1.741080 -0.019220 
#    z -0.008510 -0.019220 1.767530 
# 
# From -- ./inp_files/68336.got.cif
#   From: 2010.05.17/outbox.cif.g08.bks.cpg/sg2_35_cif.got.tgz:68336.got - 2010.06.03 11:33:40.
