data_PCOD9110442
_publ_section_title
;
Structure prediction by ZEFSAII (Michael W. Deem and Ramdas Pophale) SiO2 
 PCOD9110442
Probable space group: P -1
;
_chemical_formula_sum "Si O2"
_cell_formula_units_Z 16
_cell_length_a 8.543468
_cell_length_b 22.581078
_cell_length_c 16.597609
_cell_angle_alpha 16.125611
_cell_angle_beta 128.030430
_cell_angle_gamma 119.262108
_cell_volume 617.966531
_symmetry_space_group_name_H-M "P -1"
_symmetry_group_IT_number 2
_symmetry_cell_setting 'triclinic'
loop_
_space_group_symop_operation_xyz
x,y,z
-x,-y,-z
loop_
_atom_site_type_symbol
_atom_site_label
_atom_site_fract_x
_atom_site_fract_y
_atom_site_fract_z
Si Si1 0.457079 0.499384 0.831195
Si Si2 0.618121 0.850580 0.652026
Si Si3 0.593095 0.522305 0.681502
Si Si4 0.920935 0.170704 0.935442
Si Si5 0.964008 0.771920 0.264374
Si Si6 0.087420 0.272426 0.424757
Si Si7 0.884548 0.402343 0.793475
Si Si8 0.326811 0.203600 0.433808
O O1 0.617005 0.383689 0.955039
O O2 0.212789 0.558540 0.643698
O O3 0.481270 0.736835 0.547809
O O4 0.482592 0.339348 0.126162
O O5 0.591537 0.944356 0.429530
O O6 0.500000 0.000000 0.500000
O O7 0.885076 0.725023 0.916397
O O8 0.332805 0.696268 0.353783
O O9 0.731083 0.669439 0.550001
O O10 0.700557 0.381637 0.817789
O O11 0.070401 0.215736 0.858121
O O12 0.926478 0.274922 0.887501
O O13 0.982619 0.892925 0.328698
O O14 0.811817 0.683789 0.380360
O O15 0.000000 0.000000 0.000000
O O16 0.210363 0.137603 0.556778
O O17 0.870830 0.526045 0.005291
#
# Coordination Sequence:
#
# PCOD9110442 Si02
#       8
#     2   2   2   2   2   2   2   2
#     4   9  22  39  63  90 119 155 211 254 302 361
#     4  11  24  40  59  89 127 166 200 253 310 369
#     4  10  20  42  62  88 123 160 202 263 303 368
#     4  11  23  37  63  93 122 160 204 253 316 371
#     4  10  22  40  63  90 121 162 201 257 309 365
#     4  10  21  38  65  93 117 161 213 256 304 359
#     4  11  23  40  60  91 129 161 203 252 313 369
#     4  10  21  40  62  88 123 159 211 260 294 361
#
# _framework density 25.891369999999998
#
# number of rings (size 3 to 8) (size 9 to 14) (size 15 to 20)
#    0.000    1.750    1.250    2.250    3.500    4.000 
#    0.000    2.500    0.000    0.000    0.000    0.000 
#    0.000    0.000    0.000    0.000    0.000    0.000 
#
# Total GULP energy -89433.950270 kJ/mol
# GULP energy per Si atom -5589.621892 kJ/mol
# Density = 2.583244 g / cm^3
# Si number density = 25.891370 Si / 1000 Ang^3
#
#
#
# Elastic Constant Matrix: (Units=GPa)
#
#
# Indices 1 2 3 4 5 6 
#
# 1 99.5540 15.9786 20.0966 16.9562 -5.9439 -31.9240
# 2 15.9786 106.8172 4.6189 8.9876 0.3135 -28.3473
# 3 20.0966 4.6189 23.7971 6.1434 4.9904 10.0772
# 4 16.9562 8.9876 6.1434 35.7531 -0.5708 4.0204
# 5 -5.9439 0.3135 4.9904 -0.5708 31.3047 4.7745
# 6 -31.9240 -28.3473 10.0772 4.0204 4.7745 56.3231
#
#
#
# Elastic Compliance Matrix: (Units=1/GPa)
#
#
# Indices 1 2 3 4 5 6 
#
# 1 0.023745 0.003966 -0.028295 -0.009637 0.005642 0.020727
# 2 0.003966 0.012285 -0.009015 -0.004576 0.000407 0.010336
# 3 -0.028295 -0.009015 0.083908 0.004971 -0.013257 -0.034819
# 4 -0.009637 -0.004576 0.004971 0.034076 -0.000268 -0.011065
# 5 0.005642 0.000407 -0.013257 -0.000268 0.034685 0.002854
# 6 0.020727 0.010336 -0.034819 -0.011065 0.002854 0.041483
#
#
# Mechanical properties :
#
#
# Convention : Reuss Voigt Hill
#
# Bulk Modulus (GPa) = 18.77916 34.61741 26.69828
# Shear Modulus (GPa) = 15.89225 37.30779 26.60002
#
# Velocity S-wave (km/s) = 2.48020 3.80008 3.20874
# Velocity P-wave (km/s) = 3.93327 5.71432 4.90531
#
# Compressibility (1/GPa) = 0.05325052
#
# Stress axis : x y z
#
# Youngs Moduli (GPa) = 42.11462 81.39855 11.91782
#
# Poissons Ratio (x) = -0.32286 0.33721
# Poissons Ratio (y) = -0.16704 0.10744
# Poissons Ratio (z) = 1.19162 0.73383
#
# Static dielectric constant tensor:
#      x y z
#    x 2.022050 -0.054730 0.012420 
#    y -0.054730 2.066780 -0.050230 
#    z 0.012420 -0.050230 2.104490 
# 
# From -- ./inp_files/158724.got.cif
#   From: 2010.05.17/outbox.cif.g08.bks.cpg/sg2_80_cif.got.tgz:158724.got - 2010.06.03 11:33:40.
