data_PCOD9110580
_publ_section_title
;
Structure prediction by ZEFSAII (Michael W. Deem and Ramdas Pophale) SiO2 
 PCOD9110580
Probable space group: P -1
;
_chemical_formula_sum "Si O2"
_cell_formula_units_Z 13
_cell_length_a 10.497908
_cell_length_b 10.403906
_cell_length_c 8.144265
_cell_angle_alpha 60.702516
_cell_angle_beta 108.752095
_cell_angle_gamma 64.971343
_cell_volume 522.544234
_symmetry_space_group_name_H-M "P -1"
_symmetry_group_IT_number 2
_symmetry_cell_setting 'triclinic'
loop_
_space_group_symop_operation_xyz
x,y,z
-x,-y,-z
loop_
_atom_site_type_symbol
_atom_site_label
_atom_site_fract_x
_atom_site_fract_y
_atom_site_fract_z
Si Si1 0.198342 0.949143 0.908036
Si Si2 0.282461 0.718458 0.750415
Si Si3 0.595904 0.730960 0.279245
Si Si4 0.315332 0.203733 0.378605
Si Si5 0.792560 0.272194 0.637046
Si Si6 0.947320 0.394483 0.203322
Si Si7 0.000000 0.500000 0.500000
O O1 0.383285 0.907210 0.017295
O O2 0.206942 0.816856 0.136730
O O3 0.210098 0.869817 0.780689
O O4 0.002499 0.179322 0.739478
O O5 0.255508 0.789240 0.505032
O O6 0.155887 0.669546 0.736331
O O7 0.500000 0.500000 0.000000
O O8 0.607826 0.784847 0.430889
O O9 0.646136 0.517761 0.434059
O O10 0.766123 0.667103 0.287174
O O11 0.151935 0.205445 0.327225
O O12 0.500000 0.000000 0.500000
O O13 0.200295 0.415651 0.097968
O O14 0.009308 0.456611 0.334421
#
# Coordination Sequence:
#
# PCOD9110580 Si02
#       7
#     2   2   2   2   2   2   1
#     4  11  25  42  67 104 130 177 219 272 329 396
#     4  12  23  43  70  98 137 177 214 273 334 389
#     4  11  22  43  67  92 131 172 213 270 330 386
#     4  10  24  43  68  96 124 171 220 270 329 388
#     4  11  24  43  67  98 136 172 222 270 328 395
#     4  10  22  43  65  92 132 166 215 270 325 387
#     4  10  20  42  64  90 124 172 214 260 320 384
#
# _framework density 24.878274999999999
#
# number of rings (size 3 to 8) (size 9 to 14) (size 15 to 20)
#    0.000    1.231    3.077    1.846    2.154    6.154 
#    5.538    2.308    0.000    0.000    0.000    0.000 
#    0.000    0.000    0.000    0.000    0.000    0.000 
#
# Total GULP energy -72521.929330 kJ/mol
# GULP energy per Si atom -5578.609948 kJ/mol
# Density = 2.482165 g / cm^3
# Si number density = 24.878275 Si / 1000 Ang^3
#
#
#
# Elastic Constant Matrix: (Units=GPa)
#
#
# Indices 1 2 3 4 5 6 
#
# 1 81.6378 25.6511 33.7288 -8.8883 21.4135 -23.1291
# 2 25.6511 143.5732 36.4037 -1.4600 9.9189 -24.7660
# 3 33.7288 36.4037 86.7253 -3.1598 26.0910 -11.3798
# 4 -8.8883 -1.4600 -3.1598 47.5304 -12.7666 11.3103
# 5 21.4135 9.9189 26.0910 -12.7666 54.0718 -11.2280
# 6 -23.1291 -24.7660 -11.3798 11.3103 -11.2280 34.4089
#
#
#
# Elastic Compliance Matrix: (Units=1/GPa)
#
#
# Indices 1 2 3 4 5 6 
#
# 1 0.017596 -0.000158 -0.004744 0.000040 -0.002721 0.009244
# 2 -0.000158 0.008717 -0.003158 -0.001099 0.000930 0.005788
# 3 -0.004744 -0.003158 0.016243 -0.001114 -0.005991 -0.001679
# 4 0.000040 -0.001099 -0.001114 0.024012 0.004847 -0.007444
# 5 -0.002721 0.000930 -0.005991 0.004847 0.024085 0.003124
# 6 0.009244 0.005788 -0.001679 -0.007444 0.003124 0.042354
#
#
# Mechanical properties :
#
#
# Convention : Reuss Voigt Hill
#
# Bulk Modulus (GPa) = 37.82660 55.94486 46.88573
# Shear Modulus (GPa) = 31.65800 41.61240 36.63520
#
# Velocity S-wave (km/s) = 3.57110 4.09423 3.84158
# Velocity P-wave (km/s) = 5.67815 6.69974 6.20999
#
# Compressibility (1/GPa) = 0.02643642
#
# Stress axis : x y z
#
# Youngs Moduli (GPa) = 56.83151 114.71754 61.56603
#
# Poissons Ratio (x) = 0.01811 0.29206
# Poissons Ratio (y) = 0.00897 0.19442
# Poissons Ratio (z) = 0.26960 0.36226
#
# Static dielectric constant tensor:
#      x y z
#    x 2.083260 -0.016880 -0.058330 
#    y -0.016880 1.916470 0.019620 
#    z -0.058330 0.019620 1.968430 
# 
# From -- ./inp_files/257631.got.cif
#   From: 2010.05.17/outbox.cif.g08.bks.cpg/sg2_129_cif.got.tgz:257631.got - 2010.06.03 11:33:40.
