data_PCOD9110807
_publ_section_title
;
Structure prediction by ZEFSAII (Michael W. Deem and Ramdas Pophale) SiO2 
 PCOD9110807
Probable space group: P -1
;
_chemical_formula_sum "Si O2"
_cell_formula_units_Z 16
_cell_length_a 10.868245
_cell_length_b 9.339040
_cell_length_c 15.441492
_cell_angle_alpha 140.852351
_cell_angle_beta 132.622890
_cell_angle_gamma 69.134072
_cell_volume 678.200089
_symmetry_space_group_name_H-M "P -1"
_symmetry_group_IT_number 2
_symmetry_cell_setting 'triclinic'
loop_
_space_group_symop_operation_xyz
x,y,z
-x,-y,-z
loop_
_atom_site_type_symbol
_atom_site_label
_atom_site_fract_x
_atom_site_fract_y
_atom_site_fract_z
Si Si1 0.586706 0.068902 0.981196
Si Si2 0.265831 0.182980 0.825446
Si Si3 0.617639 0.330147 0.790289
Si Si4 0.126968 0.539480 0.164367
Si Si5 0.141049 0.959653 0.176297
Si Si6 0.717853 0.001379 0.435829
Si Si7 0.939299 0.219232 0.312987
Si Si8 0.557599 0.776121 0.676537
O O1 0.475596 0.208252 0.945336
O O2 0.551259 0.826915 0.797567
O O3 0.794271 0.196077 0.157586
O O4 0.500000 0.000000 0.000000
O O5 0.214054 0.109745 0.666590
O O6 0.151738 0.968100 0.737799
O O7 0.280326 0.446075 0.991057
O O8 0.677669 0.423010 0.765266
O O9 0.708150 0.128340 0.749608
O O10 0.409686 0.209241 0.660255
O O11 0.142306 0.775728 0.338895
O O12 0.000000 0.500000 0.000000
O O13 0.031115 0.279896 0.041233
O O14 0.243577 0.089998 0.201720
O O15 0.085045 0.128213 0.295073
O O16 0.583037 0.120762 0.386177
O O17 0.000000 0.500000 0.500000
O O18 0.500000 0.500000 0.500000
#
# Coordination Sequence:
#
# PCOD9110807 Si02
#       8
#     2   2   2   2   2   2   2   2
#     4   9  22  41  59  92 125 171 212 257 315 374
#     4  10  21  42  66  92 131 167 216 268 313 384
#     4  10  20  42  66  93 125 165 216 263 321 381
#     4  10  21  41  61  92 132 160 208 260 325 381
#     4  10  23  40  64  92 131 165 214 267 323 377
#     4  10  22  38  64  96 125 168 214 263 320 385
#     4  11  24  41  63  92 132 174 214 262 328 384
#     4  10  23  39  64  93 127 168 220 263 313 382
#
# _framework density 23.591858999999999
#
# number of rings (size 3 to 8) (size 9 to 14) (size 15 to 20)
#    0.000    2.000    1.250    0.750    7.000    1.500 
#    6.750    2.500    0.000    0.000    0.000    0.000 
#    0.000    0.000    0.000    0.000    0.000    0.000 
#
# Total GULP energy -89361.821610 kJ/mol
# GULP energy per Si atom -5585.113851 kJ/mol
# Density = 2.353816 g / cm^3
# Si number density = 23.591859 Si / 1000 Ang^3
#
#
#
# Elastic Constant Matrix: (Units=GPa)
#
#
# Indices 1 2 3 4 5 6 
#
# 1 116.9759 23.0514 52.2772 12.7556 -30.4529 -0.4905
# 2 23.0514 49.4889 25.4945 2.3366 -1.6189 -13.0276
# 3 52.2772 25.4945 164.7426 14.5474 -36.8458 0.7877
# 4 12.7556 2.3366 14.5474 37.4477 -0.5794 -2.0864
# 5 -30.4529 -1.6189 -36.8458 -0.5794 44.4526 7.8627
# 6 -0.4905 -13.0276 0.7877 -2.0864 7.8627 36.0250
#
#
#
# Elastic Compliance Matrix: (Units=1/GPa)
#
#
# Indices 1 2 3 4 5 6 
#
# 1 0.012725 -0.006110 -0.000852 -0.003719 0.008462 -0.004080
# 2 -0.006110 0.028404 -0.004849 0.002744 -0.009344 0.012493
# 3 -0.000852 -0.004849 0.009014 -0.003004 0.007333 -0.003737
# 4 -0.003719 0.002744 -0.003004 0.029099 -0.005236 0.003835
# 5 0.008462 -0.009344 0.007333 -0.005236 0.036012 -0.011587
# 6 -0.004080 0.012493 -0.003737 0.003835 -0.011587 0.035054
#
#
# Mechanical properties :
#
#
# Convention : Reuss Voigt Hill
#
# Bulk Modulus (GPa) = 37.70525 59.20596 48.45560
# Shear Modulus (GPa) = 27.35708 38.94402 33.15055
#
# Velocity S-wave (km/s) = 3.40898 4.06734 3.75263
# Velocity P-wave (km/s) = 5.61354 6.87081 6.27375
#
# Compressibility (1/GPa) = 0.02652151
#
# Stress axis : x y z
#
# Youngs Moduli (GPa) = 78.58660 35.20677 110.93905
#
# Poissons Ratio (x) = 0.21511 0.09452
# Poissons Ratio (y) = 0.48015 0.53791
# Poissons Ratio (z) = 0.06696 0.17071
#
# Static dielectric constant tensor:
#      x y z
#    x 1.953190 0.023160 0.030500 
#    y 0.023160 1.981710 -0.016060 
#    z 0.030500 -0.016060 1.966990 
# 
# From -- ./inp_files/569026.got.cif
#   From: 2010.05.17/outbox.cif.g08.bks.cpg/sg2_285_cif.got.tgz:569026.got - 2010.06.03 11:33:40.
