data_PCOD9110623
_publ_section_title
;
Structure prediction by ZEFSAII (Michael W. Deem and Ramdas Pophale) SiO2 
 PCOD9110623
Probable space group: P -1
;
_chemical_formula_sum "Si O2"
_cell_formula_units_Z 16
_cell_length_a 7.773794
_cell_length_b 11.920720
_cell_length_c 10.820249
_cell_angle_alpha 62.889821
_cell_angle_beta 105.451158
_cell_angle_gamma 133.001329
_cell_volume 651.228853
_symmetry_space_group_name_H-M "P -1"
_symmetry_group_IT_number 2
_symmetry_cell_setting 'triclinic'
loop_
_space_group_symop_operation_xyz
x,y,z
-x,-y,-z
loop_
_atom_site_type_symbol
_atom_site_label
_atom_site_fract_x
_atom_site_fract_y
_atom_site_fract_z
Si Si1 0.566768 0.389870 0.185639
Si Si2 0.248486 0.665842 0.512131
Si Si3 0.920625 0.778557 0.683453
Si Si4 0.712790 0.073228 0.737224
Si Si5 0.020570 0.727609 0.067112
Si Si6 0.755638 0.269132 0.115184
Si Si7 0.040289 0.009967 0.857145
Si Si8 0.726315 0.819810 0.399822
O O1 0.684384 0.356907 0.330882
O O2 0.310713 0.308098 0.229720
O O3 0.627498 0.337123 0.101320
O O4 0.741721 0.588541 0.103743
O O5 0.268564 0.826010 0.425322
O O6 0.459492 0.718184 0.437476
O O7 0.000000 0.500000 0.500000
O O8 0.827581 0.755125 0.537155
O O9 0.043564 0.702316 0.774640
O O10 0.108518 0.981083 0.637262
O O11 0.860937 0.204079 0.811272
O O12 0.457349 0.929556 0.814897
O O13 0.823694 0.988728 0.769403
O O14 0.135005 0.673219 0.030162
O O15 0.070500 0.875168 0.922233
O O16 0.251753 0.178844 0.744583
O O17 0.000000 0.000000 0.000000
#
# Coordination Sequence:
#
# PCOD9110623 Si02
#       8
#     2   2   2   2   2   2   2   2
#     4  11  26  43  67 104 139 178 224 282 349 403
#     4  11  22  44  71  97 135 179 221 293 347 389
#     4  10  22  41  66  94 140 174 222 279 335 403
#     4  11  23  42  71 100 130 175 239 278 337 411
#     4  11  23  46  65  95 144 179 224 285 344 400
#     4  12  24  42  71 102 130 189 227 278 342 409
#     4  10  22  41  69  98 131 183 223 275 339 403
#     4  10  20  42  64  96 130 177 223 276 337 400
#
# _framework density 24.568936000000001
#
# number of rings (size 3 to 8) (size 9 to 14) (size 15 to 20)
#    0.000    1.250    3.750    1.500    1.750    2.000 
#    2.250    1.875    0.000    0.000    0.000    0.000 
#    0.000    0.000    0.000    0.000    0.000    0.000 
#
# Total GULP energy -89385.586361 kJ/mol
# GULP energy per Si atom -5586.599148 kJ/mol
# Density = 2.451302 g / cm^3
# Si number density = 24.568936 Si / 1000 Ang^3
#
#
#
# Elastic Constant Matrix: (Units=GPa)
#
#
# Indices 1 2 3 4 5 6 
#
# 1 101.0205 16.2246 18.4597 -8.9477 -19.3619 15.2240
# 2 16.2246 57.7214 -0.2105 -18.1057 -20.6089 21.3950
# 3 18.4597 -0.2105 97.3128 -8.9134 -16.3464 -3.9479
# 4 -8.9477 -18.1057 -8.9134 31.8710 8.9691 -11.3370
# 5 -19.3619 -20.6089 -16.3464 8.9691 54.6821 -7.1085
# 6 15.2240 21.3950 -3.9479 -11.3370 -7.1085 27.3708
#
#
#
# Elastic Compliance Matrix: (Units=1/GPa)
#
#
# Indices 1 2 3 4 5 6 
#
# 1 0.011714 -0.000159 -0.002039 -0.000313 0.002736 -0.006105
# 2 -0.000159 0.029123 0.001515 0.008761 0.007750 -0.016816
# 3 -0.002039 0.001515 0.011761 0.004167 0.003229 0.004211
# 4 -0.000313 0.008761 0.004167 0.041580 -0.000967 0.010898
# 5 0.002736 0.007750 0.003229 -0.000967 0.023104 -0.001514
# 6 -0.006105 -0.016816 0.004211 0.010898 -0.001514 0.057804
#
#
# Mechanical properties :
#
#
# Convention : Reuss Voigt Hill
#
# Bulk Modulus (GPa) = 19.51892 36.11135 27.81513
# Shear Modulus (GPa) = 25.83609 37.55685 31.69647
#
# Velocity S-wave (km/s) = 3.24632 3.91401 3.59570
# Velocity P-wave (km/s) = 4.69183 5.92924 5.34645
#
# Compressibility (1/GPa) = 0.05123234
#
# Stress axis : x y z
#
# Youngs Moduli (GPa) = 85.37009 34.33729 85.02642
#
# Poissons Ratio (x) = 0.00545 0.17338
# Poissons Ratio (y) = 0.01354 -0.12882
# Poissons Ratio (z) = 0.17408 -0.05202
#
# Static dielectric constant tensor:
#      x y z
#    x 2.020450 -0.063340 -0.014100 
#    y -0.063340 2.047680 0.026610 
#    z -0.014100 0.026610 1.974790 
# 
# From -- ./inp_files/397209.got.cif
#   From: 2010.05.17/outbox.cif.g08.bks.cpg/sg2_199_cif.got.tgz:397209.got - 2010.06.03 11:33:40.
