data_PCOD9110449
_publ_section_title
;
Structure prediction by ZEFSAII (Michael W. Deem and Ramdas Pophale) SiO2 
 PCOD9110449
Probable space group: P -1
;
_chemical_formula_sum "Si O2"
_cell_formula_units_Z 16
_cell_length_a 9.445874
_cell_length_b 7.698754
_cell_length_c 16.962507
_cell_angle_alpha 143.532680
_cell_angle_beta 96.773830
_cell_angle_gamma 82.492587
_cell_volume 726.712594
_symmetry_space_group_name_H-M "P -1"
_symmetry_group_IT_number 2
_symmetry_cell_setting 'triclinic'
loop_
_space_group_symop_operation_xyz
x,y,z
-x,-y,-z
loop_
_atom_site_type_symbol
_atom_site_label
_atom_site_fract_x
_atom_site_fract_y
_atom_site_fract_z
Si Si1 0.942619 0.876381 0.034756
Si Si2 0.659278 0.129878 0.713010
Si Si3 0.606671 0.792074 0.982397
Si Si4 0.864680 0.332458 0.457643
Si Si5 0.023972 0.730254 0.247296
Si Si6 0.876736 0.655688 0.738350
Si Si7 0.418341 0.078957 0.193735
Si Si8 0.581389 0.558378 0.445028
O O1 0.770895 0.879979 0.029864
O O2 0.997760 0.534668 0.911991
O O3 0.011702 0.095288 0.180612
O O4 0.000000 0.000000 0.000000
O O5 0.607360 0.466502 0.829795
O O6 0.829437 0.123357 0.711244
O O7 0.623438 0.016229 0.756095
O O8 0.593493 0.905320 0.565965
O O9 0.500000 0.000000 0.000000
O O10 0.526218 0.829671 0.074262
O O11 0.832446 0.469597 0.592137
O O12 0.738335 0.413885 0.418725
O O13 0.000000 0.500000 0.500000
O O14 0.901476 0.985783 0.337626
O O15 0.055955 0.567708 0.273701
O O16 0.733702 0.835755 0.825876
O O17 0.502056 0.376522 0.309136
O O18 0.500000 0.500000 0.500000
#
# Coordination Sequence:
#
# PCOD9110449 Si02
#       8
#     2   2   2   2   2   2   2   2
#     4   9  21  41  60  89 126 155 200 252 304 363
#     4  10  20  42  62  89 124 160 203 251 304 364
#     4  11  23  41  65  93 124 162 204 254 305 365
#     4  12  22  40  65  87 124 164 207 256 299 367
#     4  10  21  40  64  93 119 161 206 255 310 358
#     4  11  22  42  64  89 129 160 203 260 304 361
#     4  11  22  42  64  91 124 164 204 249 308 364
#     4  10  21  42  61  86 126 161 205 250 305 360
#
# _framework density 22.016954999999999
#
# number of rings (size 3 to 8) (size 9 to 14) (size 15 to 20)
#    0.000    1.500    3.750    3.000    1.750    0.000 
#   15.750    4.375    0.000    0.000    0.000    0.000 
#    0.000    0.000    0.000    0.000    0.000    0.000 
#
# Total GULP energy -89364.244560 kJ/mol
# GULP energy per Si atom -5585.265285 kJ/mol
# Density = 2.196684 g / cm^3
# Si number density = 22.016955 Si / 1000 Ang^3
#
#
#
# Elastic Constant Matrix: (Units=GPa)
#
#
# Indices 1 2 3 4 5 6 
#
# 1 114.7238 18.8446 56.5835 25.3971 0.2059 -14.4577
# 2 18.8446 45.9721 32.7664 14.5732 2.8993 -7.2823
# 3 56.5835 32.7664 131.2374 32.2063 8.1966 -19.0044
# 4 25.3971 14.5732 32.2063 34.3023 -0.1256 -6.6906
# 5 0.2059 2.8993 8.1966 -0.1256 42.5965 3.0516
# 6 -14.4577 -7.2823 -19.0044 -6.6906 3.0516 31.6949
#
#
#
# Elastic Compliance Matrix: (Units=1/GPa)
#
#
# Indices 1 2 3 4 5 6 
#
# 1 0.011881 -0.000514 -0.003528 -0.004851 0.000491 0.002115
# 2 -0.000514 0.027828 -0.004741 -0.006598 -0.001144 0.002034
# 3 -0.003528 -0.004741 0.012604 -0.006491 -0.002371 0.003717
# 4 -0.004851 -0.006598 -0.006491 0.041852 0.001770 0.001043
# 5 0.000491 -0.001144 -0.002371 0.001770 0.024258 -0.003423
# 6 0.002115 0.002034 0.003717 0.001043 -0.003423 0.035761
#
#
# Mechanical properties :
#
#
# Convention : Reuss Voigt Hill
#
# Bulk Modulus (GPa) = 28.77932 56.48026 42.62979
# Shear Modulus (GPa) = 27.27288 33.96799 30.62043
#
# Velocity S-wave (km/s) = 3.52337 3.93212 3.73334
# Velocity P-wave (km/s) = 5.44536 6.80619 6.16345
#
# Compressibility (1/GPa) = 0.03474718
#
# Stress axis : x y z
#
# Youngs Moduli (GPa) = 84.17072 35.93475 79.34045
#
# Poissons Ratio (x) = 0.01845 0.27992
# Poissons Ratio (y) = 0.04322 0.37617
# Poissons Ratio (z) = 0.29696 0.17038
#
# Static dielectric constant tensor:
#      x y z
#    x 1.692550 0.081500 -0.024790 
#    y 0.081500 1.836970 -0.062240 
#    z -0.024790 -0.062240 1.893700 
# 
# From -- ./inp_files/222847.got.cif
#   From: 2010.05.17/outbox.cif.g08.bks.cpg/sg2_112_cif.got.tgz:222847.got - 2010.06.03 11:33:40.
