data_PCOD9110784
_publ_section_title
;
Structure prediction by ZEFSAII (Michael W. Deem and Ramdas Pophale) SiO2 
 PCOD9110784
Probable space group: P -1
;
_chemical_formula_sum "Si O2"
_cell_formula_units_Z 14
_cell_length_a 22.928087
_cell_length_b 8.949256
_cell_length_c 9.188332
_cell_angle_alpha 108.785938
_cell_angle_beta 37.816406
_cell_angle_gamma 138.601673
_cell_volume 569.354063
_symmetry_space_group_name_H-M "P -1"
_symmetry_group_IT_number 2
_symmetry_cell_setting 'triclinic'
loop_
_space_group_symop_operation_xyz
x,y,z
-x,-y,-z
loop_
_atom_site_type_symbol
_atom_site_label
_atom_site_fract_x
_atom_site_fract_y
_atom_site_fract_z
Si Si1 0.634146 0.098926 0.466712
Si Si2 0.733965 0.220551 0.983650
Si Si3 0.031416 0.014312 0.111174
Si Si4 0.839404 0.145841 0.231599
Si Si5 0.680698 0.415976 0.718576
Si Si6 0.867916 0.676683 0.728093
Si Si7 0.643118 0.847640 0.817365
O O1 0.746756 0.241329 0.138856
O O2 0.659987 0.963050 0.446772
O O3 0.712036 0.324538 0.509522
O O4 0.445723 0.921557 0.739139
O O5 0.901146 0.542071 0.668494
O O6 0.697245 0.998025 0.913442
O O7 0.169218 0.308248 0.031476
O O8 0.828329 0.758024 0.492369
O O9 0.096107 0.928080 0.984518
O O10 0.000000 0.000000 0.000000
O O11 0.798441 0.050420 0.452439
O O12 0.000000 0.500000 0.000000
O O13 0.725117 0.448567 0.807608
O O14 0.477529 0.183092 0.024589
O O15 0.000000 0.000000 0.500000
O O16 0.500000 0.500000 0.000000
#
# Coordination Sequence:
#
# PCOD9110784 Si02
#       7
#     2   2   2   2   2   2   2
#     4  10  21  41  70  99 133 182 227 288 346 410
#     4  10  22  42  71 100 136 179 239 278 346 415
#     4  11  23  41  66  96 142 182 229 282 352 411
#     4  12  25  42  69 103 141 179 229 287 350 405
#     4  10  20  42  66  91 135 179 234 273 345 413
#     4  10  22  37  64  98 126 177 230 278 335 410
#     4  11  25  44  70  99 138 184 232 286 344 413
#
# _framework density 24.589269000000002
#
# number of rings (size 3 to 8) (size 9 to 14) (size 15 to 20)
#    0.000    1.429    1.429    3.429    2.000    5.714 
#    0.000    4.286    0.000    0.000    0.000    0.000 
#    0.000    0.000    0.000    0.000    0.000    0.000 
#
# Total GULP energy -77977.051606 kJ/mol
# GULP energy per Si atom -5569.789400 kJ/mol
# Density = 2.453330 g / cm^3
# Si number density = 24.589269 Si / 1000 Ang^3
#
#
#
# Elastic Constant Matrix: (Units=GPa)
#
#
# Indices 1 2 3 4 5 6 
#
# 1 117.2730 37.6832 17.7701 13.9700 19.1390 27.7652
# 2 37.6832 169.4248 19.4317 5.9484 13.8981 13.7290
# 3 17.7701 19.4317 72.5922 -6.2202 15.5779 10.3107
# 4 13.9700 5.9484 -6.2202 21.7270 -3.2373 17.2781
# 5 19.1390 13.8981 15.5779 -3.2373 59.3762 3.4003
# 6 27.7652 13.7290 10.3107 17.2781 3.4003 45.3637
#
#
#
# Elastic Compliance Matrix: (Units=1/GPa)
#
#
# Indices 1 2 3 4 5 6 
#
# 1 0.011240 -0.001605 -0.001479 -0.004288 -0.002852 -0.004211
# 2 -0.001605 0.006518 -0.001244 -0.000999 -0.000721 -0.000273
# 3 -0.001479 -0.001244 0.016911 0.010912 -0.002701 -0.006516
# 4 -0.004288 -0.000999 0.010912 0.075697 0.004525 -0.028724
# 5 -0.002852 -0.000721 -0.002701 0.004525 0.018917 -0.000564
# 6 -0.004211 -0.000273 -0.006516 -0.028724 -0.000564 0.037168
#
#
# Mechanical properties :
#
#
# Convention : Reuss Voigt Hill
#
# Bulk Modulus (GPa) = 38.44225 56.56223 47.50224
# Shear Modulus (GPa) = 27.20678 44.25370 35.73024
#
# Velocity S-wave (km/s) = 3.32994 4.24691 3.81607
# Velocity P-wave (km/s) = 5.51837 6.86302 6.22710
#
# Compressibility (1/GPa) = 0.02601305
#
# Stress axis : x y z
#
# Youngs Moduli (GPa) = 88.96785 153.41482 59.13411
#
# Poissons Ratio (x) = 0.24617 0.08747
# Poissons Ratio (y) = 0.14276 0.07357
# Poissons Ratio (z) = 0.13160 0.19087
#
# Static dielectric constant tensor:
#      x y z
#    x 1.961470 -0.002420 -0.016910 
#    y -0.002420 2.013780 -0.090080 
#    z -0.016910 -0.090080 2.115690 
# 
# From -- ./inp_files/243641.got.cif
#   From: 2010.05.17/outbox.cif.g08.bks.cpg/sg2_122_cif.got.tgz:243641.got - 2010.06.03 11:33:40.
