data_PCOD9110229
_publ_section_title
;
Structure prediction by ZEFSAII (Michael W. Deem and Ramdas Pophale) SiO2 
 PCOD9110229
Probable space group: P -1
;
_chemical_formula_sum "Si O2"
_cell_formula_units_Z 14
_cell_length_a 5.441848
_cell_length_b 22.840136
_cell_length_c 13.033403
_cell_angle_alpha 23.884142
_cell_angle_beta 92.508347
_cell_angle_gamma 80.270079
_cell_volume 561.007075
_symmetry_space_group_name_H-M "P -1"
_symmetry_group_IT_number 2
_symmetry_cell_setting 'triclinic'
loop_
_space_group_symop_operation_xyz
x,y,z
-x,-y,-z
loop_
_atom_site_type_symbol
_atom_site_label
_atom_site_fract_x
_atom_site_fract_y
_atom_site_fract_z
Si Si1 0.224580 0.094963 0.769334
Si Si2 0.153359 0.605892 0.321509
Si Si3 0.960083 0.077703 0.094251
Si Si4 0.588744 0.804977 0.596983
Si Si5 0.133237 0.543587 0.731080
Si Si6 0.867800 0.942235 0.499241
Si Si7 0.259873 0.589469 0.125627
O O1 0.270320 0.160604 0.554707
O O2 0.978258 0.268235 0.536254
O O3 0.152631 0.953402 0.962324
O O4 0.500000 0.000000 0.000000
O O5 0.500000 0.500000 0.500000
O O6 0.103181 0.670449 0.100243
O O7 0.000000 0.500000 0.500000
O O8 0.024262 0.756732 0.158695
O O9 0.262086 0.911540 0.386405
O O10 0.780018 0.079688 0.187115
O O11 0.615534 0.897079 0.554195
O O12 0.728118 0.607310 0.939545
O O13 0.400126 0.488553 0.746602
O O14 0.855894 0.535173 0.702601
O O15 0.000000 0.000000 0.500000
O O16 0.124892 0.748968 0.791924
#
# Coordination Sequence:
#
# PCOD9110229 Si02
#       7
#     2   2   2   2   2   2   2
#     4  11  28  48  74 105 154 207 257 316 375 462
#     4  12  29  47  72 108 158 201 245 307 377 467
#     4  11  25  46  77 108 146 198 257 311 383 446
#     4  10  24  43  74 114 147 197 251 321 381 450
#     4  11  25  47  77 112 152 192 257 311 383 446
#     4  10  20  41  71 110 149 182 245 314 380 443
#     4  11  24  45  74 111 144 199 242 311 380 450
#
# _framework density 24.955123
#
# number of rings (size 3 to 8) (size 9 to 14) (size 15 to 20)
#    0.000    1.143    2.857    1.286    8.000    4.000 
#    0.000    0.000    0.000    0.000    0.000    0.000 
#    0.000    0.000    0.000    0.000    0.000    0.000 
#
# Total GULP energy -78127.067965 kJ/mol
# GULP energy per Si atom -5580.504855 kJ/mol
# Density = 2.489832 g / cm^3
# Si number density = 24.955123 Si / 1000 Ang^3
#
#
#
# Elastic Constant Matrix: (Units=GPa)
#
#
# Indices 1 2 3 4 5 6 
#
# 1 115.6982 41.1223 47.6780 -9.9162 -17.3174 18.8401
# 2 41.1223 126.3795 58.5525 -13.7079 -15.6892 31.5606
# 3 47.6780 58.5525 133.2084 -10.3550 -24.2150 13.5369
# 4 -9.9162 -13.7079 -10.3550 40.7479 11.9074 -5.4492
# 5 -17.3174 -15.6892 -24.2150 11.9074 36.1569 6.6461
# 6 18.8401 31.5606 13.5369 -5.4492 6.6461 47.5809
#
#
#
# Elastic Compliance Matrix: (Units=1/GPa)
#
#
# Indices 1 2 3 4 5 6 
#
# 1 0.011216 -0.001152 -0.002445 0.000132 0.003835 -0.003502
# 2 -0.001152 0.012198 -0.003562 0.001022 0.003299 -0.006965
# 3 -0.002445 -0.003562 0.010828 -0.000505 0.004789 -0.000476
# 4 0.000132 0.001022 -0.000505 0.028208 -0.009860 0.004021
# 5 0.003835 0.003299 0.004789 -0.009860 0.039534 -0.011720
# 6 -0.003502 -0.006965 -0.000476 0.004021 -0.011720 0.029256
#
#
# Mechanical properties :
#
#
# Convention : Reuss Voigt Hill
#
# Bulk Modulus (GPa) = 50.19343 74.44352 62.31848
# Shear Modulus (GPa) = 32.85197 40.09269 36.47233
#
# Velocity S-wave (km/s) = 3.63222 4.01258 3.82713
# Velocity P-wave (km/s) = 6.14392 7.16683 6.67500
#
# Compressibility (1/GPa) = 0.01992293
#
# Stress axis : x y z
#
# Youngs Moduli (GPa) = 89.16181 81.98274 92.35719
#
# Poissons Ratio (x) = 0.09443 0.22579
# Poissons Ratio (y) = 0.10270 0.32901
# Poissons Ratio (z) = 0.21798 0.29205
#
# Static dielectric constant tensor:
#      x y z
#    x 1.995260 0.094300 0.161820 
#    y 0.094300 1.981830 -0.148450 
#    z 0.161820 -0.148450 1.632230 
# 
# From -- ./inp_files/93189.got.cif
#   From: 2010.05.17/outbox.cif.g08.bks.cpg/sg2_47_cif.got.tgz:93189.got - 2010.06.03 11:33:40.
