data_PCOD9110972
_publ_section_title
;
Structure prediction by ZEFSAII (Michael W. Deem and Ramdas Pophale) SiO2 
 PCOD9110972
Probable space group: P -1
;
_chemical_formula_sum "Si O2"
_cell_formula_units_Z 15
_cell_length_a 8.214958
_cell_length_b 15.071713
_cell_length_c 8.504685
_cell_angle_alpha 62.099636
_cell_angle_beta 121.012898
_cell_angle_gamma 78.060944
_cell_volume 643.126065
_symmetry_space_group_name_H-M "P -1"
_symmetry_group_IT_number 2
_symmetry_cell_setting 'triclinic'
loop_
_space_group_symop_operation_xyz
x,y,z
-x,-y,-z
loop_
_atom_site_type_symbol
_atom_site_label
_atom_site_fract_x
_atom_site_fract_y
_atom_site_fract_z
Si Si1 0.191433 0.461991 0.763525
Si Si2 0.280223 0.203439 0.325459
Si Si3 0.049404 0.828348 0.612934
Si Si4 0.723362 0.085798 0.115951
Si Si5 0.000000 0.500000 0.000000
Si Si6 0.795418 0.327911 0.461682
Si Si7 0.718164 0.789245 0.026855
Si Si8 0.739354 0.131519 0.744216
O O1 0.000000 0.500000 0.500000
O O2 0.316568 0.526054 0.715373
O O3 0.075291 0.509183 0.840348
O O4 0.329137 0.313718 0.949784
O O5 0.162010 0.164997 0.418892
O O6 0.151133 0.349674 0.175250
O O7 0.226025 0.183795 0.137887
O O8 0.560575 0.129530 0.542461
O O9 0.210911 0.706471 0.691603
O O10 0.179229 0.850264 0.792439
O O11 0.939728 0.940999 0.340176
O O12 0.513030 0.100633 0.094558
O O13 0.635378 0.147993 0.852688
O O14 0.718605 0.256257 0.586409
O O15 0.062502 0.263790 0.705337
O O16 0.000000 0.000000 0.000000
#
# Coordination Sequence:
#
# PCOD9110972 Si02
#       8
#     2   2   2   2   1   2   2   2
#     4   9  20  39  68  95 133 166 222 274 330 398
#     4  11  24  43  68  98 130 175 221 270 339 388
#     4  11  23  41  68  92 129 175 215 277 327 396
#     4  11  25  42  62  98 133 167 227 271 330 397
#     4  10  20  42  68 100 128 172 222 278 322 408
#     4  11  21  43  66  96 130 173 221 267 335 389
#     4  10  23  41  68  97 129 170 217 276 334 395
#     4  12  26  42  65  97 134 175 223 272 324 401
#
# _framework density 23.323578000000001
#
# number of rings (size 3 to 8) (size 9 to 14) (size 15 to 20)
#    0.000    1.333    2.667    2.400    5.600    1.600 
#    2.400    2.667    0.000    0.000    0.000    0.000 
#    0.000    0.000    0.000    0.000    0.000    0.000 
#
# Total GULP energy -83510.234691 kJ/mol
# GULP energy per Si atom -5567.348979 kJ/mol
# Density = 2.327049 g / cm^3
# Si number density = 23.323578 Si / 1000 Ang^3
#
#
#
# Elastic Constant Matrix: (Units=GPa)
#
#
# Indices 1 2 3 4 5 6 
#
# 1 62.0847 1.3714 23.8920 -4.6907 -20.5898 4.8925
# 2 1.3714 47.5804 19.0089 -2.2369 -12.3271 5.1840
# 3 23.8920 19.0089 75.2171 8.3917 -17.4294 1.8264
# 4 -4.6907 -2.2369 8.3917 19.2897 3.5074 0.6749
# 5 -20.5898 -12.3271 -17.4294 3.5074 44.5578 3.2376
# 6 4.8925 5.1840 1.8264 0.6749 3.2376 33.5233
#
#
#
# Elastic Compliance Matrix: (Units=1/GPa)
#
#
# Indices 1 2 3 4 5 6 
#
# 1 0.022710 0.005451 -0.007299 0.007883 0.008874 -0.004775
# 2 0.005451 0.026484 -0.007458 0.006590 0.006793 -0.005273
# 3 -0.007299 -0.007458 0.019477 -0.011701 0.003024 0.001101
# 4 0.007883 0.006590 -0.011701 0.060367 -0.003689 -0.002391
# 5 0.008874 0.006793 0.003024 -0.003689 0.030286 -0.005361
# 6 -0.004775 -0.005273 0.001101 -0.002391 -0.005361 0.031848
#
#
# Mechanical properties :
#
#
# Convention : Reuss Voigt Hill
#
# Bulk Modulus (GPa) = 19.97551 30.38074 25.17812
# Shear Modulus (GPa) = 22.07802 28.84815 25.46309
#
# Velocity S-wave (km/s) = 3.08002 3.52073 3.30772
# Velocity P-wave (km/s) = 4.60780 5.43888 5.04050
#
# Compressibility (1/GPa) = 0.05006131
#
# Stress axis : x y z
#
# Youngs Moduli (GPa) = 44.03302 37.75905 51.34155
#
# Poissons Ratio (x) = -0.20584 0.37472
# Poissons Ratio (y) = -0.24004 0.38289
# Poissons Ratio (z) = 0.32138 0.28159
#
# Static dielectric constant tensor:
#      x y z
#    x 1.895840 0.014630 -0.027800 
#    y 0.014630 1.855840 -0.022130 
#    z -0.027800 -0.022130 1.849490 
# 
# From -- ./inp_files/179409.got.cif
#   From: 2010.05.17/outbox.cif.g08.bks.cpg/sg2_90_cif.got.tgz:179409.got - 2010.06.03 11:33:40.
