data_PCOD9110144
_publ_section_title
;
Structure prediction by ZEFSAII (Michael W. Deem and Ramdas Pophale) SiO2 
 PCOD9110144
Probable space group: P -1
;
_chemical_formula_sum "Si O2"
_cell_formula_units_Z 14
_cell_length_a 20.330262
_cell_length_b 14.518694
_cell_length_c 11.420705
_cell_angle_alpha 42.766965
_cell_angle_beta 33.992522
_cell_angle_gamma 19.290870
_cell_volume 600.843490
_symmetry_space_group_name_H-M "P -1"
_symmetry_group_IT_number 2
_symmetry_cell_setting 'triclinic'
loop_
_space_group_symop_operation_xyz
x,y,z
-x,-y,-z
loop_
_atom_site_type_symbol
_atom_site_label
_atom_site_fract_x
_atom_site_fract_y
_atom_site_fract_z
Si Si1 0.311497 0.350461 0.846398
Si Si2 0.223029 0.881229 0.293840
Si Si3 0.785597 0.853084 0.778296
Si Si4 0.256013 0.707143 0.962089
Si Si5 0.343237 0.034693 0.512464
Si Si6 0.860920 0.481056 0.652600
Si Si7 0.211710 0.987573 0.951188
O O1 0.515612 0.143578 0.842314
O O2 0.456726 0.235538 0.618585
O O3 0.210241 0.299771 0.028576
O O4 0.082263 0.677051 0.917332
O O5 0.164010 0.069178 0.287578
O O6 0.486611 0.544398 0.256581
O O7 0.000000 0.000000 0.500000
O O8 0.278069 0.884826 0.080895
O O9 0.984793 0.647515 0.572066
O O10 0.229167 0.579100 0.157671
O O11 0.264451 0.802817 0.967063
O O12 0.000000 0.000000 0.000000
O O13 0.352561 0.187289 0.338367
O O14 0.349711 0.969047 0.694735
O O15 0.062007 0.290158 0.639892
#
# Coordination Sequence:
#
# PCOD9110144 Si02
#       7
#     2   2   2   2   2   2   2
#     4  10  22  42  75 106 139 186 252 309 352 422
#     4  12  29  47  69 105 158 198 232 299 382 448
#     4  10  21  43  71 105 142 192 247 299 358 434
#     4  12  25  46  75 102 139 195 259 297 351 435
#     4  10  21  40  71 106 141 180 241 308 361 423
#     4  10  20  41  70 103 138 183 247 306 351 416
#     4  12  25  44  69 105 147 187 236 300 375 440
#
# _framework density 23.300577000000001
#
# number of rings (size 3 to 8) (size 9 to 14) (size 15 to 20)
#    0.000    1.143    2.857    3.000    4.000    0.571 
#    0.000    5.000    0.000    0.000    0.000    0.000 
#    0.000    0.000    0.000    0.000    0.000    0.000 
#
# Total GULP energy -78357.492152 kJ/mol
# GULP energy per Si atom -5596.963725 kJ/mol
# Density = 2.324754 g / cm^3
# Si number density = 23.300577 Si / 1000 Ang^3
#
#
#
# Elastic Constant Matrix: (Units=GPa)
#
#
# Indices 1 2 3 4 5 6 
#
# 1 77.3211 10.8091 14.3381 -8.2233 1.5410 20.7691
# 2 10.8091 57.6429 33.5231 -6.1352 -13.1981 22.5027
# 3 14.3381 33.5231 100.6915 -14.8593 -7.5073 -4.2758
# 4 -8.2233 -6.1352 -14.8593 30.2799 1.2652 -3.7314
# 5 1.5410 -13.1981 -7.5073 1.2652 36.5300 -9.8514
# 6 20.7691 22.5027 -4.2758 -3.7314 -9.8514 38.9992
#
#
#
# Elastic Compliance Matrix: (Units=1/GPa)
#
#
# Indices 1 2 3 4 5 6 
#
# 1 0.016685 0.003155 -0.003915 0.001938 -0.003636 -0.011868
# 2 0.003155 0.032775 -0.012177 -0.001232 0.003545 -0.021149
# 3 -0.003915 -0.012177 0.016052 0.005731 0.002088 0.011947
# 4 0.001938 -0.001232 0.005731 0.036579 0.000441 0.003918
# 5 -0.003636 0.003545 0.002088 0.000441 0.031406 0.008095
# 6 -0.011868 -0.021149 0.011947 0.003918 0.008095 0.047895
#
#
# Mechanical properties :
#
#
# Convention : Reuss Voigt Hill
#
# Bulk Modulus (GPa) = 25.22854 39.22180 32.22517
# Shear Modulus (GPa) = 22.67819 32.96083 27.81951
#
# Velocity S-wave (km/s) = 3.12314 3.76519 3.45909
# Velocity P-wave (km/s) = 4.88429 5.98094 5.46022
#
# Compressibility (1/GPa) = 0.03963765
#
# Stress axis : x y z
#
# Youngs Moduli (GPa) = 59.93557 30.51137 62.29927
#
# Poissons Ratio (x) = -0.09627 0.24392
# Poissons Ratio (y) = -0.18911 0.75859
# Poissons Ratio (z) = 0.23467 0.37152
#
# Static dielectric constant tensor:
#      x y z
#    x 1.893770 -0.053930 -0.021420 
#    y -0.053930 2.000860 -0.027890 
#    z -0.021420 -0.027890 1.886620 
# 
# From -- ./inp_files/188603.got.cif
#   From: 2010.05.17/outbox.cif.g08.bks.cpg/sg2_95_cif.got.tgz:188603.got - 2010.06.03 11:33:40.
