data_PCOD9110343
_publ_section_title
;
Structure prediction by ZEFSAII (Michael W. Deem and Ramdas Pophale) SiO2 
 PCOD9110343
Probable space group: P -1
;
_chemical_formula_sum "Si O2"
_cell_formula_units_Z 16
_cell_length_a 7.670966
_cell_length_b 18.467497
_cell_length_c 15.623545
_cell_angle_alpha 24.965804
_cell_angle_beta 63.125776
_cell_angle_gamma 52.794513
_cell_volume 712.970462
_symmetry_space_group_name_H-M "P -1"
_symmetry_group_IT_number 2
_symmetry_cell_setting 'triclinic'
loop_
_space_group_symop_operation_xyz
x,y,z
-x,-y,-z
loop_
_atom_site_type_symbol
_atom_site_label
_atom_site_fract_x
_atom_site_fract_y
_atom_site_fract_z
Si Si1 0.094503 0.458463 0.306875
Si Si2 0.207212 0.983345 0.420620
Si Si3 0.626855 0.523409 0.278876
Si Si4 0.406091 0.352991 0.193250
Si Si5 0.433869 0.894749 0.036503
Si Si6 0.765567 0.644918 0.947214
Si Si7 0.871780 0.701175 0.252062
Si Si8 0.460414 0.807324 0.397729
O O1 0.185420 0.464390 0.185643
O O2 0.309444 0.283230 0.498602
O O3 0.871347 0.441585 0.359659
O O4 0.012862 0.642327 0.194891
O O5 0.421624 0.835172 0.588435
O O6 0.243971 0.888452 0.421336
O O7 0.204893 0.186849 0.195380
O O8 0.000000 0.000000 0.500000
O O9 0.540042 0.369181 0.464516
O O10 0.446399 0.733618 0.139142
O O11 0.674412 0.556762 0.133765
O O12 0.395351 0.276193 0.184191
O O13 0.500000 0.500000 0.000000
O O14 0.193418 0.086292 0.917008
O O15 0.550116 0.007876 0.845194
O O16 0.615592 0.761689 0.212974
O O17 0.000000 0.500000 0.000000
O O18 0.000000 0.500000 0.500000
#
# Coordination Sequence:
#
# PCOD9110343 Si02
#       8
#     2   2   2   2   2   2   2   2
#     4  10  22  41  69  93 135 178 218 284 335 396
#     4  11  24  38  59  94 132 175 224 275 332 398
#     4  11  23  42  68 100 136 180 224 280 340 407
#     4  11  23  39  63  96 127 177 226 268 336 402
#     4  10  22  42  70 102 135 179 225 284 348 400
#     4  12  21  39  61  90 134 175 218 273 333 395
#     4  10  20  41  74  97 138 183 218 286 352 398
#     4  11  22  44  67  97 136 175 228 280 336 407
#
# _framework density 22.441323000000001
#
# number of rings (size 3 to 8) (size 9 to 14) (size 15 to 20)
#    0.000    1.250    3.750    3.375    0.000    0.000 
#    0.000    8.750    0.000    0.000    0.000    0.000 
#    0.000    0.000    0.000    0.000    0.000    0.000 
#
# Total GULP energy -89218.795798 kJ/mol
# GULP energy per Si atom -5576.174737 kJ/mol
# Density = 2.239025 g / cm^3
# Si number density = 22.441323 Si / 1000 Ang^3
#
#
#
# Elastic Constant Matrix: (Units=GPa)
#
#
# Indices 1 2 3 4 5 6 
#
# 1 63.2989 23.9429 42.9497 -0.9282 3.8243 11.6389
# 2 23.9429 142.2914 41.9290 -12.0909 0.2652 18.4461
# 3 42.9497 41.9290 132.4018 -8.6552 -0.1681 10.6816
# 4 -0.9282 -12.0909 -8.6552 35.8338 -0.2633 -5.3743
# 5 3.8243 0.2652 -0.1681 -0.2633 37.9785 -11.7365
# 6 11.6389 18.4461 10.6816 -5.3743 -11.7365 27.8455
#
#
#
# Elastic Compliance Matrix: (Units=1/GPa)
#
#
# Indices 1 2 3 4 5 6 
#
# 1 0.022431 -0.000936 -0.006440 -0.002667 -0.005060 -0.008933
# 2 -0.000936 0.008511 -0.001897 0.001657 -0.001449 -0.004810
# 3 -0.006440 -0.001897 0.010301 0.001800 0.000950 0.000745
# 4 -0.002667 0.001657 0.001800 0.029757 0.002343 0.006057
# 5 -0.005060 -0.001449 0.000950 0.002343 0.032018 0.016657
# 6 -0.008933 -0.004810 0.000745 0.006057 0.016657 0.050737
#
#
# Mechanical properties :
#
#
# Convention : Reuss Voigt Hill
#
# Bulk Modulus (GPa) = 44.05810 61.73724 52.89767
# Shear Modulus (GPa) = 27.79814 35.60960 31.70387
#
# Velocity S-wave (km/s) = 3.52334 3.98777 3.76273
# Velocity P-wave (km/s) = 6.01889 6.98379 6.51922
#
# Compressibility (1/GPa) = 0.02269730
#
# Stress axis : x y z
#
# Youngs Moduli (GPa) = 44.58155 117.48857 97.07363
#
# Poissons Ratio (x) = 0.10996 0.62516
# Poissons Ratio (y) = 0.04172 0.18417
# Poissons Ratio (z) = 0.28711 0.22291
#
# Static dielectric constant tensor:
#      x y z
#    x 1.899670 0.047830 0.093030 
#    y 0.047830 1.995810 -0.000900 
#    z 0.093030 -0.000900 1.658180 
# 
# From -- ./inp_files/562540.got.cif
#   From: 2010.05.17/outbox.cif.g08.bks.cpg/sg2_282_cif.got.tgz:562540.got - 2010.06.03 11:33:40.
