data_PCOD9110100
_publ_section_title
;
Structure prediction by ZEFSAII (Michael W. Deem and Ramdas Pophale) SiO2 
 PCOD9110100
Probable space group: P -1
;
_chemical_formula_sum "Si O2"
_cell_formula_units_Z 16
_cell_length_a 16.064294
_cell_length_b 8.735077
_cell_length_c 8.591693
_cell_angle_alpha 37.494547
_cell_angle_beta 104.626639
_cell_angle_gamma 99.569792
_cell_volume 708.864657
_symmetry_space_group_name_H-M "P -1"
_symmetry_group_IT_number 2
_symmetry_cell_setting 'triclinic'
loop_
_space_group_symop_operation_xyz
x,y,z
-x,-y,-z
loop_
_atom_site_type_symbol
_atom_site_label
_atom_site_fract_x
_atom_site_fract_y
_atom_site_fract_z
Si Si1 0.631064 0.931440 0.689713
Si Si2 0.815474 0.617413 0.999077
Si Si3 0.569566 0.821290 0.089048
Si Si4 0.302534 0.776866 0.739469
Si Si5 0.012559 0.291224 0.814163
Si Si6 0.460247 0.458842 0.184905
Si Si7 0.250238 0.098499 0.729116
Si Si8 0.845457 0.420107 0.824742
O O1 0.571842 0.819551 0.616322
O O2 0.647937 0.202751 0.415286
O O3 0.726474 0.788304 0.847536
O O4 0.586900 0.909976 0.849850
O O5 0.784546 0.344766 0.250540
O O6 0.893007 0.698011 0.074775
O O7 0.842002 0.557584 0.880917
O O8 0.524248 0.556129 0.264189
O O9 0.661616 0.838647 0.196900
O O10 0.500000 0.000000 0.000000
O O11 0.276027 0.023582 0.624927
O O12 0.368624 0.622630 0.009717
O O13 0.941110 0.357004 0.859484
O O14 0.000000 0.500000 0.500000
O O15 0.000000 0.000000 0.000000
O O16 0.500000 0.500000 0.000000
O O17 0.194207 0.361815 0.485179
O O18 0.204972 0.844451 0.974647
#
# Coordination Sequence:
#
# PCOD9110100 Si02
#       8
#     2   2   2   2   2   2   2   2
#     4  10  22  41  69  91 134 184 235 283 345 421
#     4  10  24  45  73 101 135 188 230 280 346 422
#     4  11  23  40  63  99 142 180 237 295 358 404
#     4  10  20  41  69  96 132 181 241 283 342 421
#     4  12  29  47  74 113 149 176 230 292 351 422
#     4   9  20  40  58  89 132 175 236 284 340 406
#     4  11  24  45  70 105 141 186 236 293 355 404
#     4  11  25  49  75 100 145 189 235 283 347 430
#
# _framework density 22.571306
#
# number of rings (size 3 to 8) (size 9 to 14) (size 15 to 20)
#    0.000    1.500    2.500    1.125    5.250    2.000 
#    6.750    4.375    0.000    0.000    0.000    0.000 
#    0.000    0.000    0.000    0.000    0.000    0.000 
#
# Total GULP energy -89229.717807 kJ/mol
# GULP energy per Si atom -5576.857363 kJ/mol
# Density = 2.251993 g / cm^3
# Si number density = 22.571306 Si / 1000 Ang^3
#
#
#
# Elastic Constant Matrix: (Units=GPa)
#
#
# Indices 1 2 3 4 5 6 
#
# 1 128.1679 70.0811 42.8754 4.3284 1.4077 3.0187
# 2 70.0811 146.8665 46.1850 -0.2472 6.5801 35.9573
# 3 42.8754 46.1850 83.3342 -6.1973 3.4676 9.3996
# 4 4.3284 -0.2472 -6.1973 10.2582 -4.5408 5.4417
# 5 1.4077 6.5801 3.4676 -4.5408 38.1141 1.1355
# 6 3.0187 35.9573 9.3996 5.4417 1.1355 56.3534
#
#
#
# Elastic Compliance Matrix: (Units=1/GPa)
#
#
# Indices 1 2 3 4 5 6 
#
# 1 0.012858 -0.005845 -0.004750 -0.011285 -0.000525 0.004933
# 2 -0.005845 0.012301 -0.002562 0.004838 -0.000873 -0.007558
# 3 -0.004750 -0.002562 0.017124 0.013865 0.000781 -0.002322
# 4 -0.011285 0.004838 0.013865 0.126014 0.013847 -0.017243
# 5 -0.000525 -0.000873 0.000781 0.013847 0.028029 -0.001447
# 6 0.004933 -0.007558 -0.002322 -0.017243 -0.001447 0.024385
#
#
# Mechanical properties :
#
#
# Convention : Reuss Voigt Hill
#
# Bulk Modulus (GPa) = 62.61724 75.18350 68.90037
# Shear Modulus (GPa) = 19.81393 34.22692 27.02042
#
# Velocity S-wave (km/s) = 2.96605 3.89831 3.46369
# Velocity P-wave (km/s) = 6.28746 7.32421 6.82555
#
# Compressibility (1/GPa) = 0.01597004
#
# Stress axis : x y z
#
# Youngs Moduli (GPa) = 77.77269 81.29159 58.39819
#
# Poissons Ratio (x) = 0.47516 0.27738
# Poissons Ratio (y) = 0.45459 0.14959
# Poissons Ratio (z) = 0.36941 0.20824
#
# Static dielectric constant tensor:
#      x y z
#    x 1.861860 -0.014510 -0.016050 
#    y -0.014510 1.853670 -0.064340 
#    z -0.016050 -0.064340 1.976350 
# 
# From -- ./inp_files/297327.got.cif
#   From: 2010.05.17/outbox.cif.g08.bks.cpg/sg2_149_cif.got.tgz:297327.got - 2010.06.03 11:33:40.
