data_PCOD9110002
_publ_section_title
;
Structure prediction by ZEFSAII (Michael W. Deem and Ramdas Pophale) SiO2 
 PCOD9110002
Probable space group: P -1
;
_chemical_formula_sum "Si O2"
_cell_formula_units_Z 16
_cell_length_a 20.879861
_cell_length_b 6.874642
_cell_length_c 13.675591
_cell_angle_alpha 91.973977
_cell_angle_beta 159.141762
_cell_angle_gamma 84.255751
_cell_volume 685.696162
_symmetry_space_group_name_H-M "P -1"
_symmetry_group_IT_number 2
_symmetry_cell_setting 'triclinic'
loop_
_space_group_symop_operation_xyz
x,y,z
-x,-y,-z
loop_
_atom_site_type_symbol
_atom_site_label
_atom_site_fract_x
_atom_site_fract_y
_atom_site_fract_z
Si Si1 0.714714 0.493429 0.785885
Si Si2 0.830314 0.149203 0.083286
Si Si3 0.024115 0.218238 0.845577
Si Si4 0.500992 0.649506 0.152427
Si Si5 0.237162 0.460062 0.652877
Si Si6 0.734271 0.296721 0.606568
Si Si7 0.077458 0.272403 0.580191
Si Si8 0.574869 0.964759 0.824729
O O1 0.500000 0.500000 0.500000
O O2 0.803689 0.366934 0.003361
O O3 0.783063 0.367090 0.784030
O O4 0.786998 0.697606 0.876543
O O5 0.635329 0.080923 0.820012
O O6 0.918249 0.158141 0.316990
O O7 0.941184 0.990382 0.164111
O O8 0.903705 0.379340 0.605013
O O9 0.907423 0.221491 0.780101
O O10 0.613447 0.635519 0.213087
O O11 0.613028 0.489497 0.384113
O O12 0.469005 0.866909 0.153072
O O13 0.319833 0.575664 0.858874
O O14 0.171548 0.281081 0.609129
O O15 0.597399 0.143539 0.426687
O O16 0.000000 0.500000 0.500000
O O17 0.237790 0.187613 0.882833
#
# Coordination Sequence:
#
# PCOD9110002 Si02
#       8
#     2   2   2   2   2   2   2   2
#     4  12  27  47  72  95 136 180 230 282 333 396
#     4  12  27  44  70 100 135 182 224 278 337 403
#     4  11  25  47  71 101 136 173 231 278 340 399
#     4  10  22  41  67 101 140 174 219 273 336 404
#     4  10  20  41  68  98 137 177 213 277 342 395
#     4  11  26  44  71 102 136 181 223 282 333 393
#     4  12  24  41  70  98 141 177 221 278 337 402
#     4  12  25  41  70 102 137 177 226 271 337 406
#
# _framework density 23.333950999999999
#
# number of rings (size 3 to 8) (size 9 to 14) (size 15 to 20)
#    0.000    0.750    2.500    4.500    3.500    4.000 
#    0.000    0.000    0.000    0.000    0.000    0.000 
#    0.000    0.000    0.000    0.000    0.000    0.000 
#
# Total GULP energy -89439.360823 kJ/mol
# GULP energy per Si atom -5589.960051 kJ/mol
# Density = 2.328084 g / cm^3
# Si number density = 23.333951 Si / 1000 Ang^3
#
#
#
# Elastic Constant Matrix: (Units=GPa)
#
#
# Indices 1 2 3 4 5 6 
#
# 1 88.7950 16.9020 11.3862 0.4282 10.3298 1.8862
# 2 16.9020 81.3351 4.5875 23.8739 13.8989 -21.5714
# 3 11.3862 4.5875 58.3825 17.8991 9.8495 -2.7627
# 4 0.4282 23.8739 17.8991 23.8824 4.5369 2.1735
# 5 10.3298 13.8989 9.8495 4.5369 36.3583 5.5909
# 6 1.8862 -21.5714 -2.7627 2.1735 5.5909 49.1052
#
#
#
# Elastic Compliance Matrix: (Units=1/GPa)
#
#
# Indices 1 2 3 4 5 6 
#
# 1 0.013382 -0.006872 -0.005692 0.011361 -0.000388 -0.004312
# 2 -0.006872 0.032445 0.014827 -0.042841 -0.011984 0.018612
# 3 -0.005692 0.014827 0.030467 -0.036777 -0.009430 0.011148
# 4 0.011361 -0.042841 -0.036777 0.112041 0.013408 -0.027811
# 5 -0.000388 -0.011984 -0.009430 0.013408 0.034664 -0.010320
# 6 -0.004312 0.018612 0.011148 -0.027811 -0.010320 0.031739
#
#
# Mechanical properties :
#
#
# Convention : Reuss Voigt Hill
#
# Bulk Modulus (GPa) = 12.37292 32.69600 22.53446
# Shear Modulus (GPa) = 18.04074 34.91164 26.47619
#
# Velocity S-wave (km/s) = 2.78358 3.87224 3.37213
# Velocity P-wave (km/s) = 3.95540 5.83394 4.98398
#
# Compressibility (1/GPa) = 0.08082166
#
# Stress axis : x y z
#
# Youngs Moduli (GPa) = 74.72886 30.82113 32.82238
#
# Poissons Ratio (x) = 0.21180 0.18681
# Poissons Ratio (y) = 0.51353 -0.48667
# Poissons Ratio (z) = 0.42533 -0.45700
#
# Static dielectric constant tensor:
#      x y z
#    x 1.886070 0.040440 0.066750 
#    y 0.040440 1.880600 0.061780 
#    z 0.066750 0.061780 2.038330 
# 
# From -- ./inp_files/542219.got.cif
#   From: 2010.05.17/outbox.cif.g08.bks.cpg/sg2_272_cif.got.tgz:542219.got - 2010.06.03 11:33:40.
