data_PCOD9110380
_publ_section_title
;
Structure prediction by ZEFSAII (Michael W. Deem and Ramdas Pophale) SiO2 
 PCOD9110380
Probable space group: P -1
;
_chemical_formula_sum "Si O2"
_cell_formula_units_Z 13
_cell_length_a 25.335574
_cell_length_b 10.656877
_cell_length_c 9.493620
_cell_angle_alpha 140.280844
_cell_angle_beta 151.870654
_cell_angle_gamma 27.607535
_cell_volume 559.139680
_symmetry_space_group_name_H-M "P -1"
_symmetry_group_IT_number 2
_symmetry_cell_setting 'triclinic'
loop_
_space_group_symop_operation_xyz
x,y,z
-x,-y,-z
loop_
_atom_site_type_symbol
_atom_site_label
_atom_site_fract_x
_atom_site_fract_y
_atom_site_fract_z
Si Si1 0.090992 0.029301 0.095475
Si Si2 0.561954 0.347186 0.830124
Si Si3 0.768770 0.337312 0.624345
Si Si4 0.686051 0.879296 0.925796
Si Si5 0.000000 0.500000 0.500000
Si Si6 0.365605 0.918363 0.514895
Si Si7 0.573517 0.743542 0.129405
O O1 0.217440 0.961928 0.229653
O O2 0.035571 0.284200 0.276426
O O3 0.174869 0.774954 0.178953
O O4 0.933636 0.118825 0.744820
O O5 0.390147 0.591960 0.701594
O O6 0.646358 0.454188 0.107277
O O7 0.651200 0.072395 0.886816
O O8 0.541009 0.287203 0.571921
O O9 0.709798 0.629027 0.712742
O O10 0.546578 0.042376 0.849745
O O11 0.838872 0.751539 0.259481
O O12 0.323334 0.195282 0.616607
O O13 0.471461 0.808075 0.807751
#
# Coordination Sequence:
#
# PCOD9110380 Si02
#       7
#     2   2   2   2   1   2   2
#     4  10  21  38  65  90 127 171 211 262 312 387
#     4  12  23  40  67  98 132 162 222 273 316 372
#     4  10  21  38  63  94 124 173 213 257 319 383
#     4  11  22  40  66  94 126 172 217 271 311 389
#     4  10  20  42  60  88 124 166 218 252 318 392
#     4  11  23  40  61 101 131 170 210 269 323 380
#     4  11  23  38  66  96 130 175 212 262 323 377
#
# _framework density 23.250003
#
# number of rings (size 3 to 8) (size 9 to 14) (size 15 to 20)
#    0.000    1.231    4.615    1.385    0.000    0.000 
#    2.769    3.077    0.000    3.692    0.000    0.000 
#    0.000    0.000    0.000    0.000    0.000    0.000 
#
# Total GULP energy -72415.604954 kJ/mol
# GULP energy per Si atom -5570.431150 kJ/mol
# Density = 2.319708 g / cm^3
# Si number density = 23.250003 Si / 1000 Ang^3
#
#
#
# Elastic Constant Matrix: (Units=GPa)
#
#
# Indices 1 2 3 4 5 6 
#
# 1 98.4304 40.9536 29.7736 -2.9646 21.9827 22.5884
# 2 40.9536 112.2859 15.6795 -5.9662 11.7446 28.4809
# 3 29.7736 15.6795 86.5571 -19.4298 22.4049 5.1728
# 4 -2.9646 -5.9662 -19.4298 39.7191 1.0736 0.9375
# 5 21.9827 11.7446 22.4049 1.0736 35.6316 13.8435
# 6 22.5884 28.4809 5.1728 0.9375 13.8435 39.6839
#
#
#
# Elastic Compliance Matrix: (Units=1/GPa)
#
#
# Indices 1 2 3 4 5 6 
#
# 1 0.014332 -0.003422 -0.003167 -0.000790 -0.004224 -0.003797
# 2 -0.003422 0.011961 -0.000571 0.001395 0.001212 -0.007018
# 3 -0.003167 -0.000571 0.016994 0.008185 -0.010080 0.003320
# 4 -0.000790 0.001395 0.008185 0.029497 -0.005909 -0.000254
# 5 -0.004224 0.001212 -0.010080 -0.005909 0.041213 -0.011389
# 6 -0.003797 -0.007018 0.003320 -0.000254 -0.011389 0.035943
#
#
# Mechanical properties :
#
#
# Convention : Reuss Voigt Hill
#
# Bulk Modulus (GPa) = 34.52190 52.23185 43.37688
# Shear Modulus (GPa) = 28.74948 37.06470 32.90709
#
# Velocity S-wave (km/s) = 3.52026 3.99705 3.76621
# Velocity P-wave (km/s) = 5.60387 6.61936 6.13267
#
# Compressibility (1/GPa) = 0.02896712
#
# Stress axis : x y z
#
# Youngs Moduli (GPa) = 69.77309 83.60453 58.84417
#
# Poissons Ratio (x) = 0.28611 0.18637
# Poissons Ratio (y) = 0.23877 0.03359
# Poissons Ratio (z) = 0.22098 0.04772
#
# Static dielectric constant tensor:
#      x y z
#    x 1.885410 0.030830 0.015010 
#    y 0.030830 1.870650 0.038860 
#    z 0.015010 0.038860 1.930610 
# 
# From -- ./inp_files/342148.got.cif
#   From: 2010.05.17/outbox.cif.g08.bks.cpg/sg2_172_cif.got.tgz:342148.got - 2010.06.03 11:33:40.
