data_PCOD9110975
_publ_section_title
;
Structure prediction by ZEFSAII (Michael W. Deem and Ramdas Pophale) SiO2 
 PCOD9110975
Probable space group: P -1
;
_chemical_formula_sum "Si O2"
_cell_formula_units_Z 11
_cell_length_a 10.559000
_cell_length_b 7.097832
_cell_length_c 8.260629
_cell_angle_alpha 117.137488
_cell_angle_beta 117.487076
_cell_angle_gamma 46.079948
_cell_volume 386.543228
_symmetry_space_group_name_H-M "P -1"
_symmetry_group_IT_number 2
_symmetry_cell_setting 'triclinic'
loop_
_space_group_symop_operation_xyz
x,y,z
-x,-y,-z
loop_
_atom_site_type_symbol
_atom_site_label
_atom_site_fract_x
_atom_site_fract_y
_atom_site_fract_z
Si Si1 0.921438 0.704605 0.833241
Si Si2 0.000000 0.500000 0.500000
Si Si3 0.573283 0.155033 0.664627
Si Si4 0.177415 0.633530 0.190668
Si Si5 0.242055 0.686363 0.590079
Si Si6 0.525464 0.218108 0.046240
O O1 0.823776 0.608295 0.837371
O O2 0.067902 0.454651 0.711470
O O3 0.790760 0.918714 0.700923
O O4 0.007544 0.794429 0.036054
O O5 0.127538 0.599765 0.567621
O O6 0.445359 0.410413 0.576453
O O7 0.500000 0.000000 0.500000
O O8 0.532504 0.226962 0.859489
O O9 0.168499 0.785009 0.403938
O O10 0.350032 0.499039 0.124776
O O11 0.296029 0.838466 0.790569
O O12 0.500000 0.000000 0.000000
#
# Coordination Sequence:
#
# PCOD9110975 Si02
#       6
#     2   1   2   2   2   2
#     4  10  21  39  70  98 142 177 226 285 347 409
#     4  10  20  42  68 100 140 178 224 286 344 404
#     4  12  22  43  69 107 134 181 235 282 346 416
#     4  10  21  41  68 100 136 182 227 286 346 407
#     4  11  24  44  72 103 139 182 232 285 348 408
#     4  12  24  44  71 101 140 187 231 285 344 413
#
# _framework density 28.457362
#
# number of rings (size 3 to 8) (size 9 to 14) (size 15 to 20)
#    0.000    1.091    5.455    2.182    0.000    0.000 
#    0.000    4.545    0.000    0.000    0.000    0.000 
#    0.000    0.000    0.000    0.000    0.000    0.000 
#
# Total GULP energy -61333.431428 kJ/mol
# GULP energy per Si atom -5575.766493 kJ/mol
# Density = 2.839259 g / cm^3
# Si number density = 28.457362 Si / 1000 Ang^3
#
#
#
# Elastic Constant Matrix: (Units=GPa)
#
#
# Indices 1 2 3 4 5 6 
#
# 1 193.2499 23.0402 86.4586 -10.8291 10.9819 31.6294
# 2 23.0402 71.4038 11.1335 -17.5779 16.8471 19.1131
# 3 86.4586 11.1335 262.9752 -33.3210 22.8079 -2.4015
# 4 -10.8291 -17.5779 -33.3210 43.2337 -2.4813 -3.2136
# 5 10.9819 16.8471 22.8079 -2.4813 49.8888 -15.3096
# 6 31.6294 19.1131 -2.4015 -3.2136 -15.3096 31.0038
#
#
#
# Elastic Compliance Matrix: (Units=1/GPa)
#
#
# Indices 1 2 3 4 5 6 
#
# 1 0.008476 0.002452 -0.002545 -0.000136 -0.005562 -0.013116
# 2 0.002452 0.026484 0.000448 0.008763 -0.017373 -0.026463
# 3 -0.002545 0.000448 0.005197 0.003689 -0.000979 0.002622
# 4 -0.000136 0.008763 0.003689 0.028935 -0.004460 -0.004181
# 5 -0.005562 -0.017373 -0.000979 -0.004460 0.037979 0.034600
# 6 -0.013116 -0.026463 0.002622 -0.004181 0.034600 0.078804
#
#
# Mechanical properties :
#
#
# Convention : Reuss Voigt Hill
#
# Bulk Modulus (GPa) = 24.47019 85.43260 54.95139
# Shear Modulus (GPa) = 25.15236 51.95837 38.55537
#
# Velocity S-wave (km/s) = 2.97621 4.27761 3.68482
# Velocity P-wave (km/s) = 4.51973 7.38131 6.12012
#
# Compressibility (1/GPa) = 0.04086605
#
# Stress axis : x y z
#
# Youngs Moduli (GPa) = 117.97650 37.75887 192.43193
#
# Poissons Ratio (x) = -0.09257 0.48977
# Poissons Ratio (y) = -0.28923 -0.08625
# Poissons Ratio (z) = 0.30027 -0.01692
#
# Static dielectric constant tensor:
#      x y z
#    x 2.227820 0.356260 0.292810 
#    y 0.356260 0.512770 -0.827890 
#    z 0.292810 -0.827890 1.697110 
# 
# From -- ./inp_files/236333.got.cif
#   From: 2010.05.17/outbox.cif.g08.bks.cpg/sg2_119_cif.got.tgz:236333.got - 2010.06.03 11:33:40.
