data_PCOD9110934
_publ_section_title
;
Structure prediction by ZEFSAII (Michael W. Deem and Ramdas Pophale) SiO2 
 PCOD9110934
Probable space group: P -1
;
_chemical_formula_sum "Si O2"
_cell_formula_units_Z 15
_cell_length_a 12.463342
_cell_length_b 5.168967
_cell_length_c 10.052537
_cell_angle_alpha 95.829438
_cell_angle_beta 70.690223
_cell_angle_gamma 83.903572
_cell_volume 601.241194
_symmetry_space_group_name_H-M "P -1"
_symmetry_group_IT_number 2
_symmetry_cell_setting 'triclinic'
loop_
_space_group_symop_operation_xyz
x,y,z
-x,-y,-z
loop_
_atom_site_type_symbol
_atom_site_label
_atom_site_fract_x
_atom_site_fract_y
_atom_site_fract_z
Si Si1 0.169339 0.323958 0.956880
Si Si2 0.742058 0.078895 0.306378
Si Si3 0.006861 0.810389 0.804576
Si Si4 0.649659 0.339751 0.107740
Si Si5 0.796492 0.018821 0.569687
Si Si6 0.671224 0.903433 0.881148
Si Si7 0.500000 0.500000 0.000000
Si Si8 0.969084 0.291821 0.650672
O O1 0.222872 0.590642 0.963595
O O2 0.213327 0.205396 0.791618
O O3 0.042724 0.257618 0.035112
O O4 0.237393 0.153401 0.039124
O O5 0.649546 0.210949 0.244412
O O6 0.720638 0.066299 0.470333
O O7 0.856157 0.218204 0.255275
O O8 0.967424 0.579875 0.720872
O O9 0.965408 0.085971 0.763193
O O10 0.553616 0.586639 0.133717
O O11 0.609976 0.192163 0.979418
O O12 0.861507 0.261551 0.599955
O O13 0.727327 0.943513 0.720172
O O14 0.908895 0.807904 0.474365
O O15 0.599290 0.666699 0.893903
#
# Coordination Sequence:
#
# PCOD9110934 Si02
#       8
#     2   2   2   2   2   2   1   2
#     4  10  21  38  60  92 126 176 217 260 312 380
#     4  10  24  37  58  93 133 172 209 267 321 381
#     4  11  22  40  62  93 135 185 226 264 305 380
#     4  10  22  41  66  89 125 157 215 273 330 386
#     4  10  21  41  61  93 130 175 215 262 317 384
#     4  10  20  42  67  94 117 162 217 265 323 391
#     4  10  22  42  70  96 112 158 212 284 326 394
#     4  10  23  39  62  93 137 183 228 257 307 383
#
# _framework density 24.948391999999998
#
# number of rings (size 3 to 8) (size 9 to 14) (size 15 to 20)
#    0.000    1.867    1.333    1.600    5.600    5.333 
#    9.600    0.667    0.000    8.000    0.000    0.000 
#    0.000    0.000    0.000    0.000    0.000    0.000 
#
# Total GULP energy -83644.986421 kJ/mol
# GULP energy per Si atom -5576.332428 kJ/mol
# Density = 2.489161 g / cm^3
# Si number density = 24.948392 Si / 1000 Ang^3
#
#
#
# Elastic Constant Matrix: (Units=GPa)
#
#
# Indices 1 2 3 4 5 6 
#
# 1 63.3503 32.7272 64.7184 -11.4973 20.5162 15.7625
# 2 32.7272 112.0143 37.0968 -15.0670 10.2889 17.1111
# 3 64.7184 37.0968 145.1462 -25.7433 42.9371 -6.8864
# 4 -11.4973 -15.0670 -25.7433 38.5727 -3.1859 4.8106
# 5 20.5162 10.2889 42.9371 -3.1859 34.6588 -7.6205
# 6 15.7625 17.1111 -6.8864 4.8106 -7.6205 32.1063
#
#
#
# Elastic Compliance Matrix: (Units=1/GPa)
#
#
# Indices 1 2 3 4 5 6 
#
# 1 0.045800 -0.001724 -0.017371 0.004033 -0.010975 -0.028502
# 2 -0.001724 0.011548 -0.001227 0.003839 -0.001989 -0.006619
# 3 -0.017371 -0.001227 0.019596 0.005270 -0.010947 0.009998
# 4 0.004033 0.003839 0.005270 0.032624 -0.009251 -0.009979
# 5 -0.010975 -0.001989 -0.010947 -0.009251 0.052603 0.017972
# 6 -0.028502 -0.006619 0.009998 -0.009979 0.017972 0.056572
#
#
# Mechanical properties :
#
#
# Convention : Reuss Voigt Hill
#
# Bulk Modulus (GPa) = 27.54894 65.51062 46.52978
# Shear Modulus (GPa) = 18.41694 33.46547 25.94120
#
# Velocity S-wave (km/s) = 2.71993 3.66647 3.22808
# Velocity P-wave (km/s) = 4.57498 6.65127 5.70832
#
# Compressibility (1/GPa) = 0.03629903
#
# Stress axis : x y z
#
# Youngs Moduli (GPa) = 21.83389 86.59692 51.02999
#
# Poissons Ratio (x) = 0.14929 0.88646
# Poissons Ratio (y) = 0.03764 0.06263
# Poissons Ratio (z) = 0.37928 0.10628
#
# Static dielectric constant tensor:
#      x y z
#    x 2.207160 -0.243550 -0.041950 
#    y -0.243550 2.248220 0.070920 
#    z -0.041950 0.070920 2.051410 
# 
# From -- ./inp_files/288998.got.cif
#   From: 2010.05.17/outbox.cif.g08.bks.cpg/sg2_145_cif.got.tgz:288998.got - 2010.06.03 11:33:40.
