data_PCOD9110949
_publ_section_title
;
Structure prediction by ZEFSAII (Michael W. Deem and Ramdas Pophale) SiO2 
 PCOD9110949
Probable space group: P -1
;
_chemical_formula_sum "Si O2"
_cell_formula_units_Z 15
_cell_length_a 14.287166
_cell_length_b 5.212142
_cell_length_c 22.908186
_cell_angle_alpha 101.096269
_cell_angle_beta 158.391073
_cell_angle_gamma 84.444157
_cell_volume 600.359352
_symmetry_space_group_name_H-M "P -1"
_symmetry_group_IT_number 2
_symmetry_cell_setting 'triclinic'
loop_
_space_group_symop_operation_xyz
x,y,z
-x,-y,-z
loop_
_atom_site_type_symbol
_atom_site_label
_atom_site_fract_x
_atom_site_fract_y
_atom_site_fract_z
Si Si1 0.000000 0.000000 0.000000
Si Si2 0.680528 0.120286 0.204517
Si Si3 0.377512 0.253772 0.491544
Si Si4 0.833324 0.846132 0.449931
Si Si5 0.353701 0.774086 0.102824
Si Si6 0.439987 0.831281 0.606018
Si Si7 0.910055 0.517994 0.750505
Si Si8 0.300415 0.266683 0.906291
O O1 0.254633 0.098576 0.195659
O O2 0.208832 0.950957 0.067622
O O3 0.956027 0.277259 0.397814
O O4 0.533474 0.923186 0.160971
O O5 0.747889 0.978407 0.177709
O O6 0.452107 0.246720 0.053316
O O7 0.363916 0.514650 0.534469
O O8 0.642144 0.348675 0.612578
O O9 0.148966 0.229958 0.309375
O O10 0.410382 0.015441 0.541472
O O11 0.560754 0.665686 0.259346
O O12 0.739074 0.066815 0.444994
O O13 0.000000 0.000000 0.500000
O O14 0.112258 0.581646 0.923196
O O15 0.041913 0.359593 0.773814
O O16 0.500000 0.500000 0.000000
#
# Coordination Sequence:
#
# PCOD9110949 Si02
#       8
#     1   2   2   2   2   2   2   2
#     4  10  22  42  70  94 140 178 238 276 344 406
#     4  10  22  41  69  95 133 177 225 283 350 415
#     4  11  27  44  74 103 142 184 231 293 351 422
#     4   9  21  43  68  98 137 180 236 285 349 412
#     4  10  20  42  67  95 135 177 228 286 342 418
#     4  11  24  47  71 105 139 187 231 292 347 420
#     4  11  24  43  67 103 138 177 231 289 356 417
#     4  11  23  38  65  99 130 174 221 284 347 415
#
# _framework density 24.985033999999999
#
# number of rings (size 3 to 8) (size 9 to 14) (size 15 to 20)
#    0.000    1.600    2.667    0.800    3.733    3.733 
#    0.000    1.333    0.000    0.000    0.000    0.000 
#    0.000    0.000    0.000    0.000    0.000    0.000 
#
# Total GULP energy -83608.633085 kJ/mol
# GULP energy per Si atom -5573.908872 kJ/mol
# Density = 2.492817 g / cm^3
# Si number density = 24.985034 Si / 1000 Ang^3
#
#
#
# Elastic Constant Matrix: (Units=GPa)
#
#
# Indices 1 2 3 4 5 6 
#
# 1 116.9430 8.3247 33.1890 -1.5222 15.5430 -20.0783
# 2 8.3247 41.9375 26.9006 3.7756 -12.7738 -2.0943
# 3 33.1890 26.9006 232.9694 -4.1932 -24.0904 -2.3540
# 4 -1.5222 3.7756 -4.1932 16.3344 -8.2580 5.1791
# 5 15.5430 -12.7738 -24.0904 -8.2580 52.6549 -7.7085
# 6 -20.0783 -2.0943 -2.3540 5.1791 -7.7085 24.9785
#
#
#
# Elastic Compliance Matrix: (Units=1/GPa)
#
#
# Indices 1 2 3 4 5 6 
#
# 1 0.011013 -0.001475 -0.001773 -0.003584 -0.003791 0.008135
# 2 -0.001475 0.028220 -0.002507 -0.005595 0.005828 0.003903
# 3 -0.001773 -0.002507 0.005160 0.003412 0.002660 -0.001036
# 4 -0.003584 -0.005595 0.003412 0.073121 0.010543 -0.014936
# 5 -0.003791 0.005828 0.002660 0.010543 0.024860 0.003178
# 6 0.008135 0.003903 -0.001036 -0.014936 0.003178 0.050881
#
#
# Mechanical properties :
#
#
# Convention : Reuss Voigt Hill
#
# Bulk Modulus (GPa) = 30.40988 58.74206 44.57597
# Shear Modulus (GPa) = 23.17751 40.35594 31.76673
#
# Velocity S-wave (km/s) = 3.04905 4.02332 3.56958
# Velocity P-wave (km/s) = 4.95916 6.71898 5.90500
#
# Compressibility (1/GPa) = 0.03288405
#
# Stress axis : x y z
#
# Youngs Moduli (GPa) = 90.79929 35.43632 193.78184
#
# Poissons Ratio (x) = 0.05226 0.34358
# Poissons Ratio (y) = 0.13390 0.48581
# Poissons Ratio (z) = 0.16099 0.08884
#
# Static dielectric constant tensor:
#      x y z
#    x 2.084860 0.058900 -0.190190 
#    y 0.058900 2.045180 -0.095360 
#    z -0.190190 -0.095360 2.151560 
# 
# From -- ./inp_files/368876.got.cif
#   From: 2010.05.17/outbox.cif.g08.bks.cpg/sg2_185_cif.got.tgz:368876.got - 2010.06.03 11:33:40.
