data_PCOD9110878
_publ_section_title
;
Structure prediction by ZEFSAII (Michael W. Deem and Ramdas Pophale) SiO2 
 PCOD9110878
Probable space group: P -1
;
_chemical_formula_sum "Si O2"
_cell_formula_units_Z 16
_cell_length_a 12.196623
_cell_length_b 13.904413
_cell_length_c 12.425386
_cell_angle_alpha 33.772621
_cell_angle_beta 115.216908
_cell_angle_gamma 137.063721
_cell_volume 699.115939
_symmetry_space_group_name_H-M "P -1"
_symmetry_group_IT_number 2
_symmetry_cell_setting 'triclinic'
loop_
_space_group_symop_operation_xyz
x,y,z
-x,-y,-z
loop_
_atom_site_type_symbol
_atom_site_label
_atom_site_fract_x
_atom_site_fract_y
_atom_site_fract_z
Si Si1 0.199722 0.844026 0.296715
Si Si2 0.834233 0.058141 0.036518
Si Si3 0.549673 0.252174 0.800623
Si Si4 0.138563 0.123563 0.344350
Si Si5 0.605413 0.296627 0.035355
Si Si6 0.914210 0.777118 0.358197
Si Si7 0.619962 0.956731 0.478812
Si Si8 0.778333 0.396101 0.303087
O O1 0.183602 0.636260 0.531476
O O2 0.045942 0.794892 0.331358
O O3 0.402651 0.127360 0.148831
O O4 0.200191 0.853736 0.160107
O O5 0.641099 0.853208 0.209114
O O6 0.868023 0.900329 0.158377
O O7 0.028658 0.324851 0.918520
O O8 0.722278 0.488103 0.581603
O O9 0.609104 0.338341 0.870491
O O10 0.500000 0.000000 0.000000
O O11 0.275249 0.108590 0.439155
O O12 0.252191 0.424622 0.105890
O O13 0.000000 0.000000 0.500000
O O14 0.023391 0.953166 0.347976
O O15 0.624560 0.111752 0.243326
O O16 0.722880 0.171784 0.416778
O O17 0.410052 0.699424 0.670500
#
# Coordination Sequence:
#
# PCOD9110878 Si02
#       8
#     2   2   2   2   2   2   2   2
#     4  10  22  42  66  96 138 169 227 281 332 408
#     4  11  24  40  68  99 132 177 222 285 336 402
#     4  11  25  46  67  92 138 182 223 278 336 413
#     4  12  25  43  69  98 143 178 222 288 333 414
#     4  10  24  46  67 104 133 178 233 276 348 398
#     4  12  24  43  65 101 133 178 226 276 343 402
#     4  10  23  41  69 102 137 176 230 283 337 410
#     4  10  20  42  67 102 132 177 228 278 345 398
#
# _framework density 22.886047000000001
#
# number of rings (size 3 to 8) (size 9 to 14) (size 15 to 20)
#    0.000    1.250    2.500    2.625    1.750    4.000 
#    4.500    0.000    0.000    0.000    0.000    0.000 
#    0.000    0.000    0.000    0.000    0.000    0.000 
#
# Total GULP energy -89407.685074 kJ/mol
# GULP energy per Si atom -5587.980317 kJ/mol
# Density = 2.283396 g / cm^3
# Si number density = 22.886047 Si / 1000 Ang^3
#
#
#
# Elastic Constant Matrix: (Units=GPa)
#
#
# Indices 1 2 3 4 5 6 
#
# 1 123.5080 28.8249 14.0528 -4.8298 -8.3932 22.6917
# 2 28.8249 62.0792 29.2485 -18.0626 -1.3551 16.1702
# 3 14.0528 29.2485 66.2679 -25.9677 -14.4853 16.8804
# 4 -4.8298 -18.0626 -25.9677 40.3822 8.4404 -0.3448
# 5 -8.3932 -1.3551 -14.4853 8.4404 32.7278 0.4343
# 6 22.6917 16.1702 16.8804 -0.3448 0.4343 34.9368
#
#
#
# Elastic Compliance Matrix: (Units=1/GPa)
#
#
# Indices 1 2 3 4 5 6 
#
# 1 0.010077 -0.004028 0.001668 -0.000260 0.003296 -0.005530
# 2 -0.004028 0.024557 -0.006962 0.006990 -0.004831 -0.005257
# 3 0.001668 -0.006962 0.027755 0.012905 0.009245 -0.011259
# 4 -0.000260 0.006990 0.012905 0.036800 -0.003438 -0.008896
# 5 0.003296 -0.004831 0.009245 -0.003438 0.036244 -0.004857
# 6 -0.005530 -0.005257 -0.011259 -0.008896 -0.004857 0.040061
#
#
# Mechanical properties :
#
#
# Convention : Reuss Voigt Hill
#
# Bulk Modulus (GPa) = 22.85976 44.01194 33.43585
# Shear Modulus (GPa) = 23.95578 33.59130 28.77354
#
# Velocity S-wave (km/s) = 3.23885 3.83530 3.54962
# Velocity P-wave (km/s) = 4.89868 6.23581 5.60724
#
# Compressibility (1/GPa) = 0.04374500
#
# Stress axis : x y z
#
# Youngs Moduli (GPa) = 99.23779 40.72235 36.02934
#
# Poissons Ratio (x) = 0.16403 -0.06011
# Poissons Ratio (y) = 0.39974 0.25084
# Poissons Ratio (z) = -0.16557 0.28351
#
# Static dielectric constant tensor:
#      x y z
#    x 1.800800 0.032260 -0.011440 
#    y 0.032260 1.948130 0.030050 
#    z -0.011440 0.030050 1.892630 
# 
# From -- ./inp_files/283536.got.cif
#   From: 2010.05.17/outbox.cif.g08.bks.cpg/sg2_142_cif.got.tgz:283536.got - 2010.06.03 11:33:40.
