data_PCOD9110965
_publ_section_title
;
Structure prediction by ZEFSAII (Michael W. Deem and Ramdas Pophale) SiO2 
 PCOD9110965
Probable space group: P -1
;
_chemical_formula_sum "Si O2"
_cell_formula_units_Z 16
_cell_length_a 19.273253
_cell_length_b 28.253618
_cell_length_c 15.943806
_cell_angle_alpha 16.801594
_cell_angle_beta 18.864710
_cell_angle_gamma 17.665780
_cell_volume 701.613338
_symmetry_space_group_name_H-M "P -1"
_symmetry_group_IT_number 2
_symmetry_cell_setting 'triclinic'
loop_
_space_group_symop_operation_xyz
x,y,z
-x,-y,-z
loop_
_atom_site_type_symbol
_atom_site_label
_atom_site_fract_x
_atom_site_fract_y
_atom_site_fract_z
Si Si1 0.603107 0.413974 0.232198
Si Si2 0.271010 0.327474 0.451696
Si Si3 0.915299 0.871344 0.760949
Si Si4 0.285815 0.464589 0.778055
Si Si5 0.818362 0.952285 0.240323
Si Si6 0.100930 0.543497 0.673209
Si Si7 0.407981 0.973364 0.793687
Si Si8 0.449447 0.837657 0.421817
O O1 0.367404 0.428687 0.522981
O O2 0.606753 0.297592 0.342877
O O3 0.832614 0.322970 0.188362
O O4 0.612294 0.593859 0.882712
O O5 0.468083 0.247671 0.436859
O O6 0.000000 0.500000 0.500000
O O7 0.264493 0.146158 0.728917
O O8 0.801202 0.963542 0.645519
O O9 0.687464 0.856737 0.087694
O O10 0.000000 0.000000 0.500000
O O11 0.500000 0.500000 0.500000
O O12 0.160591 0.571332 0.654037
O O13 0.416669 0.233020 0.015762
O O14 0.080571 0.535581 0.965452
O O15 0.579266 0.021610 0.455618
O O16 0.951038 0.725165 0.477663
O O17 0.767512 0.032072 0.069125
O O18 0.000000 0.000000 0.000000
#
# Coordination Sequence:
#
# PCOD9110965 Si02
#       8
#     2   2   2   2   2   2   2   2
#     4  11  23  42  66  96 134 191 234 294 349 417
#     4  12  25  44  66 100 149 187 238 291 348 419
#     4   9  20  40  64  89 127 179 242 294 337 396
#     4  10  22  45  69 100 135 170 221 300 352 425
#     4  10  20  42  67  99 130 170 227 286 354 421
#     4  10  23  39  68  99 131 165 230 276 361 415
#     4  10  24  41  67  99 135 177 228 287 348 420
#     4  10  22  42  65  93 135 191 240 288 340 411
#
# _framework density 22.804583999999998
#
# number of rings (size 3 to 8) (size 9 to 14) (size 15 to 20)
#    0.000    1.750    1.250    1.875    1.750    6.000 
#    2.250    2.500    0.000    0.000    0.000    0.000 
#    0.000    0.000    0.000    0.000    0.000    0.000 
#
# Total GULP energy -89227.347327 kJ/mol
# GULP energy per Si atom -5576.709208 kJ/mol
# Density = 2.275268 g / cm^3
# Si number density = 22.804584 Si / 1000 Ang^3
#
#
#
# Elastic Constant Matrix: (Units=GPa)
#
#
# Indices 1 2 3 4 5 6 
#
# 1 96.8001 65.0615 10.2727 -0.4533 -1.1129 -33.4744
# 2 65.0615 103.7143 23.2520 -4.3391 4.1544 -22.8213
# 3 10.2727 23.2520 70.7947 6.5515 -10.5309 -5.5708
# 4 -0.4533 -4.3391 6.5515 28.9470 -8.9183 -6.0799
# 5 -1.1129 4.1544 -10.5309 -8.9183 36.2855 -6.2819
# 6 -33.4744 -22.8213 -5.5708 -6.0799 -6.2819 42.9371
#
#
#
# Elastic Compliance Matrix: (Units=1/GPa)
#
#
# Indices 1 2 3 4 5 6 
#
# 1 0.022652 -0.012044 0.002267 0.002405 0.005522 0.012701
# 2 -0.012044 0.018514 -0.005106 0.002630 -0.003382 -0.000334
# 3 0.002267 -0.005106 0.016598 -0.002577 0.005113 0.001590
# 4 0.002405 0.002630 -0.002577 0.041100 0.010919 0.010356
# 5 0.005522 -0.003382 0.005113 0.010919 0.033960 0.009685
# 6 0.012701 -0.000334 0.001590 0.010356 0.009685 0.036104
#
#
# Mechanical properties :
#
#
# Convention : Reuss Voigt Hill
#
# Bulk Modulus (GPa) = 35.71740 52.05353 43.88546
# Shear Modulus (GPa) = 24.03552 33.14876 28.59214
#
# Velocity S-wave (km/s) = 3.25002 3.81675 3.54473
# Velocity P-wave (km/s) = 5.45710 6.50376 6.00328
#
# Compressibility (1/GPa) = 0.02799756
#
# Stress axis : x y z
#
# Youngs Moduli (GPa) = 44.14669 54.01357 60.24970
#
# Poissons Ratio (x) = 0.65053 -0.13659
# Poissons Ratio (y) = 0.53170 0.30763
# Poissons Ratio (z) = -0.10008 0.27579
#
# Static dielectric constant tensor:
#      x y z
#    x 1.810570 0.086560 -0.170430 
#    y 0.086560 1.801480 0.258840 
#    z -0.170430 0.258840 1.123980 
# 
# From -- ./inp_files/539369.got.cif
#   From: 2010.05.17/outbox.cif.g08.bks.cpg/sg2_270_cif.got.tgz:539369.got - 2010.06.03 11:33:40.
