data_PCOD9110948
_publ_section_title
;
Structure prediction by ZEFSAII (Michael W. Deem and Ramdas Pophale) SiO2 
 PCOD9110948
Probable space group: P -1
;
_chemical_formula_sum "Si O2"
_cell_formula_units_Z 16
_cell_length_a 15.524586
_cell_length_b 8.192266
_cell_length_c 9.713637
_cell_angle_alpha 98.296584
_cell_angle_beta 46.847196
_cell_angle_gamma 69.204546
_cell_volume 693.660845
_symmetry_space_group_name_H-M "P -1"
_symmetry_group_IT_number 2
_symmetry_cell_setting 'triclinic'
loop_
_space_group_symop_operation_xyz
x,y,z
-x,-y,-z
loop_
_atom_site_type_symbol
_atom_site_label
_atom_site_fract_x
_atom_site_fract_y
_atom_site_fract_z
Si Si1 0.325943 0.696506 0.709917
Si Si2 0.049514 0.760368 0.933922
Si Si3 0.003068 0.414583 0.298255
Si Si4 0.321964 0.707378 0.219416
Si Si5 0.500618 0.023642 0.836621
Si Si6 0.720361 0.051294 0.960899
Si Si7 0.799402 0.516570 0.777926
Si Si8 0.248125 0.988464 0.580443
O O1 0.500000 0.500000 0.500000
O O2 0.272412 0.797616 0.931438
O O3 0.302286 0.875720 0.657037
O O4 0.223377 0.632778 0.768053
O O5 0.926197 0.808500 0.185249
O O6 0.032779 0.650965 0.810484
O O7 0.000000 0.000000 0.000000
O O8 0.086398 0.518787 0.233875
O O9 0.859100 0.543767 0.572429
O O10 0.131870 0.186240 0.201438
O O11 0.217078 0.658740 0.263542
O O12 0.269340 0.808911 0.439305
O O13 0.500000 0.500000 0.000000
O O14 0.297513 0.883284 0.168676
O O15 0.651772 0.956976 0.591591
O O16 0.431459 0.918290 0.834972
O O17 0.369834 0.273469 0.980349
O O18 0.500000 0.000000 0.000000
#
# Coordination Sequence:
#
# PCOD9110948 Si02
#       8
#     2   2   2   2   2   2   2   2
#     4  11  24  42  67 103 135 175 225 279 343 414
#     4  10  20  42  67  95 135 173 223 271 344 406
#     4  10  21  43  65  96 131 184 222 286 343 399
#     4  12  22  39  64 101 134 178 229 284 337 395
#     4  11  22  42  64  99 136 177 229 277 338 404
#     4  11  23  40  65  96 133 176 234 279 330 408
#     4  10  22  38  65  95 135 175 228 282 336 396
#     4  11  22  41  69  97 135 184 218 274 349 397
#
# _framework density 23.066026000000001
#
# number of rings (size 3 to 8) (size 9 to 14) (size 15 to 20)
#    0.000    1.250    5.000    2.250    0.000    2.000 
#    0.000    0.000    0.000    2.250    0.000    0.000 
#    0.000    0.000    0.000    0.000    0.000    0.000 
#
# Total GULP energy -89382.651818 kJ/mol
# GULP energy per Si atom -5586.415739 kJ/mol
# Density = 2.301353 g / cm^3
# Si number density = 23.066026 Si / 1000 Ang^3
#
#
#
# Elastic Constant Matrix: (Units=GPa)
#
#
# Indices 1 2 3 4 5 6 
#
# 1 156.6592 16.0710 51.0871 1.4451 -10.5283 25.2350
# 2 16.0710 7.8570 -4.0016 -4.3591 -19.7783 -3.1242
# 3 51.0871 -4.0016 117.0530 -5.0748 -16.5879 -2.5679
# 4 1.4451 -4.3591 -5.0748 29.1575 11.7385 -0.8897
# 5 -10.5283 -19.7783 -16.5879 11.7385 47.3119 -1.2991
# 6 25.2350 -3.1242 -2.5679 -0.8897 -1.2991 43.5322
#
#
#
# Elastic Compliance Matrix: (Units=1/GPa)
#
#
# Indices 1 2 3 4 5 6 
#
# 1 0.003279 0.032979 0.001863 -0.001106 0.015472 0.001015
# 2 0.032979 -0.207553 -0.035540 -0.002904 -0.092235 -0.038921
# 3 0.001863 -0.035540 0.004605 0.000542 -0.013065 -0.003738
# 4 -0.001106 -0.002904 0.000542 0.038374 -0.010766 0.000927
# 5 0.015472 -0.092235 -0.013065 -0.010766 -0.016357 -0.017067
# 6 0.001015 -0.038921 -0.003738 0.000927 -0.017067 0.018879
#
#
# Mechanical properties :
#
#
# Convention : Reuss Voigt Hill
#
# Bulk Modulus (GPa) = -4.97356 45.32024 20.17334
# Shear Modulus (GPa) = -22.28169 38.56117 8.13974
#
# Velocity S-wave (km/s) = -3.11142 4.09317 1.88057
# Velocity P-wave (km/s) = 3.88186 6.48301 3.67155
#
# Compressibility (1/GPa) = -0.20106314
#
# Stress axis : x y z
#
# Youngs Moduli (GPa) = 304.97852 -4.81806 217.15721
#
# Poissons Ratio (x) = 0.15890 -0.40462
# Poissons Ratio (y) = -10.05796 7.71772
# Poissons Ratio (z) = -0.56826 -0.17123
#
# Static dielectric constant tensor:
#      x y z
#    x 1.890440 0.024430 -0.025360 
#    y 0.024430 1.955740 -0.006140 
#    z -0.025360 -0.006140 1.832720 
# 
# From -- ./inp_files/298694.got.cif
#   From: 2010.05.17/outbox.cif.g08.bks.cpg/sg2_150_cif.got.tgz:298694.got - 2010.06.03 11:33:40.
