data_PCOD9110314
_publ_section_title
;
Structure prediction by ZEFSAII (Michael W. Deem and Ramdas Pophale) SiO2 
 PCOD9110314
Probable space group: P -1
;
_chemical_formula_sum "Si O2"
_cell_formula_units_Z 13
_cell_length_a 10.922429
_cell_length_b 10.946257
_cell_length_c 7.655542
_cell_angle_alpha 108.420023
_cell_angle_beta 45.387482
_cell_angle_gamma 77.470087
_cell_volume 469.897294
_symmetry_space_group_name_H-M "P -1"
_symmetry_group_IT_number 2
_symmetry_cell_setting 'triclinic'
loop_
_space_group_symop_operation_xyz
x,y,z
-x,-y,-z
loop_
_atom_site_type_symbol
_atom_site_label
_atom_site_fract_x
_atom_site_fract_y
_atom_site_fract_z
Si Si1 0.447191 0.649747 0.501931
Si Si2 0.604231 0.050000 0.183501
Si Si3 0.869341 0.571827 0.477797
Si Si4 0.828829 0.353721 0.784609
Si Si5 0.373804 0.911316 0.203884
Si Si6 0.031571 0.749815 0.801845
Si Si7 0.000000 0.000000 0.500000
O O1 0.500000 0.500000 0.500000
O O2 0.504680 0.763285 0.567264
O O3 0.188340 0.767954 0.758988
O O4 0.602714 0.543395 0.131232
O O5 0.446335 0.009480 0.261749
O O6 0.742191 0.015181 0.846054
O O7 0.774515 0.915171 0.097543
O O8 0.934078 0.413048 0.235475
O O9 0.000000 0.500000 0.500000
O O10 0.971724 0.653958 0.338587
O O11 0.604902 0.723321 0.850730
O O12 0.866826 0.317580 0.525076
O O13 0.841144 0.208829 0.792374
O O14 0.156128 0.947814 0.507740
#
# Coordination Sequence:
#
# PCOD9110314 Si02
#       7
#     2   2   2   2   2   2   1
#     4  12  27  43  68 109 151 183 229 307 357 414
#     4  11  22  44  67  97 141 190 230 292 353 414
#     4  10  20  41  73 101 132 186 239 286 338 420
#     4  11  23  43  72 104 137 188 243 282 354 421
#     4  11  21  42  69  98 139 184 241 278 354 422
#     4  11  22  46  74  99 140 192 242 285 353 428
#     4  12  22  38  72 108 130 184 238 294 334 430
#
# _framework density 27.665621000000002
#
# number of rings (size 3 to 8) (size 9 to 14) (size 15 to 20)
#    0.000    0.923    4.615    4.615    0.000    1.231 
#    0.000    9.231    0.000    0.000    0.000    0.000 
#    0.000    0.000    0.000    0.000    0.000    0.000 
#
# Total GULP energy -72646.616903 kJ/mol
# GULP energy per Si atom -5588.201300 kJ/mol
# Density = 2.760265 g / cm^3
# Si number density = 27.665621 Si / 1000 Ang^3
#
#
#
# Elastic Constant Matrix: (Units=GPa)
#
#
# Indices 1 2 3 4 5 6 
#
# 1 154.6707 61.6200 60.8455 17.5930 -42.5685 21.8688
# 2 61.6200 116.1737 42.6577 35.7537 7.1438 32.7487
# 3 60.8455 42.6577 124.9296 34.9921 -6.6689 12.2402
# 4 17.5930 35.7537 34.9921 48.6630 -5.0643 8.7256
# 5 -42.5685 7.1438 -6.6689 -5.0643 56.6862 6.1937
# 6 21.8688 32.7487 12.2402 8.7256 6.1937 47.6565
#
#
#
# Elastic Compliance Matrix: (Units=1/GPa)
#
#
# Indices 1 2 3 4 5 6 
#
# 1 0.014624 -0.007580 -0.005241 0.005817 0.012146 -0.002799
# 2 -0.007580 0.017814 0.000743 -0.010666 -0.008154 -0.005942
# 3 -0.005241 0.000743 0.012289 -0.007951 -0.003363 0.000631
# 4 0.005817 -0.010666 -0.007951 0.032864 0.007748 -0.000322
# 5 0.012146 -0.008154 -0.003363 0.007748 0.028549 -0.004236
# 6 -0.002799 -0.005942 0.000631 -0.000322 -0.004236 0.026798
#
#
# Mechanical properties :
#
#
# Convention : Reuss Voigt Hill
#
# Bulk Modulus (GPa) = 48.61006 80.66893 64.63950
# Shear Modulus (GPa) = 30.49678 45.97788 38.23733
#
# Velocity S-wave (km/s) = 3.32374 4.08108 3.72173
# Velocity P-wave (km/s) = 5.68669 7.17139 6.47175
#
# Compressibility (1/GPa) = 0.02057187
#
# Stress axis : x y z
#
# Youngs Moduli (GPa) = 68.38084 56.13451 81.37454
#
# Poissons Ratio (x) = 0.42552 0.42646
# Poissons Ratio (y) = 0.51836 -0.06050
# Poissons Ratio (z) = 0.35836 -0.04174
#
# Static dielectric constant tensor:
#      x y z
#    x 2.406350 0.373210 -0.229090 
#    y 0.373210 2.837770 -0.428330 
#    z -0.229090 -0.428330 2.416030 
# 
# From -- ./inp_files/259821.got.cif
#   From: 2010.05.17/outbox.cif.g08.bks.cpg/sg2_130_cif.got.tgz:259821.got - 2010.06.03 11:33:40.
