data_PCOD9110066
_publ_section_title
;
Structure prediction by ZEFSAII (Michael W. Deem and Ramdas Pophale) SiO2 
 PCOD9110066
Probable space group: P -1
;
_chemical_formula_sum "Si O2"
_cell_formula_units_Z 16
_cell_length_a 20.184742
_cell_length_b 13.218109
_cell_length_c 11.305327
_cell_angle_alpha 31.899959
_cell_angle_beta 30.950578
_cell_angle_gamma 26.238832
_cell_volume 642.297310
_symmetry_space_group_name_H-M "P -1"
_symmetry_group_IT_number 2
_symmetry_cell_setting 'triclinic'
loop_
_space_group_symop_operation_xyz
x,y,z
-x,-y,-z
loop_
_atom_site_type_symbol
_atom_site_label
_atom_site_fract_x
_atom_site_fract_y
_atom_site_fract_z
Si Si1 0.783868 0.106106 0.331911
Si Si2 0.085857 0.706927 0.882304
Si Si3 0.612994 0.169478 0.105870
Si Si4 0.462663 0.216165 0.761517
Si Si5 0.612108 0.779401 0.390055
Si Si6 0.717917 0.358574 0.932106
Si Si7 0.997150 0.375580 0.421421
Si Si8 0.960812 0.318069 0.278123
O O1 0.900547 0.138075 0.197221
O O2 0.605456 0.241829 0.529147
O O3 0.870579 0.819011 0.492796
O O4 0.764689 0.212523 0.126498
O O5 0.277112 0.460500 0.820954
O O6 0.022624 0.812967 0.740321
O O7 0.995172 0.603203 0.176136
O O8 0.511860 0.174232 0.366212
O O9 0.475340 0.408333 0.004107
O O10 0.675890 0.932926 0.170348
O O11 0.737730 0.196093 0.952315
O O12 0.473899 0.139545 0.684405
O O13 0.500000 0.000000 0.000000
O O14 0.766936 0.496573 0.427062
O O15 0.824023 0.449976 0.655292
O O16 0.045619 0.232362 0.362057
O O17 0.000000 0.500000 0.000000
#
# Coordination Sequence:
#
# PCOD9110066 Si02
#       8
#     2   2   2   2   2   2   2   2
#     4  12  25  42  64  96 129 175 213 257 327 384
#     4  10  24  42  67  95 127 172 214 263 321 384
#     4  10  22  40  68  95 119 170 218 268 321 370
#     4  11  22  43  66  92 134 162 210 273 315 381
#     4  10  20  41  69  93 121 167 218 264 324 378
#     4  11  24  42  62  93 134 162 216 277 310 383
#     4  11  23  44  63  91 135 171 209 267 325 374
#     4   9  20  41  65  92 129 161 211 266 313 386
#
# _framework density 24.910582000000002
#
# number of rings (size 3 to 8) (size 9 to 14) (size 15 to 20)
#    0.000    1.500    3.750    0.750    1.750    3.000 
#    2.250    0.000    0.000    0.000    0.000    0.000 
#    0.000    0.000    0.000    0.000    0.000    0.000 
#
# Total GULP energy -89562.619131 kJ/mol
# GULP energy per Si atom -5597.663696 kJ/mol
# Density = 2.485388 g / cm^3
# Si number density = 24.910582 Si / 1000 Ang^3
#
#
#
# Elastic Constant Matrix: (Units=GPa)
#
#
# Indices 1 2 3 4 5 6 
#
# 1 113.5798 20.6893 54.1623 -19.8078 12.7909 -21.8791
# 2 20.6893 48.7214 16.3056 2.8936 6.6660 -4.6573
# 3 54.1623 16.3056 141.8973 -4.0319 1.3756 -17.7216
# 4 -19.8078 2.8936 -4.0319 37.1182 -16.5903 -3.1906
# 5 12.7909 6.6660 1.3756 -16.5903 56.3236 -9.5816
# 6 -21.8791 -4.6573 -17.7216 -3.1906 -9.5816 38.7062
#
#
#
# Elastic Compliance Matrix: (Units=1/GPa)
#
#
# Indices 1 2 3 4 5 6 
#
# 1 0.014126 -0.004756 -0.003781 0.008564 0.001103 0.006660
# 2 -0.004756 0.023713 -0.001296 -0.006446 -0.003922 -0.001931
# 3 -0.003781 -0.001296 0.008870 -0.000315 0.001043 0.002000
# 4 0.008564 -0.006446 -0.000315 0.038082 0.011738 0.009966
# 5 0.001103 -0.003922 0.001043 0.011738 0.022625 0.007197
# 6 0.006660 -0.001931 0.002000 0.009966 0.007197 0.032887
#
#
# Mechanical properties :
#
#
# Convention : Reuss Voigt Hill
#
# Bulk Modulus (GPa) = 36.97708 54.05699 45.51704
# Shear Modulus (GPa) = 29.58868 40.63235 35.11051
#
# Velocity S-wave (km/s) = 3.45018 4.04310 3.75835
# Velocity P-wave (km/s) = 5.54507 6.59872 6.09471
#
# Compressibility (1/GPa) = 0.02704378
#
# Stress axis : x y z
#
# Youngs Moduli (GPa) = 70.79153 42.17090 112.73726
#
# Poissons Ratio (x) = 0.20056 0.42625
# Poissons Ratio (y) = 0.33668 0.14608
# Poissons Ratio (z) = 0.26766 0.05464
#
# Static dielectric constant tensor:
#      x y z
#    x 1.989870 0.004090 -0.045390 
#    y 0.004090 2.004750 0.015020 
#    z -0.045390 0.015020 1.956660 
# 
# From -- ./inp_files/471654.got.cif
#   From: 2010.05.17/outbox.cif.g08.bks.cpg/sg2_236_cif.got.tgz:471654.got - 2010.06.03 11:33:40.
