data_PCOD9110089
_publ_section_title
;
Structure prediction by ZEFSAII (Michael W. Deem and Ramdas Pophale) SiO2 
 PCOD9110089
Probable space group: P -1
;
_chemical_formula_sum "Si O2"
_cell_formula_units_Z 14
_cell_length_a 8.958872
_cell_length_b 9.422231
_cell_length_c 12.920064
_cell_angle_alpha 136.838482
_cell_angle_beta 115.020767
_cell_angle_gamma 70.077895
_cell_volume 675.116252
_symmetry_space_group_name_H-M "P -1"
_symmetry_group_IT_number 2
_symmetry_cell_setting 'triclinic'
loop_
_space_group_symop_operation_xyz
x,y,z
-x,-y,-z
loop_
_atom_site_type_symbol
_atom_site_label
_atom_site_fract_x
_atom_site_fract_y
_atom_site_fract_z
Si Si1 0.838706 0.274174 0.624016
Si Si2 0.291723 0.603528 0.921989
Si Si3 0.849356 0.509864 0.383035
Si Si4 0.803368 0.513971 0.944919
Si Si5 0.643118 0.351889 0.415744
Si Si6 0.211450 0.186593 0.628724
Si Si7 0.558703 0.908461 0.080068
O O1 0.766520 0.408382 0.768526
O O2 0.793504 0.367274 0.548681
O O3 0.037941 0.233990 0.665137
O O4 0.754848 0.054662 0.484488
O O5 0.150125 0.610539 0.792687
O O6 0.340963 0.354195 0.791231
O O7 0.248092 0.610559 0.033558
O O8 0.418785 0.769032 0.013174
O O9 0.697489 0.428991 0.360362
O O10 0.822045 0.746619 0.463787
O O11 0.000000 0.500000 0.500000
O O12 0.718487 0.746450 0.039406
O O13 0.000000 0.500000 0.000000
O O14 0.500000 0.500000 0.500000
O O15 0.595086 0.114402 0.264247
O O16 0.500000 0.000000 0.000000
#
# Coordination Sequence:
#
# PCOD9110089 Si02
#       7
#     2   2   2   2   2   2   2
#     4  11  22  39  67 100 130 170 224 273 334 396
#     4  10  22  45  66  99 135 184 222 277 340 405
#     4  10  20  41  69  95 132 171 224 277 335 396
#     4  12  25  43  70 102 140 176 231 279 336 409
#     4  12  25  43  69  97 132 175 225 276 339 406
#     4   9  20  39  67  94 130 171 218 266 336 382
#     4  12  25  47  69  98 140 184 220 284 345 397
#
# _framework density 20.737169000000002
#
# number of rings (size 3 to 8) (size 9 to 14) (size 15 to 20)
#    0.857    0.286    4.286    2.143    2.000    1.143 
#    0.000    2.857    0.000    0.000    0.000    0.000 
#    0.000    0.000    0.000    0.000    0.000    0.000 
#
# Total GULP energy -77966.618815 kJ/mol
# GULP energy per Si atom -5569.044201 kJ/mol
# Density = 2.068997 g / cm^3
# Si number density = 20.737169 Si / 1000 Ang^3
#
#
#
# Elastic Constant Matrix: (Units=GPa)
#
#
# Indices 1 2 3 4 5 6 
#
# 1 82.7135 56.6680 47.4462 13.4866 3.6701 15.8414
# 2 56.6680 122.7619 54.1587 -9.4553 -11.6192 18.8369
# 3 47.4462 54.1587 128.3174 -1.0985 -15.6383 6.3833
# 4 13.4866 -9.4553 -1.0985 48.6640 -1.0583 1.0429
# 5 3.6701 -11.6192 -15.6383 -1.0583 24.6039 -0.6975
# 6 15.8414 18.8369 6.3833 1.0429 -0.6975 43.2688
#
#
#
# Elastic Compliance Matrix: (Units=1/GPa)
#
#
# Indices 1 2 3 4 5 6 
#
# 1 0.026101 -0.010485 -0.006778 -0.009636 -0.013680 -0.003980
# 2 -0.010485 0.015226 -0.001386 0.006064 0.008061 -0.002602
# 3 -0.006778 -0.001386 0.011804 0.002019 0.007986 0.001423
# 4 -0.009636 0.006064 0.002019 0.024586 0.006645 0.000105
# 5 -0.013680 0.008061 0.007986 0.006645 0.051881 0.000997
# 6 -0.003980 -0.002602 0.001423 0.000105 0.000997 0.025505
#
#
# Mechanical properties :
#
#
# Convention : Reuss Voigt Hill
#
# Bulk Modulus (GPa) = 63.15145 72.25984 67.70564
# Shear Modulus (GPa) = 25.29354 35.00866 30.15110
#
# Velocity S-wave (km/s) = 3.49624 4.11324 3.81722
# Velocity P-wave (km/s) = 6.84234 7.58153 7.22140
#
# Compressibility (1/GPa) = 0.01583495
#
# Stress axis : x y z
#
# Youngs Moduli (GPa) = 38.31209 65.67509 84.71715
#
# Poissons Ratio (x) = 0.68860 0.57418
# Poissons Ratio (y) = 0.40170 0.11742
# Poissons Ratio (z) = 0.25966 0.09103
#
# Static dielectric constant tensor:
#      x y z
#    x 1.794650 -0.031390 0.059740 
#    y -0.031390 1.821880 -0.076070 
#    z 0.059740 -0.076070 1.813270 
# 
# From -- ./inp_files/380688.got.cif
#   From: 2010.05.17/outbox.cif.g08.bks.cpg/sg2_191_cif.got.tgz:380688.got - 2010.06.03 11:33:40.
