data_PCOD9110427
_publ_section_title
;
Structure prediction by ZEFSAII (Michael W. Deem and Ramdas Pophale) SiO2 
 PCOD9110427
Probable space group: P -1
;
_chemical_formula_sum "Si O2"
_cell_formula_units_Z 16
_cell_length_a 10.363125
_cell_length_b 20.780822
_cell_length_c 5.282227
_cell_angle_alpha 111.809101
_cell_angle_beta 100.644612
_cell_angle_gamma 35.173567
_cell_volume 593.148680
_symmetry_space_group_name_H-M "P -1"
_symmetry_group_IT_number 2
_symmetry_cell_setting 'triclinic'
loop_
_space_group_symop_operation_xyz
x,y,z
-x,-y,-z
loop_
_atom_site_type_symbol
_atom_site_label
_atom_site_fract_x
_atom_site_fract_y
_atom_site_fract_z
Si Si1 0.174837 0.159908 0.388377
Si Si2 0.930313 0.665816 0.106418
Si Si3 0.661452 0.169569 0.210826
Si Si4 0.888259 0.990656 0.625672
Si Si5 0.652517 0.363600 0.520730
Si Si6 0.350373 0.976882 0.805168
Si Si7 0.472297 0.432290 0.056538
Si Si8 0.811844 0.635192 0.533378
O O1 0.398707 0.103245 0.275492
O O2 0.147589 0.220351 0.717880
O O3 0.903225 0.278943 0.394129
O O4 0.246314 0.055900 0.132836
O O5 0.207726 0.537893 0.034104
O O6 0.847997 0.653157 0.295458
O O7 0.834219 0.684138 0.829642
O O8 0.646659 0.105730 0.277741
O O9 0.424976 0.302493 0.416342
O O10 0.895208 0.111012 0.250590
O O11 0.683912 0.122773 0.877779
O O12 0.810613 0.953222 0.403064
O O13 0.000000 0.000000 0.500000
O O14 0.537815 0.371116 0.261389
O O15 0.507589 0.495355 0.744087
O O16 0.646107 0.333904 0.756633
O O17 0.000000 0.500000 0.500000
#
# Coordination Sequence:
#
# PCOD9110427 Si02
#       8
#     2   2   2   2   2   2   2   2
#     4  10  21  38  67  99 143 177 223 275 355 425
#     4  11  23  45  68 101 136 186 221 292 348 411
#     4  10  21  42  70  98 134 182 232 296 343 405
#     4   9  20  41  69  93 136 180 233 289 346 401
#     4   9  18  35  56  89 124 178 215 261 316 398
#     4  10  20  42  62 105 136 180 226 281 346 425
#     4   9  18  36  61  83 127 171 224 261 323 396
#     4  12  26  45  71 103 135 180 242 293 350 406
#
# _framework density 26.974686999999999
#
# number of rings (size 3 to 8) (size 9 to 14) (size 15 to 20)
#    0.000    2.000    1.250    1.875    1.750    3.000 
#    9.000    6.875    0.000    0.000    0.000    0.000 
#    0.000    0.000    0.000    0.000    0.000    0.000 
#
# Total GULP energy -89189.879718 kJ/mol
# GULP energy per Si atom -5574.367482 kJ/mol
# Density = 2.691329 g / cm^3
# Si number density = 26.974687 Si / 1000 Ang^3
#
#
#
# Elastic Constant Matrix: (Units=GPa)
#
#
# Indices 1 2 3 4 5 6 
#
# 1 109.7252 38.4654 39.8738 0.9194 11.8549 -50.0452
# 2 38.4654 84.3597 38.9657 11.9756 -8.5460 -28.2147
# 3 39.8738 38.9657 116.3813 -16.7166 -20.1013 6.8848
# 4 0.9194 11.9756 -16.7166 53.8355 -6.3193 4.2401
# 5 11.8549 -8.5460 -20.1013 -6.3193 32.3654 33.7808
# 6 -50.0452 -28.2147 6.8848 4.2401 33.7808 8.9756
#
#
#
# Elastic Compliance Matrix: (Units=1/GPa)
#
#
# Indices 1 2 3 4 5 6 
#
# 1 0.006487 -0.006206 0.001747 0.003093 0.005734 -0.007722
# 2 -0.006206 0.016488 -0.002757 -0.003568 0.006055 -0.001761
# 3 0.001747 -0.002757 0.008159 0.002111 -0.003608 0.007396
# 4 0.003093 -0.003568 0.002111 0.019228 -0.002686 0.005439
# 5 0.005734 0.006055 -0.003608 -0.002686 0.010184 0.016715
# 6 -0.007722 -0.001761 0.007396 0.005439 0.016715 -0.008332
#
#
# Mechanical properties :
#
#
# Convention : Reuss Voigt Hill
#
# Bulk Modulus (GPa) = 59.86866 60.56398 60.21632
# Shear Modulus (GPa) = 69.23954 31.91274 50.57614
#
# Velocity S-wave (km/s) = 5.07189 3.44330 4.33476
# Velocity P-wave (km/s) = 7.51940 6.18945 6.88660
#
# Compressibility (1/GPa) = 0.01670323
#
# Stress axis : x y z
#
# Youngs Moduli (GPa) = 154.16051 60.64993 122.55704
#
# Poissons Ratio (x) = 0.37637 -0.21409
# Poissons Ratio (y) = 0.95666 0.33786
# Poissons Ratio (z) = -0.26930 0.16720
#
# Static dielectric constant tensor:
#      x y z
#    x 2.284880 0.262050 -0.085960 
#    y 0.262050 2.494440 -0.210230 
#    z -0.085960 -0.210230 2.216210 
# 
# From -- ./inp_files/84901.got.cif
#   From: 2010.05.17/outbox.cif.g08.bks.cpg/sg2_43_cif.got.tgz:84901.got - 2010.06.03 11:33:40.
