data_PCOD9110077
_publ_section_title
;
Structure prediction by ZEFSAII (Michael W. Deem and Ramdas Pophale) SiO2 
 PCOD9110077
Probable space group: P -1
;
_chemical_formula_sum "Si O2"
_cell_formula_units_Z 16
_cell_length_a 15.767639
_cell_length_b 15.346941
_cell_length_c 12.158335
_cell_angle_alpha 152.870148
_cell_angle_beta 39.517208
_cell_angle_gamma 146.548279
_cell_volume 734.659222
_symmetry_space_group_name_H-M "P -1"
_symmetry_group_IT_number 2
_symmetry_cell_setting 'triclinic'
loop_
_space_group_symop_operation_xyz
x,y,z
-x,-y,-z
loop_
_atom_site_type_symbol
_atom_site_label
_atom_site_fract_x
_atom_site_fract_y
_atom_site_fract_z
Si Si1 0.353420 0.726781 0.571523
Si Si2 0.699062 0.700203 0.730671
Si Si3 0.583498 0.238889 0.936464
Si Si4 0.664511 0.224491 0.601169
Si Si5 0.899748 0.090561 0.143994
Si Si6 0.976649 0.341516 0.145056
Si Si7 0.998542 0.959040 0.583103
Si Si8 0.111390 0.648811 0.155270
O O1 0.351846 0.535805 0.430032
O O2 0.323706 0.657266 0.394116
O O3 0.206766 0.749358 0.778167
O O4 0.502210 0.970813 0.710127
O O5 0.831734 0.770442 0.585147
O O6 0.549801 0.706068 0.845199
O O7 0.782412 0.890223 0.955430
O O8 0.652933 0.326950 0.842869
O O9 0.722128 0.329807 0.986611
O O10 0.500000 0.000000 0.500000
O O11 0.795674 0.155022 0.394536
O O12 0.002352 0.310133 0.212414
O O13 0.000000 0.000000 0.000000
O O14 0.042293 0.550555 0.234169
O O15 0.028053 0.182365 0.859918
O O16 0.120151 0.882831 0.401769
O O17 0.000000 0.000000 0.500000
O O18 0.000000 0.500000 0.000000
#
# Coordination Sequence:
#
# PCOD9110077 Si02
#       8
#     2   2   2   2   2   2   2   2
#     4  10  20  41  69  93 137 175 213 267 325 394
#     4  11  22  41  67  96 132 175 217 266 331 395
#     4  11  24  43  64  96 137 172 217 277 322 394
#     4   9  18  39  59  92 137 171 208 263 317 384
#     4  10  21  37  65  98 138 174 217 263 324 394
#     4  10  21  42  65  94 133 170 217 275 325 390
#     4  11  22  42  71  90 126 166 217 278 331 383
#     4  12  26  44  68  97 127 172 228 280 335 386
#
# _framework density 21.778804000000001
#
# number of rings (size 3 to 8) (size 9 to 14) (size 15 to 20)
#    0.000    1.500    7.500    0.000    3.500    2.500 
#    2.250    5.625    0.000    0.000    0.000    0.000 
#    0.000    0.000    0.000    0.000    0.000    0.000 
#
# Total GULP energy -89319.262657 kJ/mol
# GULP energy per Si atom -5582.453916 kJ/mol
# Density = 2.172923 g / cm^3
# Si number density = 21.778804 Si / 1000 Ang^3
#
#
#
# Elastic Constant Matrix: (Units=GPa)
#
#
# Indices 1 2 3 4 5 6 
#
# 1 138.1078 50.7736 31.7308 3.6373 -28.3799 11.8149
# 2 50.7736 71.6852 9.6978 4.9661 -11.2161 -18.1332
# 3 31.7308 9.6978 63.4379 2.5175 -15.5784 -5.2468
# 4 3.6373 4.9661 2.5175 35.6720 -2.2259 -11.6107
# 5 -28.3799 -11.2161 -15.5784 -2.2259 41.5148 7.7517
# 6 11.8149 -18.1332 -5.2468 -11.6107 7.7517 37.4940
#
#
#
# Elastic Compliance Matrix: (Units=1/GPa)
#
#
# Indices 1 2 3 4 5 6 
#
# 1 0.016408 -0.013187 -0.005253 -0.003898 0.008313 -0.015209
# 2 -0.013187 0.026950 0.002949 0.003485 -0.004086 0.019526
# 3 -0.005253 0.002949 0.019199 0.000701 0.003464 0.005269
# 4 -0.003898 0.003485 0.000701 0.032125 -0.002244 0.013424
# 5 0.008313 -0.004086 0.003464 -0.002244 0.031978 -0.011417
# 6 -0.015209 0.019526 0.005269 0.013424 -0.011417 0.048162
#
#
# Mechanical properties :
#
#
# Convention : Reuss Voigt Hill
#
# Bulk Modulus (GPa) = 31.67055 50.84837 41.25946
# Shear Modulus (GPa) = 23.11314 35.00474 29.05894
#
# Velocity S-wave (km/s) = 3.26124 4.01344 3.65674
# Velocity P-wave (km/s) = 5.36232 6.69890 6.06753
#
# Compressibility (1/GPa) = 0.03157508
#
# Stress axis : x y z
#
# Youngs Moduli (GPa) = 60.94673 37.10627 52.08730
#
# Poissons Ratio (x) = 0.48933 0.27360
# Poissons Ratio (y) = 0.80372 -0.15363
# Poissons Ratio (z) = 0.32014 -0.10944
#
# Static dielectric constant tensor:
#      x y z
#    x 1.792750 0.046400 0.040870 
#    y 0.046400 1.783520 0.011500 
#    z 0.040870 0.011500 1.785440 
# 
# From -- ./inp_files/455205.got.cif
#   From: 2010.05.17/outbox.cif.g08.bks.cpg/sg2_228_cif.got.tgz:455205.got - 2010.06.03 11:33:40.
