data_PCOD9110258
_publ_section_title
;
Structure prediction by ZEFSAII (Michael W. Deem and Ramdas Pophale) SiO2 
 PCOD9110258
Probable space group: P -1
;
_chemical_formula_sum "Si O2"
_cell_formula_units_Z 14
_cell_length_a 11.985213
_cell_length_b 8.536942
_cell_length_c 9.856636
_cell_angle_alpha 121.708104
_cell_angle_beta 68.033822
_cell_angle_gamma 76.456343
_cell_volume 666.608751
_symmetry_space_group_name_H-M "P -1"
_symmetry_group_IT_number 2
_symmetry_cell_setting 'triclinic'
loop_
_space_group_symop_operation_xyz
x,y,z
-x,-y,-z
loop_
_atom_site_type_symbol
_atom_site_label
_atom_site_fract_x
_atom_site_fract_y
_atom_site_fract_z
Si Si1 0.785086 0.699081 0.458667
Si Si2 0.465767 0.203280 0.195379
Si Si3 0.429792 0.817089 0.313486
Si Si4 0.398936 0.744899 0.600949
Si Si5 0.101129 0.786125 0.770038
Si Si6 0.965603 0.343866 0.529905
Si Si7 0.657075 0.502762 0.855891
O O1 0.690379 0.701244 0.627445
O O2 0.863041 0.438372 0.269662
O O3 0.905709 0.748587 0.463329
O O4 0.662176 0.917843 0.536545
O O5 0.581437 0.128418 0.227523
O O6 0.446899 0.379041 0.174110
O O7 0.500000 0.000000 0.000000
O O8 0.448633 0.772911 0.445264
O O9 0.340199 0.721540 0.242223
O O10 0.578527 0.669527 0.093624
O O11 0.500000 0.500000 0.500000
O O12 0.244659 0.782760 0.678398
O O13 0.034955 0.801804 0.658485
O O14 0.000000 0.000000 0.000000
O O15 0.813358 0.452513 0.725392
O O16 0.000000 0.500000 0.500000
#
# Coordination Sequence:
#
# PCOD9110258 Si02
#       7
#     2   2   2   2   2   2   2
#     4  11  23  41  68 100 138 177 233 280 341 403
#     4  12  23  41  72 101 128 182 238 275 344 420
#     4  11  24  41  70 106 144 175 229 298 343 398
#     4  12  23  47  71  94 142 185 233 285 344 415
#     4  11  24  43  66 100 135 186 236 276 344 412
#     4  10  20  41  71  97 138 183 232 275 333 427
#     4  11  21  42  69 108 136 180 233 278 352 408
#
# _framework density 21.001823000000002
#
# number of rings (size 3 to 8) (size 9 to 14) (size 15 to 20)
#    0.000    0.857    8.571    0.000    2.000    1.143 
#    0.000    0.714    0.000    0.000    0.000    0.000 
#    0.000    0.000    0.000    0.000    0.000    0.000 
#
# Total GULP energy -77992.446074 kJ/mol
# GULP energy per Si atom -5570.889005 kJ/mol
# Density = 2.095402 g / cm^3
# Si number density = 21.001823 Si / 1000 Ang^3
#
#
#
# Elastic Constant Matrix: (Units=GPa)
#
#
# Indices 1 2 3 4 5 6 
#
# 1 125.9037 7.7615 55.6364 -7.5367 9.6497 8.7363
# 2 7.7615 103.7609 62.2061 4.8417 6.2573 -0.0950
# 3 55.6364 62.2061 148.8626 3.9839 14.4991 0.4999
# 4 -7.5367 4.8417 3.9839 38.9528 5.7277 5.4466
# 5 9.6497 6.2573 14.4991 5.7277 34.4863 -5.7122
# 6 8.7363 -0.0950 0.4999 5.4466 -5.7122 19.8132
#
#
#
# Elastic Compliance Matrix: (Units=1/GPa)
#
#
# Indices 1 2 3 4 5 6 
#
# 1 0.010780 0.001979 -0.004628 0.003687 -0.003126 -0.006542
# 2 0.001979 0.013272 -0.006235 -0.000489 -0.000362 -0.000621
# 3 -0.004628 -0.006235 0.011261 -0.001213 -0.001854 0.001526
# 4 0.003687 -0.000489 -0.001213 0.029275 -0.007239 -0.011732
# 5 -0.003126 -0.000362 -0.001854 -0.007239 0.034113 0.013248
# 6 -0.006542 -0.000621 0.001526 -0.011732 0.013248 0.060359
#
#
# Mechanical properties :
#
#
# Convention : Reuss Voigt Hill
#
# Bulk Modulus (GPa) = 57.00124 69.97058 63.48591
# Shear Modulus (GPa) = 27.37082 35.51200 31.44141
#
# Velocity S-wave (km/s) = 3.61398 4.11652 3.87341
# Velocity P-wave (km/s) = 6.67941 7.48218 7.09216
#
# Compressibility (1/GPa) = 0.01754348
#
# Stress axis : x y z
#
# Youngs Moduli (GPa) = 92.76499 75.34919 88.80494
#
# Poissons Ratio (x) = -0.14909 0.41099
# Poissons Ratio (y) = -0.18355 0.55369
# Poissons Ratio (z) = 0.42932 0.46980
#
# Static dielectric constant tensor:
#      x y z
#    x 1.233070 0.137560 -0.107280 
#    y 0.137560 1.837080 0.072440 
#    z -0.107280 0.072440 1.703510 
# 
# From -- ./inp_files/245413.got.cif
#   From: 2010.05.17/outbox.cif.g08.bks.cpg/sg2_123_cif.got.tgz:245413.got - 2010.06.03 11:33:40.
