data_PCOD9110178
_publ_section_title
;
Structure prediction by ZEFSAII (Michael W. Deem and Ramdas Pophale) SiO2 
 PCOD9110178
Probable space group: P -1
;
_chemical_formula_sum "Si O2"
_cell_formula_units_Z 16
_cell_length_a 9.480935
_cell_length_b 19.789553
_cell_length_c 14.241770
_cell_angle_alpha 159.548735
_cell_angle_beta 48.827944
_cell_angle_gamma 129.724779
_cell_volume 700.272535
_symmetry_space_group_name_H-M "P -1"
_symmetry_group_IT_number 2
_symmetry_cell_setting 'triclinic'
loop_
_space_group_symop_operation_xyz
x,y,z
-x,-y,-z
loop_
_atom_site_type_symbol
_atom_site_label
_atom_site_fract_x
_atom_site_fract_y
_atom_site_fract_z
Si Si1 0.489787 0.637195 0.918069
Si Si2 0.682106 0.602491 0.969887
Si Si3 0.039842 0.748294 0.909559
Si Si4 0.497998 0.044004 0.405792
Si Si5 0.119431 0.297995 0.271948
Si Si6 0.865340 0.633855 0.286391
Si Si7 0.899106 0.242092 0.476159
Si Si8 0.176545 0.007056 0.355755
O O1 0.556551 0.526533 0.837537
O O2 0.663557 0.679605 0.826146
O O3 0.313916 0.506075 0.783386
O O4 0.446930 0.856994 0.252259
O O5 0.799754 0.444321 0.762756
O O6 0.832760 0.753071 0.049094
O O7 0.566597 0.742409 0.264492
O O8 0.080328 0.524678 0.593957
O O9 0.015842 0.800719 0.879288
O O10 0.158932 0.859745 0.083311
O O11 0.721491 0.083457 0.346823
O O12 0.368152 0.980565 0.291632
O O13 0.048423 0.213433 0.291644
O O14 0.811350 0.787055 0.432734
O O15 0.986527 0.738624 0.452622
O O16 0.000000 0.500000 0.000000
O O17 0.000000 0.000000 0.500000
#
# Coordination Sequence:
#
# PCOD9110178 Si02
#       8
#     2   2   2   2   2   2   2   2
#     4  11  25  43  69 102 140 184 233 279 345 412
#     4  10  20  41  70  95 137 178 229 287 348 401
#     4   9  20  41  73  98 128 186 229 284 336 413
#     4  12  24  39  68 105 139 179 231 287 349 408
#     4   9  22  45  71  94 142 187 235 272 346 406
#     4  12  27  44  68 106 143 177 229 293 353 409
#     4  11  25  44  70 101 139 186 235 282 343 412
#     4  12  25  44  71 104 144 174 233 290 356 405
#
# _framework density 22.848246
#
# number of rings (size 3 to 8) (size 9 to 14) (size 15 to 20)
#    0.000    1.250    1.250    4.500    8.750    1.000 
#    0.000    1.250    0.000    0.000    0.000    0.000 
#    0.000    0.000    0.000    0.000    0.000    0.000 
#
# Total GULP energy -89305.993098 kJ/mol
# GULP energy per Si atom -5581.624569 kJ/mol
# Density = 2.279624 g / cm^3
# Si number density = 22.848246 Si / 1000 Ang^3
#
#
#
# Elastic Constant Matrix: (Units=GPa)
#
#
# Indices 1 2 3 4 5 6 
#
# 1 129.6536 44.1591 18.0771 6.2141 17.4440 19.5151
# 2 44.1591 112.1878 32.9113 4.1835 14.3063 12.2411
# 3 18.0771 32.9113 66.3923 -3.1577 8.5131 11.2414
# 4 6.2141 4.1835 -3.1577 31.8361 -7.2621 -1.6713
# 5 17.4440 14.3063 8.5131 -7.2621 42.8960 12.5010
# 6 19.5151 12.2411 11.2414 -1.6713 12.5010 32.8561
#
#
#
# Elastic Compliance Matrix: (Units=1/GPa)
#
#
# Indices 1 2 3 4 5 6 
#
# 1 0.009748 -0.002948 -0.000369 -0.002248 -0.002164 -0.003856
# 2 -0.002948 0.011866 -0.004855 -0.001945 -0.002026 -0.000337
# 3 -0.000369 -0.004855 0.018400 0.002249 -0.000328 -0.004028
# 4 -0.002248 -0.001945 0.002249 0.033885 0.006720 0.000457
# 5 -0.002164 -0.002026 -0.000328 0.006720 0.028504 -0.008351
# 6 -0.003856 -0.000337 -0.004028 0.000457 -0.008351 0.037430
#
#
# Mechanical properties :
#
#
# Convention : Reuss Voigt Hill
#
# Bulk Modulus (GPa) = 42.24880 55.39208 48.82044
# Shear Modulus (GPa) = 30.47509 35.72339 33.09924
#
# Velocity S-wave (km/s) = 3.65609 3.95841 3.81025
# Velocity P-wave (km/s) = 6.02942 6.72221 6.38522
#
# Compressibility (1/GPa) = 0.02366931
#
# Stress axis : x y z
#
# Youngs Moduli (GPa) = 102.58786 84.27462 54.34700
#
# Poissons Ratio (x) = 0.24844 0.02007
# Poissons Ratio (y) = 0.30243 0.26386
# Poissons Ratio (z) = 0.03788 0.40916
#
# Static dielectric constant tensor:
#      x y z
#    x 1.814180 0.121020 0.048430 
#    y 0.121020 1.663860 -0.065220 
#    z 0.048430 -0.065220 1.946810 
# 
# From -- ./inp_files/508162.got.cif
#   From: 2010.05.17/outbox.cif.g08.bks.cpg/sg2_255_cif.got.tgz:508162.got - 2010.06.03 11:33:40.
