data_PCOD9110699
_publ_section_title
;
Structure prediction by ZEFSAII (Michael W. Deem and Ramdas Pophale) SiO2 
 PCOD9110699
Probable space group: P -1
;
_chemical_formula_sum "Si O2"
_cell_formula_units_Z 14
_cell_length_a 8.776866
_cell_length_b 9.689125
_cell_length_c 18.928643
_cell_angle_alpha 29.228187
_cell_angle_beta 119.346527
_cell_angle_gamma 108.200238
_cell_volume 659.488434
_symmetry_space_group_name_H-M "P -1"
_symmetry_group_IT_number 2
_symmetry_cell_setting 'triclinic'
loop_
_space_group_symop_operation_xyz
x,y,z
-x,-y,-z
loop_
_atom_site_type_symbol
_atom_site_label
_atom_site_fract_x
_atom_site_fract_y
_atom_site_fract_z
Si Si1 0.383171 0.028348 0.531770
Si Si2 0.216093 0.928952 0.002916
Si Si3 0.612408 0.177164 0.643280
Si Si4 0.843353 0.805209 0.978151
Si Si5 0.005934 0.172587 0.350278
Si Si6 0.126727 0.700751 0.462619
Si Si7 0.630549 0.578452 0.238737
O O1 0.343501 0.713711 0.669988
O O2 0.500000 0.000000 0.500000
O O3 0.482959 0.088708 0.596140
O O4 0.194224 0.261482 0.366703
O O5 0.199884 0.981492 0.059366
O O6 0.232217 0.237485 0.836689
O O7 0.416716 0.730247 0.118664
O O8 0.040814 0.827441 0.984736
O O9 0.500000 0.500000 0.500000
O O10 0.795960 0.180076 0.641757
O O11 0.683021 0.937974 0.827298
O O12 0.864810 0.473365 0.158652
O O13 0.035504 0.944335 0.392558
O O14 0.000000 0.000000 0.500000
O O15 0.308288 0.509890 0.628190
O O16 0.000000 0.500000 0.500000
#
# Coordination Sequence:
#
# PCOD9110699 Si02
#       7
#     2   2   2   2   2   2   2
#     4  11  22  44  69  94 132 185 229 272 341 410
#     4  10  22  39  67  96 132 173 225 281 336 404
#     4  12  27  43  68 102 138 180 229 284 339 398
#     4  11  24  41  67 101 135 172 231 278 342 400
#     4  11  25  45  73  97 134 182 226 278 344 410
#     4  11  24  43  65  97 136 178 225 277 341 395
#     4  10  20  42  65  93 128 181 226 271 335 404
#
# _framework density 21.228577000000001
#
# number of rings (size 3 to 8) (size 9 to 14) (size 15 to 20)
#    0.000    1.143    2.857    4.286    6.000    0.571 
#    5.143    1.429    0.000    0.000    0.000    0.000 
#    0.000    0.000    0.000    0.000    0.000    0.000 
#
# Total GULP energy -78089.609391 kJ/mol
# GULP energy per Si atom -5577.829242 kJ/mol
# Density = 2.118026 g / cm^3
# Si number density = 21.228577 Si / 1000 Ang^3
#
#
#
# Elastic Constant Matrix: (Units=GPa)
#
#
# Indices 1 2 3 4 5 6 
#
# 1 69.2000 20.6611 27.7163 -3.9923 -4.0879 -8.4340
# 2 20.6611 131.4597 62.1415 8.6011 9.8640 2.1593
# 3 27.7163 62.1415 140.9761 10.4264 -0.8229 -4.5927
# 4 -3.9923 8.6011 10.4264 36.5096 1.8533 -0.0732
# 5 -4.0879 9.8640 -0.8229 1.8533 28.8206 1.8767
# 6 -8.4340 2.1593 -4.5927 -0.0732 1.8767 31.5709
#
#
#
# Elastic Compliance Matrix: (Units=1/GPa)
#
#
# Indices 1 2 3 4 5 6 
#
# 1 0.016852 -0.001891 -0.002545 0.002896 0.002510 0.004119
# 2 -0.001891 0.010239 -0.004122 -0.001257 -0.003706 -0.001588
# 3 -0.002545 -0.004122 0.009605 -0.002120 0.001401 0.000911
# 4 0.002896 -0.001257 -0.002120 0.028666 -0.001107 0.000684
# 5 0.002510 -0.003706 0.001401 -0.001107 0.036501 -0.001044
# 6 0.004119 -0.001588 0.000911 0.000684 -0.001044 0.033080
#
#
# Mechanical properties :
#
#
# Convention : Reuss Voigt Hill
#
# Bulk Modulus (GPa) = 51.07113 62.51928 56.79520
# Shear Modulus (GPa) = 31.52869 34.78800 33.15834
#
# Velocity S-wave (km/s) = 3.85801 4.05252 3.95646
# Velocity P-wave (km/s) = 6.62990 7.17019 6.90534
#
# Compressibility (1/GPa) = 0.01958053
#
# Stress axis : x y z
#
# Youngs Moduli (GPa) = 59.33965 97.66644 104.10950
#
# Poissons Ratio (x) = 0.18470 0.26495
# Poissons Ratio (y) = 0.11222 0.42913
# Poissons Ratio (z) = 0.15102 0.40257
#
# Static dielectric constant tensor:
#      x y z
#    x 1.949390 -0.001730 -0.070590 
#    y -0.001730 1.735410 -0.017890 
#    z -0.070590 -0.017890 1.905980 
# 
# From -- ./inp_files/354452.got.cif
#   From: 2010.05.17/outbox.cif.g08.bks.cpg/sg2_178_cif.got.tgz:354452.got - 2010.06.03 11:33:40.
