data_PCOD9110146
_publ_section_title
;
Structure prediction by ZEFSAII (Michael W. Deem and Ramdas Pophale) SiO2 
 PCOD9110146
Probable space group: P -1
;
_chemical_formula_sum "Si O2"
_cell_formula_units_Z 12
_cell_length_a 11.091519
_cell_length_b 5.477900
_cell_length_c 9.354601
_cell_angle_alpha 97.245823
_cell_angle_beta 70.219961
_cell_angle_gamma 66.096318
_cell_volume 465.505466
_symmetry_space_group_name_H-M "P -1"
_symmetry_group_IT_number 2
_symmetry_cell_setting 'triclinic'
loop_
_space_group_symop_operation_xyz
x,y,z
-x,-y,-z
loop_
_atom_site_type_symbol
_atom_site_label
_atom_site_fract_x
_atom_site_fract_y
_atom_site_fract_z
Si Si1 0.359296 0.229670 0.661524
Si Si2 0.059504 0.308429 0.789567
Si Si3 0.426163 0.595820 0.882317
Si Si4 0.109705 0.056696 0.128796
Si Si5 0.874340 0.914462 0.549087
Si Si6 0.375845 0.535155 0.440921
O O1 0.407547 0.356903 0.783344
O O2 0.282768 0.459611 0.581659
O O3 0.500000 0.000000 0.500000
O O4 0.230541 0.165161 0.753566
O O5 0.984290 0.112912 0.840176
O O6 0.066954 0.318462 0.613058
O O7 0.972804 0.638223 0.889817
O O8 0.534317 0.657902 0.742634
O O9 0.500000 0.500000 0.000000
O O10 0.264693 0.847278 0.983252
O O11 0.149388 0.110939 0.277419
O O12 0.725804 0.165848 0.563983
O O13 0.000000 0.000000 0.500000
O O14 0.500000 0.500000 0.500000
#
# Coordination Sequence:
#
# PCOD9110146 Si02
#       6
#     2   2   2   2   2   2
#     4  11  25  44  75 109 148 202 253 308 373 458
#     4  11  24  45  72 110 150 195 251 304 380 454
#     4  11  24  47  72 107 154 193 253 310 382 444
#     4  11  25  44  74 110 149 197 243 318 377 444
#     4  10  20  41  70 103 144 189 249 304 370 444
#     4  10  21  42  72 102 144 193 248 302 369 449
#
# _framework density 25.778433
#
# number of rings (size 3 to 8) (size 9 to 14) (size 15 to 20)
#    0.000    1.333    1.667    4.500    0.000    5.333 
#    0.000    1.667    0.000    0.000    0.000    0.000 
#    0.000    0.000    0.000    0.000    0.000    0.000 
#
# Total GULP energy -67058.069302 kJ/mol
# GULP energy per Si atom -5588.172442 kJ/mol
# Density = 2.571976 g / cm^3
# Si number density = 25.778433 Si / 1000 Ang^3
#
#
#
# Elastic Constant Matrix: (Units=GPa)
#
#
# Indices 1 2 3 4 5 6 
#
# 1 154.6286 77.6229 66.2767 5.1454 -2.3021 -6.7119
# 2 77.6229 166.5015 76.6583 14.8689 0.8097 -19.0572
# 3 66.2767 76.6583 175.0263 5.5568 5.9696 -15.2745
# 4 5.1454 14.8689 5.5568 62.0865 -13.8323 -3.5931
# 5 -2.3021 0.8097 5.9696 -13.8323 47.0973 5.1700
# 6 -6.7119 -19.0572 -15.2745 -3.5931 5.1700 39.8013
#
#
#
# Elastic Compliance Matrix: (Units=1/GPa)
#
#
# Indices 1 2 3 4 5 6 
#
# 1 0.009019 -0.003415 -0.002053 0.000418 0.000992 -0.000993
# 2 -0.003415 0.009187 -0.002398 -0.001725 -0.000841 0.002856
# 3 -0.002053 -0.002398 0.007730 -0.000133 -0.001256 0.001623
# 4 0.000418 -0.001725 -0.000133 0.017672 0.005245 0.000108
# 5 0.000992 -0.000841 -0.001256 0.005245 0.023355 -0.003278
# 6 -0.000993 0.002856 0.001623 0.000108 -0.003278 0.027383
#
#
# Mechanical properties :
#
#
# Convention : Reuss Voigt Hill
#
# Bulk Modulus (GPa) = 98.00453 104.14134 101.07293
# Shear Modulus (GPa) = 44.06036 48.17025 46.11531
#
# Velocity S-wave (km/s) = 4.13873 4.32745 4.23414
# Velocity P-wave (km/s) = 7.80636 8.09045 7.94968
#
# Compressibility (1/GPa) = 0.01020361
#
# Stress axis : x y z
#
# Youngs Moduli (GPa) = 110.87218 108.84744 129.36804
#
# Poissons Ratio (x) = 0.37175 0.26563
# Poissons Ratio (y) = 0.37866 0.31020
# Poissons Ratio (z) = 0.22765 0.26100
#
# Static dielectric constant tensor:
#      x y z
#    x 2.077410 0.119220 -0.005890 
#    y 0.119220 2.279150 -0.036990 
#    z -0.005890 -0.036990 2.098060 
# 
# From -- ./inp_files/287894.got.cif
#   From: 2010.05.17/outbox.cif.g08.bks.cpg/sg2_144_cif.got.tgz:287894.got - 2010.06.03 11:33:40.
