data_PCOD9110540
_publ_section_title
;
Structure prediction by ZEFSAII (Michael W. Deem and Ramdas Pophale) SiO2 
 PCOD9110540
Probable space group: P -1
;
_chemical_formula_sum "Si O2"
_cell_formula_units_Z 16
_cell_length_a 18.639809
_cell_length_b 18.226186
_cell_length_c 8.237028
_cell_angle_alpha 136.121658
_cell_angle_beta 43.813472
_cell_angle_gamma 159.861379
_cell_volume 655.903605
_symmetry_space_group_name_H-M "P -1"
_symmetry_group_IT_number 2
_symmetry_cell_setting 'triclinic'
loop_
_space_group_symop_operation_xyz
x,y,z
-x,-y,-z
loop_
_atom_site_type_symbol
_atom_site_label
_atom_site_fract_x
_atom_site_fract_y
_atom_site_fract_z
Si Si1 0.047143 0.974125 0.224586
Si Si2 0.192803 0.792402 0.536627
Si Si3 0.698405 0.443385 0.265610
Si Si4 0.426624 0.152378 0.928643
Si Si5 0.795506 0.588417 0.844165
Si Si6 0.548475 0.135263 0.264139
Si Si7 0.975948 0.429194 0.109616
Si Si8 0.298211 0.359723 0.215398
O O1 0.222866 0.044986 0.097148
O O2 0.148332 0.132886 0.165065
O O3 0.000000 0.000000 0.500000
O O4 0.838835 0.724692 0.111600
O O5 0.977044 0.664774 0.698128
O O6 0.124434 0.616037 0.302920
O O7 0.331167 0.961211 0.432525
O O8 0.340622 0.960095 0.712460
O O9 0.558015 0.282355 0.085501
O O10 0.623334 0.304819 0.317736
O O11 0.657992 0.528069 0.518555
O O12 0.939881 0.616425 0.113037
O O13 0.576332 0.335539 0.836322
O O14 0.816670 0.660173 0.748666
O O15 0.738142 0.256434 0.255876
O O16 0.500000 0.000000 0.000000
O O17 0.000000 0.500000 0.000000
O O18 0.500000 0.500000 0.000000
#
# Coordination Sequence:
#
# PCOD9110540 Si02
#       8
#     2   2   2   2   2   2   2   2
#     4  11  26  45  70 101 141 186 235 298 353 410
#     4  11  22  42  71  99 136 179 228 285 347 419
#     4  11  25  42  70 100 138 185 229 284 357 416
#     4  11  25  46  66 100 145 185 226 292 357 420
#     4  11  24  45  70 100 138 181 239 287 350 419
#     4  11  22  43  72 100 136 177 232 294 342 417
#     4  10  20  42  64 101 133 177 227 287 348 415
#     4  12  25  44  73 103 135 190 240 290 349 416
#
# _framework density 24.393830000000001
#
# number of rings (size 3 to 8) (size 9 to 14) (size 15 to 20)
#    0.000    1.000    3.750    4.125    3.500    2.500 
#    4.500    1.250    0.000    0.000    0.000    0.000 
#    0.000    0.000    0.000    0.000    0.000    0.000 
#
# Total GULP energy -89463.500292 kJ/mol
# GULP energy per Si atom -5591.468768 kJ/mol
# Density = 2.433831 g / cm^3
# Si number density = 24.393830 Si / 1000 Ang^3
#
#
#
# Elastic Constant Matrix: (Units=GPa)
#
#
# Indices 1 2 3 4 5 6 
#
# 1 84.1989 22.2231 15.6443 5.1835 9.2983 -14.8870
# 2 22.2231 84.6506 31.8115 12.7385 -5.6014 -1.2846
# 3 15.6443 31.8115 140.8091 25.3777 1.7945 3.3056
# 4 5.1835 12.7385 25.3777 45.5585 2.7573 12.7023
# 5 9.2983 -5.6014 1.7945 2.7573 32.9504 4.6331
# 6 -14.8870 -1.2846 3.3056 12.7023 4.6331 35.5631
#
#
#
# Elastic Compliance Matrix: (Units=1/GPa)
#
#
# Indices 1 2 3 4 5 6 
#
# 1 0.015100 -0.003688 -0.000558 -0.002195 -0.005767 0.007775
# 2 -0.003688 0.014296 -0.002440 -0.002320 0.003865 -0.000476
# 3 -0.000558 -0.002440 0.008439 -0.004038 -0.000434 0.000393
# 4 -0.002195 -0.002320 -0.004038 0.028079 -0.000414 -0.010602
# 5 -0.005767 0.003865 -0.000434 -0.000414 0.033600 -0.006464
# 6 0.007775 -0.000476 0.000393 -0.010602 -0.006464 0.035949
#
#
# Mechanical properties :
#
#
# Convention : Reuss Voigt Hill
#
# Bulk Modulus (GPa) = 40.87671 49.89071 45.38371
# Shear Modulus (GPa) = 31.84908 38.81303 35.33106
#
# Velocity S-wave (km/s) = 3.61726 3.99319 3.80986
# Velocity P-wave (km/s) = 5.85145 6.46199 6.16428
#
# Compressibility (1/GPa) = 0.02446381
#
# Stress axis : x y z
#
# Youngs Moduli (GPa) = 66.22337 69.94959 118.49460
#
# Poissons Ratio (x) = 0.25797 0.06612
# Poissons Ratio (y) = 0.24423 0.28913
# Poissons Ratio (z) = 0.03695 0.17068
#
# Static dielectric constant tensor:
#      x y z
#    x 1.948510 -0.009420 0.055350 
#    y -0.009420 1.959950 0.022010 
#    z 0.055350 0.022010 2.026630 
# 
# From -- ./inp_files/349718.got.cif
#   From: 2010.05.17/outbox.cif.g08.bks.cpg/sg2_175_cif.got.tgz:349718.got - 2010.06.03 11:33:40.
