data_PCOD9110538
_publ_section_title
;
Structure prediction by ZEFSAII (Michael W. Deem and Ramdas Pophale) SiO2 
 PCOD9110538
Probable space group: P -1
;
_chemical_formula_sum "Si O2"
_cell_formula_units_Z 15
_cell_length_a 14.758781
_cell_length_b 9.437683
_cell_length_c 8.346562
_cell_angle_alpha 75.543505
_cell_angle_beta 116.213445
_cell_angle_gamma 141.926063
_cell_volume 633.016598
_symmetry_space_group_name_H-M "P -1"
_symmetry_group_IT_number 2
_symmetry_cell_setting 'triclinic'
loop_
_space_group_symop_operation_xyz
x,y,z
-x,-y,-z
loop_
_atom_site_type_symbol
_atom_site_label
_atom_site_fract_x
_atom_site_fract_y
_atom_site_fract_z
Si Si1 0.097788 0.429549 0.720537
Si Si2 0.518463 0.375137 0.817330
Si Si3 0.652115 0.796284 0.976614
Si Si4 0.500000 0.000000 0.500000
Si Si5 0.256111 0.883506 0.588088
Si Si6 0.262918 0.486697 0.328626
Si Si7 0.821888 0.762644 0.364599
Si Si8 0.974675 0.300592 0.009397
O O1 0.217441 0.704009 0.728255
O O2 0.168245 0.375253 0.690923
O O3 0.922544 0.267607 0.555021
O O4 0.053281 0.344048 0.891192
O O5 0.481630 0.274883 0.998172
O O6 0.663663 0.484217 0.789795
O O7 0.361259 0.135350 0.670013
O O8 0.568916 0.598936 0.836593
O O9 0.745798 0.797303 0.177150
O O10 0.786492 0.051703 0.937941
O O11 0.642755 0.070773 0.490558
O O12 0.635943 0.259619 0.611193
O O13 0.275687 0.381191 0.508113
O O14 0.077511 0.326403 0.211795
O O15 0.000000 0.000000 0.500000
O O16 0.000000 0.500000 0.000000
#
# Coordination Sequence:
#
# PCOD9110538 Si02
#       8
#     2   2   2   1   2   2   2   2
#     4  11  24  41  72  99 131 180 225 278 323 398
#     4  10  24  46  68  97 142 173 218 282 333 408
#     4  11  25  48  66 100 137 177 226 271 343 395
#     4  10  20  42  64 100 138 170 216 280 322 398
#     4  10  21  44  69  99 136 171 229 267 337 395
#     4  11  24  45  69 102 133 176 227 269 341 393
#     4  12  24  42  73  98 136 179 223 280 323 404
#     4  12  26  45  72  99 130 178 229 281 328 398
#
# _framework density 23.696062000000001
#
# number of rings (size 3 to 8) (size 9 to 14) (size 15 to 20)
#    0.000    1.067    2.667    3.200    3.733    1.600 
#   16.800    4.000    0.000    0.000    0.000    0.000 
#    0.000    0.000    0.000    0.000    0.000    0.000 
#
# Total GULP energy -83604.566404 kJ/mol
# GULP energy per Si atom -5573.637760 kJ/mol
# Density = 2.364213 g / cm^3
# Si number density = 23.696062 Si / 1000 Ang^3
#
#
#
# Elastic Constant Matrix: (Units=GPa)
#
#
# Indices 1 2 3 4 5 6 
#
# 1 117.6583 59.8436 45.0998 4.8264 -32.7195 6.6541
# 2 59.8436 152.5846 52.0061 16.0803 -14.0981 14.3164
# 3 45.0998 52.0061 75.3887 0.6094 -6.7111 -5.9062
# 4 4.8264 16.0803 0.6094 32.4603 -3.3770 -1.7166
# 5 -32.7195 -14.0981 -6.7111 -3.3770 40.2121 9.1107
# 6 6.6541 14.3164 -5.9062 -1.7166 9.1107 33.8357
#
#
#
# Elastic Compliance Matrix: (Units=1/GPa)
#
#
# Indices 1 2 3 4 5 6 
#
# 1 0.016648 -0.001776 -0.008142 -0.000464 0.013232 -0.007530
# 2 -0.001776 0.010859 -0.006679 -0.005088 0.002241 -0.006272
# 3 -0.008142 -0.006679 0.022897 0.003898 -0.007212 0.010564
# 4 -0.000464 -0.005088 0.003898 0.033593 0.000278 0.004554
# 5 0.013232 0.002241 -0.007212 0.000278 0.038686 -0.015212
# 6 -0.007530 -0.006272 0.010564 0.004554 -0.015212 0.039860
#
#
# Mechanical properties :
#
#
# Convention : Reuss Voigt Hill
#
# Bulk Modulus (GPa) = 58.10985 73.28116 65.69550
# Shear Modulus (GPa) = 24.81700 33.88043 29.34872
#
# Velocity S-wave (km/s) = 3.23972 3.78536 3.52312
# Velocity P-wave (km/s) = 6.21052 7.07798 6.65840
#
# Compressibility (1/GPa) = 0.01720879
#
# Stress axis : x y z
#
# Youngs Moduli (GPa) = 60.06674 92.09336 43.67370
#
# Poissons Ratio (x) = 0.16357 0.35561
# Poissons Ratio (y) = 0.10669 0.29169
# Poissons Ratio (z) = 0.48909 0.61508
#
# Static dielectric constant tensor:
#      x y z
#    x 1.924420 0.044180 0.024130 
#    y 0.044180 1.924090 -0.089020 
#    z 0.024130 -0.089020 1.996760 
# 
# From -- ./inp_files/298330.got.cif
#   From: 2010.05.17/outbox.cif.g08.bks.cpg/sg2_150_cif.got.tgz:298330.got - 2010.06.03 11:33:40.
