data_PCOD9110758
_publ_section_title
;
Structure prediction by ZEFSAII (Michael W. Deem and Ramdas Pophale) SiO2 
 PCOD9110758
Probable space group: P -1
;
_chemical_formula_sum "Si O2"
_cell_formula_units_Z 15
_cell_length_a 6.498498
_cell_length_b 5.001430
_cell_length_c 21.287769
_cell_angle_alpha 72.674628
_cell_angle_beta 58.577737
_cell_angle_gamma 78.034765
_cell_volume 562.483135
_symmetry_space_group_name_H-M "P -1"
_symmetry_group_IT_number 2
_symmetry_cell_setting 'triclinic'
loop_
_space_group_symop_operation_xyz
x,y,z
-x,-y,-z
loop_
_atom_site_type_symbol
_atom_site_label
_atom_site_fract_x
_atom_site_fract_y
_atom_site_fract_z
Si Si1 0.313677 0.792615 0.387222
Si Si2 0.000000 0.500000 0.000000
Si Si3 0.683732 0.330583 0.738658
Si Si4 0.766817 0.925235 0.119140
Si Si5 0.302371 0.830068 0.718172
Si Si6 0.577407 0.706538 0.038657
Si Si7 0.428705 0.193411 0.439654
Si Si8 0.901047 0.477877 0.818820
O O1 0.193524 0.760650 0.340876
O O2 0.320359 0.506333 0.445061
O O3 0.582933 0.871387 0.314835
O O4 0.257232 0.041756 0.427654
O O5 0.770412 0.523921 0.981190
O O6 0.141962 0.770109 0.924541
O O7 0.508641 0.103438 0.812193
O O8 0.497798 0.603814 0.735218
O O9 0.874742 0.409630 0.754230
O O10 0.777206 0.767095 0.059300
O O11 0.936161 0.754339 0.152922
O O12 0.333095 0.777531 0.642611
O O13 0.037802 0.761832 0.785359
O O14 0.370891 0.545337 0.113701
O O15 0.500000 0.000000 0.000000
O O16 0.500000 0.000000 0.500000
#
# Coordination Sequence:
#
# PCOD9110758 Si02
#       8
#     2   1   2   2   2   2   2   2
#     4   9  18  35  61  93 133 169 227 275 327 404
#     4  12  24  42  64  92 126 172 218 282 348 428
#     4   9  19  38  59  88 127 172 218 282 342 395
#     4  10  23  42  62  93 127 163 228 284 333 423
#     4   8  19  35  60  92 127 169 225 274 329 412
#     4  11  24  44  64  90 132 168 224 284 349 416
#     4   9  17  33  64  98 131 177 219 272 338 401
#     4  10  20  42  66  88 131 175 220 290 348 396
#
# _framework density 26.667466000000001
#
# number of rings (size 3 to 8) (size 9 to 14) (size 15 to 20)
#    0.800    1.600    1.333    0.800    0.000    3.733 
#    0.000   10.667    0.000    4.000    0.000    0.000 
#    0.000    0.000    0.000    0.000    0.000    0.000 
#
# Total GULP energy -83721.297084 kJ/mol
# GULP energy per Si atom -5581.419806 kJ/mol
# Density = 2.660677 g / cm^3
# Si number density = 26.667466 Si / 1000 Ang^3
#
#
#
# Elastic Constant Matrix: (Units=GPa)
#
#
# Indices 1 2 3 4 5 6 
#
# 1 123.1453 22.4110 53.6554 -4.2253 12.0642 -5.1391
# 2 22.4110 106.4110 40.2136 -37.4066 5.7137 18.5410
# 3 53.6554 40.2136 124.5585 -33.4854 18.1135 9.3175
# 4 -4.2253 -37.4066 -33.4854 38.5491 1.0814 6.9303
# 5 12.0642 5.7137 18.1135 1.0814 38.1761 7.2550
# 6 -5.1391 18.5410 9.3175 6.9303 7.2550 38.0659
#
#
#
# Elastic Compliance Matrix: (Units=1/GPa)
#
#
# Indices 1 2 3 4 5 6 
#
# 1 0.012220 -0.005279 -0.007103 -0.011403 -0.000939 0.008215
# 2 -0.005279 0.021323 0.003914 0.026543 -0.000957 -0.016707
# 3 -0.007103 0.003914 0.016357 0.019057 -0.004853 -0.009414
# 4 -0.011403 0.026543 0.019057 0.072789 -0.005518 -0.031333
# 5 -0.000939 -0.000957 -0.004853 -0.005518 0.029688 -0.003126
# 6 0.008215 -0.016707 -0.009414 -0.031333 -0.003126 0.044121
#
#
# Mechanical properties :
#
#
# Convention : Reuss Voigt Hill
#
# Bulk Modulus (GPa) = 30.33492 65.18608 47.76050
# Shear Modulus (GPa) = 22.27956 38.81388 30.54672
#
# Velocity S-wave (km/s) = 2.89357 3.81921 3.38815
# Velocity P-wave (km/s) = 4.75011 6.62915 5.76668
#
# Compressibility (1/GPa) = 0.03296531
#
# Stress axis : x y z
#
# Youngs Moduli (GPa) = 81.83606 46.89768 61.13423
#
# Poissons Ratio (x) = 0.24756 0.43423
# Poissons Ratio (y) = 0.43199 -0.23930
# Poissons Ratio (z) = 0.58128 -0.18357
#
# Static dielectric constant tensor:
#      x y z
#    x 2.178800 -0.100640 -0.011270 
#    y -0.100640 2.317550 0.148070 
#    z -0.011270 0.148070 2.141270 
# 
# From -- ./inp_files/602827.got.cif
#   From: 2010.05.17/outbox.cif.g08.bks.cpg/sg2_302_cif.got.tgz:602827.got - 2010.06.03 11:33:40.
