data_PCOD9110093
_publ_section_title
;
Structure prediction by ZEFSAII (Michael W. Deem and Ramdas Pophale) SiO2 
 PCOD9110093
Probable space group: P -1
;
_chemical_formula_sum "Si O2"
_cell_formula_units_Z 12
_cell_length_a 11.792899
_cell_length_b 9.085047
_cell_length_c 7.099773
_cell_angle_alpha 106.890339
_cell_angle_beta 124.103640
_cell_angle_gamma 46.375121
_cell_volume 450.006419
_symmetry_space_group_name_H-M "P -1"
_symmetry_group_IT_number 2
_symmetry_cell_setting 'triclinic'
loop_
_space_group_symop_operation_xyz
x,y,z
-x,-y,-z
loop_
_atom_site_type_symbol
_atom_site_label
_atom_site_fract_x
_atom_site_fract_y
_atom_site_fract_z
Si Si1 0.895705 0.884292 0.329753
Si Si2 0.109228 0.912418 0.264853
Si Si3 0.549121 0.180258 0.561406
Si Si4 0.183073 0.408875 0.827805
Si Si5 0.209080 0.299639 0.390477
Si Si6 0.534802 0.299725 0.014826
O O1 0.041742 0.107717 0.402932
O O2 0.814178 0.775531 0.196696
O O3 0.727676 0.125868 0.225930
O O4 0.049089 0.810024 0.291881
O O5 0.326191 0.773600 0.379182
O O6 0.000000 0.000000 0.000000
O O7 0.335818 0.303591 0.369353
O O8 0.666665 0.940456 0.533958
O O9 0.549095 0.196157 0.793750
O O10 0.170783 0.425738 0.591768
O O11 0.993599 0.601921 0.819489
O O12 0.371386 0.357497 0.013690
O O13 0.500000 0.500000 0.000000
#
# Coordination Sequence:
#
# PCOD9110093 Si02
#       6
#     2   2   2   2   2   2
#     4  11  24  43  72 105 144 191 234 295 363 414
#     4  11  23  41  72 101 142 190 235 287 358 422
#     4  10  20  41  69  95 141 185 237 287 348 421
#     4  10  21  41  70 103 144 182 245 285 355 437
#     4   9  20  38  71 101 136 193 231 290 357 415
#     4  11  25  43  71 105 143 192 234 298 364 419
#
# _framework density 26.666285999999999
#
# number of rings (size 3 to 8) (size 9 to 14) (size 15 to 20)
#    0.000    1.667    3.333    0.500    2.333    4.000 
#    0.000    4.167    0.000    0.000    0.000    0.000 
#    0.000    0.000    0.000    0.000    0.000    0.000 
#
# Total GULP energy -67156.146623 kJ/mol
# GULP energy per Si atom -5596.345552 kJ/mol
# Density = 2.660559 g / cm^3
# Si number density = 26.666286 Si / 1000 Ang^3
#
#
#
# Elastic Constant Matrix: (Units=GPa)
#
#
# Indices 1 2 3 4 5 6 
#
# 1 309.7703 44.3094 54.3467 -15.9308 46.1051 -16.4207
# 2 44.3094 121.0651 27.4072 -6.6907 19.1382 -0.7294
# 3 54.3467 27.4072 63.4344 14.1094 1.6221 -6.0336
# 4 -15.9308 -6.6907 14.1094 31.8959 -13.2644 9.4745
# 5 46.1051 19.1382 1.6221 -13.2644 57.0557 -5.0570
# 6 -16.4207 -0.7294 -6.0336 9.4745 -5.0570 52.2023
#
#
#
# Elastic Compliance Matrix: (Units=1/GPa)
#
#
# Indices 1 2 3 4 5 6 
#
# 1 0.004622 -0.000037 -0.004551 0.003096 -0.002866 0.000088
# 2 -0.000037 0.010042 -0.005225 0.003805 -0.002430 -0.001401
# 3 -0.004551 -0.005225 0.025738 -0.015443 0.001500 0.004418
# 4 0.003096 0.003805 -0.015443 0.045756 0.006551 -0.008428
# 5 -0.002866 -0.002430 0.001500 0.006551 0.022155 0.000195
# 6 0.000088 -0.001401 0.004418 -0.008428 0.000195 0.021223
#
#
# Mechanical properties :
#
#
# Convention : Reuss Voigt Hill
#
# Bulk Modulus (GPa) = 48.13098 82.93294 65.53196
# Shear Modulus (GPa) = 32.03305 52.77787 42.40546
#
# Velocity S-wave (km/s) = 3.46967 4.45364 3.99209
# Velocity P-wave (km/s) = 5.84295 7.59042 6.77327
#
# Compressibility (1/GPa) = 0.02077664
#
# Stress axis : x y z
#
# Youngs Moduli (GPa) = 216.33757 99.57931 38.85308
#
# Poissons Ratio (x) = 0.00366 0.17684
# Poissons Ratio (y) = 0.00794 0.20300
# Poissons Ratio (z) = 0.98464 0.52029
#
# Static dielectric constant tensor:
#      x y z
#    x 2.140300 -0.002760 0.041250 
#    y -0.002760 2.098570 0.014330 
#    z 0.041250 0.014330 2.209320 
# 
# From -- ./inp_files/244690.got.cif
#   From: 2010.05.17/outbox.cif.g08.bks.cpg/sg2_123_cif.got.tgz:244690.got - 2010.06.03 11:33:40.
