data_PCOD9110414
_publ_section_title
;
Structure prediction by ZEFSAII (Michael W. Deem and Ramdas Pophale) SiO2 
 PCOD9110414
Probable space group: P -1
;
_chemical_formula_sum "Si O2"
_cell_formula_units_Z 14
_cell_length_a 10.257601
_cell_length_b 7.692841
_cell_length_c 9.637125
_cell_angle_alpha 67.066998
_cell_angle_beta 104.770536
_cell_angle_gamma 69.783689
_cell_volume 586.643057
_symmetry_space_group_name_H-M "P -1"
_symmetry_group_IT_number 2
_symmetry_cell_setting 'triclinic'
loop_
_space_group_symop_operation_xyz
x,y,z
-x,-y,-z
loop_
_atom_site_type_symbol
_atom_site_label
_atom_site_fract_x
_atom_site_fract_y
_atom_site_fract_z
Si Si1 0.763995 0.276167 0.792159
Si Si2 0.309464 0.490254 0.559075
Si Si3 0.616946 0.746580 0.081127
Si Si4 0.027452 0.174706 0.533448
Si Si5 0.430968 0.287343 0.234404
Si Si6 0.701989 0.857795 0.532094
Si Si7 0.114770 0.154515 0.869906
O O1 0.685060 0.337057 0.598980
O O2 0.654411 0.475890 0.796969
O O3 0.931584 0.267073 0.824582
O O4 0.801081 0.051386 0.940427
O O5 0.398114 0.393728 0.755941
O O6 0.346728 0.282279 0.538035
O O7 0.131432 0.620579 0.522828
O O8 0.789692 0.718631 0.133396
O O9 0.578160 0.694766 0.937097
O O10 0.500000 0.000000 0.000000
O O11 0.121238 0.233962 0.431429
O O12 0.122877 0.085886 0.731269
O O13 0.000000 0.000000 0.500000
O O14 0.335124 0.178235 0.311014
O O15 0.604512 0.111559 0.385243
#
# Coordination Sequence:
#
# PCOD9110414 Si02
#       7
#     2   2   2   2   2   2   2
#     4   9  22  41  63  87 124 163 198 246 311 349
#     4  10  21  40  65  85 122 165 197 248 299 361
#     4  12  23  40  64  93 121 158 206 247 301 360
#     4  11  23  38  63  91 122 158 204 249 300 359
#     4  10  22  37  65  89 121 157 203 252 292 363
#     4  10  20  42  61  90 121 158 203 248 301 353
#     4  10  22  42  63  87 128 160 197 255 301 356
#
# _framework density 23.864598000000001
#
# number of rings (size 3 to 8) (size 9 to 14) (size 15 to 20)
#    0.000    1.714    2.857    0.429    6.000    4.000 
#    2.571    2.143    0.000    0.000    0.000    0.000 
#    0.000    0.000    0.000    0.000    0.000    0.000 
#
# Total GULP energy -78286.593176 kJ/mol
# GULP energy per Si atom -5591.899513 kJ/mol
# Density = 2.381028 g / cm^3
# Si number density = 23.864598 Si / 1000 Ang^3
#
#
#
# Elastic Constant Matrix: (Units=GPa)
#
#
# Indices 1 2 3 4 5 6 
#
# 1 56.8274 19.3466 4.9231 -3.3566 3.7382 -1.6294
# 2 19.3466 90.1224 41.5839 -7.2412 -1.4357 -28.1042
# 3 4.9231 41.5839 186.3652 -8.2149 -19.1407 -1.3163
# 4 -3.3566 -7.2412 -8.2149 34.4673 -1.8381 -2.9737
# 5 3.7382 -1.4357 -19.1407 -1.8381 22.6275 0.3928
# 6 -1.6294 -28.1042 -1.3163 -2.9737 0.3928 32.0616
#
#
#
# Elastic Compliance Matrix: (Units=1/GPa)
#
#
# Indices 1 2 3 4 5 6 
#
# 1 0.019590 -0.005609 0.000396 0.000324 -0.003164 -0.003836
# 2 -0.005609 0.019949 -0.004130 0.004096 -0.001271 0.017428
# 3 0.000396 -0.004130 0.006865 0.000820 0.005604 -0.003311
# 4 0.000324 0.004096 0.000820 0.030834 0.003293 0.006460
# 5 -0.003164 -0.001271 0.005604 0.003293 0.049667 -0.001348
# 6 -0.003836 0.017428 -0.003311 0.006460 -0.001348 0.046752
#
#
# Mechanical properties :
#
#
# Convention : Reuss Voigt Hill
#
# Bulk Modulus (GPa) = 36.07602 51.66913 43.87257
# Shear Modulus (GPa) = 24.80385 35.66204 30.23294
#
# Velocity S-wave (km/s) = 3.22740 3.86988 3.56315
# Velocity P-wave (km/s) = 5.38869 6.45491 5.94575
#
# Compressibility (1/GPa) = 0.02771925
#
# Stress axis : x y z
#
# Youngs Moduli (GPa) = 51.04763 50.12677 145.66182
#
# Poissons Ratio (x) = 0.28114 -0.05771
# Poissons Ratio (y) = 0.28631 0.60159
# Poissons Ratio (z) = -0.02022 0.20703
#
# Static dielectric constant tensor:
#      x y z
#    x 1.965790 0.023610 0.015690 
#    y 0.023610 1.865080 -0.025550 
#    z 0.015690 -0.025550 1.937550 
# 
# From -- ./inp_files/198703.got.cif
#   From: 2010.05.17/outbox.cif.g08.bks.cpg/sg2_100_cif.got.tgz:198703.got - 2010.06.03 11:33:40.
