data_PCOD9110092
_publ_section_title
;
Structure prediction by ZEFSAII (Michael W. Deem and Ramdas Pophale) SiO2 
 PCOD9110092
Probable space group: P -1
;
_chemical_formula_sum "Si O2"
_cell_formula_units_Z 15
_cell_length_a 11.857992
_cell_length_b 12.754736
_cell_length_c 11.432921
_cell_angle_alpha 133.487027
_cell_angle_beta 144.328598
_cell_angle_gamma 38.818859
_cell_volume 624.832081
_symmetry_space_group_name_H-M "P -1"
_symmetry_group_IT_number 2
_symmetry_cell_setting 'triclinic'
loop_
_space_group_symop_operation_xyz
x,y,z
-x,-y,-z
loop_
_atom_site_type_symbol
_atom_site_label
_atom_site_fract_x
_atom_site_fract_y
_atom_site_fract_z
Si Si1 0.249247 0.795154 0.206407
Si Si2 0.500000 0.500000 0.000000
Si Si3 0.277009 0.303544 0.345994
Si Si4 0.316081 0.284861 0.086782
Si Si5 0.134575 0.670099 0.233457
Si Si6 0.797228 0.158708 0.383315
Si Si7 0.895428 0.349563 0.417667
Si Si8 0.769259 0.891625 0.653670
O O1 0.478158 0.755934 0.438303
O O2 0.110011 0.775860 0.178837
O O3 0.147465 0.981152 0.209732
O O4 0.329191 0.658563 0.065845
O O5 0.305113 0.575829 0.789147
O O6 0.300199 0.281198 0.210841
O O7 0.124537 0.499016 0.405053
O O8 0.185274 0.195780 0.249465
O O9 0.245525 0.475703 0.139949
O O10 0.571170 0.155530 0.162096
O O11 0.106006 0.267779 0.858992
O O12 0.282515 0.693300 0.472934
O O13 0.876192 0.217480 0.383109
O O14 0.000000 0.000000 0.500000
O O15 0.127997 0.255338 0.469386
O O16 0.500000 0.000000 0.500000
#
# Coordination Sequence:
#
# PCOD9110092 Si02
#       8
#     2   1   2   2   2   2   2   2
#     4  10  21  43  67  95 141 185 225 288 353 413
#     4  10  24  40  64 102 130 184 238 274 342 418
#     4  10  20  41  69  95 136 181 236 284 340 424
#     4  11  23  42  70 105 131 183 238 287 347 416
#     4  11  23  43  73 101 135 184 238 288 349 421
#     4  12  25  45  73 102 148 184 232 292 358 421
#     4  11  23  43  69 100 140 187 233 288 350 420
#     4  10  23  41  65  99 133 181 229 283 354 411
#
# _framework density 24.006451999999999
#
# number of rings (size 3 to 8) (size 9 to 14) (size 15 to 20)
#    0.000    1.333    2.667    3.200    3.733    1.067 
#    2.400    2.667    0.000    0.000    0.000    0.000 
#    0.000    0.000    0.000    0.000    0.000    0.000 
#
# Total GULP energy -83679.473902 kJ/mol
# GULP energy per Si atom -5578.631593 kJ/mol
# Density = 2.395181 g / cm^3
# Si number density = 24.006452 Si / 1000 Ang^3
#
#
#
# Elastic Constant Matrix: (Units=GPa)
#
#
# Indices 1 2 3 4 5 6 
#
# 1 109.4511 34.8641 10.3736 -5.3840 4.9451 28.6212
# 2 34.8641 96.4081 3.8763 -15.6117 21.1529 11.3024
# 3 10.3736 3.8763 60.4759 -15.7731 -3.7150 10.7435
# 4 -5.3840 -15.6117 -15.7731 29.0043 -4.7190 5.3770
# 5 4.9451 21.1529 -3.7150 -4.7190 42.3810 -2.7517
# 6 28.6212 11.3024 10.7435 5.3770 -2.7517 45.0856
#
#
#
# Elastic Compliance Matrix: (Units=1/GPa)
#
#
# Indices 1 2 3 4 5 6 
#
# 1 0.012119 -0.003261 -0.000184 0.001687 -0.000072 -0.007038
# 2 -0.003261 0.014451 0.001896 0.007839 -0.006008 -0.003306
# 3 -0.000184 0.001896 0.021585 0.014382 0.002108 -0.007089
# 4 0.001687 0.007839 0.014382 0.049403 0.001857 -0.012242
# 5 -0.000072 -0.006008 0.002108 0.001857 0.027155 0.002485
# 6 -0.007038 -0.003306 -0.007089 -0.012242 0.002485 0.030777
#
#
# Mechanical properties :
#
#
# Convention : Reuss Voigt Hill
#
# Bulk Modulus (GPa) = 22.19395 40.50700 31.35048
# Shear Modulus (GPa) = 28.80033 37.77558 33.28796
#
# Velocity S-wave (km/s) = 3.46741 3.97112 3.72778
# Velocity P-wave (km/s) = 5.02948 6.15925 5.62281
#
# Compressibility (1/GPa) = 0.04505732
#
# Stress axis : x y z
#
# Youngs Moduli (GPa) = 82.51242 69.20004 46.32752
#
# Poissons Ratio (x) = 0.22568 0.00852
# Poissons Ratio (y) = 0.26910 -0.08784
# Poissons Ratio (z) = 0.01517 -0.13120
#
# Static dielectric constant tensor:
#      x y z
#    x 1.894650 0.008680 0.059630 
#    y 0.008680 1.947680 0.023630 
#    z 0.059630 0.023630 1.934870 
# 
# From -- ./inp_files/389627.got.cif
#   From: 2010.05.17/outbox.cif.g08.bks.cpg/sg2_195_cif.got.tgz:389627.got - 2010.06.03 11:33:40.
