data_PCOD9110068
_publ_section_title
;
Structure prediction by ZEFSAII (Michael W. Deem and Ramdas Pophale) SiO2 
 PCOD9110068
Probable space group: P -1
;
_chemical_formula_sum "Si O2"
_cell_formula_units_Z 16
_cell_length_a 13.848239
_cell_length_b 12.232425
_cell_length_c 8.326605
_cell_angle_alpha 102.117149
_cell_angle_beta 94.813288
_cell_angle_gamma 32.588712
_cell_volume 731.116518
_symmetry_space_group_name_H-M "P -1"
_symmetry_group_IT_number 2
_symmetry_cell_setting 'triclinic'
loop_
_space_group_symop_operation_xyz
x,y,z
-x,-y,-z
loop_
_atom_site_type_symbol
_atom_site_label
_atom_site_fract_x
_atom_site_fract_y
_atom_site_fract_z
Si Si1 0.560181 0.487446 0.238722
Si Si2 0.489905 0.010020 0.804817
Si Si3 0.718081 0.209469 0.445277
Si Si4 0.586822 0.664438 0.692663
Si Si5 0.923701 0.585262 0.193962
Si Si6 0.007559 0.240848 0.583053
Si Si7 0.817173 0.847946 0.743772
Si Si8 0.443477 0.734142 0.020825
O O1 0.704433 0.323028 0.349981
O O2 0.363702 0.670800 0.358559
O O3 0.596799 0.348333 0.082533
O O4 0.544600 0.613201 0.167111
O O5 0.288556 0.233697 0.788396
O O6 0.537735 0.839237 0.701731
O O7 0.635081 0.952248 0.732154
O O8 0.500000 0.000000 0.000000
O O9 0.565178 0.268105 0.383671
O O10 0.903601 0.959559 0.398109
O O11 0.568507 0.669560 0.884798
O O12 0.791732 0.441356 0.601346
O O13 0.954388 0.682483 0.287537
O O14 0.032622 0.387404 0.250679
O O15 0.000000 0.500000 0.000000
O O16 0.109483 0.163212 0.406007
O O17 0.742318 0.014774 0.907645
#
# Coordination Sequence:
#
# PCOD9110068 Si02
#       8
#     2   2   2   2   2   2   2   2
#     4   9  20  41  70  91 121 170 222 265 326 378
#     4  12  22  40  64  95 132 174 212 254 311 391
#     4  10  21  42  70  93 126 171 211 271 329 373
#     4  11  22  40  66  93 131 170 214 257 323 387
#     4  12  24  40  65  94 133 176 213 253 316 387
#     4  12  25  42  63  99 136 168 212 267 320 381
#     4  12  25  41  65  98 137 170 211 265 317 380
#     4  10  20  41  69  93 125 171 214 271 321 374
#
# _framework density 21.884338
#
# number of rings (size 3 to 8) (size 9 to 14) (size 15 to 20)
#    0.000    1.000    6.250    0.375    1.750    1.500 
#    0.000    6.250    0.000    0.000    0.000    0.000 
#    0.000    0.000    0.000    0.000    0.000    0.000 
#
# Total GULP energy -89401.443903 kJ/mol
# GULP energy per Si atom -5587.590244 kJ/mol
# Density = 2.183453 g / cm^3
# Si number density = 21.884338 Si / 1000 Ang^3
#
#
#
# Elastic Constant Matrix: (Units=GPa)
#
#
# Indices 1 2 3 4 5 6 
#
# 1 38.9408 29.3870 20.4806 8.2832 -6.3338 -15.2317
# 2 29.3870 155.6688 16.9342 33.4695 -0.2599 -3.2992
# 3 20.4806 16.9342 73.5426 19.3169 -5.1915 0.5500
# 4 8.2832 33.4695 19.3169 33.5023 7.6340 -3.3919
# 5 -6.3338 -0.2599 -5.1915 7.6340 39.4113 8.1054
# 6 -15.2317 -3.2992 0.5500 -3.3919 8.1054 41.1346
#
#
#
# Elastic Compliance Matrix: (Units=1/GPa)
#
#
# Indices 1 2 3 4 5 6 
#
# 1 0.042577 -0.007512 -0.011444 0.004882 0.001154 0.015491
# 2 -0.007512 0.009650 0.002666 -0.010063 0.001821 -0.003232
# 3 -0.011444 0.002666 0.019968 -0.013036 0.004625 -0.006277
# 4 0.004882 -0.010063 -0.013036 0.049774 -0.012221 0.007687
# 5 0.001154 0.001821 0.004625 -0.012221 0.029859 -0.006380
# 6 0.015491 -0.003232 -0.006277 0.007687 -0.006380 0.031763
#
#
# Mechanical properties :
#
#
# Convention : Reuss Voigt Hill
#
# Bulk Modulus (GPa) = 25.24317 44.63954 34.94136
# Shear Modulus (GPa) = 21.79823 36.23300 29.01562
#
# Velocity S-wave (km/s) = 3.15947 4.07339 3.64519
# Velocity P-wave (km/s) = 4.98694 6.52423 5.80668
#
# Compressibility (1/GPa) = 0.03961467
#
# Stress axis : x y z
#
# Youngs Moduli (GPa) = 23.48706 103.62633 50.07929
#
# Poissons Ratio (x) = 0.77844 0.57310
# Poissons Ratio (y) = 0.17644 -0.13350
# Poissons Ratio (z) = 0.26878 -0.27624
#
# Static dielectric constant tensor:
#      x y z
#    x 1.798990 0.033820 0.038200 
#    y 0.033820 1.818890 -0.029890 
#    z 0.038200 -0.029890 1.849600 
# 
# From -- ./inp_files/203392.got.cif
#   From: 2010.05.17/outbox.cif.g08.bks.cpg/sg2_102_cif.got.tgz:203392.got - 2010.06.03 11:33:40.
