data_PCOD9110183
_publ_section_title
;
Structure prediction by ZEFSAII (Michael W. Deem and Ramdas Pophale) SiO2 
 PCOD9110183
Probable space group: P -1
;
_chemical_formula_sum "Si O2"
_cell_formula_units_Z 10
_cell_length_a 12.600929
_cell_length_b 9.103134
_cell_length_c 7.865709
_cell_angle_alpha 74.572636
_cell_angle_beta 101.228994
_cell_angle_gamma 39.488188
_cell_volume 419.091380
_symmetry_space_group_name_H-M "P -1"
_symmetry_group_IT_number 2
_symmetry_cell_setting 'triclinic'
loop_
_space_group_symop_operation_xyz
x,y,z
-x,-y,-z
loop_
_atom_site_type_symbol
_atom_site_label
_atom_site_fract_x
_atom_site_fract_y
_atom_site_fract_z
Si Si1 0.743118 0.263453 0.710820
Si Si2 0.733998 0.147261 0.117223
Si Si3 0.097234 0.132360 0.406205
Si Si4 0.525659 0.136679 0.535580
Si Si5 0.702076 0.854227 0.045780
O O1 0.500000 0.500000 0.500000
O O2 0.702941 0.493779 0.620805
O O3 0.905177 0.980747 0.718093
O O4 0.213343 0.838328 0.050709
O O5 0.897107 0.961775 0.384695
O O6 0.723521 0.980061 0.124049
O O7 0.500000 0.500000 0.000000
O O8 0.910350 0.488197 0.229216
O O9 0.326614 0.944426 0.520195
O O10 0.500000 0.000000 0.500000
O O11 0.654594 0.968033 0.804998
O O12 0.500000 0.000000 0.000000
#
# Coordination Sequence:
#
# PCOD9110183 Si02
#       5
#     2   2   2   2   2
#     4  10  20  41  70  96 130 175 216 268 334 396
#     4  12  21  41  73  96 132 174 216 271 337 392
#     4  11  23  45  70  96 134 178 218 266 334 394
#     4  11  22  42  70  97 134 170 216 274 333 392
#     4  12  26  43  65  99 137 175 226 274 316 388
#
# _framework density 23.861142999999998
#
# number of rings (size 3 to 8) (size 9 to 14) (size 15 to 20)
#    0.000    0.800    8.000    2.400    0.000    0.000 
#    0.000    7.000    0.000    0.000    0.000    0.000 
#    0.000    0.000    0.000    0.000    0.000    0.000 
#
# Total GULP energy -56023.552001 kJ/mol
# GULP energy per Si atom -5602.355200 kJ/mol
# Density = 2.380683 g / cm^3
# Si number density = 23.861143 Si / 1000 Ang^3
#
#
#
# Elastic Constant Matrix: (Units=GPa)
#
#
# Indices 1 2 3 4 5 6 
#
# 1 100.4564 68.7353 28.4970 4.1248 -19.1505 22.0237
# 2 68.7353 226.6350 90.1247 -0.0081 -30.2414 48.0829
# 3 28.4970 90.1247 133.1814 12.2141 -55.3583 5.2035
# 4 4.1248 -0.0081 12.2141 61.4981 0.3351 -14.5752
# 5 -19.1505 -30.2414 -55.3583 0.3351 48.5883 -0.5927
# 6 22.0237 48.0829 5.2035 -14.5752 -0.5927 54.4588
#
#
#
# Elastic Compliance Matrix: (Units=1/GPa)
#
#
# Indices 1 2 3 4 5 6 
#
# 1 0.013615 -0.003593 0.002127 -0.002085 0.005531 -0.003035
# 2 -0.003593 0.008789 -0.006298 0.000160 -0.003191 -0.005697
# 3 0.002127 -0.006298 0.019584 -0.003649 0.019281 0.002062
# 4 -0.002085 0.000160 -0.003649 0.018566 -0.004935 0.005966
# 5 0.005531 -0.003191 0.019281 -0.004935 0.042751 -0.002117
# 6 -0.003035 -0.005697 0.002062 0.005966 -0.002117 0.025997
#
#
# Mechanical properties :
#
#
# Convention : Reuss Voigt Hill
#
# Bulk Modulus (GPa) = 37.79240 92.77630 65.28435
# Shear Modulus (GPa) = 32.54146 51.10343 41.82244
#
# Velocity S-wave (km/s) = 3.69695 4.63287 4.19112
# Velocity P-wave (km/s) = 5.83919 8.22096 7.13023
#
# Compressibility (1/GPa) = 0.02646035
#
# Stress axis : x y z
#
# Youngs Moduli (GPa) = 73.44777 113.77244 51.06276
#
# Poissons Ratio (x) = 0.40883 -0.10862
# Poissons Ratio (y) = 0.26393 0.32158
# Poissons Ratio (z) = -0.15623 0.71650
#
# Static dielectric constant tensor:
#      x y z
#    x 2.032040 -0.050530 0.002400 
#    y -0.050530 1.954300 -0.008430 
#    z 0.002400 -0.008430 1.953620 
# 
# From -- ./inp_files/15630.got.cif
#   From: 2010.05.17/outbox.cif.g08.bks.cpg/sg2_8_cif.got.tgz:15630.got - 2010.06.03 11:33:40.
