data_PCOD9110187
_publ_section_title
;
Structure prediction by ZEFSAII (Michael W. Deem and Ramdas Pophale) SiO2 
 PCOD9110187
Probable space group: P -1
;
_chemical_formula_sum "Si O2"
_cell_formula_units_Z 14
_cell_length_a 9.577316
_cell_length_b 19.918545
_cell_length_c 7.372108
_cell_angle_alpha 71.688023
_cell_angle_beta 59.636497
_cell_angle_gamma 34.229931
_cell_volume 666.810369
_symmetry_space_group_name_H-M "P -1"
_symmetry_group_IT_number 2
_symmetry_cell_setting 'triclinic'
loop_
_space_group_symop_operation_xyz
x,y,z
-x,-y,-z
loop_
_atom_site_type_symbol
_atom_site_label
_atom_site_fract_x
_atom_site_fract_y
_atom_site_fract_z
Si Si1 0.228937 0.708680 0.396619
Si Si2 0.073493 0.049712 0.494775
Si Si3 0.744853 0.035231 0.166119
Si Si4 0.198214 0.230189 0.133867
Si Si5 0.601891 0.383197 0.015302
Si Si6 0.897529 0.860808 0.941158
Si Si7 0.175538 0.504872 0.926341
O O1 0.167034 0.814362 0.371406
O O2 0.191554 0.695592 0.226044
O O3 0.561359 0.577330 0.313707
O O4 0.014909 0.739438 0.628027
O O5 0.144819 0.071503 0.256153
O O6 0.000000 0.000000 0.500000
O O7 0.282879 0.964661 0.599065
O O8 0.464411 0.157708 0.140020
O O9 0.817922 0.934686 0.106268
O O10 0.000000 0.000000 0.000000
O O11 0.265998 0.152450 0.990393
O O12 0.026209 0.356683 0.062649
O O13 0.329161 0.440090 0.073718
O O14 0.500000 0.500000 0.000000
O O15 0.778295 0.281407 0.139160
O O16 0.000000 0.500000 0.000000
#
# Coordination Sequence:
#
# PCOD9110187 Si02
#       7
#     2   2   2   2   2   2   2
#     4   9  22  41  65  92 137 171 222 275 329 399
#     4  11  23  40  67 100 135 180 220 277 341 390
#     4  12  25  43  68  98 139 177 229 285 331 399
#     4  11  24  42  68  98 132 185 227 272 344 404
#     4  10  20  41  70  96 132 174 226 277 333 408
#     4  11  22  43  68  99 134 180 226 277 335 410
#     4  10  22  37  68  97 130 175 221 277 345 390
#
# _framework density 20.995474999999999
#
# number of rings (size 3 to 8) (size 9 to 14) (size 15 to 20)
#    0.857    0.571    4.286    0.857    4.000    2.286 
#    2.571    1.429    0.000    5.143    0.000    0.000 
#    0.000    0.000    0.000    0.000    0.000    0.000 
#
# Total GULP energy -77974.748759 kJ/mol
# GULP energy per Si atom -5569.624911 kJ/mol
# Density = 2.094769 g / cm^3
# Si number density = 20.995475 Si / 1000 Ang^3
#
#
#
# Elastic Constant Matrix: (Units=GPa)
#
#
# Indices 1 2 3 4 5 6 
#
# 1 142.8951 52.0802 36.2751 -0.2339 7.0478 -15.2498
# 2 52.0802 130.6667 31.5275 -3.8253 -0.9960 -11.5540
# 3 36.2751 31.5275 43.1769 -1.9347 5.1789 -4.5888
# 4 -0.2339 -3.8253 -1.9347 26.4769 0.4954 9.1379
# 5 7.0478 -0.9960 5.1789 0.4954 37.5118 2.8664
# 6 -15.2498 -11.5540 -4.5888 9.1379 2.8664 58.5040
#
#
#
# Elastic Compliance Matrix: (Units=1/GPa)
#
#
# Indices 1 2 3 4 5 6 
#
# 1 0.009633 -0.002229 -0.006191 -0.001305 -0.001138 0.001845
# 2 -0.002229 0.009956 -0.005445 0.000727 0.001366 0.000777
# 3 -0.006191 -0.005445 0.032814 0.001694 -0.003518 -0.000208
# 4 -0.001305 0.000727 0.001694 0.040174 -0.000016 -0.006338
# 5 -0.001138 0.001366 -0.003518 -0.000016 0.027520 -0.001649
# 6 0.001845 0.000777 -0.000208 -0.006338 -0.001649 0.018782
#
#
# Mechanical properties :
#
#
# Convention : Reuss Voigt Hill
#
# Bulk Modulus (GPa) = 40.53326 61.83379 51.18352
# Shear Modulus (GPa) = 28.59838 37.62226 33.11032
#
# Velocity S-wave (km/s) = 3.69470 4.23770 3.97548
# Velocity P-wave (km/s) = 6.12770 7.31157 6.74566
#
# Compressibility (1/GPa) = 0.02467110
#
# Stress axis : x y z
#
# Youngs Moduli (GPa) = 103.80668 100.44233 30.47459
#
# Poissons Ratio (x) = 0.22393 0.18868
# Poissons Ratio (y) = 0.23143 0.16594
# Poissons Ratio (z) = 0.64271 0.54694
#
# Static dielectric constant tensor:
#      x y z
#    x 1.801860 -0.003770 0.061860 
#    y -0.003770 1.812200 0.009640 
#    z 0.061860 0.009640 1.812290 
# 
# From -- ./inp_files/212429.got.cif
#   From: 2010.05.17/outbox.cif.g08.bks.cpg/sg2_107_cif.got.tgz:212429.got - 2010.06.03 11:33:40.
