data_PCOD9110985
_publ_section_title
;
Structure prediction by ZEFSAII (Michael W. Deem and Ramdas Pophale) SiO2 
 PCOD9110985
Probable space group: P -1
;
_chemical_formula_sum "Si O2"
_cell_formula_units_Z 15
_cell_length_a 8.001468
_cell_length_b 16.195485
_cell_length_c 9.608322
_cell_angle_alpha 73.712014
_cell_angle_beta 58.244780
_cell_angle_gamma 119.677731
_cell_volume 626.340445
_symmetry_space_group_name_H-M "P -1"
_symmetry_group_IT_number 2
_symmetry_cell_setting 'triclinic'
loop_
_space_group_symop_operation_xyz
x,y,z
-x,-y,-z
loop_
_atom_site_type_symbol
_atom_site_label
_atom_site_fract_x
_atom_site_fract_y
_atom_site_fract_z
Si Si1 0.720965 0.156269 0.506692
Si Si2 0.429918 0.238798 0.972825
Si Si3 0.703820 0.834960 0.233138
Si Si4 0.566888 0.619421 0.868662
Si Si5 0.500386 0.617007 0.597003
Si Si6 0.672198 0.145538 0.206559
Si Si7 0.000000 0.000000 0.500000
Si Si8 0.933531 0.622068 0.297049
O O1 0.592690 0.203383 0.590118
O O2 0.774754 0.177380 0.306813
O O3 0.051142 0.240163 0.391425
O O4 0.456319 0.991498 0.721711
O O5 0.507750 0.345071 0.987454
O O6 0.332363 0.228349 0.865433
O O7 0.150249 0.090958 0.244304
O O8 0.752316 0.294903 0.797176
O O9 0.716198 0.772115 0.383887
O O10 0.000000 0.000000 0.000000
O O11 0.395400 0.587193 0.816575
O O12 0.500000 0.500000 0.000000
O O13 0.690664 0.592729 0.509856
O O14 0.227676 0.513114 0.649010
O O15 0.366298 0.102323 0.342597
O O16 0.949201 0.275520 0.926698
#
# Coordination Sequence:
#
# PCOD9110985 Si02
#       8
#     2   2   2   2   2   2   1   2
#     4  11  24  41  69 101 142 177 234 285 349 411
#     4  11  26  45  72 101 140 185 229 291 346 416
#     4  12  28  44  72 105 142 181 235 286 352 413
#     4  12  28  46  72 102 143 185 236 283 350 417
#     4  11  27  46  70 103 138 186 232 291 343 418
#     4  10  21  41  70 100 135 184 228 290 345 406
#     4  10  20  42  68 102 134 176 230 282 340 402
#     4  10  24  45  72  95 141 180 236 284 352 407
#
# _framework density 23.948634999999999
#
# number of rings (size 3 to 8) (size 9 to 14) (size 15 to 20)
#    0.000    1.067    1.333    3.200   14.933    1.067 
#    0.000    3.333    0.000    0.000    0.000    0.000 
#    0.000    0.000    0.000    0.000    0.000    0.000 
#
# Total GULP energy -83766.296361 kJ/mol
# GULP energy per Si atom -5584.419757 kJ/mol
# Density = 2.389413 g / cm^3
# Si number density = 23.948635 Si / 1000 Ang^3
#
#
#
# Elastic Constant Matrix: (Units=GPa)
#
#
# Indices 1 2 3 4 5 6 
#
# 1 52.1255 8.0348 11.2043 6.6327 10.5970 4.1352
# 2 8.0348 99.7249 23.5031 14.4297 18.1952 -4.6755
# 3 11.2043 23.5031 50.7742 -4.7697 14.0595 2.3733
# 4 6.6327 14.4297 -4.7697 24.2181 -3.2390 -0.7293
# 5 10.5970 18.1952 14.0595 -3.2390 54.6721 4.0446
# 6 4.1352 -4.6755 2.3733 -0.7293 4.0446 24.8062
#
#
#
# Elastic Compliance Matrix: (Units=1/GPa)
#
#
# Indices 1 2 3 4 5 6 
#
# 1 0.022104 0.001159 -0.005056 -0.008310 -0.003668 -0.002629
# 2 0.001159 0.013905 -0.006720 -0.010356 -0.003990 0.003417
# 3 -0.005056 -0.006720 0.025695 0.010032 -0.002637 -0.002157
# 4 -0.008310 -0.010356 0.010032 0.052442 0.005652 -0.000906
# 5 -0.003668 -0.003990 -0.002637 0.005652 0.021583 -0.003241
# 6 -0.002629 0.003417 -0.002157 -0.000906 -0.003241 0.042103
#
#
# Mechanical properties :
#
#
# Convention : Reuss Voigt Hill
#
# Bulk Modulus (GPa) = 24.70992 32.01211 28.36102
# Shear Modulus (GPa) = 23.52325 31.39810 27.46067
#
# Velocity S-wave (km/s) = 3.13747 3.62478 3.38989
# Velocity P-wave (km/s) = 4.84409 5.56010 5.21440
#
# Compressibility (1/GPa) = 0.04046958
#
# Stress axis : x y z
#
# Youngs Moduli (GPa) = 45.24020 71.91809 38.91822
#
# Poissons Ratio (x) = -0.08336 0.19679
# Poissons Ratio (y) = -0.05244 0.26152
# Poissons Ratio (z) = 0.22875 0.48328
#
# Static dielectric constant tensor:
#      x y z
#    x 1.925860 -0.007180 -0.018080 
#    y -0.007180 1.994070 -0.038150 
#    z -0.018080 -0.038150 1.888630 
# 
# From -- ./inp_files/217456.got.cif
#   From: 2010.05.17/outbox.cif.g08.bks.cpg/sg2_109_cif.got.tgz:217456.got - 2010.06.03 11:33:40.
