data_PCOD9110209
_publ_section_title
;
Structure prediction by ZEFSAII (Michael W. Deem and Ramdas Pophale) SiO2 
 PCOD9110209
Probable space group: P -1
;
_chemical_formula_sum "Si O2"
_cell_formula_units_Z 11
_cell_length_a 8.339768
_cell_length_b 9.443722
_cell_length_c 8.708079
_cell_angle_alpha 46.049760
_cell_angle_beta 113.339790
_cell_angle_gamma 105.222742
_cell_volume 453.278369
_symmetry_space_group_name_H-M "P -1"
_symmetry_group_IT_number 2
_symmetry_cell_setting 'triclinic'
loop_
_space_group_symop_operation_xyz
x,y,z
-x,-y,-z
loop_
_atom_site_type_symbol
_atom_site_label
_atom_site_fract_x
_atom_site_fract_y
_atom_site_fract_z
Si Si1 0.000000 0.500000 0.000000
Si Si2 0.491658 0.039177 0.218876
Si Si3 0.242927 0.442589 0.536485
Si Si4 0.261204 0.138007 0.322569
Si Si5 0.373225 0.750391 0.150180
Si Si6 0.109772 0.701731 0.573867
O O1 0.896395 0.411048 0.182877
O O2 0.111558 0.293108 0.182094
O O3 0.372038 0.169655 0.186195
O O4 0.593900 0.873786 0.479540
O O5 0.370774 0.929493 0.133470
O O6 0.632661 0.162729 0.086131
O O7 0.238747 0.587607 0.275169
O O8 0.433087 0.345408 0.691737
O O9 0.208176 0.573537 0.575481
O O10 0.090251 0.290128 0.570217
O O11 0.187927 0.917330 0.450286
#
# Coordination Sequence:
#
# PCOD9110209 Si02
#       6
#     1   2   2   2   2   2
#     4  12  26  42  68  96 138 178 226 266 352 386
#     4  10  22  42  71  99 136 172 229 278 341 390
#     4  10  22  42  67 100 138 173 228 275 336 402
#     4  11  24  46  66 103 135 178 223 286 330 406
#     4  10  20  41  70  99 131 181 223 276 334 410
#     4  11  24  44  65 101 137 177 222 283 332 403
#
# _framework density 24.267648000000001
#
# number of rings (size 3 to 8) (size 9 to 14) (size 15 to 20)
#    0.000    1.455    1.818    2.727    2.545    0.000 
#    3.273    5.455    0.000    0.000    0.000    0.000 
#    0.000    0.000    0.000    0.000    0.000    0.000 
#
# Total GULP energy -61380.406846 kJ/mol
# GULP energy per Si atom -5580.036986 kJ/mol
# Density = 2.421241 g / cm^3
# Si number density = 24.267648 Si / 1000 Ang^3
#
#
#
# Elastic Constant Matrix: (Units=GPa)
#
#
# Indices 1 2 3 4 5 6 
#
# 1 73.3900 30.7100 20.1455 8.1247 -18.9848 -18.2919
# 2 30.7100 84.7637 23.3234 2.1644 -15.3202 -0.0368
# 3 20.1455 23.3234 53.2104 -9.9933 -31.2013 -15.1183
# 4 8.1247 2.1644 -9.9933 11.1827 -16.6043 1.2640
# 5 -18.9848 -15.3202 -31.2013 -16.6043 42.5906 10.1351
# 6 -18.2919 -0.0368 -15.1183 1.2640 10.1351 48.6945
#
#
#
# Elastic Compliance Matrix: (Units=1/GPa)
#
#
# Indices 1 2 3 4 5 6 
#
# 1 0.018514 -0.006244 0.004293 0.005572 0.009877 0.006083
# 2 -0.006244 0.015319 -0.002930 0.003980 0.003082 -0.003988
# 3 0.004293 -0.002930 -0.011199 -0.063214 -0.033599 0.006768
# 4 0.005572 0.003980 -0.063214 -0.082916 -0.074763 0.000183
# 5 0.009877 0.003082 -0.033599 -0.074763 -0.024865 0.000397
# 6 0.006083 -0.003988 0.006768 0.000183 0.000397 0.024832
#
#
# Mechanical properties :
#
#
# Convention : Reuss Voigt Hill
#
# Bulk Modulus (GPa) = 77.67022 39.96910 58.81966
# Shear Modulus (GPa) = -108.07625 29.63924 -39.21851
#
# Velocity S-wave (km/s) = -6.68070 3.49857 -4.02441
# Velocity P-wave (km/s) = 5.23774 5.72939 1.64194
#
# Compressibility (1/GPa) = 0.01287495
#
# Stress axis : x y z
#
# Youngs Moduli (GPa) = 54.01289 65.27715 -89.29539
#
# Poissons Ratio (x) = 0.40756 0.38338
# Poissons Ratio (y) = 0.33723 -0.26161
# Poissons Ratio (z) = -0.23190 0.19124
#
# Static dielectric constant tensor:
#      x y z
#    x 1.849570 -0.025970 -0.119020 
#    y -0.025970 1.875360 -0.003160 
#    z -0.119020 -0.003160 1.880370 
# 
# From -- ./inp_files/148755.got.cif
#   From: 2010.05.17/outbox.cif.g08.bks.cpg/sg2_75_cif.got.tgz:148755.got - 2010.06.03 11:33:40.
