data_PCOD9110288
_publ_section_title
;
Structure prediction by ZEFSAII (Michael W. Deem and Ramdas Pophale) SiO2 
 PCOD9110288
Probable space group: P -1
;
_chemical_formula_sum "Si O2"
_cell_formula_units_Z 14
_cell_length_a 9.452352
_cell_length_b 16.849640
_cell_length_c 13.612654
_cell_angle_alpha 23.841698
_cell_angle_beta 45.693821
_cell_angle_gamma 56.918555
_cell_volume 593.798397
_symmetry_space_group_name_H-M "P -1"
_symmetry_group_IT_number 2
_symmetry_cell_setting 'triclinic'
loop_
_space_group_symop_operation_xyz
x,y,z
-x,-y,-z
loop_
_atom_site_type_symbol
_atom_site_label
_atom_site_fract_x
_atom_site_fract_y
_atom_site_fract_z
Si Si1 0.807930 0.692911 0.181646
Si Si2 0.779140 0.123161 0.140219
Si Si3 0.159799 0.754871 0.682785
Si Si4 0.429055 0.697740 0.792484
Si Si5 0.527089 0.883938 0.215705
Si Si6 0.728248 0.753991 0.922858
Si Si7 0.271156 0.711588 0.213456
O O1 0.646761 0.733151 0.290943
O O2 0.825369 0.470219 0.455618
O O3 0.740306 0.709530 0.084213
O O4 0.024204 0.873191 0.893436
O O5 0.653239 0.233183 0.145235
O O6 0.627553 0.896439 0.442212
O O7 0.859407 0.257579 0.851281
O O8 0.250536 0.663614 0.834522
O O9 0.307584 0.765389 0.506321
O O10 0.910348 0.677188 0.874828
O O11 0.207482 0.999828 0.407701
O O12 0.500000 0.500000 0.000000
O O13 0.500000 0.000000 0.000000
O O14 0.655285 0.067113 0.018029
O O15 0.483120 0.680420 0.101247
#
# Coordination Sequence:
#
# PCOD9110288 Si02
#       7
#     2   2   2   2   2   2   2
#     4  12  24  42  71  97 137 184 224 274 349 403
#     4  11  25  45  67 101 138 183 225 279 343 405
#     4  10  20  42  69  96 133 176 223 285 337 398
#     4  11  24  44  70  99 140 178 230 284 336 406
#     4  11  23  42  66  99 137 171 226 286 337 402
#     4  10  20  41  72  94 135 177 224 282 337 402
#     4  11  24  43  68  99 139 178 226 282 339 408
#
# _framework density 23.577024999999999
#
# number of rings (size 3 to 8) (size 9 to 14) (size 15 to 20)
#    0.000    1.143    7.143    0.857    2.000    1.714 
#    0.000    0.714    0.000    0.000    0.000    0.000 
#    0.000    0.000    0.000    0.000    0.000    0.000 
#
# Total GULP energy -78282.924605 kJ/mol
# GULP energy per Si atom -5591.637472 kJ/mol
# Density = 2.352336 g / cm^3
# Si number density = 23.577025 Si / 1000 Ang^3
#
#
#
# Elastic Constant Matrix: (Units=GPa)
#
#
# Indices 1 2 3 4 5 6 
#
# 1 78.9693 11.2452 13.2835 -0.6533 17.7323 9.8213
# 2 11.2452 95.8051 24.4861 7.9706 11.0904 -7.0676
# 3 13.2835 24.4861 69.6477 -18.3165 23.3915 9.9827
# 4 -0.6533 7.9706 -18.3165 29.4367 -1.1197 6.0776
# 5 17.7323 11.0904 23.3915 -1.1197 43.4350 4.8504
# 6 9.8213 -7.0676 9.9827 6.0776 4.8504 30.4503
#
#
#
# Elastic Compliance Matrix: (Units=1/GPa)
#
#
# Indices 1 2 3 4 5 6 
#
# 1 0.014634 -0.001939 0.001069 0.002368 -0.005421 -0.005130
# 2 -0.001939 0.014688 -0.009537 -0.011864 0.000822 0.009398
# 3 0.001069 -0.009537 0.029966 0.023958 -0.011815 -0.015282
# 4 0.002368 -0.011864 0.023958 0.056317 -0.006988 -0.021499
# 5 -0.005421 0.000822 -0.011815 -0.006988 0.030955 0.002277
# 6 -0.005130 0.009398 -0.015282 -0.021499 0.002277 0.045615
#
#
# Mechanical properties :
#
#
# Convention : Reuss Voigt Hill
#
# Bulk Modulus (GPa) = 25.99065 38.05017 32.02041
# Shear Modulus (GPa) = 22.14211 33.69154 27.91682
#
# Velocity S-wave (km/s) = 3.06786 3.78431 3.44476
# Velocity P-wave (km/s) = 4.85764 5.93872 5.42518
#
# Compressibility (1/GPa) = 0.03847537
#
# Stress axis : x y z
#
# Youngs Moduli (GPa) = 68.33254 68.08210 33.37065
#
# Poissons Ratio (x) = 0.13200 -0.03569
# Poissons Ratio (y) = 0.13249 0.31827
# Poissons Ratio (z) = -0.07308 0.64932
#
# Static dielectric constant tensor:
#      x y z
#    x 1.861040 -0.015380 -0.044380 
#    y -0.015380 1.935160 0.007810 
#    z -0.044380 0.007810 1.932430 
# 
# From -- ./inp_files/398032.got.cif
#   From: 2010.05.17/outbox.cif.g08.bks.cpg/sg2_200_cif.got.tgz:398032.got - 2010.06.03 11:33:40.
