data_PCOD9110801
_publ_section_title
;
Structure prediction by ZEFSAII (Michael W. Deem and Ramdas Pophale) SiO2 
 PCOD9110801
Probable space group: P -1
;
_chemical_formula_sum "Si O2"
_cell_formula_units_Z 16
_cell_length_a 9.665591
_cell_length_b 9.447439
_cell_length_c 16.632114
_cell_angle_alpha 130.362886
_cell_angle_beta 120.128956
_cell_angle_gamma 43.891958
_cell_volume 800.523907
_symmetry_space_group_name_H-M "P -1"
_symmetry_group_IT_number 2
_symmetry_cell_setting 'triclinic'
loop_
_space_group_symop_operation_xyz
x,y,z
-x,-y,-z
loop_
_atom_site_type_symbol
_atom_site_label
_atom_site_fract_x
_atom_site_fract_y
_atom_site_fract_z
Si Si1 0.459957 0.632177 0.452603
Si Si2 0.704853 0.836762 0.817367
Si Si3 0.029220 0.883400 0.378492
Si Si4 0.509485 0.789769 0.885482
Si Si5 0.651369 0.926068 0.328361
Si Si6 0.610330 0.308919 0.031261
Si Si7 0.880805 0.406148 0.233362
Si Si8 0.186341 0.767575 0.695853
O O1 0.500000 0.500000 0.500000
O O2 0.263350 0.680778 0.373058
O O3 0.647697 0.465996 0.389789
O O4 0.411549 0.879222 0.551347
O O5 0.670632 0.715910 0.835618
O O6 0.912226 0.666194 0.769112
O O7 0.523127 0.950551 0.742936
O O8 0.688442 0.056985 0.929166
O O9 0.855713 0.851428 0.317520
O O10 0.000000 0.000000 0.500000
O O11 0.971602 0.051516 0.348586
O O12 0.309816 0.850638 0.805039
O O13 0.500000 0.000000 0.000000
O O14 0.470036 0.363125 0.088532
O O15 0.711691 0.683665 0.290506
O O16 0.791778 0.308420 0.114527
O O17 0.500000 0.500000 0.000000
O O18 0.910901 0.290750 0.285753
#
# Coordination Sequence:
#
# PCOD9110801 Si02
#       8
#     2   2   2   2   2   2   2   2
#     4  11  22  40  69  91 125 170 214 268 328 372
#     4  11  21  42  67  91 132 169 213 263 318 384
#     4  10  21  39  66  92 121 168 217 262 319 381
#     4   9  20  38  68  93 122 170 212 263 313 378
#     4  11  23  38  64  97 124 166 220 263 316 390
#     4  10  20  42  66  92 134 169 208 266 326 380
#     4  11  26  39  63  97 134 170 209 267 335 377
#     4  11  22  43  63  94 131 167 216 270 320 384
#
# _framework density 19.986912
#
# number of rings (size 3 to 8) (size 9 to 14) (size 15 to 20)
#    0.000    1.500    5.000    0.375    3.500    1.500 
#    0.000    5.000    0.000    0.000    0.000    0.000 
#    0.000    0.000    0.000    0.000    0.000    0.000 
#
# Total GULP energy -89266.317366 kJ/mol
# GULP energy per Si atom -5579.144835 kJ/mol
# Density = 1.994142 g / cm^3
# Si number density = 19.986912 Si / 1000 Ang^3
#
#
#
# Elastic Constant Matrix: (Units=GPa)
#
#
# Indices 1 2 3 4 5 6 
#
# 1 127.7951 58.1519 27.0815 -21.2588 -10.8108 6.8904
# 2 58.1519 112.9175 48.9189 -21.0611 -10.6781 9.9360
# 3 27.0815 48.9189 111.9751 3.0909 2.1336 0.3485
# 4 -21.2588 -21.0611 3.0909 35.2970 5.5060 -6.9756
# 5 -10.8108 -10.6781 2.1336 5.5060 27.4846 -6.6743
# 6 6.8904 9.9360 0.3485 -6.9756 -6.6743 34.7616
#
#
#
# Elastic Compliance Matrix: (Units=1/GPa)
#
#
# Indices 1 2 3 4 5 6 
#
# 1 0.010733 -0.004300 -0.000857 0.003717 0.001928 0.000226
# 2 -0.004300 0.015167 -0.005809 0.006180 0.003025 -0.001604
# 3 -0.000857 -0.005809 0.011849 -0.004565 -0.002524 0.000311
# 4 0.003717 0.006180 -0.004565 0.035816 -0.001897 0.004365
# 5 0.001928 0.003025 -0.002524 -0.001897 0.040387 0.006152
# 6 0.000226 -0.001604 0.000311 0.004365 0.006152 0.031235
#
#
# Mechanical properties :
#
#
# Convention : Reuss Voigt Hill
#
# Bulk Modulus (GPa) = 63.22938 68.99914 66.11426
# Shear Modulus (GPa) = 29.00360 34.07767 31.54063
#
# Velocity S-wave (km/s) = 3.81350 4.13364 3.97680
# Velocity P-wave (km/s) = 7.14804 7.57494 7.36459
#
# Compressibility (1/GPa) = 0.01581543
#
# Stress axis : x y z
#
# Youngs Moduli (GPa) = 93.17332 65.93170 84.39571
#
# Poissons Ratio (x) = 0.28352 0.07234
# Poissons Ratio (y) = 0.40067 0.49028
# Poissons Ratio (z) = 0.07986 0.38302
#
# Static dielectric constant tensor:
#      x y z
#    x 1.800870 0.042940 -0.026210 
#    y 0.042940 1.715630 0.009850 
#    z -0.026210 0.009850 1.748750 
# 
# From -- ./inp_files/556596.got.cif
#   From: 2010.05.17/outbox.cif.g08.bks.cpg/sg2_279_cif.got.tgz:556596.got - 2010.06.03 11:33:40.
