data_PCOD9110844
_publ_section_title
;
Structure prediction by ZEFSAII (Michael W. Deem and Ramdas Pophale) SiO2 
 PCOD9110844
Probable space group: P -1
;
_chemical_formula_sum "Si O2"
_cell_formula_units_Z 14
_cell_length_a 10.425710
_cell_length_b 7.458774
_cell_length_c 28.279699
_cell_angle_alpha 34.635169
_cell_angle_beta 28.466017
_cell_angle_gamma 42.408799
_cell_volume 594.813400
_symmetry_space_group_name_H-M "P -1"
_symmetry_group_IT_number 2
_symmetry_cell_setting 'triclinic'
loop_
_space_group_symop_operation_xyz
x,y,z
-x,-y,-z
loop_
_atom_site_type_symbol
_atom_site_label
_atom_site_fract_x
_atom_site_fract_y
_atom_site_fract_z
Si Si1 0.118844 0.196980 0.273029
Si Si2 0.353726 0.324414 0.717811
Si Si3 0.368587 0.108549 0.467771
Si Si4 0.410839 0.777793 0.192887
Si Si5 0.325654 0.029809 0.394020
Si Si6 0.757477 0.180159 0.860198
Si Si7 0.021036 0.142985 0.055063
O O1 0.267155 0.447169 0.202614
O O2 0.897850 0.423368 0.267033
O O3 0.308631 0.995853 0.220865
O O4 0.942914 0.958936 0.410580
O O5 0.550781 0.532517 0.639036
O O6 0.523111 0.191743 0.646254
O O7 0.223078 0.033769 0.850229
O O8 0.429816 0.946547 0.432028
O O9 0.500000 0.000000 0.500000
O O10 0.394606 0.399377 0.285211
O O11 0.208770 0.869315 0.194927
O O12 0.704529 0.880778 0.058456
O O13 0.000000 0.000000 0.500000
O O14 0.976320 0.029114 0.857183
O O15 0.500000 0.000000 0.000000
O O16 0.000000 0.500000 0.000000
#
# Coordination Sequence:
#
# PCOD9110844 Si02
#       7
#     2   2   2   2   2   2   2
#     4  10  22  41  66  98 134 171 225 277 336 406
#     4  10  23  42  68  96 138 178 229 278 339 409
#     4  10  24  44  68 101 138 178 230 285 343 406
#     4  11  23  41  67  99 134 175 223 275 346 400
#     4  12  25  42  70 101 137 185 230 282 346 406
#     4   9  21  38  66  92 133 176 218 272 334 401
#     4  10  20  42  66  96 134 176 226 277 334 406
#
# _framework density 23.536795000000001
#
# number of rings (size 3 to 8) (size 9 to 14) (size 15 to 20)
#    0.000    1.714    1.429    1.714    0.000   15.429 
#    0.000    2.143    0.000    0.000    0.000    0.000 
#    0.000    0.000    0.000    0.000    0.000    0.000 
#
# Total GULP energy -78076.464451 kJ/mol
# GULP energy per Si atom -5576.890318 kJ/mol
# Density = 2.348322 g / cm^3
# Si number density = 23.536795 Si / 1000 Ang^3
#
#
#
# Elastic Constant Matrix: (Units=GPa)
#
#
# Indices 1 2 3 4 5 6 
#
# 1 84.1554 32.7925 18.7965 -0.4786 11.0521 8.9167
# 2 32.7925 144.9671 61.0845 0.5876 -15.2713 20.9053
# 3 18.7965 61.0845 146.0008 -21.5436 -26.3019 18.1217
# 4 -0.4786 0.5876 -21.5436 50.7774 9.7967 -5.6956
# 5 11.0521 -15.2713 -26.3019 9.7967 25.7203 -3.3392
# 6 8.9167 20.9053 18.1217 -5.6956 -3.3392 42.3974
#
#
#
# Elastic Compliance Matrix: (Units=1/GPa)
#
#
# Indices 1 2 3 4 5 6 
#
# 1 0.015484 -0.003623 -0.002242 0.001369 -0.011782 -0.001256
# 2 -0.003623 0.009850 -0.002747 -0.002644 0.005232 -0.002864
# 3 -0.002242 -0.002747 0.010457 0.002562 0.008842 -0.001603
# 4 0.001369 -0.002644 0.002562 0.022600 -0.007843 0.002339
# 5 -0.011782 0.005232 0.008842 -0.007843 0.059041 -0.000285
# 6 -0.001256 -0.002864 -0.001603 0.002339 -0.000285 0.026240
#
#
# Mechanical properties :
#
#
# Convention : Reuss Voigt Hill
#
# Bulk Modulus (GPa) = 53.86172 66.71891 60.29032
# Shear Modulus (GPa) = 29.92495 41.27568 35.60031
#
# Velocity S-wave (km/s) = 3.56955 4.19222 3.89336
# Velocity P-wave (km/s) = 6.31844 7.20008 6.77362
#
# Compressibility (1/GPa) = 0.01856606
#
# Stress axis : x y z
#
# Youngs Moduli (GPa) = 64.58453 101.52274 95.62941
#
# Poissons Ratio (x) = 0.36786 0.21441
# Poissons Ratio (y) = 0.23401 0.26268
# Poissons Ratio (z) = 0.14480 0.27886
#
# Static dielectric constant tensor:
#      x y z
#    x 1.749250 -0.034800 -0.095280 
#    y -0.034800 1.880420 -0.097780 
#    z -0.095280 -0.097780 2.003260 
# 
# From -- ./inp_files/133479.got.cif
#   From: 2010.05.17/outbox.cif.g08.bks.cpg/sg2_67_cif.got.tgz:133479.got - 2010.06.03 11:33:40.
