data_PCOD9110994
_publ_section_title
;
Structure prediction by ZEFSAII (Michael W. Deem and Ramdas Pophale) SiO2 
 PCOD9110994
Probable space group: P -1
;
_chemical_formula_sum "Si O2"
_cell_formula_units_Z 14
_cell_length_a 11.036991
_cell_length_b 5.143035
_cell_length_c 12.635822
_cell_angle_alpha 52.950095
_cell_angle_beta 103.937393
_cell_angle_gamma 91.222142
_cell_volume 548.455205
_symmetry_space_group_name_H-M "P -1"
_symmetry_group_IT_number 2
_symmetry_cell_setting 'triclinic'
loop_
_space_group_symop_operation_xyz
x,y,z
-x,-y,-z
loop_
_atom_site_type_symbol
_atom_site_label
_atom_site_fract_x
_atom_site_fract_y
_atom_site_fract_z
Si Si1 0.892859 0.779629 0.551904
Si Si2 0.495407 0.490589 0.183519
Si Si3 0.414014 0.651736 0.540084
Si Si4 0.169360 0.941449 0.319445
Si Si5 0.290288 0.054005 0.930366
Si Si6 0.701521 0.970334 0.286937
Si Si7 0.909585 0.776313 0.981411
O O1 0.891625 0.401466 0.606541
O O2 0.776435 0.992481 0.407139
O O3 0.896279 0.785551 0.679209
O O4 0.000000 0.000000 0.500000
O O5 0.505284 0.328160 0.342560
O O6 0.597982 0.737029 0.124122
O O7 0.561677 0.189823 0.198668
O O8 0.360109 0.703519 0.077256
O O9 0.500000 0.500000 0.500000
O O10 0.310429 0.919898 0.399952
O O11 0.324502 0.397351 0.620959
O O12 0.171914 0.030875 0.176623
O O13 0.229553 0.991371 0.818780
O O14 0.191159 0.261395 0.937841
O O15 0.000000 0.500000 0.000000
O O16 0.000000 0.000000 0.000000
#
# Coordination Sequence:
#
# PCOD9110994 Si02
#       7
#     2   2   2   2   2   2   2
#     4  11  24  43  73 100 140 184 232 296 351 415
#     4  10  20  42  68 104 137 182 236 288 363 423
#     4  10  21  40  65 100 140 176 226 290 359 422
#     4  11  24  47  66 105 137 176 241 285 351 425
#     4  10  24  42  69 100 141 186 237 295 351 428
#     4  10  22  40  67 105 139 182 237 287 361 429
#     4  12  29  50  70 101 142 194 242 296 356 426
#
# _framework density 25.526240000000001
#
# number of rings (size 3 to 8) (size 9 to 14) (size 15 to 20)
#    0.000    1.429    1.429    2.571    4.000    1.714 
#    5.143    0.000    0.000    0.000    0.000    0.000 
#    0.000    0.000    0.000    0.000    0.000    0.000 
#
# Total GULP energy -78085.608819 kJ/mol
# GULP energy per Si atom -5577.543487 kJ/mol
# Density = 2.546814 g / cm^3
# Si number density = 25.526240 Si / 1000 Ang^3
#
#
#
# Elastic Constant Matrix: (Units=GPa)
#
#
# Indices 1 2 3 4 5 6 
#
# 1 69.2580 39.2484 27.5762 15.5410 -3.5133 2.5073
# 2 39.2484 152.6529 36.7869 26.6683 -2.9006 -1.4632
# 3 27.5762 36.7869 121.5904 40.6611 -3.5418 -10.4580
# 4 15.5410 26.6683 40.6611 40.4957 -15.3119 -7.7585
# 5 -3.5133 -2.9006 -3.5418 -15.3119 19.2216 10.3565
# 6 2.5073 -1.4632 -10.4580 -7.7585 10.3565 46.0408
#
#
#
# Elastic Compliance Matrix: (Units=1/GPa)
#
#
# Indices 1 2 3 4 5 6 
#
# 1 0.018157 -0.003770 -0.002685 -0.001297 0.002578 -0.002517
# 2 -0.003770 0.008413 0.000154 -0.005759 -0.004243 0.000492
# 3 -0.002685 0.000154 0.015072 -0.019142 -0.014937 0.003709
# 4 -0.001297 -0.005759 -0.019142 0.066556 0.050917 -0.004698
# 5 0.002578 -0.004243 -0.014937 0.050917 0.099018 -0.017361
# 6 -0.002517 0.000492 0.003709 -0.004698 -0.017361 0.025829
#
#
# Mechanical properties :
#
#
# Convention : Reuss Voigt Hill
#
# Bulk Modulus (GPa) = 34.43515 61.19161 47.81338
# Shear Modulus (GPa) = 19.58279 37.14426 28.36352
#
# Velocity S-wave (km/s) = 2.77278 3.81877 3.33701
# Velocity P-wave (km/s) = 4.87549 6.59303 5.79821
#
# Compressibility (1/GPa) = 0.02904009
#
# Stress axis : x y z
#
# Youngs Moduli (GPa) = 55.07463 118.86288 66.34937
#
# Poissons Ratio (x) = 0.44810 0.17816
# Poissons Ratio (y) = 0.20762 -0.01022
# Poissons Ratio (z) = 0.14788 -0.01831
#
# Static dielectric constant tensor:
#      x y z
#    x 3.652610 -0.022050 -0.334800 
#    y -0.022050 2.000920 -0.020670 
#    z -0.334800 -0.020670 2.176340 
# 
# From -- ./inp_files/408968.got.cif
#   From: 2010.05.17/outbox.cif.g08.bks.cpg/sg2_205_cif.got.tgz:408968.got - 2010.06.03 11:33:40.
