data_PCOD9110661
_publ_section_title
;
Structure prediction by ZEFSAII (Michael W. Deem and Ramdas Pophale) SiO2 
 PCOD9110661
Probable space group: P -1
;
_chemical_formula_sum "Si O2"
_cell_formula_units_Z 16
_cell_length_a 13.811801
_cell_length_b 9.877604
_cell_length_c 6.825357
_cell_angle_alpha 121.131764
_cell_angle_beta 102.575851
_cell_angle_gamma 107.919718
_cell_volume 672.347697
_symmetry_space_group_name_H-M "P -1"
_symmetry_group_IT_number 2
_symmetry_cell_setting 'triclinic'
loop_
_space_group_symop_operation_xyz
x,y,z
-x,-y,-z
loop_
_atom_site_type_symbol
_atom_site_label
_atom_site_fract_x
_atom_site_fract_y
_atom_site_fract_z
Si Si1 0.547473 0.151031 0.805936
Si Si2 0.748835 0.122953 0.759879
Si Si3 0.819529 0.966553 0.367464
Si Si4 0.874217 0.400328 0.287646
Si Si5 0.596456 0.796136 0.905160
Si Si6 0.448532 0.599910 0.334940
Si Si7 0.776793 0.408988 0.654463
Si Si8 0.074145 0.296580 0.771350
O O1 0.662461 0.144341 0.885479
O O2 0.559636 0.325568 0.824946
O O3 0.500000 0.000000 0.500000
O O4 0.470745 0.124375 0.940386
O O5 0.746599 0.955095 0.522519
O O6 0.750801 0.243547 0.665543
O O7 0.859863 0.232372 0.023701
O O8 0.937772 0.164599 0.573616
O O9 0.865056 0.824824 0.291004
O O10 0.731216 0.917011 0.110381
O O11 0.796501 0.362951 0.413949
O O12 0.868740 0.546953 0.250932
O O13 0.000000 0.500000 0.500000
O O14 0.554015 0.750839 0.626983
O O15 0.554633 0.590990 0.813127
O O16 0.332437 0.563579 0.365015
O O17 0.888205 0.586599 0.924427
#
# Coordination Sequence:
#
# PCOD9110661 Si02
#       8
#     2   2   2   2   2   2   2   2
#     4  11  22  41  63  93 124 156 202 253 307 362
#     4  10  22  40  63  90 124 161 200 251 307 361
#     4  11  21  42  62  88 129 164 196 255 312 351
#     4  11  22  40  65  93 118 162 209 249 300 363
#     4  11  22  42  63  89 124 163 205 250 302 365
#     4  10  23  41  64  91 118 164 206 250 302 366
#     4  10  20  42  65  86 122 162 205 251 300 361
#     4  10  23  41  64  89 124 163 205 250 302 363
#
# _framework density 23.797208999999999
#
# number of rings (size 3 to 8) (size 9 to 14) (size 15 to 20)
#    0.000    1.500    2.500    2.625    0.000    2.500 
#    9.000    6.875    0.000    0.000    0.000    0.000 
#    0.000    0.000    0.000    0.000    0.000    0.000 
#
# Total GULP energy -89370.601658 kJ/mol
# GULP energy per Si atom -5585.662604 kJ/mol
# Density = 2.374305 g / cm^3
# Si number density = 23.797209 Si / 1000 Ang^3
#
#
#
# Elastic Constant Matrix: (Units=GPa)
#
#
# Indices 1 2 3 4 5 6 
#
# 1 119.7560 7.6774 43.4674 -8.5428 -1.7431 5.7981
# 2 7.6774 64.0085 11.0363 3.2410 -8.8310 -2.1359
# 3 43.4674 11.0363 144.7576 9.0326 16.1541 12.2219
# 4 -8.5428 3.2410 9.0326 22.4606 1.9027 -5.3226
# 5 -1.7431 -8.8310 16.1541 1.9027 51.1038 2.4870
# 6 5.7981 -2.1359 12.2219 -5.3226 2.4870 24.5987
#
#
#
# Elastic Compliance Matrix: (Units=1/GPa)
#
#
# Indices 1 2 3 4 5 6 
#
# 1 0.010019 -0.000716 -0.003431 0.005275 0.001091 0.000312
# 2 -0.000716 0.016560 -0.001420 -0.002003 0.003285 0.001547
# 3 -0.003431 -0.001420 0.009117 -0.005663 -0.002800 -0.004786
# 4 0.005275 -0.002003 -0.005663 0.052206 -0.000942 0.012788
# 5 0.001091 0.003285 -0.002800 -0.000942 0.021138 -0.000921
# 6 0.000312 0.001547 -0.004786 0.012788 -0.000921 0.045952
#
#
# Mechanical properties :
#
#
# Convention : Reuss Voigt Hill
#
# Bulk Modulus (GPa) = 40.71460 50.32047 45.51753
# Shear Modulus (GPa) = 28.68426 37.38867 33.03647
#
# Velocity S-wave (km/s) = 3.47560 3.96806 3.72996
# Velocity P-wave (km/s) = 5.76650 6.49503 6.14158
#
# Compressibility (1/GPa) = 0.02456122
#
# Stress axis : x y z
#
# Youngs Moduli (GPa) = 99.81378 60.38692 109.68986
#
# Poissons Ratio (x) = 0.04325 0.37635
# Poissons Ratio (y) = 0.07149 0.15572
# Poissons Ratio (z) = 0.34246 0.08573
#
# Static dielectric constant tensor:
#      x y z
#    x 2.286000 0.160080 0.177410 
#    y 0.160080 1.999110 0.073160 
#    z 0.177410 0.073160 1.977630 
# 
# From -- ./inp_files/47479.got.cif
#   From: 2010.05.17/outbox.cif.g08.bks.cpg/sg2_24_cif.got.tgz:47479.got - 2010.06.03 11:33:40.
