data_PCOD9110061
_publ_section_title
;
Structure prediction by ZEFSAII (Michael W. Deem and Ramdas Pophale) SiO2 
 PCOD9110061
Probable space group: P -1
;
_chemical_formula_sum "Si O2"
_cell_formula_units_Z 14
_cell_length_a 11.056887
_cell_length_b 9.173262
_cell_length_c 8.685245
_cell_angle_alpha 127.634406
_cell_angle_beta 70.171541
_cell_angle_gamma 78.843310
_cell_volume 553.293514
_symmetry_space_group_name_H-M "P -1"
_symmetry_group_IT_number 2
_symmetry_cell_setting 'triclinic'
loop_
_space_group_symop_operation_xyz
x,y,z
-x,-y,-z
loop_
_atom_site_type_symbol
_atom_site_label
_atom_site_fract_x
_atom_site_fract_y
_atom_site_fract_z
Si Si1 0.516860 0.998980 0.311527
Si Si2 0.380703 0.747604 0.070435
Si Si3 0.334186 0.505635 0.705921
Si Si4 0.320235 0.096196 0.096062
Si Si5 0.853998 0.403095 0.420532
Si Si6 0.005152 0.679625 0.013680
Si Si7 0.128627 0.883018 0.498981
O O1 0.492605 0.809093 0.139250
O O2 0.500000 0.000000 0.500000
O O3 0.392648 0.253865 0.494643
O O4 0.664442 0.952561 0.123617
O O5 0.286145 0.738466 0.246590
O O6 0.280674 0.956621 0.133622
O O7 0.438953 0.551386 0.797089
O O8 0.277180 0.607289 0.626489
O O9 0.174299 0.627804 0.945007
O O10 0.216092 0.349867 0.338088
O O11 0.500000 0.000000 0.000000
O O12 0.978736 0.345950 0.195506
O O13 0.901932 0.250048 0.447969
O O14 0.000000 0.500000 0.000000
O O15 0.878626 0.917274 0.279772
O O16 0.000000 0.000000 0.500000
#
# Coordination Sequence:
#
# PCOD9110061 Si02
#       7
#     2   2   2   2   2   2   2
#     4  11  25  44  68 101 137 174 224 288 349 403
#     4  11  23  43  69  98 136 177 231 278 336 412
#     4  10  22  42  67  96 135 176 231 275 337 407
#     4  10  20  45  67  91 136 175 225 281 339 404
#     4  10  22  41  67  96 136 179 228 283 332 405
#     4  10  20  41  69  91 135 181 225 282 336 392
#     4  12  23  41  65 101 141 174 229 284 335 406
#
# _framework density 25.303027
#
# number of rings (size 3 to 8) (size 9 to 14) (size 15 to 20)
#    0.857    0.571    4.286    2.143    2.000    2.286 
#    2.571    5.714    0.000    0.000    0.000    0.000 
#    0.000    0.000    0.000    0.000    0.000    0.000 
#
# Total GULP energy -78141.326935 kJ/mol
# GULP energy per Si atom -5581.523353 kJ/mol
# Density = 2.524544 g / cm^3
# Si number density = 25.303027 Si / 1000 Ang^3
#
#
#
# Elastic Constant Matrix: (Units=GPa)
#
#
# Indices 1 2 3 4 5 6 
#
# 1 61.5193 23.1543 26.1896 -9.0447 12.9281 -4.4964
# 2 23.1543 202.4764 38.4127 -31.7843 7.9519 -6.4759
# 3 26.1896 38.4127 104.9695 -23.8220 6.9668 -5.6518
# 4 -9.0447 -31.7843 -23.8220 53.0889 3.0394 1.2033
# 5 12.9281 7.9519 6.9668 3.0394 30.0384 -5.6196
# 6 -4.4964 -6.4759 -5.6518 1.2033 -5.6196 27.2113
#
#
#
# Elastic Compliance Matrix: (Units=1/GPa)
#
#
# Indices 1 2 3 4 5 6 
#
# 1 0.020099 -0.001027 -0.003752 0.001542 -0.007538 0.000672
# 2 -0.001027 0.005770 -0.001114 0.002822 -0.000992 0.000642
# 3 -0.003752 -0.001114 0.011930 0.004080 -0.001046 0.001196
# 4 0.001542 0.002822 0.004080 0.022894 -0.004713 -0.000212
# 5 -0.007538 -0.000992 -0.001046 -0.004713 0.038735 0.006509
# 6 0.000672 0.000642 0.001196 -0.000212 0.006509 0.038615
#
#
# Mechanical properties :
#
#
# Convention : Reuss Voigt Hill
#
# Bulk Modulus (GPa) = 38.44391 60.49760 49.47076
# Shear Modulus (GPa) = 31.54536 40.81497 36.18017
#
# Velocity S-wave (km/s) = 3.53470 4.02063 3.78547
# Velocity P-wave (km/s) = 5.64670 6.74649 6.22094
#
# Compressibility (1/GPa) = 0.02601192
#
# Stress axis : x y z
#
# Youngs Moduli (GPa) = 49.75358 173.30425 83.82032
#
# Poissons Ratio (x) = 0.17797 0.31453
# Poissons Ratio (y) = 0.05109 0.09342
# Poissons Ratio (z) = 0.18669 0.19315
#
# Static dielectric constant tensor:
#      x y z
#    x 2.212540 -0.028150 0.054970 
#    y -0.028150 2.028620 -0.034680 
#    z 0.054970 -0.034680 1.956870 
# 
# From -- ./inp_files/299610.got.cif
#   From: 2010.05.17/outbox.cif.g08.bks.cpg/sg2_150_cif.got.tgz:299610.got - 2010.06.03 11:33:40.
