data_PCOD9110848
_publ_section_title
;
Structure prediction by ZEFSAII (Michael W. Deem and Ramdas Pophale) SiO2 
 PCOD9110848
Probable space group: P -1
;
_chemical_formula_sum "Si O2"
_cell_formula_units_Z 16
_cell_length_a 8.408359
_cell_length_b 23.412286
_cell_length_c 14.097757
_cell_angle_alpha 30.876916
_cell_angle_beta 34.796500
_cell_angle_gamma 52.353399
_cell_volume 769.757081
_symmetry_space_group_name_H-M "P -1"
_symmetry_group_IT_number 2
_symmetry_cell_setting 'triclinic'
loop_
_space_group_symop_operation_xyz
x,y,z
-x,-y,-z
loop_
_atom_site_type_symbol
_atom_site_label
_atom_site_fract_x
_atom_site_fract_y
_atom_site_fract_z
Si Si1 0.216328 0.577593 0.706476
Si Si2 0.522727 0.163158 0.835531
Si Si3 0.796296 0.964589 0.003174
Si Si4 0.787944 0.461280 0.914447
Si Si5 0.465725 0.999049 0.630807
Si Si6 0.349010 0.206585 0.070088
Si Si7 0.693408 0.194269 0.389956
Si Si8 0.341472 0.524602 0.445593
O O1 0.315886 0.716828 0.469748
O O2 0.507484 0.538087 0.614248
O O3 0.021975 0.545589 0.751883
O O4 0.000000 0.500000 0.000000
O O5 0.274549 0.082168 0.003207
O O6 0.398694 0.194874 0.949665
O O7 0.741785 0.089836 0.855693
O O8 0.557634 0.877453 0.312795
O O9 0.122225 0.972222 0.860033
O O10 0.990815 0.474071 0.702802
O O11 0.500000 0.500000 0.000000
O O12 0.701993 0.327153 0.181679
O O13 0.576041 0.898217 0.765634
O O14 0.500000 0.000000 0.500000
O O15 0.635346 0.121984 0.423015
O O16 0.012773 0.197368 0.265385
O O17 0.551822 0.335499 0.819170
O O18 0.500000 0.500000 0.500000
#
# Coordination Sequence:
#
# PCOD9110848 Si02
#       8
#     2   2   2   2   2   2   2   2
#     4  11  22  42  69 100 131 177 222 275 332 408
#     4  11  23  42  73  92 138 175 227 268 342 399
#     4  11  27  42  65 104 132 176 228 281 328 404
#     4  11  24  41  69 100 134 173 221 276 338 402
#     4  12  29  44  66  98 138 174 230 283 337 387
#     4  12  23  45  73  94 133 184 221 277 339 405
#     4  12  24  44  70  98 135 179 226 270 343 407
#     4  10  20  42  66  97 130 172 224 265 330 407
#
# _framework density 20.785778000000001
#
# number of rings (size 3 to 8) (size 9 to 14) (size 15 to 20)
#    0.000    0.750    6.250    2.250    7.000    0.000 
#    0.000    0.625    0.000    0.000    0.000    0.000 
#    0.000    0.000    0.000    0.000    0.000    0.000 
#
# Total GULP energy -89482.738970 kJ/mol
# GULP energy per Si atom -5592.671186 kJ/mol
# Density = 2.073847 g / cm^3
# Si number density = 20.785778 Si / 1000 Ang^3
#
#
#
# Elastic Constant Matrix: (Units=GPa)
#
#
# Indices 1 2 3 4 5 6 
#
# 1 44.6345 29.3730 11.1500 7.2643 -6.5760 -21.0252
# 2 29.3730 123.3155 64.2655 1.9776 -14.9919 -40.6575
# 3 11.1500 64.2655 105.4110 16.8427 -4.1587 -24.8409
# 4 7.2643 1.9776 16.8427 49.0719 1.9569 -5.7663
# 5 -6.5760 -14.9919 -4.1587 1.9569 13.0740 12.9999
# 6 -21.0252 -40.6575 -24.8409 -5.7663 12.9999 40.7828
#
#
#
# Elastic Compliance Matrix: (Units=1/GPa)
#
#
# Indices 1 2 3 4 5 6 
#
# 1 0.031540 -0.005068 0.003449 -0.004049 -0.001330 0.013160
# 2 -0.005068 0.016827 -0.008227 0.003579 0.005843 0.007795
# 3 0.003449 -0.008227 0.015716 -0.004780 -0.006506 0.004547
# 4 -0.004049 0.003579 -0.004780 0.023232 -0.006989 0.004082
# 5 -0.001330 0.005843 -0.006506 -0.006989 0.119037 -0.037756
# 6 0.013160 0.007795 0.004547 0.004082 -0.037756 0.054457
#
#
# Mechanical properties :
#
#
# Convention : Reuss Voigt Hill
#
# Bulk Modulus (GPa) = 22.52692 53.65978 38.09335
# Shear Modulus (GPa) = 16.93201 31.82391 24.37796
#
# Velocity S-wave (km/s) = 2.85721 3.91710 3.42836
# Velocity P-wave (km/s) = 4.66327 6.80661 5.83421
#
# Compressibility (1/GPa) = 0.04439133
#
# Stress axis : x y z
#
# Youngs Moduli (GPa) = 31.70597 59.42845 63.62843
#
# Poissons Ratio (x) = 0.30119 -0.21948
# Poissons Ratio (y) = 0.16069 0.52348
# Poissons Ratio (z) = -0.10937 0.48893
#
# Static dielectric constant tensor:
#      x y z
#    x 1.733520 0.027820 0.019150 
#    y 0.027820 1.727910 0.033070 
#    z 0.019150 0.033070 1.724320 
# 
# From -- ./inp_files/297609.got.cif
#   From: 2010.05.17/outbox.cif.g08.bks.cpg/sg2_149_cif.got.tgz:297609.got - 2010.06.03 11:33:40.
