data_PCOD9110451
_publ_section_title
;
Structure prediction by ZEFSAII (Michael W. Deem and Ramdas Pophale) SiO2 
 PCOD9110451
Probable space group: P -1
;
_chemical_formula_sum "Si O2"
_cell_formula_units_Z 16
_cell_length_a 6.887042
_cell_length_b 14.719238
_cell_length_c 8.126274
_cell_angle_alpha 77.702085
_cell_angle_beta 100.382169
_cell_angle_gamma 70.219356
_cell_volume 728.308179
_symmetry_space_group_name_H-M "P -1"
_symmetry_group_IT_number 2
_symmetry_cell_setting 'triclinic'
loop_
_space_group_symop_operation_xyz
x,y,z
-x,-y,-z
loop_
_atom_site_type_symbol
_atom_site_label
_atom_site_fract_x
_atom_site_fract_y
_atom_site_fract_z
Si Si1 0.422354 0.771598 0.719968
Si Si2 0.066908 0.569271 0.607034
Si Si3 0.985804 0.063236 0.306381
Si Si4 0.409374 0.057190 0.224233
Si Si5 0.192284 0.074746 0.832238
Si Si6 0.218330 0.728091 0.387876
Si Si7 0.469113 0.551217 0.293112
Si Si8 0.784494 0.569529 0.850523
O O1 0.515019 0.857491 0.728498
O O2 0.374720 0.749325 0.533834
O O3 0.593880 0.667046 0.858809
O O4 0.182513 0.821744 0.740106
O O5 0.116404 0.656386 0.489733
O O6 0.298786 0.492020 0.739115
O O7 0.000000 0.500000 0.500000
O O8 0.879891 0.610562 0.695349
O O9 0.225448 0.048959 0.310838
O O10 0.000000 0.000000 0.500000
O O11 0.887572 0.017131 0.164229
O O12 0.618407 0.954951 0.263519
O O13 0.297762 0.084180 0.016720
O O14 0.981438 0.172086 0.727622
O O15 0.353112 0.668617 0.273485
O O16 0.500000 0.500000 0.500000
O O17 0.319894 0.507211 0.193832
O O18 0.000000 0.500000 0.000000
#
# Coordination Sequence:
#
# PCOD9110451 Si02
#       8
#     2   2   2   2   2   2   2   2
#     4  11  24  42  64  96 134 167 220 272 316 400
#     4  11  21  41  69  90 126 176 219 271 320 384
#     4  11  23  44  68 101 133 169 217 271 325 393
#     4  10  25  43  69  95 138 169 210 274 334 389
#     4  10  23  46  67  96 130 171 218 268 331 394
#     4  11  21  42  67  96 128 167 225 267 318 389
#     4  10  20  42  62  89 130 159 222 264 306 389
#     4  12  26  42  63  95 136 172 214 275 332 383
#
# _framework density 21.968722
#
# number of rings (size 3 to 8) (size 9 to 14) (size 15 to 20)
#    0.000    1.250    6.250    0.375    3.500    3.500 
#    4.500    0.000    0.000    0.000    0.000    0.000 
#    0.000    0.000    0.000    0.000    0.000    0.000 
#
# Total GULP energy -89376.558955 kJ/mol
# GULP energy per Si atom -5586.034935 kJ/mol
# Density = 2.191872 g / cm^3
# Si number density = 21.968722 Si / 1000 Ang^3
#
#
#
# Elastic Constant Matrix: (Units=GPa)
#
#
# Indices 1 2 3 4 5 6 
#
# 1 100.1133 29.3056 29.9760 12.0163 26.0529 -8.4880
# 2 29.3056 131.7220 27.5002 -1.1145 17.6127 -26.9444
# 3 29.9760 27.5002 50.1139 1.1191 23.3711 -1.3751
# 4 12.0163 -1.1145 1.1191 28.2823 -4.0737 24.5523
# 5 26.0529 17.6127 23.3711 -4.0737 40.0545 1.7903
# 6 -8.4880 -26.9444 -1.3751 24.5523 1.7903 46.7448
#
#
#
# Elastic Compliance Matrix: (Units=1/GPa)
#
#
# Indices 1 2 3 4 5 6 
#
# 1 0.019411 0.002410 -0.005137 -0.026868 -0.014289 0.019422
# 2 0.002410 0.011647 -0.004161 -0.014018 -0.006341 0.014634
# 3 -0.005137 -0.004161 0.031185 0.001123 -0.012798 -0.002514
# 4 -0.026868 -0.014018 0.001123 0.118018 0.038401 -0.076385
# 5 -0.014289 -0.006341 -0.012798 0.038401 0.049704 -0.028700
# 6 0.019422 0.014634 -0.002514 -0.076385 -0.028700 0.074501
#
#
# Mechanical properties :
#
#
# Convention : Reuss Voigt Hill
#
# Bulk Modulus (GPa) = 20.63234 50.61252 35.62243
# Shear Modulus (GPa) = 14.95220 36.02747 25.48984
#
# Velocity S-wave (km/s) = 2.61169 4.05402 3.40998
# Velocity P-wave (km/s) = 4.30193 6.70834 5.63509
#
# Compressibility (1/GPa) = 0.04846760
#
# Stress axis : x y z
#
# Youngs Moduli (GPa) = 51.51618 85.85829 32.06647
#
# Poissons Ratio (x) = -0.20691 0.16472
# Poissons Ratio (y) = -0.12415 0.13344
# Poissons Ratio (z) = 0.26463 0.35728
#
# Static dielectric constant tensor:
#      x y z
#    x 1.788200 -0.038880 -0.022190 
#    y -0.038880 1.833930 -0.002430 
#    z -0.022190 -0.002430 1.853360 
# 
# From -- ./inp_files/135170.got.cif
#   From: 2010.05.17/outbox.cif.g08.bks.cpg/sg2_68_cif.got.tgz:135170.got - 2010.06.03 11:33:40.
