data_PCOD9110536
_publ_section_title
;
Structure prediction by ZEFSAII (Michael W. Deem and Ramdas Pophale) SiO2 
 PCOD9110536
Probable space group: P -1
;
_chemical_formula_sum "Si O2"
_cell_formula_units_Z 16
_cell_length_a 19.115867
_cell_length_b 7.738993
_cell_length_c 12.342512
_cell_angle_alpha 78.963086
_cell_angle_beta 146.210491
_cell_angle_gamma 76.146353
_cell_volume 681.047128
_symmetry_space_group_name_H-M "P -1"
_symmetry_group_IT_number 2
_symmetry_cell_setting 'triclinic'
loop_
_space_group_symop_operation_xyz
x,y,z
-x,-y,-z
loop_
_atom_site_type_symbol
_atom_site_label
_atom_site_fract_x
_atom_site_fract_y
_atom_site_fract_z
Si Si1 0.303951 0.991336 0.045408
Si Si2 0.525659 0.928413 0.916641
Si Si3 0.790740 0.660311 0.681998
Si Si4 0.008716 0.015299 0.681883
Si Si5 0.597011 0.484895 0.782804
Si Si6 0.047484 0.809899 0.173203
Si Si7 0.309923 0.069083 0.272931
Si Si8 0.626840 0.443116 0.073962
O O1 0.104090 0.104187 0.760880
O O2 0.379461 0.012465 0.035895
O O3 0.305037 0.119419 0.134170
O O4 0.423382 0.694207 0.266487
O O5 0.330435 0.093236 0.583460
O O6 0.646633 0.630093 0.099797
O O7 0.500000 0.000000 0.000000
O O8 0.796916 0.472716 0.645141
O O9 0.697176 0.770254 0.666219
O O10 0.000000 0.500000 0.000000
O O11 0.932613 0.117818 0.693914
O O12 0.829172 0.150736 0.367529
O O13 0.183967 0.707490 0.932825
O O14 0.472773 0.767466 0.546155
O O15 0.551257 0.507003 0.848152
O O16 0.872931 0.861101 0.956799
O O17 0.000000 0.000000 0.000000
O O18 0.500000 0.500000 0.000000
#
# Coordination Sequence:
#
# PCOD9110536 Si02
#       8
#     2   2   2   2   2   2   2   2
#     4   9  23  41  68  94 137 177 226 287 337 415
#     4  12  25  44  68  98 135 188 231 284 348 411
#     4  10  23  42  63  96 141 172 229 286 339 404
#     4   9  23  42  65  98 134 176 229 280 340 411
#     4  10  21  42  67  97 133 177 226 279 342 408
#     4  10  22  36  66  97 131 174 223 280 338 402
#     4  10  20  42  63  98 131 179 224 277 347 401
#     4  12  25  42  68  97 137 178 232 284 343 415
#
# _framework density 23.493234999999999
#
# number of rings (size 3 to 8) (size 9 to 14) (size 15 to 20)
#    0.750    1.000    1.250    2.250    3.500    1.000 
#    2.250    0.000    0.000    0.000    0.000    0.000 
#    0.000    0.000    0.000    0.000    0.000    0.000 
#
# Total GULP energy -89309.147403 kJ/mol
# GULP energy per Si atom -5581.821713 kJ/mol
# Density = 2.343976 g / cm^3
# Si number density = 23.493235 Si / 1000 Ang^3
#
#
#
# Elastic Constant Matrix: (Units=GPa)
#
#
# Indices 1 2 3 4 5 6 
#
# 1 136.6841 26.7227 28.4925 14.0169 -11.3244 -21.1467
# 2 26.7227 68.9822 -6.9886 -12.5892 -3.5343 -30.9829
# 3 28.4925 -6.9886 79.6651 -1.7840 6.7348 -10.9644
# 4 14.0169 -12.5892 -1.7840 34.3292 -7.4591 -3.1318
# 5 -11.3244 -3.5343 6.7348 -7.4591 33.6854 10.7568
# 6 -21.1467 -30.9829 -10.9644 -3.1318 10.7568 41.0614
#
#
#
# Elastic Compliance Matrix: (Units=1/GPa)
#
#
# Indices 1 2 3 4 5 6 
#
# 1 0.010141 -0.006391 -0.004883 -0.006281 0.003018 -0.002173
# 2 -0.006391 0.032544 0.009622 0.016263 -0.005526 0.026522
# 3 -0.004883 0.009622 0.017415 0.006078 -0.006456 0.011551
# 4 -0.006281 0.016263 0.006078 0.039819 0.003081 0.012890
# 5 0.003018 -0.005526 -0.006456 0.003081 0.036455 -0.013654
# 6 -0.002173 0.026522 0.011551 0.012890 -0.013654 0.050892
#
#
# Mechanical properties :
#
#
# Convention : Reuss Voigt Hill
#
# Bulk Modulus (GPa) = 17.60613 42.42048 30.01331
# Shear Modulus (GPa) = 23.86629 37.62219 30.74424
#
# Velocity S-wave (km/s) = 3.19074 4.00610 3.62144
# Velocity P-wave (km/s) = 4.59183 6.28443 5.50359
#
# Compressibility (1/GPa) = 0.05679839
#
# Stress axis : x y z
#
# Youngs Moduli (GPa) = 98.60653 30.72739 57.42299
#
# Poissons Ratio (x) = 0.19637 0.28037
# Poissons Ratio (y) = 0.63016 -0.55254
# Poissons Ratio (z) = 0.48145 -0.29567
#
# Static dielectric constant tensor:
#      x y z
#    x 1.686550 -1.050840 0.614300 
#    y -1.050840 -3.046030 2.982990 
#    z 0.614300 2.982990 0.186680 
# 
# From -- ./inp_files/461173.got.cif
#   From: 2010.05.17/outbox.cif.g08.bks.cpg/sg2_231_cif.got.tgz:461173.got - 2010.06.03 11:33:40.
