data_PCOD9110826
_publ_section_title
;
Structure prediction by ZEFSAII (Michael W. Deem and Ramdas Pophale) SiO2 
 PCOD9110826
Probable space group: P -1
;
_chemical_formula_sum "Si O2"
_cell_formula_units_Z 14
_cell_length_a 9.207443
_cell_length_b 5.147727
_cell_length_c 15.824885
_cell_angle_alpha 75.599493
_cell_angle_beta 112.534304
_cell_angle_gamma 130.820505
_cell_volume 524.276054
_symmetry_space_group_name_H-M "P -1"
_symmetry_group_IT_number 2
_symmetry_cell_setting 'triclinic'
loop_
_space_group_symop_operation_xyz
x,y,z
-x,-y,-z
loop_
_atom_site_type_symbol
_atom_site_label
_atom_site_fract_x
_atom_site_fract_y
_atom_site_fract_z
Si Si1 0.717283 0.687504 0.071975
Si Si2 0.750216 0.735244 0.258891
Si Si3 0.622165 0.266146 0.601761
Si Si4 0.214520 0.581708 0.540150
Si Si5 0.980886 0.492637 0.112665
Si Si6 0.375583 0.641366 0.205443
Si Si7 0.140348 0.939896 0.264620
O O1 0.672858 0.528197 0.169804
O O2 0.854269 0.626951 0.053655
O O3 0.500000 0.500000 0.000000
O O4 0.846362 0.096868 0.085295
O O5 0.739196 0.557288 0.357439
O O6 0.609975 0.849511 0.221709
O O7 0.988113 0.976501 0.274008
O O8 0.745408 0.528106 0.531146
O O9 0.631916 0.356617 0.694139
O O10 0.717601 0.068501 0.641501
O O11 0.389536 0.990071 0.551006
O O12 0.000000 0.500000 0.500000
O O13 0.215306 0.676857 0.126004
O O14 0.014089 0.585961 0.212696
O O15 0.269270 0.239341 0.200600
#
# Coordination Sequence:
#
# PCOD9110826 Si02
#       7
#     2   2   2   2   2   2   2
#     4  11  24  46  75 105 140 181 229 289 351 412
#     4  11  23  40  68  99 133 185 234 279 349 418
#     4  10  23  39  64  93 143 181 233 290 342 402
#     4  11  22  40  63  98 139 187 238 284 343 415
#     4  10  21  43  72  99 141 179 220 286 354 403
#     4  11  22  41  67 101 134 187 228 287 345 411
#     4  10  20  42  66  94 142 176 229 284 341 404
#
# _framework density 26.703492000000001
#
# number of rings (size 3 to 8) (size 9 to 14) (size 15 to 20)
#    0.000    1.429    5.714    0.429    0.000    4.000 
#    0.000    2.857    0.000    0.000    0.000    0.000 
#    0.000    0.000    0.000    0.000    0.000    0.000 
#
# Total GULP energy -78071.320511 kJ/mol
# GULP energy per Si atom -5576.522894 kJ/mol
# Density = 2.664271 g / cm^3
# Si number density = 26.703492 Si / 1000 Ang^3
#
#
#
# Elastic Constant Matrix: (Units=GPa)
#
#
# Indices 1 2 3 4 5 6 
#
# 1 221.3176 75.2541 63.9047 15.5904 38.9491 20.0837
# 2 75.2541 86.0600 16.8538 24.1355 12.8286 -1.8403
# 3 63.9047 16.8538 128.6253 16.7767 18.0941 7.8666
# 4 15.5904 24.1355 16.7767 36.4134 11.1176 7.0999
# 5 38.9491 12.8286 18.0941 11.1176 58.7678 7.4604
# 6 20.0837 -1.8403 7.8666 7.0999 7.4604 52.2052
#
#
#
# Elastic Compliance Matrix: (Units=1/GPa)
#
#
# Indices 1 2 3 4 5 6 
#
# 1 0.008694 -0.007824 -0.003205 0.004656 -0.003534 -0.003266
# 2 -0.007824 0.021676 0.002271 -0.013559 0.001680 0.005036
# 3 -0.003205 0.002271 0.009708 -0.004538 -0.000572 0.000549
# 4 0.004656 -0.013559 -0.004538 0.039399 -0.005398 -0.006172
# 5 -0.003534 0.001680 -0.000572 -0.005398 0.020272 -0.000658
# 6 -0.003266 0.005036 0.000549 -0.006172 -0.000658 0.021440
#
#
# Mechanical properties :
#
#
# Convention : Reuss Voigt Hill
#
# Bulk Modulus (GPa) = 44.31944 83.11424 63.71684
# Shear Modulus (GPa) = 34.19363 48.14330 41.16847
#
# Velocity S-wave (km/s) = 3.58228 4.25064 3.93069
# Velocity P-wave (km/s) = 5.80889 7.43526 6.67182
#
# Compressibility (1/GPa) = 0.02256346
#
# Stress axis : x y z
#
# Youngs Moduli (GPa) = 115.01646 46.13332 103.00766
#
# Poissons Ratio (x) = 0.36094 0.33012
# Poissons Ratio (y) = 0.89987 -0.23393
# Poissons Ratio (z) = 0.36861 -0.10477
#
# Static dielectric constant tensor:
#      x y z
#    x 2.141200 -0.064590 -0.052260 
#    y -0.064590 2.197120 -0.023640 
#    z -0.052260 -0.023640 2.143190 
# 
# From -- ./inp_files/552610.got.cif
#   From: 2010.05.17/outbox.cif.g08.bks.cpg/sg2_277_cif.got.tgz:552610.got - 2010.06.03 11:33:40.
