data_PCOD9110404
_publ_section_title
;
Structure prediction by ZEFSAII (Michael W. Deem and Ramdas Pophale) SiO2 
 PCOD9110404
Probable space group: P -1
;
_chemical_formula_sum "Si O2"
_cell_formula_units_Z 16
_cell_length_a 8.862779
_cell_length_b 14.796894
_cell_length_c 7.397931
_cell_angle_alpha 72.879353
_cell_angle_beta 126.492176
_cell_angle_gamma 76.680995
_cell_volume 633.160330
_symmetry_space_group_name_H-M "P -1"
_symmetry_group_IT_number 2
_symmetry_cell_setting 'triclinic'
loop_
_space_group_symop_operation_xyz
x,y,z
-x,-y,-z
loop_
_atom_site_type_symbol
_atom_site_label
_atom_site_fract_x
_atom_site_fract_y
_atom_site_fract_z
Si Si1 0.905818 0.127106 0.788339
Si Si2 0.075177 0.604993 0.806920
Si Si3 0.727204 0.831284 0.575525
Si Si4 0.315865 0.992556 0.978960
Si Si5 0.744006 0.535519 0.644410
Si Si6 0.425209 0.287214 0.251326
Si Si7 0.119092 0.848304 0.850632
Si Si8 0.538406 0.382466 0.957264
O O1 0.681708 0.187861 0.483196
O O2 0.848563 0.192472 0.894957
O O3 0.114677 0.109378 0.837517
O O4 0.000000 0.000000 0.000000
O O5 0.870615 0.732074 0.593346
O O6 0.956626 0.537558 0.724464
O O7 0.166919 0.570572 0.099316
O O8 0.289528 0.583784 0.863891
O O9 0.471712 0.908961 0.296875
O O10 0.717787 0.769845 0.786317
O O11 0.858214 0.895120 0.622157
O O12 0.198493 0.934599 0.834170
O O13 0.500000 0.000000 0.000000
O O14 0.624047 0.636850 0.647184
O O15 0.600571 0.549647 0.358575
O O16 0.398396 0.360814 0.015708
O O17 0.278873 0.740982 0.913021
#
# Coordination Sequence:
#
# PCOD9110404 Si02
#       8
#     2   2   2   2   2   2   2   2
#     4  10  20  42  61  85 127 165 205 256 309 368
#     4   9  21  39  67  93 124 168 208 255 308 384
#     4  10  21  41  60  90 127 161 208 255 312 371
#     4  11  24  40  63  89 126 164 208 262 309 365
#     4  10  20  44  65  88 132 167 200 259 323 358
#     4  11  22  41  65  94 130 163 210 264 305 375
#     4  10  21  41  62  87 122 165 202 252 314 366
#     4  11  22  39  66  96 125 161 213 254 313 376
#
# _framework density 25.270061999999999
#
# number of rings (size 3 to 8) (size 9 to 14) (size 15 to 20)
#    0.000    1.750    3.750    1.125    3.500    2.500 
#    4.500    5.625    0.000    0.000    0.000    0.000 
#    0.000    0.000    0.000    0.000    0.000    0.000 
#
# Total GULP energy -89287.913695 kJ/mol
# GULP energy per Si atom -5580.494606 kJ/mol
# Density = 2.521255 g / cm^3
# Si number density = 25.270062 Si / 1000 Ang^3
#
#
#
# Elastic Constant Matrix: (Units=GPa)
#
#
# Indices 1 2 3 4 5 6 
#
# 1 159.5232 29.7615 19.5422 -3.5839 33.9796 16.7954
# 2 29.7615 54.2575 9.9721 2.8563 9.3066 18.5437
# 3 19.5422 9.9721 91.3824 -0.7039 22.2152 0.0997
# 4 -3.5839 2.8563 -0.7039 23.6908 3.5732 14.6341
# 5 33.9796 9.3066 22.2152 3.5732 48.7862 -3.8762
# 6 16.7954 18.5437 0.0997 14.6341 -3.8762 35.1871
#
#
#
# Elastic Compliance Matrix: (Units=1/GPa)
#
#
# Indices 1 2 3 4 5 6 
#
# 1 0.008976 -0.001671 0.000032 0.006998 -0.007023 -0.007088
# 2 -0.001671 0.025628 -0.001133 0.007509 -0.005061 -0.016386
# 3 0.000032 -0.001133 0.012458 0.001909 -0.005688 -0.000874
# 4 0.006998 0.007509 0.001909 0.067596 -0.015073 -0.037076
# 5 -0.007023 -0.005061 -0.005688 -0.015073 0.031300 0.015752
# 6 -0.007088 -0.016386 -0.000874 -0.037076 0.015752 0.057596
#
#
# Mechanical properties :
#
#
# Convention : Reuss Voigt Hill
#
# Bulk Modulus (GPa) = 24.08563 47.07940 35.58251
# Shear Modulus (GPa) = 22.42770 37.92533 30.17652
#
# Velocity S-wave (km/s) = 2.98236 3.87822 3.45941
# Velocity P-wave (km/s) = 4.62723 6.22295 5.48345
#
# Compressibility (1/GPa) = 0.04151853
#
# Stress axis : x y z
#
# Youngs Moduli (GPa) = 111.40881 39.01916 80.26728
#
# Poissons Ratio (x) = 0.06518 -0.00255
# Poissons Ratio (y) = 0.18612 0.09097
# Poissons Ratio (z) = -0.00354 0.04422
#
# Static dielectric constant tensor:
#      x y z
#    x 2.058360 0.004840 -0.056660 
#    y 0.004840 2.105560 -0.019220 
#    z -0.056660 -0.019220 2.085100 
# 
# From -- ./inp_files/214808.got.cif
#   From: 2010.05.17/outbox.cif.g08.bks.cpg/sg2_108_cif.got.tgz:214808.got - 2010.06.03 11:33:40.
