data_PCOD9110658
_publ_section_title
;
Structure prediction by ZEFSAII (Michael W. Deem and Ramdas Pophale) SiO2 
 PCOD9110658
Probable space group: P -1
;
_chemical_formula_sum "Si O2"
_cell_formula_units_Z 16
_cell_length_a 9.594319
_cell_length_b 18.295248
_cell_length_c 8.719819
_cell_angle_alpha 87.386378
_cell_angle_beta 119.447665
_cell_angle_gamma 44.825660
_cell_volume 720.157767
_symmetry_space_group_name_H-M "P -1"
_symmetry_group_IT_number 2
_symmetry_cell_setting 'triclinic'
loop_
_space_group_symop_operation_xyz
x,y,z
-x,-y,-z
loop_
_atom_site_type_symbol
_atom_site_label
_atom_site_fract_x
_atom_site_fract_y
_atom_site_fract_z
Si Si1 0.394926 0.031394 0.677207
Si Si2 0.626712 0.475607 0.907588
Si Si3 0.468627 0.415188 0.584809
Si Si4 0.690395 0.812311 0.630770
Si Si5 0.181858 0.306125 0.828555
Si Si6 0.260869 0.338065 0.529128
Si Si7 0.106659 0.166110 0.817040
Si Si8 0.231370 0.423868 0.995301
O O1 0.277593 0.138218 0.488137
O O2 0.180346 0.103554 0.698657
O O3 0.476134 0.929285 0.630296
O O4 0.702475 0.941169 0.930574
O O5 0.566150 0.585527 0.850005
O O6 0.983067 0.327804 0.111110
O O7 0.500000 0.500000 0.000000
O O8 0.493759 0.470989 0.714019
O O9 0.160034 0.549280 0.320136
O O10 0.432382 0.348031 0.641451
O O11 0.764441 0.300039 0.657830
O O12 0.590816 0.776142 0.497163
O O13 0.207596 0.319777 0.663668
O O14 0.231565 0.201404 0.877084
O O15 0.362053 0.295064 0.029455
O O16 0.953273 0.477712 0.264271
O O17 0.000000 0.500000 0.000000
#
# Coordination Sequence:
#
# PCOD9110658 Si02
#       8
#     2   2   2   2   2   2   2   2
#     4  10  22  40  64  83 116 160 217 235 292 346
#     4  11  21  36  63  95 120 148 197 246 299 355
#     4  11  21  37  60  95 124 147 194 252 302 354
#     4  10  20  42  65  84 114 166 199 245 288 358
#     4  11  21  39  62  88 125 162 187 236 310 368
#     4  10  21  39  60  87 122 162 190 232 307 373
#     4  11  22  38  63  92 114 158 204 253 288 349
#     4  10  21  35  55  87 123 157 186 232 298 364
#
# _framework density 22.217354
#
# number of rings (size 3 to 8) (size 9 to 14) (size 15 to 20)
#    0.000    1.500    2.500    4.875    1.750    1.000 
#    0.000    1.250    0.000    0.000    0.000    0.000 
#    0.000    0.000    0.000    0.000    0.000    0.000 
#
# Total GULP energy -89445.705686 kJ/mol
# GULP energy per Si atom -5590.356605 kJ/mol
# Density = 2.216679 g / cm^3
# Si number density = 22.217354 Si / 1000 Ang^3
#
#
#
# Elastic Constant Matrix: (Units=GPa)
#
#
# Indices 1 2 3 4 5 6 
#
# 1 90.1010 29.1339 23.3058 15.0005 9.4064 9.3113
# 2 29.1339 127.7780 23.3331 28.8403 17.3350 -3.1547
# 3 23.3058 23.3331 72.4622 17.7945 -1.8258 4.2416
# 4 15.0005 28.8403 17.7945 39.9805 8.1632 -3.0099
# 5 9.4064 17.3350 -1.8258 8.1632 30.3300 10.3462
# 6 9.3113 -3.1547 4.2416 -3.0099 10.3462 38.5974
#
#
#
# Elastic Compliance Matrix: (Units=1/GPa)
#
#
# Indices 1 2 3 4 5 6 
#
# 1 0.013299 -0.001815 -0.003045 -0.002171 -0.001758 -0.002720
# 2 -0.001815 0.010406 -0.001867 -0.004776 -0.005056 0.002476
# 3 -0.003045 -0.001867 0.017396 -0.006754 0.006064 -0.003482
# 4 -0.002171 -0.004776 -0.006754 0.034391 -0.008226 0.005762
# 5 -0.001758 -0.005056 0.006064 -0.008226 0.043395 -0.012929
# 6 -0.002720 0.002476 -0.003482 0.005762 -0.012929 0.031065
#
#
# Mechanical properties :
#
#
# Convention : Reuss Voigt Hill
#
# Bulk Modulus (GPa) = 36.16876 49.09852 42.63364
# Shear Modulus (GPa) = 28.96530 36.08615 32.52573
#
# Velocity S-wave (km/s) = 3.61463 4.03455 3.83035
# Velocity P-wave (km/s) = 5.80823 6.62198 6.22841
#
# Compressibility (1/GPa) = 0.02764817
#
# Stress axis : x y z
#
# Youngs Moduli (GPa) = 75.19240 96.10092 57.48517
#
# Poissons Ratio (x) = 0.17440 0.17504
# Poissons Ratio (y) = 0.13646 0.10730
# Poissons Ratio (z) = 0.22895 0.17938
#
# Static dielectric constant tensor:
#      x y z
#    x 1.843810 0.026710 -0.022630 
#    y 0.026710 1.849160 0.020120 
#    z -0.022630 0.020120 1.854060 
# 
# From -- ./inp_files/207675.got.cif
#   From: 2010.05.17/outbox.cif.g08.bks.cpg/sg2_104_cif.got.tgz:207675.got - 2010.06.03 11:33:40.
