data_PCOD9110847
_publ_section_title
;
Structure prediction by ZEFSAII (Michael W. Deem and Ramdas Pophale) SiO2 
 PCOD9110847
Probable space group: P -1
;
_chemical_formula_sum "Si O2"
_cell_formula_units_Z 12
_cell_length_a 15.182184
_cell_length_b 7.642145
_cell_length_c 10.156337
_cell_angle_alpha 111.843455
_cell_angle_beta 26.763303
_cell_angle_gamma 109.032488
_cell_volume 492.482866
_symmetry_space_group_name_H-M "P -1"
_symmetry_group_IT_number 2
_symmetry_cell_setting 'triclinic'
loop_
_space_group_symop_operation_xyz
x,y,z
-x,-y,-z
loop_
_atom_site_type_symbol
_atom_site_label
_atom_site_fract_x
_atom_site_fract_y
_atom_site_fract_z
Si Si1 0.653122 0.710560 0.727708
Si Si2 0.503136 0.299632 0.363813
Si Si3 0.792239 0.997259 0.203795
Si Si4 0.063802 0.678190 0.273549
Si Si5 0.544774 0.296444 0.761804
Si Si6 0.125318 0.282158 0.190518
O O1 0.581685 0.707879 0.673403
O O2 0.648210 0.489583 0.710905
O O3 0.877738 0.760360 0.466185
O O4 0.508641 0.805658 0.056544
O O5 0.500000 0.500000 0.500000
O O6 0.366078 0.156602 0.582842
O O7 0.731475 0.249911 0.031446
O O8 0.679118 0.187757 0.447090
O O9 0.847100 0.921526 0.966444
O O10 0.000000 0.000000 0.000000
O O11 0.073960 0.447353 0.200629
O O12 0.028864 0.722295 0.486717
O O13 0.334017 0.335967 0.989106
#
# Coordination Sequence:
#
# PCOD9110847 Si02
#       6
#     2   2   2   2   2   2
#     4  10  22  42  71  99 126 179 226 264 328 399
#     4  12  25  45  66 100 134 173 224 276 323 391
#     4  12  26  42  63 101 137 175 217 276 337 384
#     4  10  21  41  72  93 129 175 224 267 320 398
#     4  10  21  41  69  97 134 174 221 272 326 397
#     4  10  20  42  66  97 129 177 220 265 331 391
#
# _framework density 24.366329
#
# number of rings (size 3 to 8) (size 9 to 14) (size 15 to 20)
#    0.000    1.333    3.333    1.500    4.667    1.333 
#    6.000    1.667    0.000    0.000    0.000    0.000 
#    0.000    0.000    0.000    0.000    0.000    0.000 
#
# Total GULP energy -67105.966802 kJ/mol
# GULP energy per Si atom -5592.163900 kJ/mol
# Density = 2.431087 g / cm^3
# Si number density = 24.366329 Si / 1000 Ang^3
#
#
#
# Elastic Constant Matrix: (Units=GPa)
#
#
# Indices 1 2 3 4 5 6 
#
# 1 80.1992 8.2968 13.2438 4.0995 -5.9680 13.5228
# 2 8.2968 67.3885 39.3734 -1.2113 9.6299 10.8940
# 3 13.2438 39.3734 158.2436 1.9282 -3.7712 12.9256
# 4 4.0995 -1.2113 1.9282 43.5965 16.7204 1.2925
# 5 -5.9680 9.6299 -3.7712 16.7204 35.8306 -1.1612
# 6 13.5228 10.8940 12.9256 1.2925 -1.1612 24.1126
#
#
#
# Elastic Compliance Matrix: (Units=1/GPa)
#
#
# Indices 1 2 3 4 5 6 
#
# 1 0.014198 -0.001016 -0.000243 -0.002506 0.003553 -0.007068
# 2 -0.001016 0.019957 -0.004587 0.004188 -0.008184 -0.006606
# 3 -0.000243 -0.004587 0.007700 -0.001390 0.002596 -0.001720
# 4 -0.002506 0.004188 -0.001390 0.029336 -0.015445 -0.002058
# 5 0.003553 -0.008184 0.002596 -0.015445 0.038278 0.002985
# 6 -0.007068 -0.006606 -0.001720 -0.002058 0.002985 0.049597
#
#
# Mechanical properties :
#
#
# Convention : Reuss Voigt Hill
#
# Bulk Modulus (GPa) = 33.15262 47.51771 40.33516
# Shear Modulus (GPa) = 27.65283 37.03576 32.34430
#
# Velocity S-wave (km/s) = 3.37245 3.90289 3.64733
# Velocity P-wave (km/s) = 5.36657 6.31299 5.85892
#
# Compressibility (1/GPa) = 0.03016353
#
# Stress axis : x y z
#
# Youngs Moduli (GPa) = 70.43038 50.10687 129.86535
#
# Poissons Ratio (x) = 0.05092 0.03155
# Poissons Ratio (y) = 0.07158 0.59570
# Poissons Ratio (z) = 0.01711 0.22984
#
# Static dielectric constant tensor:
#      x y z
#    x 2.018730 -0.048360 0.068330 
#    y -0.048360 1.970790 0.020570 
#    z 0.068330 0.020570 2.000100 
# 
# From -- ./inp_files/155242.got.cif
#   From: 2010.05.17/outbox.cif.g08.bks.cpg/sg2_78_cif.got.tgz:155242.got - 2010.06.03 11:33:40.
