data_PCOD9110610
_publ_section_title
;
Structure prediction by ZEFSAII (Michael W. Deem and Ramdas Pophale) SiO2 
 PCOD9110610
Probable space group: P -1
;
_chemical_formula_sum "Si O2"
_cell_formula_units_Z 15
_cell_length_a 11.127014
_cell_length_b 12.766655
_cell_length_c 6.479734
_cell_angle_alpha 54.109033
_cell_angle_beta 76.938929
_cell_angle_gamma 74.563298
_cell_volume 715.919083
_symmetry_space_group_name_H-M "P -1"
_symmetry_group_IT_number 2
_symmetry_cell_setting 'triclinic'
loop_
_space_group_symop_operation_xyz
x,y,z
-x,-y,-z
loop_
_atom_site_type_symbol
_atom_site_label
_atom_site_fract_x
_atom_site_fract_y
_atom_site_fract_z
Si Si1 0.106900 0.556801 0.165116
Si Si2 0.684867 0.127333 0.056317
Si Si3 0.082700 0.299345 0.246054
Si Si4 0.143416 0.701982 0.382664
Si Si5 0.500000 0.000000 0.000000
Si Si6 0.664456 0.418005 0.219395
Si Si7 0.327351 0.095355 0.359679
Si Si8 0.520568 0.697269 0.831667
O O1 0.127723 0.405457 0.261007
O O2 0.102433 0.599782 0.353159
O O3 0.226275 0.610816 0.960971
O O4 0.982359 0.623039 0.016067
O O5 0.586927 0.253916 0.018586
O O6 0.696666 0.030323 0.359219
O O7 0.811462 0.175771 0.885879
O O8 0.621227 0.058093 0.978657
O O9 0.195680 0.188642 0.263250
O O10 0.970085 0.252348 0.469278
O O11 0.262920 0.625893 0.549523
O O12 0.585184 0.941469 0.829079
O O13 0.550115 0.343002 0.296553
O O14 0.607966 0.571028 0.039053
O O15 0.404356 0.184032 0.371100
#
# Coordination Sequence:
#
# PCOD9110610 Si02
#       8
#     2   2   2   2   1   2   2   2
#     4  10  20  44  65  98 136 169 218 278 329 392
#     4  11  25  41  63  95 137 176 220 268 327 390
#     4  10  23  42  70  94 137 173 220 271 333 388
#     4  11  24  40  67 101 133 176 216 271 330 403
#     4  10  24  44  66  92 128 178 224 268 328 374
#     4  10  21  38  67  98 130 169 218 279 338 385
#     4  11  24  44  67  97 129 180 220 276 323 396
#     4  10  20  42  64  93 132 169 220 278 332 384
#
# _framework density 20.952088
#
# number of rings (size 3 to 8) (size 9 to 14) (size 15 to 20)
#    0.000    1.600    2.667    2.000    3.733    2.133 
#    4.800    1.333    0.000    0.000    0.000    0.000 
#    0.000    0.000    0.000    0.000    0.000    0.000 
#
# Total GULP energy -83522.297385 kJ/mol
# GULP energy per Si atom -5568.153159 kJ/mol
# Density = 2.090440 g / cm^3
# Si number density = 20.952088 Si / 1000 Ang^3
#
#
#
# Elastic Constant Matrix: (Units=GPa)
#
#
# Indices 1 2 3 4 5 6 
#
# 1 92.2046 49.2673 46.3328 -9.9545 -11.2664 -3.6288
# 2 49.2673 91.1658 45.6121 4.2925 9.9610 -4.1148
# 3 46.3328 45.6121 71.1214 3.2324 -11.6068 -4.4336
# 4 -9.9545 4.2925 3.2324 11.8518 0.6935 5.2656
# 5 -11.2664 9.9610 -11.6068 0.6935 26.2281 -1.3927
# 6 -3.6288 -4.1148 -4.4336 5.2656 -1.3927 36.7081
#
#
#
# Elastic Compliance Matrix: (Units=1/GPa)
#
#
# Indices 1 2 3 4 5 6 
#
# 1 0.026749 -0.012820 -0.008977 0.030597 0.011374 -0.003835
# 2 -0.012820 0.026427 -0.010922 -0.017126 -0.019813 0.002081
# 3 -0.008977 -0.010922 0.030154 -0.014485 0.014239 0.004148
# 4 0.030597 -0.017126 -0.014485 0.128004 0.008861 -0.018670
# 5 0.011374 -0.019813 0.014239 0.008861 0.056684 0.001503
# 6 -0.003835 0.002081 0.004148 -0.018670 0.001503 0.030332
#
#
# Mechanical properties :
#
#
# Convention : Reuss Voigt Hill
#
# Bulk Modulus (GPa) = 55.89440 59.65734 57.77587
# Shear Modulus (GPa) = 13.52257 22.50956 18.01607
#
# Velocity S-wave (km/s) = 2.54324 3.28126 2.93553
# Velocity P-wave (km/s) = 5.94636 6.54909 6.25499
#
# Compressibility (1/GPa) = 0.01789088
#
# Stress axis : x y z
#
# Youngs Moduli (GPa) = 37.38478 37.84028 33.16330
#
# Poissons Ratio (x) = 0.48513 0.29771
# Poissons Ratio (y) = 0.47929 0.36220
# Poissons Ratio (z) = 0.33561 0.41328
#
# Static dielectric constant tensor:
#      x y z
#    x 1.779000 0.027560 -0.006380 
#    y 0.027560 1.736910 -0.014380 
#    z -0.006380 -0.014380 1.807410 
# 
# From -- ./inp_files/65460.got.cif
#   From: 2010.05.17/outbox.cif.g08.bks.cpg/sg2_33_cif.got.tgz:65460.got - 2010.06.03 11:33:40.
