data_PCOD9110057
_publ_section_title
;
Structure prediction by ZEFSAII (Michael W. Deem and Ramdas Pophale) SiO2 
 PCOD9110057
Probable space group: P -1
;
_chemical_formula_sum "Si O2"
_cell_formula_units_Z 16
_cell_length_a 18.262638
_cell_length_b 8.452026
_cell_length_c 14.863817
_cell_angle_alpha 152.642796
_cell_angle_beta 41.876941
_cell_angle_gamma 139.573559
_cell_volume 665.402848
_symmetry_space_group_name_H-M "P -1"
_symmetry_group_IT_number 2
_symmetry_cell_setting 'triclinic'
loop_
_space_group_symop_operation_xyz
x,y,z
-x,-y,-z
loop_
_atom_site_type_symbol
_atom_site_label
_atom_site_fract_x
_atom_site_fract_y
_atom_site_fract_z
Si Si1 0.200281 0.384301 0.842525
Si Si2 0.174542 0.567656 0.385362
Si Si3 0.981231 0.310495 0.113653
Si Si4 0.561214 0.601935 0.590973
Si Si5 0.212892 0.566239 0.729567
Si Si6 0.975229 0.224541 0.518176
Si Si7 0.392899 0.559524 0.074894
Si Si8 0.410380 0.581700 0.874361
O O1 0.239881 0.631578 0.842979
O O2 0.285508 0.546823 0.929404
O O3 0.203545 0.980393 0.607949
O O4 0.071445 0.367439 0.978595
O O5 0.089345 0.550217 0.369502
O O6 0.285226 0.480584 0.201821
O O7 0.100129 0.304404 0.397559
O O8 0.012066 0.642535 0.324160
O O9 0.849017 0.186179 0.138197
O O10 0.000000 0.000000 0.000000
O O11 0.500000 0.500000 0.500000
O O12 0.674344 0.487626 0.442250
O O13 0.471142 0.418882 0.658965
O O14 0.598682 0.038514 0.766694
O O15 0.107441 0.184384 0.626678
O O16 0.500000 0.500000 0.000000
O O17 0.394098 0.388728 0.888382
O O18 0.500000 0.000000 0.000000
#
# Coordination Sequence:
#
# PCOD9110057 Si02
#       8
#     2   2   2   2   2   2   2   2
#     4  11  21  44  68  92 138 177 227 282 333 405
#     4  10  20  41  69  90 135 183 215 279 344 391
#     4  12  25  42  65 107 137 168 229 282 342 403
#     4  11  21  47  68  93 135 178 228 272 339 406
#     4  11  24  44  71  94 136 187 218 276 342 413
#     4  10  21  42  66  96 135 178 221 271 339 409
#     4  11  23  43  66  99 132 171 225 283 334 392
#     4  10  23  41  68  97 131 179 227 282 331 399
#
# _framework density 24.045584999999999
#
# number of rings (size 3 to 8) (size 9 to 14) (size 15 to 20)
#    0.000    1.250    5.000    1.500    1.750    1.000 
#    9.000    1.250    0.000    0.000    0.000    0.000 
#    0.000    0.000    0.000    0.000    0.000    0.000 
#
# Total GULP energy -89420.635186 kJ/mol
# GULP energy per Si atom -5588.789699 kJ/mol
# Density = 2.399086 g / cm^3
# Si number density = 24.045585 Si / 1000 Ang^3
#
#
#
# Elastic Constant Matrix: (Units=GPa)
#
#
# Indices 1 2 3 4 5 6 
#
# 1 139.0236 7.1207 44.6068 -17.9105 -13.9184 12.8057
# 2 7.1207 77.6489 55.5008 -24.5425 -12.1289 17.2582
# 3 44.6068 55.5008 98.4048 -35.1562 -8.9938 -0.0835
# 4 -17.9105 -24.5425 -35.1562 60.2193 8.9897 -5.4675
# 5 -13.9184 -12.1289 -8.9938 8.9897 49.0812 -6.2994
# 6 12.8057 17.2582 -0.0835 -5.4675 -6.2994 27.5530
#
#
#
# Elastic Compliance Matrix: (Units=1/GPa)
#
#
# Indices 1 2 3 4 5 6 
#
# 1 0.010894 0.008200 -0.009419 -0.000125 0.002160 -0.009759
# 2 0.008200 0.034539 -0.022726 0.000498 0.003444 -0.024628
# 3 -0.009419 -0.022726 0.029738 0.007339 -0.001643 0.019783
# 4 -0.000125 0.000498 0.007339 0.021693 -0.002079 0.003598
# 5 0.002160 0.003444 -0.001643 -0.002079 0.022107 0.001475
# 6 -0.009759 -0.024628 0.019783 0.003598 0.001475 0.057367
#
#
# Mechanical properties :
#
#
# Convention : Reuss Voigt Hill
#
# Bulk Modulus (GPa) = 36.65366 58.83710 47.74538
# Shear Modulus (GPa) = 21.42971 41.22729 31.32850
#
# Velocity S-wave (km/s) = 2.98856 4.14520 3.61346
# Velocity P-wave (km/s) = 5.21394 6.88712 6.10809
#
# Compressibility (1/GPa) = 0.02728241
#
# Stress axis : x y z
#
# Youngs Moduli (GPa) = 91.79215 28.95262 33.62743
#
# Poissons Ratio (x) = -0.23741 0.31673
# Poissons Ratio (y) = -0.75271 0.76420
# Poissons Ratio (z) = 0.86457 0.65797
#
# Static dielectric constant tensor:
#      x y z
#    x 1.966560 -0.056570 0.021970 
#    y -0.056570 2.263060 -0.154120 
#    z 0.021970 -0.154120 2.228300 
# 
# From -- ./inp_files/537703.got.cif
#   From: 2010.05.17/outbox.cif.g08.bks.cpg/sg2_269_cif.got.tgz:537703.got - 2010.06.03 11:33:40.
