data_PCOD9110174
_publ_section_title
;
Structure prediction by ZEFSAII (Michael W. Deem and Ramdas Pophale) SiO2 
 PCOD9110174
Probable space group: P -1
;
_chemical_formula_sum "Si O2"
_cell_formula_units_Z 16
_cell_length_a 9.506871
_cell_length_b 15.821496
_cell_length_c 9.678637
_cell_angle_alpha 100.924304
_cell_angle_beta 72.862892
_cell_angle_gamma 144.188537
_cell_volume 810.806075
_symmetry_space_group_name_H-M "P -1"
_symmetry_group_IT_number 2
_symmetry_cell_setting 'triclinic'
loop_
_space_group_symop_operation_xyz
x,y,z
-x,-y,-z
loop_
_atom_site_type_symbol
_atom_site_label
_atom_site_fract_x
_atom_site_fract_y
_atom_site_fract_z
Si Si1 0.412776 0.392093 0.611216
Si Si2 0.150690 0.943499 0.932807
Si Si3 0.920355 0.875950 0.556467
Si Si4 0.246346 0.380790 0.948848
Si Si5 0.190131 0.544289 0.061403
Si Si6 0.286933 0.162577 0.125377
Si Si7 0.261224 0.620869 0.383841
Si Si8 0.416926 0.049802 0.612910
O O1 0.500000 0.500000 0.500000
O O2 0.180503 0.236116 0.561662
O O3 0.332717 0.405870 0.774943
O O4 0.589766 0.394592 0.608958
O O5 0.965803 0.917940 0.890391
O O6 0.355902 0.009948 0.782319
O O7 0.958277 0.784587 0.999173
O O8 0.271048 0.054698 0.056984
O O9 0.715177 0.807443 0.707297
O O10 0.000000 0.000000 0.500000
O O11 0.154606 0.946729 0.586671
O O12 0.500000 0.500000 0.000000
O O13 0.124681 0.414089 0.028054
O O14 0.199370 0.579887 0.227084
O O15 0.470744 0.687056 0.970711
O O16 0.000000 0.500000 0.000000
O O17 0.412480 0.783272 0.404961
O O18 0.000000 0.500000 0.500000
O O19 0.500000 0.000000 0.500000
#
# Coordination Sequence:
#
# PCOD9110174 Si02
#       8
#     2   2   2   2   2   2   2   2
#     4  12  27  45  72 108 142 183 242 293 347 423
#     4  10  21  41  73  97 129 180 236 292 337 411
#     4  11  23  41  70  99 135 180 236 290 344 413
#     4  12  24  44  71 103 136 184 241 282 342 415
#     4  12  27  45  70 102 144 187 231 286 354 420
#     4  10  20  41  70  95 128 178 235 284 344 401
#     4  12  28  48  70 101 148 188 231 295 364 419
#     4  11  26  44  70 102 141 186 234 288 361 424
#
# _framework density 19.733450000000001
#
# number of rings (size 3 to 8) (size 9 to 14) (size 15 to 20)
#    0.000    0.750    5.000    1.500   10.500    0.000 
#    0.000    0.625    0.000    0.000    0.000    0.000 
#    0.000    0.000    0.000    0.000    0.000    0.000 
#
# Total GULP energy -89259.551977 kJ/mol
# GULP energy per Si atom -5578.721999 kJ/mol
# Density = 1.968854 g / cm^3
# Si number density = 19.733450 Si / 1000 Ang^3
#
#
#
# Elastic Constant Matrix: (Units=GPa)
#
#
# Indices 1 2 3 4 5 6 
#
# 1 76.3171 9.1258 30.0366 12.8488 -0.8502 -10.0664
# 2 9.1258 93.9425 47.6213 12.2267 0.3559 -15.3246
# 3 30.0366 47.6213 160.1261 6.4316 -5.8566 0.4795
# 4 12.8488 12.2267 6.4316 43.6294 2.5643 -0.1455
# 5 -0.8502 0.3559 -5.8566 2.5643 28.5281 1.0571
# 6 -10.0664 -15.3246 0.4795 -0.1455 1.0571 33.6142
#
#
#
# Elastic Compliance Matrix: (Units=1/GPa)
#
#
# Indices 1 2 3 4 5 6 
#
# 1 0.015680 0.001611 -0.003254 -0.004571 -0.000012 0.005457
# 2 0.001611 0.014428 -0.004499 -0.003773 -0.000981 0.007139
# 3 -0.003254 -0.004499 0.008229 0.000896 0.001686 -0.003192
# 4 -0.004571 -0.003773 0.000896 0.025304 -0.002071 -0.002927
# 5 -0.000012 -0.000981 0.001686 -0.002071 0.035657 -0.001605
# 6 0.005457 0.007139 -0.003192 -0.002927 -0.001605 0.034722
#
#
# Mechanical properties :
#
#
# Convention : Reuss Voigt Hill
#
# Bulk Modulus (GPa) = 38.38086 55.99480 47.18783
# Shear Modulus (GPa) = 32.26081 37.39449 34.82765
#
# Velocity S-wave (km/s) = 4.04769 4.35786 4.20563
# Velocity P-wave (km/s) = 6.42938 7.33201 6.89548
#
# Compressibility (1/GPa) = 0.02605465
#
# Stress axis : x y z
#
# Youngs Moduli (GPa) = 63.77389 69.30861 121.52715
#
# Poissons Ratio (x) = -0.11168 0.39542
# Poissons Ratio (y) = -0.10276 0.54674
# Poissons Ratio (z) = 0.20750 0.31181
#
# Static dielectric constant tensor:
#      x y z
#    x 1.641230 0.009040 0.015470 
#    y 0.009040 1.657260 -0.013960 
#    z 0.015470 -0.013960 1.675540 
# 
# From -- ./inp_files/207696.got.cif
#   From: 2010.05.17/outbox.cif.g08.bks.cpg/sg2_104_cif.got.tgz:207696.got - 2010.06.03 11:33:40.
