data_PCOD9110541
_publ_section_title
;
Structure prediction by ZEFSAII (Michael W. Deem and Ramdas Pophale) SiO2 
 PCOD9110541
Probable space group: P -1
;
_chemical_formula_sum "Si O2"
_cell_formula_units_Z 13
_cell_length_a 6.721193
_cell_length_b 10.761486
_cell_length_c 10.952612
_cell_angle_alpha 134.264135
_cell_angle_beta 69.279477
_cell_angle_gamma 120.786864
_cell_volume 487.364034
_symmetry_space_group_name_H-M "P -1"
_symmetry_group_IT_number 2
_symmetry_cell_setting 'triclinic'
loop_
_space_group_symop_operation_xyz
x,y,z
-x,-y,-z
loop_
_atom_site_type_symbol
_atom_site_label
_atom_site_fract_x
_atom_site_fract_y
_atom_site_fract_z
Si Si1 0.279962 0.135250 0.207921
Si Si2 0.464577 0.706970 0.330486
Si Si3 0.693027 0.492070 0.305056
Si Si4 0.058587 0.702365 0.565207
Si Si5 0.918911 0.632445 0.952222
Si Si6 0.000000 0.000000 0.000000
Si Si7 0.046265 0.103729 0.689091
O O1 0.495297 0.326732 0.309405
O O2 0.275477 0.040131 0.014771
O O3 0.032570 0.166453 0.240972
O O4 0.182974 0.012514 0.262107
O O5 0.564984 0.585819 0.310948
O O6 0.309858 0.771073 0.500876
O O7 0.289847 0.562052 0.173741
O O8 0.684999 0.867874 0.330254
O O9 0.877301 0.653026 0.459393
O O10 0.845978 0.391479 0.144476
O O11 0.000000 0.500000 0.500000
O O12 0.921895 0.688245 0.131569
O O13 0.904613 0.802079 0.987943
O O14 0.000000 0.000000 0.500000
#
# Coordination Sequence:
#
# PCOD9110541 Si02
#       7
#     2   2   2   2   2   1   2
#     4  11  22  42  66 100 135 168 224 277 329 395
#     4  11  23  45  67  98 134 178 224 270 335 400
#     4  11  22  41  74  99 123 176 228 279 328 386
#     4  11  22  38  69  99 131 173 224 279 329 389
#     4  10  23  45  73  98 133 172 231 274 333 394
#     4  10  20  42  64 102 126 166 220 282 322 378
#     4  11  26  43  64 100 143 176 218 272 340 407
#
# _framework density 26.674106999999999
#
# number of rings (size 3 to 8) (size 9 to 14) (size 15 to 20)
#    0.000    1.231    3.077    2.769    2.154    3.692 
#    2.769    1.538    0.000    0.000    0.000    0.000 
#    0.000    0.000    0.000    0.000    0.000    0.000 
#
# Total GULP energy -72394.411012 kJ/mol
# GULP energy per Si atom -5568.800847 kJ/mol
# Density = 2.661340 g / cm^3
# Si number density = 26.674107 Si / 1000 Ang^3
#
#
#
# Elastic Constant Matrix: (Units=GPa)
#
#
# Indices 1 2 3 4 5 6 
#
# 1 111.9646 42.8507 42.8074 2.9085 -4.8456 24.5587
# 2 42.8507 126.3485 25.8034 2.7108 -13.1696 15.1177
# 3 42.8074 25.8034 158.7587 -9.2069 5.1915 9.3696
# 4 2.9085 2.7108 -9.2069 38.1321 7.9723 -10.9411
# 5 -4.8456 -13.1696 5.1915 7.9723 49.0080 0.8788
# 6 24.5587 15.1177 9.3696 -10.9411 0.8788 50.5893
#
#
#
# Elastic Compliance Matrix: (Units=1/GPa)
#
#
# Indices 1 2 3 4 5 6 
#
# 1 0.012395 -0.002767 -0.002810 -0.003272 0.001409 -0.005402
# 2 -0.002767 0.009569 -0.000895 -0.001763 0.002711 -0.001779
# 3 -0.002810 -0.000895 0.007362 0.002673 -0.001749 0.000876
# 4 -0.003272 -0.001763 0.002673 0.030974 -0.006270 0.008428
# 5 0.001409 0.002711 -0.001749 -0.006270 0.022530 -0.002918
# 6 -0.005402 -0.001779 0.000876 0.008428 -0.002918 0.024632
#
#
# Mechanical properties :
#
#
# Convention : Reuss Voigt Hill
#
# Bulk Modulus (GPa) = 61.03517 68.88831 64.96174
# Shear Modulus (GPa) = 39.72443 46.58657 43.15550
#
# Velocity S-wave (km/s) = 3.86327 4.18366 4.02665
# Velocity P-wave (km/s) = 6.54456 7.01565 6.78419
#
# Compressibility (1/GPa) = 0.01638400
#
# Stress axis : x y z
#
# Youngs Moduli (GPa) = 80.67558 104.50398 135.82547
#
# Poissons Ratio (x) = 0.28912 0.38161
# Poissons Ratio (y) = 0.22320 0.12159
# Poissons Ratio (z) = 0.22666 0.09355
#
# Static dielectric constant tensor:
#      x y z
#    x 2.178150 -0.075330 -0.030080 
#    y -0.075330 2.247750 0.015890 
#    z -0.030080 0.015890 2.443540 
# 
# From -- ./inp_files/363504.got.cif
#   From: 2010.05.17/outbox.cif.g08.bks.cpg/sg2_182_cif.got.tgz:363504.got - 2010.06.03 11:33:40.
