data_PCOD9110076
_publ_section_title
;
Structure prediction by ZEFSAII (Michael W. Deem and Ramdas Pophale) SiO2 
 PCOD9110076
Probable space group: P -1
;
_chemical_formula_sum "Si O2"
_cell_formula_units_Z 15
_cell_length_a 7.199850
_cell_length_b 28.424165
_cell_length_c 5.043984
_cell_angle_alpha 88.826717
_cell_angle_beta 86.180679
_cell_angle_gamma 41.450050
_cell_volume 681.119566
_symmetry_space_group_name_H-M "P -1"
_symmetry_group_IT_number 2
_symmetry_cell_setting 'triclinic'
loop_
_space_group_symop_operation_xyz
x,y,z
-x,-y,-z
loop_
_atom_site_type_symbol
_atom_site_label
_atom_site_fract_x
_atom_site_fract_y
_atom_site_fract_z
Si Si1 0.512795 0.042472 0.308070
Si Si2 0.630139 0.499707 0.738802
Si Si3 0.633687 0.204609 0.537986
Si Si4 0.009146 0.156631 0.996152
Si Si5 0.572350 0.858755 0.277388
Si Si6 0.000000 0.000000 0.000000
Si Si7 0.297179 0.418366 0.058203
Si Si8 0.717802 0.636050 0.414262
O O1 0.424572 0.104584 0.485574
O O2 0.825106 0.995109 0.190809
O O3 0.287611 0.078614 0.091110
O O4 0.500000 0.000000 0.500000
O O5 0.500000 0.500000 0.500000
O O6 0.560552 0.567490 0.785076
O O7 0.960579 0.427235 0.700136
O O8 0.500000 0.500000 0.000000
O O9 0.778468 0.190383 0.243993
O O10 0.484551 0.182179 0.591006
O O11 0.417915 0.287537 0.609410
O O12 0.876210 0.162160 0.740804
O O13 0.139251 0.183922 0.908468
O O14 0.305944 0.923257 0.110702
O O15 0.276243 0.380896 0.278461
O O16 0.423649 0.374127 0.778960
O O17 0.000000 0.500000 0.000000
#
# Coordination Sequence:
#
# PCOD9110076 Si02
#       8
#     2   2   2   2   2   1   2   2
#     4  11  24  43  70 106 139 176 241 301 361 423
#     4  11  21  38  66 102 134 165 217 289 336 390
#     4  12  27  47  72  95 150 190 239 286 356 427
#     4  11  26  47  70 100 137 193 232 293 357 416
#     4  11  26  45  71 105 143 184 241 299 355 424
#     4  10  24  38  74 102 132 184 234 286 374 396
#     4  10  20  41  69  93 134 171 222 272 336 404
#     4  11  23  44  64 100 130 189 224 271 350 424
#
# _framework density 22.022563999999999
#
# number of rings (size 3 to 8) (size 9 to 14) (size 15 to 20)
#    0.000    1.067    1.333    6.000    5.600    1.067 
#    7.200    0.000    0.000    0.000    0.000    0.000 
#    0.000    0.000    0.000    0.000    0.000    0.000 
#
# Total GULP energy -83512.660867 kJ/mol
# GULP energy per Si atom -5567.510724 kJ/mol
# Density = 2.197244 g / cm^3
# Si number density = 22.022564 Si / 1000 Ang^3
#
#
#
# Elastic Constant Matrix: (Units=GPa)
#
#
# Indices 1 2 3 4 5 6 
#
# 1 131.9249 43.8009 62.5034 -0.9068 -20.8388 30.0418
# 2 43.8009 83.4886 23.0840 -10.2718 1.3137 30.4901
# 3 62.5034 23.0840 133.2768 -12.8311 -8.7964 13.3447
# 4 -0.9068 -10.2718 -12.8311 27.0392 0.4812 -2.0708
# 5 -20.8388 1.3137 -8.7964 0.4812 52.4803 -0.7327
# 6 30.0418 30.4901 13.3447 -2.0708 -0.7327 28.0701
#
#
#
# Elastic Compliance Matrix: (Units=1/GPa)
#
#
# Indices 1 2 3 4 5 6 
#
# 1 0.013798 -0.003003 -0.005095 -0.003886 0.004607 -0.009250
# 2 -0.003003 0.021645 0.000166 0.006711 -0.002046 -0.019935
# 3 -0.005095 0.000166 0.010228 0.004810 -0.000346 0.000755
# 4 -0.003886 0.006711 0.004810 0.041525 -0.001319 -0.002388
# 5 0.004607 -0.002046 -0.000346 -0.001319 0.020860 -0.002096
# 6 -0.009250 -0.019935 0.000755 -0.002388 -0.002096 0.066588
#
#
# Mechanical properties :
#
#
# Convention : Reuss Voigt Hill
#
# Bulk Modulus (GPa) = 33.54693 67.49632 50.52163
# Shear Modulus (GPa) = 24.94457 36.13806 30.54132
#
# Velocity S-wave (km/s) = 3.36919 4.05527 3.72804
# Velocity P-wave (km/s) = 5.51373 7.25549 6.44373
#
# Compressibility (1/GPa) = 0.02980899
#
# Stress axis : x y z
#
# Youngs Moduli (GPa) = 72.47307 46.19985 97.76779
#
# Poissons Ratio (x) = 0.13873 0.49811
# Poissons Ratio (y) = 0.21762 -0.01625
# Poissons Ratio (z) = 0.36924 -0.00768
#
# Static dielectric constant tensor:
#      x y z
#    x 1.857740 0.011480 -0.004830 
#    y 0.011480 1.804650 -0.004780 
#    z -0.004830 -0.004780 1.854000 
# 
# From -- ./inp_files/14539.got.cif
#   From: 2010.05.17/outbox.cif.g08.bks.cpg/sg2_8_cif.got.tgz:14539.got - 2010.06.03 11:33:40.
