data_PCOD9110036
_publ_section_title
;
Structure prediction by ZEFSAII (Michael W. Deem and Ramdas Pophale) SiO2 
 PCOD9110036
Probable space group: P -1
;
_chemical_formula_sum "Si O2"
_cell_formula_units_Z 16
_cell_length_a 11.265700
_cell_length_b 15.524011
_cell_length_c 14.032207
_cell_angle_alpha 21.489586
_cell_angle_beta 50.209010
_cell_angle_gamma 41.597545
_cell_volume 580.893998
_symmetry_space_group_name_H-M "P -1"
_symmetry_group_IT_number 2
_symmetry_cell_setting 'triclinic'
loop_
_space_group_symop_operation_xyz
x,y,z
-x,-y,-z
loop_
_atom_site_type_symbol
_atom_site_label
_atom_site_fract_x
_atom_site_fract_y
_atom_site_fract_z
Si Si1 0.939923 0.558439 0.579770
Si Si2 0.709967 0.296901 0.310142
Si Si3 0.279656 0.043044 0.496208
Si Si4 0.448755 0.997596 0.138655
Si Si5 0.844234 0.375462 0.357315
Si Si6 0.658409 0.126333 0.057442
Si Si7 0.252343 0.563654 0.043239
Si Si8 0.730322 0.408458 0.579439
O O1 0.867676 0.394854 0.844327
O O2 0.000000 0.500000 0.500000
O O3 0.123831 0.501503 0.591616
O O4 0.773695 0.882836 0.324196
O O5 0.807995 0.267219 0.389098
O O6 0.513671 0.589770 0.104461
O O7 0.675146 0.059883 0.532170
O O8 0.832186 0.312020 0.146644
O O9 0.339502 0.238701 0.308569
O O10 0.057971 0.231579 0.417405
O O11 0.338637 0.752050 0.817064
O O12 0.528945 0.667308 0.446379
O O13 0.253743 0.288375 0.949569
O O14 0.573299 0.034263 0.112789
O O15 0.500000 0.000000 0.000000
O O16 0.748258 0.313102 0.559255
O O17 0.784698 0.193954 0.858467
#
# Coordination Sequence:
#
# PCOD9110036 Si02
#       8
#     2   2   2   2   2   2   2   2
#     4  12  25  45  72 101 138 189 240 298 355 421
#     4   9  24  43  67 103 141 187 232 290 359 423
#     4  10  22  46  69 104 142 187 233 295 349 423
#     4   9  21  40  60 101 140 178 221 286 354 419
#     4  10  20  41  69 104 139 185 229 292 359 428
#     4  11  24  43  68 102 138 186 238 287 356 423
#     4  10  25  46  72 103 144 182 244 293 351 419
#     4  11  23  42  69 104 142 182 237 295 356 422
#
# _framework density 27.543752000000001
#
# number of rings (size 3 to 8) (size 9 to 14) (size 15 to 20)
#    0.750    1.000    2.500    0.750    1.750    8.500 
#    4.500    0.625    0.000    0.000    0.000    0.000 
#    0.000    0.000    0.000    0.000    0.000    0.000 
#
# Total GULP energy -89348.075991 kJ/mol
# GULP energy per Si atom -5584.254749 kJ/mol
# Density = 2.748106 g / cm^3
# Si number density = 27.543752 Si / 1000 Ang^3
#
#
#
# Elastic Constant Matrix: (Units=GPa)
#
#
# Indices 1 2 3 4 5 6 
#
# 1 112.8607 48.6152 47.2340 -7.9560 -10.9814 1.4373
# 2 48.6152 135.1216 57.8028 -19.3069 -1.5899 34.3927
# 3 47.2340 57.8028 161.3270 14.7962 2.9131 -11.9806
# 4 -7.9560 -19.3069 14.7962 54.8460 -8.4639 15.7803
# 5 -10.9814 -1.5899 2.9131 -8.4639 45.7868 -10.2085
# 6 1.4373 34.3927 -11.9806 15.7803 -10.2085 47.6257
#
#
#
# Elastic Compliance Matrix: (Units=1/GPa)
#
#
# Indices 1 2 3 4 5 6 
#
# 1 0.011705 -0.003806 -0.002018 0.000753 0.003474 0.002382
# 2 -0.003806 0.020871 -0.009470 0.015665 -0.001799 -0.022915
# 3 -0.002018 -0.009470 0.012189 -0.010874 -0.000602 0.013439
# 4 0.000753 0.015665 -0.010874 0.034313 0.002192 -0.024970
# 5 0.003474 -0.001799 -0.000602 0.002192 0.024286 0.005522
# 6 0.002382 -0.022915 0.013439 -0.024970 0.005522 0.050311
#
#
# Mechanical properties :
#
#
# Convention : Reuss Voigt Hill
#
# Bulk Modulus (GPa) = 70.53641 79.62372 75.08006
# Shear Modulus (GPa) = 26.45673 46.69553 36.57613
#
# Velocity S-wave (km/s) = 3.10261 4.12190 3.64803
# Velocity P-wave (km/s) = 6.20479 7.18500 6.71281
#
# Compressibility (1/GPa) = 0.01417708
#
# Stress axis : x y z
#
# Youngs Moduli (GPa) = 85.43032 47.91418 82.04315
#
# Poissons Ratio (x) = 0.18236 0.16560
# Poissons Ratio (y) = 0.32514 0.77691
# Poissons Ratio (z) = 0.17244 0.45372
#
# Static dielectric constant tensor:
#      x y z
#    x 2.138320 0.068920 -0.064710 
#    y 0.068920 2.264920 0.012440 
#    z -0.064710 0.012440 2.218290 
# 
# From -- ./inp_files/535049.got.cif
#   From: 2010.05.17/outbox.cif.g08.bks.cpg/sg2_268_cif.got.tgz:535049.got - 2010.06.03 11:33:40.
