data_PCOD9110445
_publ_section_title
;
Structure prediction by ZEFSAII (Michael W. Deem and Ramdas Pophale) SiO2 
 PCOD9110445
Probable space group: P -1
;
_chemical_formula_sum "Si O2"
_cell_formula_units_Z 14
_cell_length_a 12.061616
_cell_length_b 8.769657
_cell_length_c 9.524647
_cell_angle_alpha 78.363286
_cell_angle_beta 128.158385
_cell_angle_gamma 64.720066
_cell_volume 541.412921
_symmetry_space_group_name_H-M "P -1"
_symmetry_group_IT_number 2
_symmetry_cell_setting 'triclinic'
loop_
_space_group_symop_operation_xyz
x,y,z
-x,-y,-z
loop_
_atom_site_type_symbol
_atom_site_label
_atom_site_fract_x
_atom_site_fract_y
_atom_site_fract_z
Si Si1 0.726187 0.034450 0.008738
Si Si2 0.827997 0.457979 0.619141
Si Si3 0.655806 0.163691 0.246038
Si Si4 0.843448 0.235840 0.911656
Si Si5 0.962466 0.403499 0.178940
Si Si6 0.459934 0.080384 0.295834
Si Si7 0.769698 0.407214 0.281718
O O1 0.704082 0.048804 0.155644
O O2 0.716324 0.221049 0.913645
O O3 0.947661 0.791589 0.189389
O O4 0.572777 0.044805 0.804231
O O5 0.731694 0.424115 0.668990
O O6 0.737548 0.521039 0.381470
O O7 0.869724 0.595644 0.686708
O O8 0.628235 0.063074 0.367149
O O9 0.794003 0.205364 0.372325
O O10 0.430350 0.411229 0.001222
O O11 0.966489 0.262215 0.096309
O O12 0.000000 0.000000 0.000000
O O13 0.939609 0.347231 0.326852
O O14 0.753394 0.659196 0.931072
O O15 0.500000 0.000000 0.500000
#
# Coordination Sequence:
#
# PCOD9110445 Si02
#       7
#     2   2   2   2   2   2   2
#     4  10  21  41  59  88 126 164 202 252 305 366
#     4  10  22  37  62  93 123 161 207 252 305 366
#     4  10  21  40  62  88 128 160 201 256 305 369
#     4  10  21  39  60  89 127 162 201 253 309 361
#     4  10  20  42  62  88 129 161 201 259 308 361
#     4  10  23  39  63  93 122 161 208 252 308 369
#     4  10  21  38  64  94 118 161 209 250 311 369
#
# _framework density 25.858263999999998
#
# number of rings (size 3 to 8) (size 9 to 14) (size 15 to 20)
#    0.000    2.000    1.429    1.286    2.000    1.714 
#    0.000    2.857    0.000    0.000    0.000    0.000 
#    0.000    0.000    0.000    0.000    0.000    0.000 
#
# Total GULP energy -78489.023636 kJ/mol
# GULP energy per Si atom -5606.358831 kJ/mol
# Density = 2.579941 g / cm^3
# Si number density = 25.858264 Si / 1000 Ang^3
#
#
#
# Elastic Constant Matrix: (Units=GPa)
#
#
# Indices 1 2 3 4 5 6 
#
# 1 151.4404 56.0148 63.5243 2.2871 -44.8512 18.9888
# 2 56.0148 179.4060 45.4475 30.6139 -19.7193 20.9019
# 3 63.5243 45.4475 108.5156 12.8966 -29.9027 14.9009
# 4 2.2871 30.6139 12.8966 37.3877 -5.0452 -5.2470
# 5 -44.8512 -19.7193 -29.9027 -5.0452 54.4911 -3.4876
# 6 18.9888 20.9019 14.9009 -5.2470 -3.4876 40.5202
#
#
#
# Elastic Compliance Matrix: (Units=1/GPa)
#
#
# Indices 1 2 3 4 5 6 
#
# 1 0.011101 -0.002065 -0.004000 0.003008 0.006362 -0.001729
# 2 -0.002065 0.007993 -0.000878 -0.006655 -0.000142 -0.003706
# 3 -0.004000 -0.000878 0.013694 -0.003711 0.003375 -0.002898
# 4 0.003008 -0.006655 -0.003711 0.034655 0.001753 0.008027
# 5 0.006362 -0.000142 0.003375 0.001753 0.025440 -0.001733
# 6 -0.001729 -0.003706 -0.002898 0.008027 -0.001733 0.029357
#
#
# Mechanical properties :
#
#
# Convention : Reuss Voigt Hill
#
# Bulk Modulus (GPa) = 52.90820 85.48169 69.19494
# Shear Modulus (GPa) = 35.10569 44.77148 39.93858
#
# Velocity S-wave (km/s) = 3.68859 4.16555 3.93430
# Velocity P-wave (km/s) = 6.21660 7.50102 6.88881
#
# Compressibility (1/GPa) = 0.01890066
#
# Stress axis : x y z
#
# Youngs Moduli (GPa) = 90.08474 125.11104 73.02543
#
# Poissons Ratio (x) = 0.25836 0.29212
# Poissons Ratio (y) = 0.18603 0.06412
# Poissons Ratio (z) = 0.36036 0.10985
#
# Static dielectric constant tensor:
#      x y z
#    x 2.032990 -0.017390 0.029050 
#    y -0.017390 1.996220 -0.096300 
#    z 0.029050 -0.096300 2.071730 
# 
# From -- ./inp_files/158373.got.cif
#   From: 2010.05.17/outbox.cif.g08.bks.cpg/sg2_80_cif.got.tgz:158373.got - 2010.06.03 11:33:40.
