data_PCOD9110705
_publ_section_title
;
Structure prediction by ZEFSAII (Michael W. Deem and Ramdas Pophale) SiO2 
 PCOD9110705
Probable space group: P -1
;
_chemical_formula_sum "Si O2"
_cell_formula_units_Z 14
_cell_length_a 8.501683
_cell_length_b 15.989770
_cell_length_c 7.720883
_cell_angle_alpha 118.810115
_cell_angle_beta 84.327299
_cell_angle_gamma 136.709539
_cell_volume 572.495250
_symmetry_space_group_name_H-M "P -1"
_symmetry_group_IT_number 2
_symmetry_cell_setting 'triclinic'
loop_
_space_group_symop_operation_xyz
x,y,z
-x,-y,-z
loop_
_atom_site_type_symbol
_atom_site_label
_atom_site_fract_x
_atom_site_fract_y
_atom_site_fract_z
Si Si1 0.926191 0.878889 0.513259
Si Si2 0.339662 0.558772 0.939478
Si Si3 0.770508 0.937645 0.858240
Si Si4 0.758487 0.141286 0.010195
Si Si5 0.541049 0.459680 0.741510
Si Si6 0.891483 0.552130 0.511310
Si Si7 0.520274 0.851160 0.141231
O O1 0.729114 0.845155 0.619664
O O2 0.747437 0.703692 0.331937
O O3 0.000000 0.000000 0.500000
O O4 0.201311 0.982267 0.665605
O O5 0.542079 0.575122 0.865800
O O6 0.139634 0.462609 0.707920
O O7 0.283620 0.499868 0.083237
O O8 0.442242 0.715441 0.101066
O O9 0.549242 0.837227 0.920906
O O10 0.853528 0.078410 0.913009
O O11 0.000000 0.000000 0.000000
O O12 0.927588 0.281732 0.261973
O O13 0.685323 0.161979 0.862435
O O14 0.500000 0.000000 0.000000
O O15 0.635291 0.462671 0.551701
O O16 0.000000 0.500000 0.500000
#
# Coordination Sequence:
#
# PCOD9110705 Si02
#       7
#     2   2   2   2   2   2   2
#     4  11  22  40  67  94 132 172 226 281 338 397
#     4  11  24  45  68 103 140 175 237 281 348 407
#     4   9  21  35  67  93 125 167 225 273 330 398
#     4  10  23  42  67  98 132 174 227 278 342 410
#     4  11  27  43  70 105 137 183 230 291 342 407
#     4  12  26  45  72  99 140 186 225 282 358 415
#     4  10  20  42  65  94 130 175 221 285 334 407
#
# _framework density 24.454352
#
# number of rings (size 3 to 8) (size 9 to 14) (size 15 to 20)
#    0.000    1.429    2.857    1.286   12.000    0.571 
#    0.000    0.714    0.000    0.000    0.000    0.000 
#    0.000    0.000    0.000    0.000    0.000    0.000 
#
# Total GULP energy -78051.775667 kJ/mol
# GULP energy per Si atom -5575.126833 kJ/mol
# Density = 2.439869 g / cm^3
# Si number density = 24.454352 Si / 1000 Ang^3
#
#
#
# Elastic Constant Matrix: (Units=GPa)
#
#
# Indices 1 2 3 4 5 6 
#
# 1 103.5469 25.5404 15.2411 14.6824 6.3746 -46.0637
# 2 25.5404 59.2219 11.6431 20.1631 17.0825 -12.2778
# 3 15.2411 11.6431 91.2949 21.6835 22.6246 -6.8215
# 4 14.6824 20.1631 21.6835 51.3680 -1.2421 3.4455
# 5 6.3746 17.0825 22.6246 -1.2421 39.5495 4.1423
# 6 -46.0637 -12.2778 -6.8215 3.4455 4.1423 45.5344
#
#
#
# Elastic Compliance Matrix: (Units=1/GPa)
#
#
# Indices 1 2 3 4 5 6 
#
# 1 0.021412 0.000459 0.002135 -0.008960 -0.007611 0.023475
# 2 0.000459 0.027527 0.004581 -0.014006 -0.016187 0.011105
# 3 0.002135 0.004581 0.016111 -0.010033 -0.012662 0.007720
# 4 -0.008960 -0.014006 -0.010033 0.033383 0.016203 -0.018344
# 5 -0.007611 -0.016187 -0.012662 0.016203 0.043258 -0.019122
# 6 0.023475 0.011105 0.007720 -0.018344 -0.019122 0.052987
#
#
# Mechanical properties :
#
#
# Convention : Reuss Voigt Hill
#
# Bulk Modulus (GPa) = 12.59469 39.87919 26.23694
# Shear Modulus (GPa) = 24.17837 40.73301 32.45569
#
# Velocity S-wave (km/s) = 3.14779 4.08570 3.64702
# Velocity P-wave (km/s) = 4.28637 6.21291 5.33728
#
# Compressibility (1/GPa) = 0.07939854
#
# Stress axis : x y z
#
# Youngs Moduli (GPa) = 46.70262 36.32769 62.07096
#
# Poissons Ratio (x) = -0.01666 -0.13253
# Poissons Ratio (y) = -0.02142 -0.28432
# Poissons Ratio (z) = -0.09972 -0.16640
#
# Static dielectric constant tensor:
#      x y z
#    x 2.329570 0.162000 -0.112090 
#    y 0.162000 2.146250 -0.056940 
#    z -0.112090 -0.056940 2.055590 
# 
# From -- ./inp_files/203733.got.cif
#   From: 2010.05.17/outbox.cif.g08.bks.cpg/sg2_102_cif.got.tgz:203733.got - 2010.06.03 11:33:40.
