data_PCOD9110153
_publ_section_title
;
Structure prediction by ZEFSAII (Michael W. Deem and Ramdas Pophale) SiO2 
 PCOD9110153
Probable space group: P -1
;
_chemical_formula_sum "Si O2"
_cell_formula_units_Z 14
_cell_length_a 7.381914
_cell_length_b 15.577157
_cell_length_c 5.029364
_cell_angle_alpha 108.501058
_cell_angle_beta 94.838346
_cell_angle_gamma 101.642491
_cell_volume 530.251366
_symmetry_space_group_name_H-M "P -1"
_symmetry_group_IT_number 2
_symmetry_cell_setting 'triclinic'
loop_
_space_group_symop_operation_xyz
x,y,z
-x,-y,-z
loop_
_atom_site_type_symbol
_atom_site_label
_atom_site_fract_x
_atom_site_fract_y
_atom_site_fract_z
Si Si1 0.261394 0.742125 0.165445
Si Si2 0.587738 0.656459 0.116016
Si Si3 0.828682 0.913884 0.802946
Si Si4 0.860144 0.174505 0.267941
Si Si5 0.293536 0.482016 0.669627
Si Si6 0.914786 0.592519 0.932285
Si Si7 0.332162 0.021314 0.674763
O O1 0.122451 0.647743 0.946193
O O2 0.475413 0.735634 0.201396
O O3 0.228205 0.818041 0.024314
O O4 0.183886 0.750697 0.459504
O O5 0.450153 0.573410 0.851202
O O6 0.792864 0.672269 0.029990
O O7 0.611647 0.605138 0.346141
O O8 0.921979 0.826231 0.732535
O O9 0.780770 0.936943 0.521323
O O10 0.663647 0.914393 0.996055
O O11 0.000000 0.000000 0.000000
O O12 0.763609 0.079513 0.314782
O O13 0.196769 0.474938 0.370319
O O14 0.128221 0.460240 0.846387
O O15 0.500000 0.000000 0.500000
#
# Coordination Sequence:
#
# PCOD9110153 Si02
#       7
#     2   2   2   2   2   2   2
#     4  12  25  39  63  88 136 172 202 256 318 403
#     4   9  23  39  64  88 126 162 214 270 316 353
#     4  10  20  41  70  85 125 161 199 261 297 360
#     4  11  24  43  60  94 128 166 207 244 330 375
#     4   9  20  40  64  87 121 160 220 276 305 355
#     4  10  21  40  59  90 119 164 219 254 314 377
#     4  11  22  42  70  99 118 156 217 262 301 363
#
# _framework density 26.402570999999998
#
# number of rings (size 3 to 8) (size 9 to 14) (size 15 to 20)
#    0.857    0.857    0.000    6.000    2.000    1.143 
#    7.714    0.000    0.000    0.000    0.000    0.000 
#    0.000    0.000    0.000    0.000    0.000    0.000 
#
# Total GULP energy -78280.945307 kJ/mol
# GULP energy per Si atom -5591.496093 kJ/mol
# Density = 2.634248 g / cm^3
# Si number density = 26.402571 Si / 1000 Ang^3
#
#
#
# Elastic Constant Matrix: (Units=GPa)
#
#
# Indices 1 2 3 4 5 6 
#
# 1 94.7083 27.9441 4.1384 -7.1321 -21.1994 -14.7274
# 2 27.9441 80.2764 24.3664 -19.2998 -10.2084 -12.3994
# 3 4.1384 24.3664 112.0587 -29.4177 -4.7857 -10.0705
# 4 -7.1321 -19.2998 -29.4177 35.5043 1.1916 1.0496
# 5 -21.1994 -10.2084 -4.7857 1.1916 41.3375 -1.8001
# 6 -14.7274 -12.3994 -10.0705 1.0496 -1.8001 54.5323
#
#
#
# Elastic Compliance Matrix: (Units=1/GPa)
#
#
# Indices 1 2 3 4 5 6 
#
# 1 0.013561 -0.003394 0.001219 0.001579 0.006355 0.003295
# 2 -0.003394 0.016359 -0.001280 0.007008 0.002058 0.002500
# 3 0.001219 -0.001280 0.011837 0.009244 0.001504 0.002096
# 4 0.001579 0.007008 0.009244 0.039774 0.002597 0.003047
# 5 0.006355 0.002058 0.001504 0.002597 0.028204 0.003343
# 6 0.003295 0.002500 0.002096 0.003047 0.003343 0.020235
#
#
# Mechanical properties :
#
#
# Convention : Reuss Voigt Hill
#
# Bulk Modulus (GPa) = 28.69601 44.43793 36.56697
# Shear Modulus (GPa) = 33.67136 41.64779 37.65958
#
# Velocity S-wave (km/s) = 3.57502 3.97598 3.78082
# Velocity P-wave (km/s) = 5.28519 6.15998 5.73927
#
# Compressibility (1/GPa) = 0.03484805
#
# Stress axis : x y z
#
# Youngs Moduli (GPa) = 73.74245 61.12682 84.48441
#
# Poissons Ratio (x) = 0.20745 -0.10300
# Poissons Ratio (y) = 0.25027 0.10811
# Poissons Ratio (z) = -0.08990 0.07822
#
# Static dielectric constant tensor:
#      x y z
#    x 2.152170 -0.057140 -0.074570 
#    y -0.057140 2.157240 0.158180 
#    z -0.074570 0.158180 2.139760 
# 
# From -- ./inp_files/42783.got.cif
#   From: 2010.05.17/outbox.cif.g08.bks.cpg/sg2_22_cif.got.tgz:42783.got - 2010.06.03 11:33:40.
