data_PCOD9110056
_publ_section_title
;
Structure prediction by ZEFSAII (Michael W. Deem and Ramdas Pophale) SiO2 
 PCOD9110056
Probable space group: P -1
;
_chemical_formula_sum "Si O2"
_cell_formula_units_Z 16
_cell_length_a 21.050984
_cell_length_b 5.875901
_cell_length_c 25.913397
_cell_angle_alpha 122.898222
_cell_angle_beta 161.854575
_cell_angle_gamma 49.260024
_cell_volume 714.911366
_symmetry_space_group_name_H-M "P -1"
_symmetry_group_IT_number 2
_symmetry_cell_setting 'triclinic'
loop_
_space_group_symop_operation_xyz
x,y,z
-x,-y,-z
loop_
_atom_site_type_symbol
_atom_site_label
_atom_site_fract_x
_atom_site_fract_y
_atom_site_fract_z
Si Si1 0.512216 0.303879 0.060486
Si Si2 0.429442 0.966629 0.642084
Si Si3 0.392867 0.695353 0.111959
Si Si4 0.377445 0.844818 0.474176
Si Si5 0.866102 0.326758 0.901443
Si Si6 0.119501 0.141084 0.220646
Si Si7 0.893273 0.128168 0.250489
Si Si8 0.932229 0.796494 0.149308
O O1 0.515825 0.383422 0.133098
O O2 0.748528 0.241049 0.205643
O O3 0.277046 0.593611 0.887178
O O4 0.500000 0.000000 0.000000
O O5 0.479839 0.913995 0.612588
O O6 0.626917 0.625718 0.776857
O O7 0.467721 0.237815 0.728487
O O8 0.159585 0.055269 0.453740
O O9 0.146943 0.752171 0.952736
O O10 0.307519 0.977756 0.038557
O O11 0.500000 0.500000 0.500000
O O12 0.119835 0.907217 0.299957
O O13 0.305015 0.093636 0.402604
O O14 0.788554 0.185073 0.777325
O O15 0.000000 0.500000 0.000000
O O16 0.000000 0.000000 0.000000
O O17 0.064409 0.447008 0.183811
O O18 0.900126 0.826680 0.190264
#
# Coordination Sequence:
#
# PCOD9110056 Si02
#       8
#     2   2   2   2   2   2   2   2
#     4  10  20  41  69  90 122 169 224 273 358 424
#     4  11  22  43  60  98 138 173 228 282 348 398
#     4  10  21  38  63  90 127 168 213 281 338 415
#     4  10  21  37  55  85 124 169 221 280 324 392
#     4  12  26  45  68 100 143 195 235 284 343 412
#     4  11  21  38  63  87 127 179 230 269 332 405
#     4   9  21  40  62  94 129 165 216 291 340 419
#     4   9  20  38  59  88 121 165 222 267 342 399
#
# _framework density 22.380393999999999
#
# number of rings (size 3 to 8) (size 9 to 14) (size 15 to 20)
#    0.000    1.750    2.500    2.250    1.750    1.000 
#    6.750    0.625    0.000    0.000    0.000    0.000 
#    0.000    0.000    0.000    0.000    0.000    0.000 
#
# Total GULP energy -89158.809652 kJ/mol
# GULP energy per Si atom -5572.425603 kJ/mol
# Density = 2.232946 g / cm^3
# Si number density = 22.380394 Si / 1000 Ang^3
#
#
#
# Elastic Constant Matrix: (Units=GPa)
#
#
# Indices 1 2 3 4 5 6 
#
# 1 81.0373 25.8198 41.6688 11.9027 8.5327 -25.1519
# 2 25.8198 117.6173 34.8048 14.2871 -6.5402 -20.7015
# 3 41.6688 34.8048 111.0458 11.7331 2.8638 -5.7789
# 4 11.9027 14.2871 11.7331 36.7860 -11.9695 -8.8375
# 5 8.5327 -6.5402 2.8638 -11.9695 39.5519 -0.5947
# 6 -25.1519 -20.7015 -5.7789 -8.8375 -0.5947 39.7541
#
#
#
# Elastic Compliance Matrix: (Units=1/GPa)
#
#
# Indices 1 2 3 4 5 6 
#
# 1 0.020074 -0.000513 -0.006347 -0.003252 -0.004779 0.010716
# 2 -0.000513 0.010477 -0.002754 -0.001410 0.001683 0.004442
# 3 -0.006347 -0.002754 0.012262 -0.001984 -0.000636 -0.004118
# 4 -0.003252 -0.001410 -0.001984 0.034121 0.011008 0.004670
# 5 -0.004779 0.001683 -0.000636 0.011008 0.029980 0.000656
# 6 0.010716 0.004442 -0.004118 0.004670 0.000656 0.034697
#
#
# Mechanical properties :
#
#
# Convention : Reuss Voigt Hill
#
# Bulk Modulus (GPa) = 42.40289 57.14305 49.77297
# Shear Modulus (GPa) = 29.63828 37.04554 33.34191
#
# Velocity S-wave (km/s) = 3.64304 4.07291 3.86396
# Velocity P-wave (km/s) = 6.05667 6.90697 6.49575
#
# Compressibility (1/GPa) = 0.02358330
#
# Stress axis : x y z
#
# Youngs Moduli (GPa) = 49.81544 95.45153 81.55244
#
# Poissons Ratio (x) = 0.04897 0.51763
# Poissons Ratio (y) = 0.02556 0.22463
# Poissons Ratio (z) = 0.31619 0.26291
#
# Static dielectric constant tensor:
#      x y z
#    x 2.054310 0.008160 -0.037910 
#    y 0.008160 1.919220 -0.019380 
#    z -0.037910 -0.019380 1.840850 
# 
# From -- ./inp_files/109926.got.cif
#   From: 2010.05.17/outbox.cif.g08.bks.cpg/sg2_55_cif.got.tgz:109926.got - 2010.06.03 11:33:40.
