data_PCOD9110989
_publ_section_title
;
Structure prediction by ZEFSAII (Michael W. Deem and Ramdas Pophale) SiO2 
 PCOD9110989
Probable space group: P -1
;
_chemical_formula_sum "Si O2"
_cell_formula_units_Z 16
_cell_length_a 7.781293
_cell_length_b 8.312692
_cell_length_c 18.061712
_cell_angle_alpha 132.228856
_cell_angle_beta 46.311587
_cell_angle_gamma 106.719559
_cell_volume 590.562619
_symmetry_space_group_name_H-M "P -1"
_symmetry_group_IT_number 2
_symmetry_cell_setting 'triclinic'
loop_
_space_group_symop_operation_xyz
x,y,z
-x,-y,-z
loop_
_atom_site_type_symbol
_atom_site_label
_atom_site_fract_x
_atom_site_fract_y
_atom_site_fract_z
Si Si1 0.889483 0.039009 0.246947
Si Si2 0.040577 0.545253 0.289313
Si Si3 0.260778 0.185751 0.998303
Si Si4 0.141165 0.631131 0.948236
Si Si5 0.406477 0.033061 0.455157
Si Si6 0.484347 0.762208 0.702440
Si Si7 0.682297 0.407755 0.650357
Si Si8 0.776004 0.090402 0.748463
O O1 0.710567 0.232953 0.303888
O O2 0.662749 0.940818 0.304464
O O3 0.025035 0.037685 0.285472
O O4 0.094715 0.866730 0.079721
O O5 0.172198 0.295751 0.137657
O O6 0.117328 0.510877 0.341295
O O7 0.149658 0.721870 0.264347
O O8 0.749583 0.700855 0.425092
O O9 0.024957 0.326903 0.062953
O O10 0.518214 0.226861 0.911040
O O11 0.326470 0.922478 0.867933
O O12 0.427477 0.505495 0.804393
O O13 0.000000 0.500000 0.000000
O O14 0.242055 0.864879 0.447112
O O15 0.500000 0.000000 0.500000
O O16 0.622974 0.515396 0.620322
O O17 0.682618 0.902099 0.672707
#
# Coordination Sequence:
#
# PCOD9110989 Si02
#       8
#     2   2   2   2   2   2   2   2
#     4  11  21  44  71  95 138 182 222 285 335 394
#     4  12  22  41  71  98 134 175 231 284 326 400
#     4   9  21  39  66 102 133 169 223 278 338 400
#     4  11  19  37  68 100 133 168 225 285 335 388
#     4  12  25  45  67 101 130 176 243 279 329 397
#     4   9  25  44  67 104 141 175 219 278 348 416
#     4  12  25  44  68 103 137 179 219 284 346 397
#     4  10  20  42  68 103 130 172 230 275 339 393
#
# _framework density 27.092808999999999
#
# number of rings (size 3 to 8) (size 9 to 14) (size 15 to 20)
#    0.750    0.500    2.500    4.500    0.000    2.500 
#    4.500    3.125    0.000    0.000    0.000    0.000 
#    0.000    0.000    0.000    0.000    0.000    0.000 
#
# Total GULP energy -89390.365464 kJ/mol
# GULP energy per Si atom -5586.897842 kJ/mol
# Density = 2.703114 g / cm^3
# Si number density = 27.092809 Si / 1000 Ang^3
#
#
#
# Elastic Constant Matrix: (Units=GPa)
#
#
# Indices 1 2 3 4 5 6 
#
# 1 116.1531 24.1318 -3.0045 2.7608 -13.2740 -33.5890
# 2 24.1318 120.0939 14.5607 16.7371 -2.1020 8.1721
# 3 -3.0045 14.5607 105.5169 6.8405 -14.1068 6.5950
# 4 2.7608 16.7371 6.8405 32.9694 -0.6346 -6.1493
# 5 -13.2740 -2.1020 -14.1068 -0.6346 33.5729 -2.6001
# 6 -33.5890 8.1721 6.5950 -6.1493 -2.6001 40.6338
#
#
#
# Elastic Compliance Matrix: (Units=1/GPa)
#
#
# Indices 1 2 3 4 5 6 
#
# 1 0.014006 -0.004166 0.000827 0.003365 0.006712 0.013220
# 2 -0.004166 0.010532 -0.001053 -0.006019 -0.002042 -0.006432
# 3 0.000827 -0.001053 0.010415 -0.001752 0.004544 -0.000770
# 4 0.003365 -0.006019 -0.001752 0.035314 0.001638 0.009726
# 5 0.006712 -0.002042 0.004544 0.001638 0.034848 0.007699
# 6 0.013220 -0.006432 -0.000770 0.009726 0.007699 0.038921
#
#
# Mechanical properties :
#
#
# Convention : Reuss Voigt Hill
#
# Bulk Modulus (GPa) = 38.21234 45.90443 42.05838
# Shear Modulus (GPa) = 30.95121 41.84030 36.39575
#
# Velocity S-wave (km/s) = 3.38363 3.93406 3.66918
# Velocity P-wave (km/s) = 5.42219 6.13319 5.78861
#
# Compressibility (1/GPa) = 0.02616956
#
# Stress axis : x y z
#
# Youngs Moduli (GPa) = 71.39672 94.94609 96.01347
#
# Poissons Ratio (x) = 0.39553 -0.07936
# Poissons Ratio (y) = 0.29742 0.10108
# Poissons Ratio (z) = -0.05901 0.09996
#
# Static dielectric constant tensor:
#      x y z
#    x 2.153410 0.108570 0.051310 
#    y 0.108570 2.249770 0.041870 
#    z 0.051310 0.041870 2.169630 
# 
# From -- ./inp_files/557425.got.cif
#   From: 2010.05.17/outbox.cif.g08.bks.cpg/sg2_279_cif.got.tgz:557425.got - 2010.06.03 11:33:40.
