data_PCOD9110576
_publ_section_title
;
Structure prediction by ZEFSAII (Michael W. Deem and Ramdas Pophale) SiO2 
 PCOD9110576
Probable space group: P -1
;
_chemical_formula_sum "Si O2"
_cell_formula_units_Z 12
_cell_length_a 12.114071
_cell_length_b 10.466524
_cell_length_c 7.551014
_cell_angle_alpha 41.737771
_cell_angle_beta 96.217487
_cell_angle_gamma 117.098994
_cell_volume 522.273445
_symmetry_space_group_name_H-M "P -1"
_symmetry_group_IT_number 2
_symmetry_cell_setting 'triclinic'
loop_
_space_group_symop_operation_xyz
x,y,z
-x,-y,-z
loop_
_atom_site_type_symbol
_atom_site_label
_atom_site_fract_x
_atom_site_fract_y
_atom_site_fract_z
Si Si1 0.770567 0.912699 0.026428
Si Si2 0.165914 0.520874 0.963357
Si Si3 0.629505 0.566159 0.060560
Si Si4 0.395101 0.569034 0.443552
Si Si5 0.010360 0.642478 0.576363
Si Si6 0.273304 0.793484 0.030809
O O1 0.914341 0.128054 0.765335
O O2 0.707683 0.995606 0.073654
O O3 0.687799 0.799953 0.945050
O O4 0.749948 0.681704 0.344125
O O5 0.257604 0.427205 0.041033
O O6 0.246825 0.756621 0.854088
O O7 0.042129 0.338555 0.258336
O O8 0.111133 0.568867 0.728227
O O9 0.500000 0.500000 0.000000
O O10 0.591574 0.374213 0.405286
O O11 0.500000 0.500000 0.500000
O O12 0.386884 0.748500 0.140739
O O13 0.873474 0.422925 0.699619
#
# Coordination Sequence:
#
# PCOD9110576 Si02
#       6
#     2   2   2   2   2   2
#     4  10  23  38  65  93 117 170 206 243 325 359
#     4   9  20  40  63  88 131 160 193 267 298 359
#     4  10  22  42  59  88 125 160 211 253 302 361
#     4  10  23  41  62  90 125 161 215 256 297 363
#     4   9  20  40  63  93 129 157 208 247 309 377
#     4  10  20  42  64  89 133 155 202 262 300 370
#
# _framework density 22.976468000000001
#
# number of rings (size 3 to 8) (size 9 to 14) (size 15 to 20)
#    2.000    0.333    0.000    2.500    0.000    2.000 
#    9.000    1.667    0.000    0.000    0.000    0.000 
#    0.000    0.000    0.000    0.000    0.000    0.000 
#
# Total GULP energy -66801.031775 kJ/mol
# GULP energy per Si atom -5566.752648 kJ/mol
# Density = 2.292417 g / cm^3
# Si number density = 22.976468 Si / 1000 Ang^3
#
#
#
# Elastic Constant Matrix: (Units=GPa)
#
#
# Indices 1 2 3 4 5 6 
#
# 1 106.9536 32.9707 10.7297 2.1344 20.0100 -2.4053
# 2 32.9707 111.6378 3.4855 -7.2819 18.6471 -11.9671
# 3 10.7297 3.4855 40.2608 -1.6410 3.1216 -3.5339
# 4 2.1344 -7.2819 -1.6410 25.7626 2.7896 -1.7608
# 5 20.0100 18.6471 3.1216 2.7896 32.0525 3.1233
# 6 -2.4053 -11.9671 -3.5339 -1.7608 3.1233 30.5626
#
#
#
# Elastic Compliance Matrix: (Units=1/GPa)
#
#
# Indices 1 2 3 4 5 6 
#
# 1 0.011379 -0.002457 -0.002443 -0.001205 -0.005344 0.000128
# 2 -0.002457 0.011558 0.000786 0.004553 -0.006181 0.005317
# 3 -0.002443 0.000786 0.025986 0.002536 -0.002022 0.003473
# 4 -0.001205 0.004553 0.002536 0.041381 -0.006232 0.005002
# 5 -0.005344 -0.006181 -0.002022 -0.006232 0.039600 -0.007481
# 6 0.000128 0.005317 0.003473 0.005002 -0.007481 0.036266
#
#
# Mechanical properties :
#
#
# Convention : Reuss Voigt Hill
#
# Bulk Modulus (GPa) = 24.57340 39.24710 31.91025
# Shear Modulus (GPa) = 26.60092 31.78661 29.19376
#
# Velocity S-wave (km/s) = 3.40626 3.72350 3.56841
# Velocity P-wave (km/s) = 5.11746 5.96695 5.55845
#
# Compressibility (1/GPa) = 0.04069440
#
# Stress axis : x y z
#
# Youngs Moduli (GPa) = 87.88071 86.52022 38.48202
#
# Poissons Ratio (x) = 0.21255 0.09403
# Poissons Ratio (y) = 0.21589 -0.03023
# Poissons Ratio (z) = 0.21473 -0.06798
#
# Static dielectric constant tensor:
#      x y z
#    x 1.929520 0.008490 -0.077160 
#    y 0.008490 1.890180 -0.006550 
#    z -0.077160 -0.006550 1.919760 
# 
# From -- ./inp_files/129435.got.cif
#   From: 2010.05.17/outbox.cif.g08.bks.cpg/sg2_65_cif.got.tgz:129435.got - 2010.06.03 11:33:40.
