data_PCOD9110969
_publ_section_title
;
Structure prediction by ZEFSAII (Michael W. Deem and Ramdas Pophale) SiO2 
 PCOD9110969
Probable space group: P -1
;
_chemical_formula_sum "Si O2"
_cell_formula_units_Z 16
_cell_length_a 13.981737
_cell_length_b 15.222427
_cell_length_c 10.084236
_cell_angle_alpha 96.885145
_cell_angle_beta 106.983173
_cell_angle_gamma 148.505526
_cell_volume 723.129008
_symmetry_space_group_name_H-M "P -1"
_symmetry_group_IT_number 2
_symmetry_cell_setting 'triclinic'
loop_
_space_group_symop_operation_xyz
x,y,z
-x,-y,-z
loop_
_atom_site_type_symbol
_atom_site_label
_atom_site_fract_x
_atom_site_fract_y
_atom_site_fract_z
Si Si1 0.678368 0.203063 0.506093
Si Si2 0.765288 0.726177 0.044918
Si Si3 0.726406 0.508182 0.855778
Si Si4 0.234972 0.577131 0.906951
Si Si5 0.752008 0.464810 0.567445
Si Si6 0.583292 0.417000 0.235268
Si Si7 0.072182 0.962765 0.466938
Si Si8 0.628122 0.061543 0.192601
O O1 0.629969 0.266936 0.511967
O O2 0.605781 0.109741 0.313870
O O3 0.997988 0.439251 0.713153
O O4 0.500000 0.000000 0.500000
O O5 0.030837 0.937603 0.287291
O O6 0.500000 0.500000 0.000000
O O7 0.757582 0.636155 0.929811
O O8 0.696202 0.759394 0.947757
O O9 0.810271 0.559098 0.748411
O O10 0.393626 0.209612 0.677063
O O11 0.876296 0.573219 0.041377
O O12 0.364642 0.616805 0.858569
O O13 0.457434 0.830231 0.101728
O O14 0.572927 0.370384 0.370393
O O15 0.047572 0.692376 0.655168
O O16 0.850928 0.706260 0.383166
O O17 0.000000 0.000000 0.500000
O O18 0.500000 0.000000 0.000000
#
# Coordination Sequence:
#
# PCOD9110969 Si02
#       8
#     2   2   2   2   2   2   2   2
#     4  12  28  48  71 103 141 180 238 290 337 423
#     4  10  20  42  67  99 136 175 231 278 326 420
#     4  12  25  41  70 104 137 175 236 284 341 412
#     4  12  24  45  74  98 133 190 239 276 343 416
#     4  12  27  45  68 107 142 181 229 292 355 405
#     4  11  22  44  71  99 139 180 234 282 342 414
#     4  11  20  43  74  99 133 187 234 279 340 411
#     4  12  25  47  71  96 142 185 227 290 355 404
#
# _framework density 22.126065000000001
#
# number of rings (size 3 to 8) (size 9 to 14) (size 15 to 20)
#    0.000    0.500    7.500    2.625    3.500    1.500 
#    2.250    0.625    0.000    0.000    0.000    0.000 
#    0.000    0.000    0.000    0.000    0.000    0.000 
#
# Total GULP energy -89564.678999 kJ/mol
# GULP energy per Si atom -5597.792437 kJ/mol
# Density = 2.207571 g / cm^3
# Si number density = 22.126065 Si / 1000 Ang^3
#
#
#
# Elastic Constant Matrix: (Units=GPa)
#
#
# Indices 1 2 3 4 5 6 
#
# 1 93.8776 24.0533 36.4605 -27.1439 -24.1719 -21.1764
# 2 24.0533 42.0212 18.3286 -21.1567 4.2800 -9.4821
# 3 36.4605 18.3286 114.3688 -36.2587 -10.0475 -14.1531
# 4 -27.1439 -21.1567 -36.2587 54.7783 -1.9730 1.0477
# 5 -24.1719 4.2800 -10.0475 -1.9730 47.3577 -17.6172
# 6 -21.1764 -9.4821 -14.1531 1.0477 -17.6172 32.5708
#
#
#
# Elastic Compliance Matrix: (Units=1/GPa)
#
#
# Indices 1 2 3 4 5 6 
#
# 1 0.033037 -0.006833 0.003458 0.016481 0.033190 0.038415
# 2 -0.006833 0.033395 -0.000668 0.008834 -0.005670 0.001638
# 3 0.003458 -0.000668 0.013585 0.010558 0.009991 0.013021
# 4 0.016481 0.008834 0.010558 0.037069 0.022038 0.028603
# 5 0.033190 -0.005670 0.009991 0.022038 0.063060 0.057670
# 6 0.038415 0.001638 0.013021 0.028603 0.057670 0.092086
#
#
# Mechanical properties :
#
#
# Convention : Reuss Voigt Hill
#
# Bulk Modulus (GPa) = 13.90255 45.32805 29.61530
# Shear Modulus (GPa) = 16.43133 38.36971 27.40052
#
# Velocity S-wave (km/s) = 2.72807 4.16882 3.52288
# Velocity P-wave (km/s) = 4.02742 6.61081 5.47371
#
# Compressibility (1/GPa) = 0.07192925
#
# Stress axis : x y z
#
# Youngs Moduli (GPa) = 30.26935 29.94434 73.61169
#
# Poissons Ratio (x) = 0.20462 -0.25452
# Poissons Ratio (y) = 0.20684 0.04919
# Poissons Ratio (z) = -0.10466 0.02001
#
# Static dielectric constant tensor:
#      x y z
#    x 1.786530 0.001860 0.048530 
#    y 0.001860 1.832540 0.013610 
#    z 0.048530 0.013610 1.843030 
# 
# From -- ./inp_files/314955.got.cif
#   From: 2010.05.17/outbox.cif.g08.bks.cpg/sg2_158_cif.got.tgz:314955.got - 2010.06.03 11:33:40.
