data_PCOD9110919
_publ_section_title
;
Structure prediction by ZEFSAII (Michael W. Deem and Ramdas Pophale) SiO2 
 PCOD9110919
Probable space group: P -1
;
_chemical_formula_sum "Si O2"
_cell_formula_units_Z 16
_cell_length_a 18.310514
_cell_length_b 13.865027
_cell_length_c 8.014079
_cell_angle_alpha 91.035338
_cell_angle_beta 86.659637
_cell_angle_gamma 19.302745
_cell_volume 654.745518
_symmetry_space_group_name_H-M "P -1"
_symmetry_group_IT_number 2
_symmetry_cell_setting 'triclinic'
loop_
_space_group_symop_operation_xyz
x,y,z
-x,-y,-z
loop_
_atom_site_type_symbol
_atom_site_label
_atom_site_fract_x
_atom_site_fract_y
_atom_site_fract_z
Si Si1 0.985079 0.265162 0.229811
Si Si2 0.426265 0.447923 0.242934
Si Si3 0.735108 0.676626 0.542538
Si Si4 0.928588 0.228835 0.550139
Si Si5 0.202108 0.116383 0.951268
Si Si6 0.279679 0.219929 0.100911
Si Si7 0.251722 0.781280 0.796703
Si Si8 0.214213 0.633957 0.932108
O O1 0.911723 0.448286 0.358347
O O2 0.030419 0.123564 0.351867
O O3 0.187199 0.047376 0.081339
O O4 0.773901 0.486430 0.156524
O O5 0.231522 0.664427 0.405932
O O6 0.527224 0.428813 0.216219
O O7 0.329399 0.522831 0.085708
O O8 0.650142 0.102918 0.230598
O O9 0.768440 0.524926 0.605179
O O10 0.763322 0.711761 0.695317
O O11 0.500000 0.000000 0.500000
O O12 0.120587 0.982869 0.657128
O O13 0.298400 0.088059 0.030558
O O14 0.945587 0.456765 0.945275
O O15 0.500000 0.000000 0.000000
O O16 0.294776 0.613380 0.788704
O O17 0.056734 0.028826 0.975364
#
# Coordination Sequence:
#
# PCOD9110919 Si02
#       8
#     2   2   2   2   2   2   2   2
#     4  10  23  42  58  95 132 165 202 258 321 371
#     4  11  21  39  67  94 122 162 215 258 311 372
#     4  10  22  40  62  87 128 165 201 250 319 367
#     4   9  23  41  62  89 130 169 195 266 316 369
#     4  11  24  39  68  94 120 166 219 259 304 379
#     4  11  24  42  66  91 122 169 218 262 307 367
#     4  10  20  42  67  92 122 168 215 254 312 382
#     4  10  22  39  67  94 126 162 210 267 309 368
#
# _framework density 24.436975
#
# number of rings (size 3 to 8) (size 9 to 14) (size 15 to 20)
#    0.750    1.000    1.250    2.625    5.250    2.000 
#    4.500    0.625    0.000    0.000    0.000    0.000 
#    0.000    0.000    0.000    0.000    0.000    0.000 
#
# Total GULP energy -89324.687873 kJ/mol
# GULP energy per Si atom -5582.792992 kJ/mol
# Density = 2.438136 g / cm^3
# Si number density = 24.436975 Si / 1000 Ang^3
#
#
#
# Elastic Constant Matrix: (Units=GPa)
#
#
# Indices 1 2 3 4 5 6 
#
# 1 144.1705 44.9780 31.8110 -4.9620 4.0687 -29.8409
# 2 44.9780 84.3507 28.3152 4.1706 -4.4782 -21.2669
# 3 31.8110 28.3152 98.5556 -12.1431 1.7420 -14.7352
# 4 -4.9620 4.1706 -12.1431 33.2831 4.9091 -4.4663
# 5 4.0687 -4.4782 1.7420 4.9091 34.7005 -0.6386
# 6 -29.8409 -21.2669 -14.7352 -4.4663 -0.6386 38.4190
#
#
#
# Elastic Compliance Matrix: (Units=1/GPa)
#
#
# Indices 1 2 3 4 5 6 
#
# 1 0.009504 -0.003661 -0.000883 0.002528 -0.001803 0.005281
# 2 -0.003661 0.016460 -0.003377 -0.003715 0.003333 0.004597
# 3 -0.000883 -0.003377 0.012537 0.005499 -0.001687 0.002865
# 4 0.002528 -0.003715 0.005499 0.034550 -0.005831 0.005936
# 5 -0.001803 0.003333 -0.001687 -0.005831 0.030362 -0.000375
# 6 0.005281 0.004597 0.002865 0.005936 -0.000375 0.034458
#
#
# Mechanical properties :
#
#
# Convention : Reuss Voigt Hill
#
# Bulk Modulus (GPa) = 44.12946 59.69836 51.91391
# Shear Modulus (GPa) = 31.00448 36.07868 33.54158
#
# Velocity S-wave (km/s) = 3.56582 3.84656 3.70885
# Velocity P-wave (km/s) = 5.92040 6.64910 6.29530
#
# Compressibility (1/GPa) = 0.02266060
#
# Stress axis : x y z
#
# Youngs Moduli (GPa) = 105.21816 60.75180 79.76121
#
# Poissons Ratio (x) = 0.22239 0.07043
# Poissons Ratio (y) = 0.38517 0.26935
# Poissons Ratio (z) = 0.09291 0.20516
#
# Static dielectric constant tensor:
#      x y z
#    x 1.971930 0.071420 0.033780 
#    y 0.071420 2.001050 0.005580 
#    z 0.033780 0.005580 1.973640 
# 
# From -- ./inp_files/323432.got.cif
#   From: 2010.05.17/outbox.cif.g08.bks.cpg/sg2_162_cif.got.tgz:323432.got - 2010.06.03 11:33:40.
