data_PCOD9110883
_publ_section_title
;
Structure prediction by ZEFSAII (Michael W. Deem and Ramdas Pophale) SiO2 
 PCOD9110883
Probable space group: P -1
;
_chemical_formula_sum "Si O2"
_cell_formula_units_Z 15
_cell_length_a 16.922811
_cell_length_b 11.658811
_cell_length_c 5.394372
_cell_angle_alpha 49.354542
_cell_angle_beta 125.844019
_cell_angle_gamma 124.385044
_cell_volume 624.858944
_symmetry_space_group_name_H-M "P -1"
_symmetry_group_IT_number 2
_symmetry_cell_setting 'triclinic'
loop_
_space_group_symop_operation_xyz
x,y,z
-x,-y,-z
loop_
_atom_site_type_symbol
_atom_site_label
_atom_site_fract_x
_atom_site_fract_y
_atom_site_fract_z
Si Si1 0.313219 0.037786 0.836888
Si Si2 0.500000 0.000000 0.000000
Si Si3 0.396792 0.375099 0.240377
Si Si4 0.772678 0.569147 0.480462
Si Si5 0.967846 0.570624 0.589590
Si Si6 0.855092 0.908226 0.267392
Si Si7 0.104896 0.925100 0.397196
Si Si8 0.396573 0.650111 0.234438
O O1 0.348406 0.215702 0.536078
O O2 0.254222 0.053775 0.956321
O O3 0.411432 0.980312 0.081346
O O4 0.222449 0.929543 0.651603
O O5 0.570335 0.166258 0.024353
O O6 0.402973 0.531805 0.190121
O O7 0.508950 0.363621 0.395047
O O8 0.318251 0.373430 0.882324
O O9 0.846631 0.539631 0.445838
O O10 0.839350 0.722284 0.538243
O O11 0.713714 0.420082 0.745339
O O12 0.000000 0.500000 0.500000
O O13 0.030009 0.754797 0.445562
O O14 0.000000 0.500000 0.000000
O O15 0.084906 0.994642 0.526903
O O16 0.893179 0.960306 0.990340
#
# Coordination Sequence:
#
# PCOD9110883 Si02
#       8
#     2   1   2   2   2   2   2   2
#     4   9  20  39  66  99 141 174 234 288 349 413
#     4  10  22  38  62  98 136 190 226 280 362 422
#     4  10  20  42  67 104 136 180 233 301 345 421
#     4  12  24  42  74  99 134 186 242 291 368 415
#     4  12  31  48  69 102 147 191 237 289 361 434
#     4  10  21  41  74 101 131 175 237 296 348 405
#     4  10  22  44  69  96 140 176 226 302 335 407
#     4  10  22  40  67  99 143 179 237 288 355 428
#
# _framework density 24.005417999999999
#
# number of rings (size 3 to 8) (size 9 to 14) (size 15 to 20)
#    0.800    0.800    2.667    1.200    3.733    1.067 
#    0.000    1.333    0.000    0.000    0.000    0.000 
#    0.000    0.000    0.000    0.000    0.000    0.000 
#
# Total GULP energy -83523.952876 kJ/mol
# GULP energy per Si atom -5568.263525 kJ/mol
# Density = 2.395078 g / cm^3
# Si number density = 24.005418 Si / 1000 Ang^3
#
#
#
# Elastic Constant Matrix: (Units=GPa)
#
#
# Indices 1 2 3 4 5 6 
#
# 1 181.2717 57.3963 15.9576 -1.5883 -7.8458 1.7131
# 2 57.3963 135.5735 10.2575 -6.4517 -13.4878 13.2273
# 3 15.9576 10.2575 36.6525 8.0485 -11.4583 3.6605
# 4 -1.5883 -6.4517 8.0485 23.7951 4.8609 -10.8706
# 5 -7.8458 -13.4878 -11.4583 4.8609 30.0095 -1.9337
# 6 1.7131 13.2273 3.6605 -10.8706 -1.9337 37.3853
#
#
#
# Elastic Compliance Matrix: (Units=1/GPa)
#
#
# Indices 1 2 3 4 5 6 
#
# 1 0.006587 -0.002709 -0.002751 0.001364 -0.000684 0.001287
# 2 -0.002709 0.009140 -0.000257 0.000491 0.003043 -0.002785
# 3 -0.002751 -0.000257 0.039421 -0.021144 0.017068 -0.008908
# 4 0.001364 0.000491 -0.021144 0.061313 -0.016215 0.018824
# 5 -0.000684 0.003043 0.017068 -0.016215 0.043321 -0.005190
# 6 0.001287 -0.002785 -0.008908 0.018824 -0.005190 0.033752
#
#
# Mechanical properties :
#
#
# Convention : Reuss Voigt Hill
#
# Bulk Modulus (GPa) = 22.87611 57.85784 40.36698
# Shear Modulus (GPa) = 22.77491 36.23038 29.50264
#
# Velocity S-wave (km/s) = 3.08350 3.88913 3.50951
# Velocity P-wave (km/s) = 4.71461 6.65744 5.76841
#
# Compressibility (1/GPa) = 0.04371373
#
# Stress axis : x y z
#
# Youngs Moduli (GPa) = 151.81959 109.40684 25.36692
#
# Poissons Ratio (x) = 0.29640 0.06979
# Poissons Ratio (y) = 0.41130 0.00652
# Poissons Ratio (z) = 0.41771 0.02810
#
# Static dielectric constant tensor:
#      x y z
#    x 2.465440 -0.025760 -0.768890 
#    y -0.025760 1.933700 0.197360 
#    z -0.768890 0.197360 3.211200 
# 
# From -- ./inp_files/75361.got.cif
#   From: 2010.05.17/outbox.cif.g08.bks.cpg/sg2_38_cif.got.tgz:75361.got - 2010.06.03 11:33:40.
