data_PCOD9110383
_publ_section_title
;
Structure prediction by ZEFSAII (Michael W. Deem and Ramdas Pophale) SiO2 
 PCOD9110383
Probable space group: P -1
;
_chemical_formula_sum "Si O2"
_cell_formula_units_Z 14
_cell_length_a 16.401021
_cell_length_b 17.362776
_cell_length_c 10.213171
_cell_angle_alpha 50.569507
_cell_angle_beta 113.558313
_cell_angle_gamma 156.723051
_cell_volume 708.821443
_symmetry_space_group_name_H-M "P -1"
_symmetry_group_IT_number 2
_symmetry_cell_setting 'triclinic'
loop_
_space_group_symop_operation_xyz
x,y,z
-x,-y,-z
loop_
_atom_site_type_symbol
_atom_site_label
_atom_site_fract_x
_atom_site_fract_y
_atom_site_fract_z
Si Si1 0.478099 0.882912 0.207581
Si Si2 0.965454 0.256489 0.433469
Si Si3 0.835099 0.966952 0.871445
Si Si4 0.834211 0.067365 0.276166
Si Si5 0.498523 0.912656 0.487190
Si Si6 0.632618 0.553080 0.238355
Si Si7 0.104926 0.318052 0.912741
O O1 0.705356 0.038736 0.185718
O O2 0.458727 0.902208 0.322649
O O3 0.222274 0.554340 0.354697
O O4 0.500000 0.000000 0.000000
O O5 0.815112 0.016007 0.681593
O O6 0.010269 0.268760 0.300215
O O7 0.774705 0.149140 0.416636
O O8 0.619864 0.657101 0.093027
O O9 0.108257 0.194700 0.781278
O O10 0.888039 0.086572 0.908245
O O11 0.605346 0.753205 0.517184
O O12 0.981609 0.180057 0.124403
O O13 0.275917 0.597361 0.713076
O O14 0.500000 0.000000 0.500000
O O15 0.712522 0.580430 0.126631
#
# Coordination Sequence:
#
# PCOD9110383 Si02
#       7
#     2   2   2   2   2   2   2
#     4  11  24  41  60  89 123 165 210 251 310 366
#     4  11  21  43  64  86 130 166 200 259 311 360
#     4   9  18  39  70  84 123 172 198 252 314 362
#     4  11  23  39  63  92 128 157 206 263 298 369
#     4  11  25  41  62  90 126 161 210 257 304 365
#     4   9  18  42  63  89 127 161 207 251 308 363
#     4  10  20  42  60  90 127 160 202 258 303 360
#
# _framework density 19.751096
#
# number of rings (size 3 to 8) (size 9 to 14) (size 15 to 20)
#    0.857    0.857    5.714    0.000    4.000    4.000 
#    0.000    0.714    0.000    0.000    0.000    0.000 
#    0.000    0.000    0.000    0.000    0.000    0.000 
#
# Total GULP energy -78064.106698 kJ/mol
# GULP energy per Si atom -5576.007621 kJ/mol
# Density = 1.970614 g / cm^3
# Si number density = 19.751096 Si / 1000 Ang^3
#
#
#
# Elastic Constant Matrix: (Units=GPa)
#
#
# Indices 1 2 3 4 5 6 
#
# 1 42.3206 31.5814 -2.3416 0.6841 -14.0527 -43.0298
# 2 31.5814 80.7136 24.6090 24.7384 -1.7513 -18.4946
# 3 -2.3416 24.6090 -32.5826 11.5010 -21.7465 -43.4796
# 4 0.6841 24.7384 11.5010 30.4067 -8.3418 -0.4116
# 5 -14.0527 -1.7513 -21.7465 -8.3418 40.2042 0.7325
# 6 -43.0298 -18.4946 -43.4796 -0.4116 0.7325 19.8621
#
#
#
# Elastic Compliance Matrix: (Units=1/GPa)
#
#
# Indices 1 2 3 4 5 6 
#
# 1 0.055768 -0.011419 -0.039111 0.023804 0.002324 0.024976
# 2 -0.011419 0.023811 0.004644 -0.022194 -0.005180 0.007332
# 3 -0.039111 0.004644 0.020777 -0.012372 -0.004159 -0.035027
# 4 0.023804 -0.022194 -0.012372 0.058647 0.012747 0.004565
# 5 0.002324 -0.005180 -0.004159 0.012747 0.026030 -0.009588
# 6 0.024976 0.007332 -0.035027 0.004565 -0.009588 0.035056
#
#
# Mechanical properties :
#
#
# Convention : Reuss Voigt Hill
#
# Bulk Modulus (GPa) = 116.46465 22.01658 69.24061
# Shear Modulus (GPa) = 15.88706 20.53480 18.21093
#
# Velocity S-wave (km/s) = 2.83921 3.22790 3.03977
# Velocity P-wave (km/s) = 8.35717 5.00637 6.88861
#
# Compressibility (1/GPa) = 0.00858630
#
# Stress axis : x y z
#
# Youngs Moduli (GPa) = 17.93143 41.99661 48.13031
#
# Poissons Ratio (x) = 0.47954 1.88241
# Poissons Ratio (y) = 0.20475 -0.22352
# Poissons Ratio (z) = 0.70131 -0.19504
#
# Static dielectric constant tensor:
#      x y z
#    x 1.708530 -0.001780 0.033120 
#    y -0.001780 1.735170 -0.010340 
#    z 0.033120 -0.010340 1.703430 
# 
# From -- ./inp_files/336463.got.cif
#   From: 2010.05.17/outbox.cif.g08.bks.cpg/sg2_169_cif.got.tgz:336463.got - 2010.06.03 11:33:40.
