data_PCOD9110770
_publ_section_title
;
Structure prediction by ZEFSAII (Michael W. Deem and Ramdas Pophale) SiO2 
 PCOD9110770
Probable space group: P -1
;
_chemical_formula_sum "Si O2"
_cell_formula_units_Z 16
_cell_length_a 15.844544
_cell_length_b 12.179666
_cell_length_c 8.570554
_cell_angle_alpha 111.078585
_cell_angle_beta 52.160428
_cell_angle_gamma 67.303091
_cell_volume 692.261973
_symmetry_space_group_name_H-M "P -1"
_symmetry_group_IT_number 2
_symmetry_cell_setting 'triclinic'
loop_
_space_group_symop_operation_xyz
x,y,z
-x,-y,-z
loop_
_atom_site_type_symbol
_atom_site_label
_atom_site_fract_x
_atom_site_fract_y
_atom_site_fract_z
Si Si1 0.043482 0.037336 0.620855
Si Si2 0.050411 0.293808 0.815387
Si Si3 0.781135 0.713665 0.824342
Si Si4 0.664721 0.286154 0.292715
Si Si5 0.256315 0.279259 0.774095
Si Si6 0.415845 0.881822 0.846246
Si Si7 0.722699 0.552970 0.581981
Si Si8 0.793418 0.223207 0.417758
O O1 0.090069 0.132304 0.609745
O O2 0.842017 0.209591 0.022791
O O3 0.000000 0.000000 0.500000
O O4 0.199544 0.832586 0.444959
O O5 0.230519 0.193267 0.639196
O O6 0.942462 0.474043 0.906047
O O7 0.898683 0.415022 0.192073
O O8 0.718469 0.656293 0.771029
O O9 0.000000 0.500000 0.500000
O O10 0.708029 0.788979 0.123843
O O11 0.719780 0.882815 0.880714
O O12 0.500000 0.500000 0.500000
O O13 0.687947 0.136323 0.118362
O O14 0.646015 0.296221 0.505133
O O15 0.415296 0.225474 0.511637
O O16 0.530003 0.738278 0.796521
O O17 0.757291 0.394284 0.536672
O O18 0.000000 0.000000 0.000000
#
# Coordination Sequence:
#
# PCOD9110770 Si02
#       8
#     2   2   2   2   2   2   2   2
#     4  11  25  41  67 101 130 166 222 274 328 385
#     4  10  20  42  66  90 133 173 213 264 330 385
#     4  12  26  39  68 100 128 173 228 273 319 384
#     4  11  21  44  71  94 127 176 220 263 334 397
#     4  10  23  42  65  94 130 174 215 265 324 387
#     4  11  25  44  65  95 138 175 212 269 337 394
#     4  11  21  44  64  96 133 173 219 268 328 395
#     4  10  21  39  68  96 126 173 217 267 328 394
#
# _framework density 23.112639999999999
#
# number of rings (size 3 to 8) (size 9 to 14) (size 15 to 20)
#    0.000    1.250    5.000    1.500    7.000    0.000 
#    2.250    0.625    0.000    0.000    0.000    0.000 
#    0.000    0.000    0.000    0.000    0.000    0.000 
#
# Total GULP energy -89434.547435 kJ/mol
# GULP energy per Si atom -5589.659215 kJ/mol
# Density = 2.306003 g / cm^3
# Si number density = 23.112640 Si / 1000 Ang^3
#
#
#
# Elastic Constant Matrix: (Units=GPa)
#
#
# Indices 1 2 3 4 5 6 
#
# 1 162.4098 72.3762 0.4916 23.6490 32.3542 9.4243
# 2 72.3762 140.8574 21.3490 45.1410 16.7933 -3.6536
# 3 0.4916 21.3490 51.2998 17.3960 3.3692 3.4334
# 4 23.6490 45.1410 17.3960 39.0261 11.5986 3.9912
# 5 32.3542 16.7933 3.3692 11.5986 31.2718 6.1993
# 6 9.4243 -3.6536 3.4334 3.9912 6.1993 51.4431
#
#
#
# Elastic Compliance Matrix: (Units=1/GPa)
#
#
# Indices 1 2 3 4 5 6 
#
# 1 0.009790 -0.004831 0.002121 0.001213 -0.007931 -0.001416
# 2 -0.004831 0.013934 -0.001525 -0.013419 0.002110 0.002763
# 3 0.002121 -0.001525 0.023547 -0.009888 0.000013 -0.001303
# 4 0.001213 -0.013419 -0.009888 0.048173 -0.010252 -0.003017
# 5 -0.007931 0.002110 0.000013 -0.010252 0.043414 -0.002834
# 6 -0.001416 0.002763 -0.001303 -0.003017 -0.002834 0.020557
#
#
# Mechanical properties :
#
#
# Convention : Reuss Voigt Hill
#
# Bulk Modulus (GPa) = 25.77376 60.33339 43.05357
# Shear Modulus (GPa) = 27.65198 41.70489 34.67844
#
# Velocity S-wave (km/s) = 3.46266 4.25245 3.87771
# Velocity P-wave (km/s) = 5.21174 7.09027 6.22230
#
# Compressibility (1/GPa) = 0.03879916
#
# Stress axis : x y z
#
# Youngs Moduli (GPa) = 102.14964 71.76907 42.46799
#
# Poissons Ratio (x) = 0.34675 -0.09009
# Poissons Ratio (y) = 0.49353 0.06478
# Poissons Ratio (z) = -0.21669 0.10948
#
# Static dielectric constant tensor:
#      x y z
#    x 1.879930 -0.046920 0.054080 
#    y -0.046920 1.901510 -0.073850 
#    z 0.054080 -0.073850 1.948600 
# 
# From -- ./inp_files/299311.got.cif
#   From: 2010.05.17/outbox.cif.g08.bks.cpg/sg2_150_cif.got.tgz:299311.got - 2010.06.03 11:33:40.
