data_PCOD9110103
_publ_section_title
;
Structure prediction by ZEFSAII (Michael W. Deem and Ramdas Pophale) SiO2 
 PCOD9110103
Probable space group: P -1
;
_chemical_formula_sum "Si O2"
_cell_formula_units_Z 14
_cell_length_a 13.743326
_cell_length_b 7.231396
_cell_length_c 8.945509
_cell_angle_alpha 63.000773
_cell_angle_beta 100.207391
_cell_angle_gamma 60.458838
_cell_volume 589.766739
_symmetry_space_group_name_H-M "P -1"
_symmetry_group_IT_number 2
_symmetry_cell_setting 'triclinic'
loop_
_space_group_symop_operation_xyz
x,y,z
-x,-y,-z
loop_
_atom_site_type_symbol
_atom_site_label
_atom_site_fract_x
_atom_site_fract_y
_atom_site_fract_z
Si Si1 0.088023 0.269417 0.729500
Si Si2 0.680240 0.219547 0.657877
Si Si3 0.468583 0.186684 0.563452
Si Si4 0.372798 0.967464 0.837295
Si Si5 0.102904 0.814349 0.731438
Si Si6 0.368032 0.566862 0.770852
Si Si7 0.980456 0.810421 0.974623
O O1 0.006834 0.374575 0.822576
O O2 0.000000 0.500000 0.500000
O O3 0.234204 0.160157 0.813891
O O4 0.105443 0.016448 0.759932
O O5 0.598577 0.120570 0.685719
O O6 0.618600 0.497200 0.630383
O O7 0.658758 0.325898 0.443722
O O8 0.830420 0.998196 0.816411
O O9 0.500000 0.000000 0.500000
O O10 0.397911 0.139790 0.683976
O O11 0.369146 0.777400 0.790687
O O12 0.497602 0.740330 0.055626
O O13 0.246353 0.597389 0.782467
O O14 0.000000 0.000000 0.500000
O O15 0.063695 0.697207 0.887305
O O16 0.000000 0.000000 0.000000
#
# Coordination Sequence:
#
# PCOD9110103 Si02
#       7
#     2   2   2   2   2   2   2
#     4  10  24  43  66  97 136 182 236 293 351 421
#     4  11  24  43  71 101 141 185 242 291 353 435
#     4  11  25  42  68 100 141 185 233 293 359 417
#     4  10  23  42  68  98 144 185 230 297 357 415
#     4  10  20  41  69  96 136 181 227 287 355 419
#     4  10  21  42  69 103 138 186 233 286 357 431
#     4  10  23  43  70  98 134 190 235 288 360 416
#
# _framework density 23.738198000000001
#
# number of rings (size 3 to 8) (size 9 to 14) (size 15 to 20)
#    0.000    1.714    2.857    0.000    8.000    2.857 
#    2.571    0.714    0.000    0.000    0.000    0.000 
#    0.000    0.000    0.000    0.000    0.000    0.000 
#
# Total GULP energy -78326.936624 kJ/mol
# GULP energy per Si atom -5594.781187 kJ/mol
# Density = 2.368417 g / cm^3
# Si number density = 23.738198 Si / 1000 Ang^3
#
#
#
# Elastic Constant Matrix: (Units=GPa)
#
#
# Indices 1 2 3 4 5 6 
#
# 1 180.3715 45.8423 63.6500 9.4641 -12.8909 -21.3851
# 2 45.8423 69.7645 8.3873 19.0603 -9.8732 14.5488
# 3 63.6500 8.3873 129.1962 11.2016 -11.2242 -26.0837
# 4 9.4641 19.0603 11.2016 32.1537 -12.9130 -2.2966
# 5 -12.8909 -9.8732 -11.2242 -12.9130 42.0235 5.2209
# 6 -21.3851 14.5488 -26.0837 -2.2966 5.2209 51.8676
#
#
#
# Elastic Compliance Matrix: (Units=1/GPa)
#
#
# Indices 1 2 3 4 5 6 
#
# 1 0.008871 -0.007082 -0.003320 0.003308 0.000684 0.004052
# 2 -0.007082 0.024704 0.001111 -0.013215 0.001108 -0.009988
# 3 -0.003320 0.001111 0.010268 -0.002727 0.000739 0.003288
# 4 0.003308 -0.013215 -0.002727 0.043211 0.009886 0.004617
# 5 0.000684 0.001108 0.000739 0.009886 0.027751 -0.002013
# 6 0.004052 -0.009988 0.003288 0.004617 -0.002013 0.025813
#
#
# Mechanical properties :
#
#
# Convention : Reuss Voigt Hill
#
# Bulk Modulus (GPa) = 39.58632 68.34347 53.96490
# Shear Modulus (GPa) = 29.82901 42.63914 36.23408
#
# Velocity S-wave (km/s) = 3.54868 4.24279 3.91116
# Velocity P-wave (km/s) = 5.78820 7.27012 6.57107
#
# Compressibility (1/GPa) = 0.02526125
#
# Stress axis : x y z
#
# Youngs Moduli (GPa) = 112.72074 40.47875 97.38810
#
# Poissons Ratio (x) = 0.28668 0.32334
# Poissons Ratio (y) = 0.79832 -0.10821
# Poissons Ratio (z) = 0.37425 -0.04498
#
# Static dielectric constant tensor:
#      x y z
#    x 1.936660 0.007630 -0.026590 
#    y 0.007630 1.904870 0.048890 
#    z -0.026590 0.048890 1.853910 
# 
# From -- ./inp_files/289751.got.cif
#   From: 2010.05.17/outbox.cif.g08.bks.cpg/sg2_145_cif.got.tgz:289751.got - 2010.06.03 11:33:40.
