data_PCOD9110295
_publ_section_title
;
Structure prediction by ZEFSAII (Michael W. Deem and Ramdas Pophale) SiO2 
 PCOD9110295
Probable space group: P -1
;
_chemical_formula_sum "Si O2"
_cell_formula_units_Z 14
_cell_length_a 19.963475
_cell_length_b 14.971550
_cell_length_c 12.034448
_cell_angle_alpha 27.840822
_cell_angle_beta 23.410366
_cell_angle_gamma 27.681167
_cell_volume 611.905361
_symmetry_space_group_name_H-M "P -1"
_symmetry_group_IT_number 2
_symmetry_cell_setting 'triclinic'
loop_
_space_group_symop_operation_xyz
x,y,z
-x,-y,-z
loop_
_atom_site_type_symbol
_atom_site_label
_atom_site_fract_x
_atom_site_fract_y
_atom_site_fract_z
Si Si1 0.103580 0.133829 0.833330
Si Si2 0.391124 0.173197 0.883636
Si Si3 0.182159 0.037416 0.158802
Si Si4 0.589923 0.165095 0.159004
Si Si5 0.210246 0.505677 0.347240
Si Si6 0.244686 0.831382 0.762369
Si Si7 0.985246 0.491068 0.897931
O O1 0.137500 0.339745 0.584264
O O2 0.233475 0.931112 0.926957
O O3 0.167669 0.055190 0.696063
O O4 0.893515 0.160908 0.135099
O O5 0.547081 0.222260 0.528314
O O6 0.282390 0.082453 0.063617
O O7 0.229609 0.387777 0.936303
O O8 0.500000 0.000000 0.000000
O O9 0.102086 0.244060 0.975365
O O10 0.000000 0.000000 0.500000
O O11 0.333948 0.853614 0.060726
O O12 0.419948 0.377383 0.205726
O O13 0.500000 0.000000 0.500000
O O14 0.089379 0.590392 0.548972
O O15 0.218607 0.664591 0.067694
O O16 0.000000 0.500000 0.000000
#
# Coordination Sequence:
#
# PCOD9110295 Si02
#       7
#     2   2   2   2   2   2   2
#     4  10  23  43  71  98 142 177 238 291 351 411
#     4  11  27  47  67 101 147 185 231 294 361 422
#     4  11  24  45  72  99 142 186 234 291 356 422
#     4  10  20  41  72  97 132 179 236 288 340 410
#     4  11  23  45  73 102 136 184 238 293 343 427
#     4  11  26  43  71 103 137 186 235 290 359 417
#     4  10  24  45  68 103 142 180 234 288 355 426
#
# _framework density 22.879353999999999
#
# number of rings (size 3 to 8) (size 9 to 14) (size 15 to 20)
#    0.000    1.429    2.857    2.143   10.000    1.714 
#    2.571    1.429    0.000    0.000    0.000    0.000 
#    0.000    0.000    0.000    0.000    0.000    0.000 
#
# Total GULP energy -78148.006610 kJ/mol
# GULP energy per Si atom -5582.000472 kJ/mol
# Density = 2.282728 g / cm^3
# Si number density = 22.879354 Si / 1000 Ang^3
#
#
#
# Elastic Constant Matrix: (Units=GPa)
#
#
# Indices 1 2 3 4 5 6 
#
# 1 110.6299 32.7197 62.9981 -1.3465 -23.7256 -21.2159
# 2 32.7197 74.0925 53.1149 28.5421 -11.3862 -19.6559
# 3 62.9981 53.1149 173.5249 21.4354 -7.0072 -3.9743
# 4 -1.3465 28.5421 21.4354 46.9431 2.3006 -2.1003
# 5 -23.7256 -11.3862 -7.0072 2.3006 40.0370 -5.6122
# 6 -21.2159 -19.6559 -3.9743 -2.1003 -5.6122 46.4564
#
#
#
# Elastic Compliance Matrix: (Units=1/GPa)
#
#
# Indices 1 2 3 4 5 6 
#
# 1 0.015785 -0.001158 -0.005270 0.003460 0.008956 0.007506
# 2 -0.001158 0.027959 -0.005762 -0.014324 0.008650 0.011205
# 3 -0.005270 -0.005762 0.009299 -0.000915 -0.003718 -0.004540
# 4 0.003460 -0.014324 -0.000915 0.030581 -0.004461 -0.003715
# 5 0.008956 0.008650 -0.003718 -0.004461 0.033938 0.011330
# 6 0.007506 0.011205 -0.004540 -0.003715 0.011330 0.030507
#
#
# Mechanical properties :
#
#
# Convention : Reuss Voigt Hill
#
# Bulk Modulus (GPa) = 34.89001 72.87920 53.88460
# Shear Modulus (GPa) = 27.47218 40.64825 34.06022
#
# Velocity S-wave (km/s) = 3.46893 4.21959 3.86254
# Velocity P-wave (km/s) = 5.59708 7.46075 6.59508
#
# Compressibility (1/GPa) = 0.02866150
#
# Stress axis : x y z
#
# Youngs Moduli (GPa) = 63.35141 35.76727 107.54094
#
# Poissons Ratio (x) = 0.04142 0.56675
# Poissons Ratio (y) = 0.07337 0.61966
# Poissons Ratio (z) = 0.33387 0.20609
#
# Static dielectric constant tensor:
#      x y z
#    x 1.975780 0.044890 -0.015550 
#    y 0.044890 1.911350 -0.018390 
#    z -0.015550 -0.018390 1.839630 
# 
# From -- ./inp_files/471825.got.cif
#   From: 2010.05.17/outbox.cif.g08.bks.cpg/sg2_236_cif.got.tgz:471825.got - 2010.06.03 11:33:40.
