data_PCOD9110653
_publ_section_title
;
Structure prediction by ZEFSAII (Michael W. Deem and Ramdas Pophale) SiO2 
 PCOD9110653
Probable space group: P -1
;
_chemical_formula_sum "Si O2"
_cell_formula_units_Z 16
_cell_length_a 9.221671
_cell_length_b 9.853179
_cell_length_c 11.598410
_cell_angle_alpha 67.557261
_cell_angle_beta 54.427335
_cell_angle_gamma 58.363866
_cell_volume 725.326872
_symmetry_space_group_name_H-M "P -1"
_symmetry_group_IT_number 2
_symmetry_cell_setting 'triclinic'
loop_
_space_group_symop_operation_xyz
x,y,z
-x,-y,-z
loop_
_atom_site_type_symbol
_atom_site_label
_atom_site_fract_x
_atom_site_fract_y
_atom_site_fract_z
Si Si1 0.838607 0.872904 0.061610
Si Si2 0.792095 0.753009 0.713591
Si Si3 0.055886 0.856019 0.424482
Si Si4 0.002178 0.523004 0.127546
Si Si5 0.542361 0.815776 0.581982
Si Si6 0.136848 0.967840 0.765534
Si Si7 0.387199 0.384877 0.588634
Si Si8 0.572829 0.114877 0.762345
O O1 0.993473 0.700344 0.087411
O O2 0.794902 0.974050 0.167288
O O3 0.642958 0.862647 0.104422
O O4 0.949351 0.936025 0.898259
O O5 0.641310 0.775397 0.673547
O O6 0.994318 0.731823 0.562960
O O7 0.833303 0.613926 0.832118
O O8 0.699653 0.925864 0.762024
O O9 0.274285 0.811560 0.290949
O O10 0.922212 0.914000 0.354492
O O11 0.000000 0.000000 0.500000
O O12 0.796591 0.538078 0.268724
O O13 0.000000 0.500000 0.000000
O O14 0.669153 0.670138 0.487972
O O15 0.500000 0.000000 0.500000
O O16 0.326333 0.816279 0.687217
O O17 0.500000 0.500000 0.500000
O O18 0.520533 0.207472 0.634338
#
# Coordination Sequence:
#
# PCOD9110653 Si02
#       8
#     2   2   2   2   2   2   2   2
#     4  10  24  44  67  98 135 187 231 274 361 422
#     4  11  22  41  73 101 132 182 237 286 349 418
#     4  10  21  34  65 104 129 162 229 286 341 394
#     4  11  27  46  65  93 147 187 222 287 361 416
#     4  12  20  42  77 101 136 180 232 295 348 414
#     4  11  22  42  72  99 135 179 232 296 339 421
#     4  11  24  43  69 105 142 179 234 288 359 412
#     4  10  20  42  65 102 133 175 234 278 335 423
#
# _framework density 22.059021000000001
#
# number of rings (size 3 to 8) (size 9 to 14) (size 15 to 20)
#    0.000    1.250    3.750    2.250    5.250    1.000 
#    4.500    0.625    0.000    0.000    0.000    0.000 
#    0.000    0.000    0.000    0.000    0.000    0.000 
#
# Total GULP energy -89180.158004 kJ/mol
# GULP energy per Si atom -5573.759875 kJ/mol
# Density = 2.200881 g / cm^3
# Si number density = 22.059021 Si / 1000 Ang^3
#
#
#
# Elastic Constant Matrix: (Units=GPa)
#
#
# Indices 1 2 3 4 5 6 
#
# 1 83.1575 9.2252 31.8004 3.4823 4.2847 -14.4645
# 2 9.2252 82.8046 36.1276 -10.3347 9.6414 -13.6999
# 3 31.8004 36.1276 110.9617 2.3157 13.1034 -3.9702
# 4 3.4823 -10.3347 2.3157 28.9944 -10.3038 6.1631
# 5 4.2847 9.6414 13.1034 -10.3038 27.4851 -7.0103
# 6 -14.4645 -13.6999 -3.9702 6.1631 -7.0103 28.3631
#
#
#
# Elastic Compliance Matrix: (Units=1/GPa)
#
#
# Indices 1 2 3 4 5 6 
#
# 1 0.015132 0.001260 -0.004448 -0.002628 0.000475 0.008391
# 2 0.001260 0.015963 -0.005446 0.004646 0.000235 0.006639
# 3 -0.004448 -0.005446 0.012685 -0.003676 -0.005779 -0.003753
# 4 -0.002628 0.004646 -0.003676 0.043355 0.015457 -0.005211
# 5 0.000475 0.000235 -0.005779 0.015457 0.046751 0.007743
# 6 0.008391 0.006639 -0.003753 -0.005211 0.007743 0.045264
#
#
# Mechanical properties :
#
#
# Convention : Reuss Voigt Hill
#
# Bulk Modulus (GPa) = 37.71824 47.91444 42.81634
# Shear Modulus (GPa) = 24.36000 30.28657 27.32328
#
# Velocity S-wave (km/s) = 3.32672 3.70939 3.52326
# Velocity P-wave (km/s) = 5.64730 6.33358 6.00026
#
# Compressibility (1/GPa) = 0.02651237
#
# Stress axis : x y z
#
# Youngs Moduli (GPa) = 66.08678 62.64451 78.83530
#
# Poissons Ratio (x) = -0.07892 0.35064
# Poissons Ratio (y) = -0.08325 0.42930
# Poissons Ratio (z) = 0.29393 0.34114
#
# Static dielectric constant tensor:
#      x y z
#    x 1.865130 -0.000100 -0.028150 
#    y -0.000100 1.837650 0.044010 
#    z -0.028150 0.044010 1.944690 
# 
# From -- ./inp_files/381610.got.cif
#   From: 2010.05.17/outbox.cif.g08.bks.cpg/sg2_191_cif.got.tgz:381610.got - 2010.06.03 11:33:40.
