data_PCOD9110236
_publ_section_title
;
Structure prediction by ZEFSAII (Michael W. Deem and Ramdas Pophale) SiO2 
 PCOD9110236
Probable space group: P -1
;
_chemical_formula_sum "Si O2"
_cell_formula_units_Z 16
_cell_length_a 13.961485
_cell_length_b 12.633735
_cell_length_c 9.226014
_cell_angle_alpha 104.595406
_cell_angle_beta 30.154543
_cell_angle_gamma 112.236832
_cell_volume 746.699864
_symmetry_space_group_name_H-M "P -1"
_symmetry_group_IT_number 2
_symmetry_cell_setting 'triclinic'
loop_
_space_group_symop_operation_xyz
x,y,z
-x,-y,-z
loop_
_atom_site_type_symbol
_atom_site_label
_atom_site_fract_x
_atom_site_fract_y
_atom_site_fract_z
Si Si1 0.351738 0.226804 0.818199
Si Si2 0.663204 0.600357 0.516738
Si Si3 0.280614 0.974886 0.847162
Si Si4 0.543320 0.881920 0.860645
Si Si5 0.867276 0.843460 0.211172
Si Si6 0.316913 0.612816 0.748797
Si Si7 0.850930 0.232382 0.824749
Si Si8 0.308640 0.286139 0.193746
O O1 0.186744 0.201207 0.897145
O O2 0.555994 0.276314 0.475450
O O3 0.296235 0.102116 0.921701
O O4 0.374667 0.313797 0.950960
O O5 0.831614 0.724540 0.305260
O O6 0.469003 0.597943 0.670994
O O7 0.731835 0.497597 0.328645
O O8 0.623360 0.610050 0.742052
O O9 0.500000 0.000000 0.500000
O O10 0.227825 0.879703 0.007586
O O11 0.093626 0.928683 0.964423
O O12 0.703476 0.894031 0.521066
O O13 0.623600 0.816552 0.858458
O O14 0.327252 0.792656 0.066833
O O15 0.500000 0.000000 0.000000
O O16 0.141753 0.649599 0.063031
O O17 0.066526 0.242231 0.486215
#
# Coordination Sequence:
#
# PCOD9110236 Si02
#       8
#     2   2   2   2   2   2   2   2
#     4  11  23  38  61  95 131 169 202 261 328 372
#     4   9  19  42  69  89 122 168 217 269 302 383
#     4  12  22  38  63  94 130 163 215 267 308 387
#     4  11  22  40  65  89 128 173 211 260 311 377
#     4  10  21  44  63  95 129 170 216 259 318 378
#     4  10  20  41  71  92 118 172 220 260 317 373
#     4  12  22  41  64  94 126 168 221 253 316 387
#     4  11  24  41  60  97 131 165 213 262 319 384
#
# _framework density 21.427617999999999
#
# number of rings (size 3 to 8) (size 9 to 14) (size 15 to 20)
#    0.000    1.250    7.500    1.125    1.750    2.000 
#    2.250    0.000    0.000    6.750    0.000    0.000 
#    0.000    0.000    0.000    0.000    0.000    0.000 
#
# Total GULP energy -89247.491531 kJ/mol
# GULP energy per Si atom -5577.968221 kJ/mol
# Density = 2.137885 g / cm^3
# Si number density = 21.427618 Si / 1000 Ang^3
#
#
#
# Elastic Constant Matrix: (Units=GPa)
#
#
# Indices 1 2 3 4 5 6 
#
# 1 102.2220 12.1742 48.2168 22.3134 1.2828 25.4190
# 2 12.1742 108.7154 1.9500 23.5376 -6.1641 15.2447
# 3 48.2168 1.9500 63.2898 9.8647 -13.3909 11.4601
# 4 22.3134 23.5376 9.8647 27.6251 3.8486 1.3040
# 5 1.2828 -6.1641 -13.3909 3.8486 37.2746 8.3576
# 6 25.4190 15.2447 11.4601 1.3040 8.3576 35.9789
#
#
#
# Elastic Compliance Matrix: (Units=1/GPa)
#
#
# Indices 1 2 3 4 5 6 
#
# 1 0.021134 0.002544 -0.011964 -0.014347 -0.000532 -0.011555
# 2 0.002544 0.014113 0.003479 -0.015878 0.007383 -0.010025
# 3 -0.011964 0.003479 0.029423 -0.005411 0.013301 -0.005287
# 4 -0.014347 -0.015878 -0.005411 0.064426 -0.015162 0.019774
# 5 -0.000532 0.007383 0.013301 -0.015162 0.037825 -0.015226
# 6 -0.011555 -0.010025 -0.005287 0.019774 -0.015226 0.044710
#
#
# Mechanical properties :
#
#
# Convention : Reuss Voigt Hill
#
# Bulk Modulus (GPa) = 18.94318 44.32326 31.63322
# Shear Modulus (GPa) = 20.73754 34.30146 27.51950
#
# Velocity S-wave (km/s) = 3.11431 4.00535 3.58760
# Velocity P-wave (km/s) = 4.66816 6.49003 5.65297
#
# Compressibility (1/GPa) = 0.05278944
#
# Stress axis : x y z
#
# Youngs Moduli (GPa) = 47.31617 70.85645 33.98742
#
# Poissons Ratio (x) = -0.18027 0.40661
# Poissons Ratio (y) = -0.12038 -0.11825
# Poissons Ratio (z) = 0.56607 -0.24652
#
# Static dielectric constant tensor:
#      x y z
#    x 1.873540 0.004000 0.013710 
#    y 0.004000 1.830270 0.037720 
#    z 0.013710 0.037720 1.749760 
# 
# From -- ./inp_files/313638.got.cif
#   From: 2010.05.17/outbox.cif.g08.bks.cpg/sg2_157_cif.got.tgz:313638.got - 2010.06.03 11:33:40.
