data_PCOD9110136
_publ_section_title
;
Structure prediction by ZEFSAII (Michael W. Deem and Ramdas Pophale) SiO2 
 PCOD9110136
Probable space group: P -1
;
_chemical_formula_sum "Si O2"
_cell_formula_units_Z 14
_cell_length_a 17.385101
_cell_length_b 5.355415
_cell_length_c 6.965099
_cell_angle_alpha 75.644735
_cell_angle_beta 57.654440
_cell_angle_gamma 98.496113
_cell_volume 498.637200
_symmetry_space_group_name_H-M "P -1"
_symmetry_group_IT_number 2
_symmetry_cell_setting 'triclinic'
loop_
_space_group_symop_operation_xyz
x,y,z
-x,-y,-z
loop_
_atom_site_type_symbol
_atom_site_label
_atom_site_fract_x
_atom_site_fract_y
_atom_site_fract_z
Si Si1 0.584775 0.995905 0.524499
Si Si2 0.268700 0.449909 0.251970
Si Si3 0.391928 0.493814 0.425200
Si Si4 0.181338 0.577468 0.994117
Si Si5 0.000000 0.500000 0.500000
Si Si6 0.168683 0.803506 0.560042
Si Si7 0.985095 0.931060 0.806294
Si Si8 0.500000 0.500000 0.000000
O O1 0.644482 0.813208 0.395199
O O2 0.543087 0.829203 0.805627
O O3 0.500000 0.000000 0.500000
O O4 0.642776 0.298753 0.457855
O O5 0.371549 0.505092 0.216118
O O6 0.267422 0.571610 0.022151
O O7 0.212710 0.596674 0.437150
O O8 0.221812 0.121214 0.377108
O O9 0.505749 0.582189 0.221091
O O10 0.106950 0.633189 0.233255
O O11 0.946099 0.251523 0.317120
O O12 0.123480 0.269032 0.050035
O O13 0.976803 0.785035 0.411208
O O14 0.179211 0.762981 0.779092
O O15 0.000000 0.000000 0.000000
#
# Coordination Sequence:
#
# PCOD9110136 Si02
#       8
#     2   2   2   2   1   2   2   1
#     4  10  20  41  70 102 133 168 222 277 323 389
#     4  12  28  48  66  97 151 182 219 282 342 424
#     4  10  22  45  67 103 139 177 218 276 338 388
#     4  12  27  42  69 100 127 186 230 281 353 400
#     4  12  24  42  70  96 126 178 234 290 350 392
#     4  12  27  46  69  97 140 181 233 287 340 406
#     4  12  25  43  70 100 129 175 242 298 334 397
#     4   8  22  38  74 100 134 168 224 280 316 392
#
# _framework density 28.076528
#
# number of rings (size 3 to 8) (size 9 to 14) (size 15 to 20)
#    0.857    0.000    2.857    4.286    2.000    0.000 
#    5.143    0.000    0.000    0.000    0.000    0.000 
#    0.000    0.000    0.000    0.000    0.000    0.000 
#
# Total GULP energy -77982.554517 kJ/mol
# GULP energy per Si atom -5570.182466 kJ/mol
# Density = 2.801262 g / cm^3
# Si number density = 28.076528 Si / 1000 Ang^3
#
#
#
# Elastic Constant Matrix: (Units=GPa)
#
#
# Indices 1 2 3 4 5 6 
#
# 1 147.4516 36.8042 21.1204 2.2684 33.6265 -13.1541
# 2 36.8042 149.7549 7.5606 -5.3304 10.5813 -34.9375
# 3 21.1204 7.5606 127.2000 -16.9294 22.8322 -26.2493
# 4 2.2684 -5.3304 -16.9294 35.9416 -6.7865 8.0039
# 5 33.6265 10.5813 22.8322 -6.7865 42.6200 3.6132
# 6 -13.1541 -34.9375 -26.2493 8.0039 3.6132 44.8758
#
#
#
# Elastic Compliance Matrix: (Units=1/GPa)
#
#
# Indices 1 2 3 4 5 6 
#
# 1 0.009100 -0.001087 0.000200 -0.002779 -0.007718 0.003055
# 2 -0.001087 0.008917 0.001821 -0.000091 -0.003020 0.007948
# 3 0.000200 0.001821 0.010887 0.002337 -0.006745 0.007970
# 4 -0.002779 -0.000091 0.002337 0.031570 0.006471 -0.005671
# 5 -0.007718 -0.003020 -0.006745 0.006471 0.036016 -0.012613
# 6 0.003055 0.007948 0.007970 -0.005671 -0.012613 0.036056
#
#
# Mechanical properties :
#
#
# Convention : Reuss Voigt Hill
#
# Bulk Modulus (GPa) = 32.49969 61.70854 47.10412
# Shear Modulus (GPa) = 35.47668 48.61556 42.04612
#
# Velocity S-wave (km/s) = 3.55853 4.16569 3.87402
# Velocity P-wave (km/s) = 5.33711 6.72039 6.06829
#
# Compressibility (1/GPa) = 0.03076952
#
# Stress axis : x y z
#
# Youngs Moduli (GPa) = 109.88797 112.14183 91.85403
#
# Poissons Ratio (x) = 0.12195 -0.01833
# Poissons Ratio (y) = 0.11950 -0.16722
# Poissons Ratio (z) = -0.02193 -0.20416
#
# Static dielectric constant tensor:
#      x y z
#    x 2.476890 -0.123760 -0.174660 
#    y -0.123760 2.146010 0.002780 
#    z -0.174660 0.002780 2.074340 
# 
# From -- ./inp_files/114091.got.cif
#   From: 2010.05.17/outbox.cif.g08.bks.cpg/sg2_58_cif.got.tgz:114091.got - 2010.06.03 11:33:40.
