data_PCOD9110967
_publ_section_title
;
Structure prediction by ZEFSAII (Michael W. Deem and Ramdas Pophale) SiO2 
 PCOD9110967
Probable space group: P -1
;
_chemical_formula_sum "Si O2"
_cell_formula_units_Z 16
_cell_length_a 21.255179
_cell_length_b 7.226548
_cell_length_c 11.908331
_cell_angle_alpha 66.473592
_cell_angle_beta 155.770434
_cell_angle_gamma 116.901590
_cell_volume 668.982484
_symmetry_space_group_name_H-M "P -1"
_symmetry_group_IT_number 2
_symmetry_cell_setting 'triclinic'
loop_
_space_group_symop_operation_xyz
x,y,z
-x,-y,-z
loop_
_atom_site_type_symbol
_atom_site_label
_atom_site_fract_x
_atom_site_fract_y
_atom_site_fract_z
Si Si1 0.280201 0.871044 0.062994
Si Si2 0.284280 0.439838 0.231688
Si Si3 0.918879 0.193718 0.438023
Si Si4 0.793784 0.503065 0.291485
Si Si5 0.923367 0.689069 0.862541
Si Si6 0.854244 0.976700 0.984833
Si Si7 0.495259 0.295040 0.292849
Si Si8 0.328619 0.503854 0.666433
O O1 0.272523 0.629718 0.085078
O O2 0.436834 0.051409 0.277522
O O3 0.180132 0.950444 0.783230
O O4 0.206450 0.870794 0.066345
O O5 0.140766 0.357320 0.105050
O O6 0.424631 0.558408 0.510793
O O7 0.282781 0.226758 0.217151
O O8 0.794905 0.288094 0.284314
O O9 0.044161 0.354991 0.526561
O O10 0.019522 0.103610 0.713783
O O11 0.779794 0.473715 0.409898
O O12 0.652367 0.607724 0.002134
O O13 0.055611 0.896571 0.003059
O O14 0.775736 0.679338 0.537387
O O15 0.000000 0.500000 0.000000
O O16 0.618600 0.320484 0.384487
O O17 0.500000 0.500000 0.000000
#
# Coordination Sequence:
#
# PCOD9110967 Si02
#       8
#     2   2   2   2   2   2   2   2
#     4  12  24  43  69  99 136 179 228 282 342 399
#     4  11  25  46  65 100 138 179 231 273 346 417
#     4  11  24  39  66 105 130 172 234 283 338 398
#     4  10  20  42  67  99 135 177 227 284 337 404
#     4  11  23  42  70 101 135 178 228 285 341 404
#     4  12  25  43  72  97 138 180 221 291 338 399
#     4  10  23  43  67  99 139 184 223 280 339 408
#     4   9  21  40  71  95 138 185 220 275 345 406
#
# _framework density 23.916920000000001
#
# number of rings (size 3 to 8) (size 9 to 14) (size 15 to 20)
#    0.000    1.250    2.500    3.375    5.250    0.500 
#    2.250    0.625    0.000    0.000    0.000    0.000 
#    0.000    0.000    0.000    0.000    0.000    0.000 
#
# Total GULP energy -89363.195744 kJ/mol
# GULP energy per Si atom -5585.199734 kJ/mol
# Density = 2.386248 g / cm^3
# Si number density = 23.916920 Si / 1000 Ang^3
#
#
#
# Elastic Constant Matrix: (Units=GPa)
#
#
# Indices 1 2 3 4 5 6 
#
# 1 90.2210 20.1753 11.5787 -8.3912 10.8956 21.0142
# 2 20.1753 129.2384 24.5403 22.2914 4.5957 9.0613
# 3 11.5787 24.5403 72.3217 2.6077 -11.9702 6.1725
# 4 -8.3912 22.2914 2.6077 20.7913 -2.3781 8.5968
# 5 10.8956 4.5957 -11.9702 -2.3781 41.9785 6.2421
# 6 21.0142 9.0613 6.1725 8.5968 6.2421 35.5290
#
#
#
# Elastic Compliance Matrix: (Units=1/GPa)
#
#
# Indices 1 2 3 4 5 6 
#
# 1 0.016781 -0.004373 -0.000968 0.016556 -0.001370 -0.012408
# 2 -0.004373 0.011620 -0.003508 -0.015989 -0.002724 0.004580
# 3 -0.000968 -0.003508 0.016312 0.003338 0.005955 -0.003221
# 4 0.016556 -0.015989 0.003338 0.083861 0.007300 -0.027869
# 5 -0.001370 -0.002724 0.005955 0.007300 0.027498 -0.006127
# 6 -0.012408 0.004580 -0.003221 -0.027869 -0.006127 0.042696
#
#
# Mechanical properties :
#
#
# Convention : Reuss Voigt Hill
#
# Bulk Modulus (GPa) = 37.01450 44.92995 40.97222
# Shear Modulus (GPa) = 22.17576 35.35889 28.76733
#
# Velocity S-wave (km/s) = 3.04830 3.84917 3.47191
# Velocity P-wave (km/s) = 5.28199 6.21140 5.76545
#
# Compressibility (1/GPa) = 0.02701644
#
# Stress axis : x y z
#
# Youngs Moduli (GPa) = 59.59037 86.05883 61.30278
#
# Poissons Ratio (x) = 0.37634 0.05931
# Poissons Ratio (y) = 0.26059 0.21505
# Poissons Ratio (z) = 0.05766 0.30190
#
# Static dielectric constant tensor:
#      x y z
#    x 1.910020 -0.002710 -0.035650 
#    y -0.002710 1.913100 -0.019130 
#    z -0.035650 -0.019130 2.005990 
# 
# From -- ./inp_files/542396.got.cif
#   From: 2010.05.17/outbox.cif.g08.bks.cpg/sg2_272_cif.got.tgz:542396.got - 2010.06.03 11:33:40.
