data_PCOD9110233
_publ_section_title
;
Structure prediction by ZEFSAII (Michael W. Deem and Ramdas Pophale) SiO2 
 PCOD9110233
Probable space group: P -1
;
_chemical_formula_sum "Si O2"
_cell_formula_units_Z 16
_cell_length_a 7.050453
_cell_length_b 16.922656
_cell_length_c 7.715206
_cell_angle_alpha 138.436327
_cell_angle_beta 78.675582
_cell_angle_gamma 97.096698
_cell_volume 598.443663
_symmetry_space_group_name_H-M "P -1"
_symmetry_group_IT_number 2
_symmetry_cell_setting 'triclinic'
loop_
_space_group_symop_operation_xyz
x,y,z
-x,-y,-z
loop_
_atom_site_type_symbol
_atom_site_label
_atom_site_fract_x
_atom_site_fract_y
_atom_site_fract_z
Si Si1 0.652396 0.708090 0.144735
Si Si2 0.369815 0.941809 0.164814
Si Si3 0.329491 0.877172 0.422566
Si Si4 0.320838 0.157330 0.292190
Si Si5 0.006107 0.303228 0.161496
Si Si6 0.891383 0.224550 0.393690
Si Si7 0.285194 0.497596 0.611926
Si Si8 0.219621 0.516659 0.046316
O O1 0.462295 0.756900 0.160942
O O2 0.615119 0.766156 0.432757
O O3 0.709655 0.572869 0.963033
O O4 0.842415 0.757482 0.099280
O O5 0.245056 0.911060 0.305385
O O6 0.528990 0.024997 0.366968
O O7 0.287416 0.025557 0.161525
O O8 0.512930 0.846218 0.886903
O O9 0.187409 0.858125 0.576706
O O10 0.120123 0.215923 0.368090
O O11 0.152305 0.390924 0.385891
O O12 0.893229 0.217869 0.173286
O O13 0.849082 0.386838 0.227103
O O14 0.785144 0.350734 0.662465
O O15 0.500000 0.500000 0.500000
O O16 0.318836 0.493117 0.805435
O O17 0.000000 0.500000 0.000000
#
# Coordination Sequence:
#
# PCOD9110233 Si02
#       8
#     2   2   2   2   2   2   2   2
#     4  11  22  41  66  90 134 182 210 263 328 390
#     4   9  21  46  67  90 126 165 217 281 339 394
#     4  10  24  40  65 100 124 168 223 269 337 400
#     4  10  20  41  71  91 123 170 215 272 337 392
#     4  11  22  42  59  91 136 171 221 277 312 379
#     4  12  24  39  64 100 132 171 218 267 328 395
#     4  11  24  39  62  89 125 188 228 259 319 375
#     4  12  21  42  61  92 139 174 215 263 317 392
#
# _framework density 26.736018000000001
#
# number of rings (size 3 to 8) (size 9 to 14) (size 15 to 20)
#    0.000    1.250    3.750    1.500    3.500    1.500 
#    0.000    5.000    0.000    0.000    0.000    0.000 
#    0.000    0.000    0.000    0.000    0.000    0.000 
#
# Total GULP energy -89522.650189 kJ/mol
# GULP energy per Si atom -5595.165637 kJ/mol
# Density = 2.667517 g / cm^3
# Si number density = 26.736018 Si / 1000 Ang^3
#
#
#
# Elastic Constant Matrix: (Units=GPa)
#
#
# Indices 1 2 3 4 5 6 
#
# 1 90.3093 20.4427 30.2784 -17.3743 -27.6141 4.6711
# 2 20.4427 117.4853 41.6792 -61.2690 -6.5148 11.7152
# 3 30.2784 41.6792 107.3328 -29.0261 -8.8029 2.9567
# 4 -17.3743 -61.2690 -29.0261 46.8761 2.0629 -4.1644
# 5 -27.6141 -6.5148 -8.8029 2.0629 30.7272 -16.8675
# 6 4.6711 11.7152 2.9567 -4.1644 -16.8675 27.4011
#
#
#
# Elastic Compliance Matrix: (Units=1/GPa)
#
#
# Indices 1 2 3 4 5 6 
#
# 1 0.019464 0.001834 -0.002443 0.008113 0.022967 0.011532
# 2 0.001834 0.028111 -0.001413 0.035969 0.001668 -0.005686
# 3 -0.002443 -0.001413 0.011885 0.004660 0.001272 0.001229
# 4 0.008113 0.035969 0.004660 0.073830 0.012050 0.001374
# 5 0.022967 0.001668 0.001272 0.012050 0.077758 0.044932
# 6 0.011532 -0.005686 0.001229 0.001374 0.044932 0.064695
#
#
# Mechanical properties :
#
#
# Convention : Reuss Voigt Hill
#
# Bulk Modulus (GPa) = 18.04500 55.54754 36.79627
# Shear Modulus (GPa) = 16.76391 35.84936 26.30664
#
# Velocity S-wave (km/s) = 2.50675 3.66575 3.14018
# Velocity P-wave (km/s) = 3.89132 6.22402 5.19041
#
# Compressibility (1/GPa) = 0.05541700
#
# Stress axis : x y z
#
# Youngs Moduli (GPa) = 51.37747 35.57306 84.13621
#
# Poissons Ratio (x) = -0.06526 0.20556
# Poissons Ratio (y) = -0.09425 0.11889
# Poissons Ratio (z) = 0.12552 0.05027
#
# Static dielectric constant tensor:
#      x y z
#    x 2.162800 0.038840 0.092400 
#    y 0.038840 2.228240 0.032210 
#    z 0.092400 0.032210 2.106620 
# 
# From -- ./inp_files/213489.got.cif
#   From: 2010.05.17/outbox.cif.g08.bks.cpg/sg2_107_cif.got.tgz:213489.got - 2010.06.03 11:33:40.
