data_PCOD9110779
_publ_section_title
;
Structure prediction by ZEFSAII (Michael W. Deem and Ramdas Pophale) SiO2 
 PCOD9110779
Probable space group: P -1
;
_chemical_formula_sum "Si O2"
_cell_formula_units_Z 16
_cell_length_a 17.344455
_cell_length_b 9.204028
_cell_length_c 7.785872
_cell_angle_alpha 111.412127
_cell_angle_beta 127.276258
_cell_angle_gamma 50.108963
_cell_volume 758.291722
_symmetry_space_group_name_H-M "P -1"
_symmetry_group_IT_number 2
_symmetry_cell_setting 'triclinic'
loop_
_space_group_symop_operation_xyz
x,y,z
-x,-y,-z
loop_
_atom_site_type_symbol
_atom_site_label
_atom_site_fract_x
_atom_site_fract_y
_atom_site_fract_z
Si Si1 0.248496 0.527232 0.962748
Si Si2 0.584802 0.848104 0.192306
Si Si3 0.986140 0.664936 0.666254
Si Si4 0.519596 0.620127 0.213319
Si Si5 0.749758 0.471065 0.653121
Si Si6 0.772880 0.795292 0.685320
Si Si7 0.284887 0.829776 0.162632
Si Si8 0.897492 0.061903 0.747214
O O1 0.318902 0.348456 0.858662
O O2 0.119046 0.585540 0.857727
O O3 0.304430 0.484482 0.208791
O O4 0.241301 0.710543 0.960753
O O5 0.509241 0.798165 0.184930
O O6 0.663125 0.887129 0.439929
O O7 0.500000 0.000000 0.000000
O O8 0.895729 0.707124 0.713983
O O9 0.000000 0.500000 0.500000
O O10 0.934948 0.874908 0.611462
O O11 0.650880 0.494623 0.405651
O O12 0.424166 0.695402 0.268166
O O13 0.500000 0.500000 0.000000
O O14 0.773677 0.627764 0.705158
O O15 0.863373 0.255565 0.698142
O O16 0.754418 0.961204 0.855170
O O17 0.221728 0.873757 0.281579
O O18 0.000000 0.000000 0.000000
#
# Coordination Sequence:
#
# PCOD9110779 Si02
#       8
#     2   2   2   2   2   2   2   2
#     4  11  22  42  66  92 129 172 212 264 319 384
#     4  11  25  41  64  94 133 165 213 267 324 376
#     4  11  21  41  67  92 129 167 214 262 319 378
#     4  11  24  43  64  94 133 167 216 268 317 381
#     4  10  24  41  66  95 132 166 216 264 323 374
#     4  10  24  42  65  96 130 165 217 268 315 384
#     4  10  22  40  66  91 127 170 215 257 322 378
#     4  10  20  42  66  91 130 168 209 259 318 384
#
# _framework density 21.100059000000002
#
# number of rings (size 3 to 8) (size 9 to 14) (size 15 to 20)
#    0.000    1.500    5.000    0.000    3.500    6.500 
#    0.000    0.625    0.000    0.000    0.000    0.000 
#    0.000    0.000    0.000    0.000    0.000    0.000 
#
# Total GULP energy -89178.489040 kJ/mol
# GULP energy per Si atom -5573.655565 kJ/mol
# Density = 2.105203 g / cm^3
# Si number density = 21.100059 Si / 1000 Ang^3
#
#
#
# Elastic Constant Matrix: (Units=GPa)
#
#
# Indices 1 2 3 4 5 6 
#
# 1 86.0123 30.6697 30.0196 -4.1037 26.3852 0.3511
# 2 30.6697 143.1553 44.5834 10.0855 11.9383 4.8769
# 3 30.0196 44.5834 68.6952 -1.3689 13.9801 15.8449
# 4 -4.1037 10.0855 -1.3689 34.5828 2.0866 -1.4970
# 5 26.3852 11.9383 13.9801 2.0866 26.6087 6.6743
# 6 0.3511 4.8769 15.8449 -1.4970 6.6743 34.6172
#
#
#
# Elastic Compliance Matrix: (Units=1/GPa)
#
#
# Indices 1 2 3 4 5 6 
#
# 1 0.019657 -0.001568 -0.005254 0.003920 -0.017850 0.006038
# 2 -0.001568 0.009249 -0.005712 -0.003083 0.000367 0.001124
# 3 -0.005254 -0.005712 0.023179 0.001693 -0.002218 -0.009251
# 4 0.003920 -0.003083 0.001693 0.030825 -0.006357 0.002178
# 5 -0.017850 0.000367 -0.002218 -0.006357 0.059437 -0.010590
# 6 0.006038 0.001124 -0.009251 0.002178 -0.010590 0.035038
#
#
# Mechanical properties :
#
#
# Convention : Reuss Voigt Hill
#
# Bulk Modulus (GPa) = 37.01575 56.48980 46.75277
# Shear Modulus (GPa) = 23.64508 32.00109 27.82309
#
# Velocity S-wave (km/s) = 3.35119 3.89862 3.63523
# Velocity P-wave (km/s) = 5.70570 6.86266 6.31075
#
# Compressibility (1/GPa) = 0.02701553
#
# Stress axis : x y z
#
# Youngs Moduli (GPa) = 50.87179 108.12238 43.14209
#
# Poissons Ratio (x) = 0.16958 0.22667
# Poissons Ratio (y) = 0.07979 0.24644
# Poissons Ratio (z) = 0.26729 0.61763
#
# Static dielectric constant tensor:
#      x y z
#    x 1.781140 0.038010 -0.021360 
#    y 0.038010 1.810320 -0.001930 
#    z -0.021360 -0.001930 1.845600 
# 
# From -- ./inp_files/329334.got.cif
#   From: 2010.05.17/outbox.cif.g08.bks.cpg/sg2_165_cif.got.tgz:329334.got - 2010.06.03 11:33:40.
