data_PCOD9110303
_publ_section_title
;
Structure prediction by ZEFSAII (Michael W. Deem and Ramdas Pophale) SiO2 
 PCOD9110303
Probable space group: P -1
;
_chemical_formula_sum "Si O2"
_cell_formula_units_Z 16
_cell_length_a 11.905085
_cell_length_b 14.329152
_cell_length_c 8.741129
_cell_angle_alpha 102.974887
_cell_angle_beta 139.964680
_cell_angle_gamma 58.095800
_cell_volume 768.721304
_symmetry_space_group_name_H-M "P -1"
_symmetry_group_IT_number 2
_symmetry_cell_setting 'triclinic'
loop_
_space_group_symop_operation_xyz
x,y,z
-x,-y,-z
loop_
_atom_site_type_symbol
_atom_site_label
_atom_site_fract_x
_atom_site_fract_y
_atom_site_fract_z
Si Si1 0.605971 0.364836 0.037211
Si Si2 0.239218 0.811023 0.098461
Si Si3 0.168247 0.439263 0.519110
Si Si4 0.053592 0.683181 0.388044
Si Si5 0.928914 0.840032 0.040273
Si Si6 0.331054 0.202594 0.477769
Si Si7 0.172063 0.949000 0.790333
Si Si8 0.599874 0.873087 0.134213
O O1 0.698649 0.313684 0.946562
O O2 0.397554 0.363770 0.813742
O O3 0.500000 0.500000 0.000000
O O4 0.788178 0.305350 0.333062
O O5 0.088207 0.846842 0.097156
O O6 0.445263 0.815029 0.338156
O O7 0.130648 0.889175 0.862997
O O8 0.132385 0.548456 0.427850
O O9 0.166404 0.341942 0.385862
O O10 0.000000 0.500000 0.500000
O O11 0.051468 0.726096 0.232098
O O12 0.814167 0.771048 0.236974
O O13 0.828511 0.947943 0.090283
O O14 0.754367 0.840666 0.756982
O O15 0.348896 0.140467 0.634969
O O16 0.400019 0.863286 0.918523
O O17 0.000000 0.000000 0.500000
O O18 0.500000 0.000000 0.000000
#
# Coordination Sequence:
#
# PCOD9110303 Si02
#       8
#     2   2   2   2   2   2   2   2
#     4   9  20  40  69  94 125 170 226 275 321 394
#     4  10  23  42  63  96 135 174 223 272 338 400
#     4  10  20  41  72  99 125 168 225 283 326 391
#     4  11  22  41  66 102 129 174 231 267 343 400
#     4  12  25  42  65  96 143 180 212 280 347 399
#     4  10  24  43  66  97 135 176 225 271 343 399
#     4  11  25  43  66  94 128 179 235 277 322 400
#     4  11  22  41  67  98 128 176 232 277 318 397
#
# _framework density 20.813784999999999
#
# number of rings (size 3 to 8) (size 9 to 14) (size 15 to 20)
#    0.000    1.500    2.500    1.875    3.500    3.500 
#    2.250    5.625    0.000    0.000    0.000    0.000 
#    0.000    0.000    0.000    0.000    0.000    0.000 
#
# Total GULP energy -89265.052567 kJ/mol
# GULP energy per Si atom -5579.065785 kJ/mol
# Density = 2.076641 g / cm^3
# Si number density = 20.813785 Si / 1000 Ang^3
#
#
#
# Elastic Constant Matrix: (Units=GPa)
#
#
# Indices 1 2 3 4 5 6 
#
# 1 127.1418 21.7281 53.5900 -11.2232 -0.1175 7.0788
# 2 21.7281 115.9771 43.0749 -3.2193 -6.2503 8.7837
# 3 53.5900 43.0749 129.1980 -0.4788 -0.9906 -6.2670
# 4 -11.2232 -3.2193 -0.4788 42.6509 0.6104 -8.6308
# 5 -0.1175 -6.2503 -0.9906 0.6104 23.0668 -13.1095
# 6 7.0788 8.7837 -6.2670 -8.6308 -13.1095 31.9958
#
#
#
# Elastic Compliance Matrix: (Units=1/GPa)
#
#
# Indices 1 2 3 4 5 6 
#
# 1 0.010058 -0.000085 -0.004318 0.001934 -0.002143 -0.003404
# 2 -0.000085 0.010229 -0.003519 0.000068 0.000849 -0.003112
# 3 -0.004318 -0.003519 0.010960 -0.000315 0.002304 0.004927
# 4 0.001934 0.000068 -0.000315 0.025511 0.003861 0.007955
# 5 -0.002143 0.000849 0.002304 0.003861 0.058077 0.025529
# 6 -0.003404 -0.003112 0.004927 0.007955 0.025529 0.046433
#
#
# Mechanical properties :
#
#
# Convention : Reuss Voigt Hill
#
# Bulk Modulus (GPa) = 64.92413 67.67808 66.30111
# Shear Modulus (GPa) = 27.43538 36.47099 31.95318
#
# Velocity S-wave (km/s) = 3.63455 4.19053 3.92240
# Velocity P-wave (km/s) = 6.99098 7.48336 7.24136
#
# Compressibility (1/GPa) = 0.01540259
#
# Stress axis : x y z
#
# Youngs Moduli (GPa) = 99.42304 97.76358 91.24025
#
# Poissons Ratio (x) = 0.00826 0.39399
# Poissons Ratio (y) = 0.00840 0.32111
# Poissons Ratio (z) = 0.42933 0.34407
#
# Static dielectric constant tensor:
#      x y z
#    x 1.767730 0.044490 0.045880 
#    y 0.044490 1.898500 0.018360 
#    z 0.045880 0.018360 1.766700 
# 
# From -- ./inp_files/273520.got.cif
#   From: 2010.05.17/outbox.cif.g08.bks.cpg/sg2_137_cif.got.tgz:273520.got - 2010.06.03 11:33:40.
