data_PCOD9110048
_publ_section_title
;
Structure prediction by ZEFSAII (Michael W. Deem and Ramdas Pophale) SiO2 
 PCOD9110048
Probable space group: P -1
;
_chemical_formula_sum "Si O2"
_cell_formula_units_Z 16
_cell_length_a 9.230879
_cell_length_b 16.761384
_cell_length_c 11.241513
_cell_angle_alpha 114.394016
_cell_angle_beta 138.622397
_cell_angle_gamma 45.164930
_cell_volume 789.928367
_symmetry_space_group_name_H-M "P -1"
_symmetry_group_IT_number 2
_symmetry_cell_setting 'triclinic'
loop_
_space_group_symop_operation_xyz
x,y,z
-x,-y,-z
loop_
_atom_site_type_symbol
_atom_site_label
_atom_site_fract_x
_atom_site_fract_y
_atom_site_fract_z
Si Si1 0.626078 0.324848 0.668455
Si Si2 0.408643 0.511834 0.085100
Si Si3 0.267254 0.043772 0.487403
Si Si4 0.298089 0.697209 0.694616
Si Si5 0.216170 0.400192 0.250305
Si Si6 0.978746 0.346209 0.708885
Si Si7 0.146602 0.905802 0.215561
Si Si8 0.551371 0.110585 0.852185
O O1 0.499337 0.427506 0.746197
O O2 0.380495 0.348788 0.445887
O O3 0.796389 0.205985 0.771997
O O4 0.833194 0.327176 0.711230
O O5 0.560847 0.387704 0.159638
O O6 0.500000 0.500000 0.000000
O O7 0.062598 0.587655 0.926300
O O8 0.386064 0.063454 0.687360
O O9 0.959314 0.169948 0.347782
O O10 0.500000 0.000000 0.500000
O O11 0.228079 0.950389 0.400572
O O12 0.548996 0.674987 0.755466
O O13 0.158121 0.658501 0.499373
O O14 0.109241 0.529721 0.255348
O O15 0.320291 0.237002 0.845332
O O16 0.336881 0.877312 0.196683
O O17 0.822626 0.014365 0.041105
#
# Coordination Sequence:
#
# PCOD9110048 Si02
#       8
#     2   2   2   2   2   2   2   2
#     4  11  24  43  59  96 132 155 213 266 310 376
#     4  12  27  38  61 100 127 163 209 268 318 375
#     4   9  20  38  63  89 120 165 211 251 300 374
#     4  10  20  43  66  92 126 166 217 257 306 385
#     4  11  23  42  68  89 126 177 208 256 323 373
#     4  10  20  41  69  87 125 171 212 256 312 379
#     4  10  22  38  61  87 128 165 205 258 312 366
#     4   9  21  38  61  90 116 173 212 247 308 376
#
# _framework density 20.255001
#
# number of rings (size 3 to 8) (size 9 to 14) (size 15 to 20)
#    0.000    1.750    2.500    1.125    3.500    7.000 
#    0.000    5.625    0.000    0.000    0.000    0.000 
#    0.000    0.000    0.000    0.000    0.000    0.000 
#
# Total GULP energy -89411.380838 kJ/mol
# GULP energy per Si atom -5588.211302 kJ/mol
# Density = 2.020890 g / cm^3
# Si number density = 20.255001 Si / 1000 Ang^3
#
#
#
# Elastic Constant Matrix: (Units=GPa)
#
#
# Indices 1 2 3 4 5 6 
#
# 1 -560.7054 19.0574 -845.8942 331.5608 189.7420 476.9456
# 2 19.0574 77.0524 3.0506 -5.8442 -0.5898 -6.8213
# 3 -845.8942 3.0506-1194.4528 483.4938 287.7920 697.4810
# 4 331.5608 -5.8442 483.4938 -167.1977 -118.3880 -269.2908
# 5 189.7420 -0.5898 287.7920 -118.3880 -40.8119 -168.7366
# 6 476.9456 -6.8213 697.4810 -269.2908 -168.7366 -349.3320
#
#
#
# Elastic Compliance Matrix: (Units=1/GPa)
#
#
# Indices 1 2 3 4 5 6 
#
# 1 0.047489 -0.008972 -0.016189 0.013485 0.024609 0.010408
# 2 -0.008972 0.014827 0.004265 -0.000759 -0.004580 -0.001226
# 3 -0.016189 0.004265 0.016098 0.006895 0.000999 0.004159
# 4 0.013485 -0.000759 0.006895 0.043330 0.009393 -0.005747
# 5 0.024609 -0.004580 0.000999 0.009393 0.047961 0.005275
# 6 0.010408 -0.001226 0.004159 -0.005747 0.005275 0.021558
#
#
# Mechanical properties :
#
#
# Convention : Reuss Voigt Hill
#
# Bulk Modulus (GPa) = 27.30429 -369.51979 -171.10775
# Shear Modulus (GPa) = 20.38622 -168.42297 -74.01837
#
# Velocity S-wave (km/s) = 3.17595 -9.12863 -6.05166
# Velocity P-wave (km/s) = 5.19215 17.14465 11.55380
#
# Compressibility (1/GPa) = 0.03662428
#
# Stress axis : x y z
#
# Youngs Moduli (GPa) = 21.05732 67.44341 62.11804
#
# Poissons Ratio (x) = 0.60511 1.00561
# Poissons Ratio (y) = 0.18893 -0.26496
# Poissons Ratio (z) = 0.34089 -0.28767
#
# Static dielectric constant tensor:
#      x y z
#    x 1.688160 -0.021690 0.012130 
#    y -0.021690 1.706660 0.034600 
#    z 0.012130 0.034600 1.758580 
# 
# From -- ./inp_files/273469.got.cif
#   From: 2010.05.17/outbox.cif.g08.bks.cpg/sg2_137_cif.got.tgz:273469.got - 2010.06.03 11:33:40.
