data_PCOD9110001
_publ_section_title
;
Structure prediction by ZEFSAII (Michael W. Deem and Ramdas Pophale) SiO2 
 PCOD9110001
Probable space group: P -1
;
_chemical_formula_sum "Si O2"
_cell_formula_units_Z 16
_cell_length_a 26.963535
_cell_length_b 6.332923
_cell_length_c 11.232842
_cell_angle_alpha 120.767526
_cell_angle_beta 29.292369
_cell_angle_gamma 127.816859
_cell_volume 740.025053
_symmetry_space_group_name_H-M "P -1"
_symmetry_group_IT_number 2
_symmetry_cell_setting 'triclinic'
loop_
_space_group_symop_operation_xyz
x,y,z
-x,-y,-z
loop_
_atom_site_type_symbol
_atom_site_label
_atom_site_fract_x
_atom_site_fract_y
_atom_site_fract_z
Si Si1 0.951644 0.830150 0.229123
Si Si2 0.796280 0.355778 0.578671
Si Si3 0.106748 0.710025 0.396945
Si Si4 0.393347 0.597132 0.384190
Si Si5 0.512209 0.798212 0.543839
Si Si6 0.327154 0.950639 0.936205
Si Si7 0.174408 0.140549 0.732571
Si Si8 0.387231 0.471779 0.083838
O O1 0.893933 0.564296 0.351617
O O2 0.892743 0.782401 0.209133
O O3 0.921830 0.052428 0.422533
O O4 0.083029 0.967245 0.969887
O O5 0.841941 0.390503 0.627722
O O6 0.684587 0.408508 0.809873
O O7 0.777687 0.062438 0.484776
O O8 0.000000 0.500000 0.500000
O O9 0.200918 0.810726 0.128160
O O10 0.277264 0.409732 0.632507
O O11 0.380504 0.555236 0.257131
O O12 0.434106 0.916122 0.414736
O O13 0.485684 0.481687 0.195246
O O14 0.500000 0.500000 0.500000
O O15 0.384418 0.754832 0.794187
O O16 0.588759 0.879323 0.290273
O O17 0.329973 0.151860 0.094321
#
# Coordination Sequence:
#
# PCOD9110001 Si02
#       8
#     2   2   2   2   2   2   2   2
#     4  10  21  41  62  93 140 179 214 276 344 388
#     4  11  21  41  67  96 131 179 224 273 351 399
#     4  11  25  41  68  93 128 178 231 285 326 397
#     4  10  21  42  68 105 136 170 231 280 326 408
#     4  10  24  44  70  96 136 182 215 272 350 410
#     4  10  22  46  65  92 141 175 218 279 350 390
#     4  10  21  38  65  97 141 176 211 282 338 393
#     4  10  20  41  68  98 134 172 222 284 329 398
#
# _framework density 21.620891
#
# number of rings (size 3 to 8) (size 9 to 14) (size 15 to 20)
#    0.000    1.750    2.500    1.125    3.500    1.000 
#    6.750    0.000    0.000    0.000    0.000    0.000 
#    0.000    0.000    0.000    0.000    0.000    0.000 
#
# Total GULP energy -89198.907752 kJ/mol
# GULP energy per Si atom -5574.931735 kJ/mol
# Density = 2.157168 g / cm^3
# Si number density = 21.620891 Si / 1000 Ang^3
#
#
#
# Elastic Constant Matrix: (Units=GPa)
#
#
# Indices 1 2 3 4 5 6 
#
# 1 62.7364 29.8271 27.1934 12.1876 -7.2556 4.0352
# 2 29.8271 103.0286 45.0694 13.4502 -9.6059 2.5653
# 3 27.1934 45.0694 122.4267 0.1584 -17.0558 14.6883
# 4 12.1876 13.4502 0.1584 34.1511 3.5352 -10.9223
# 5 -7.2556 -9.6059 -17.0558 3.5352 37.7024 -1.1337
# 6 4.0352 2.5653 14.6883 -10.9223 -1.1337 28.3555
#
#
#
# Elastic Compliance Matrix: (Units=1/GPa)
#
#
# Indices 1 2 3 4 5 6 
#
# 1 0.020740 -0.003621 -0.002404 -0.007571 0.002565 -0.004192
# 2 -0.003621 0.013067 -0.003797 -0.004035 0.001287 -0.000202
# 3 -0.002404 -0.003797 0.011153 0.000413 0.003432 -0.004796
# 4 -0.007571 -0.004035 0.000413 0.039304 -0.005498 0.016149
# 5 0.002565 0.001287 0.003432 -0.005498 0.029317 -0.003205
# 6 -0.004192 -0.000202 -0.004796 0.016149 -0.003205 0.044458
#
#
# Mechanical properties :
#
#
# Convention : Reuss Voigt Hill
#
# Bulk Modulus (GPa) = 39.50014 54.70794 47.10404
# Shear Modulus (GPa) = 26.86404 32.44858 29.65631
#
# Velocity S-wave (km/s) = 3.52874 3.87822 3.70760
# Velocity P-wave (km/s) = 5.90862 6.73886 6.33735
#
# Compressibility (1/GPa) = 0.02531636
#
# Stress axis : x y z
#
# Youngs Moduli (GPa) = 48.21552 76.52754 89.66185
#
# Poissons Ratio (x) = 0.27710 0.21551
# Poissons Ratio (y) = 0.17459 0.34048
# Poissons Ratio (z) = 0.11589 0.29061
#
# Static dielectric constant tensor:
#      x y z
#    x 1.848960 -0.014720 -0.012630 
#    y -0.014720 1.784410 -0.017020 
#    z -0.012630 -0.017020 1.844540 
# 
# From -- ./inp_files/364336.got.cif
#   From: 2010.05.17/outbox.cif.g08.bks.cpg/sg2_183_cif.got.tgz:364336.got - 2010.06.03 11:33:40.
