data_PCOD9110941
_publ_section_title
;
Structure prediction by ZEFSAII (Michael W. Deem and Ramdas Pophale) SiO2 
 PCOD9110941
Probable space group: P -1
;
_chemical_formula_sum "Si O2"
_cell_formula_units_Z 15
_cell_length_a 7.999953
_cell_length_b 6.011339
_cell_length_c 22.805271
_cell_angle_alpha 116.593243
_cell_angle_beta 41.852885
_cell_angle_gamma 116.447355
_cell_volume 642.717615
_symmetry_space_group_name_H-M "P -1"
_symmetry_group_IT_number 2
_symmetry_cell_setting 'triclinic'
loop_
_space_group_symop_operation_xyz
x,y,z
-x,-y,-z
loop_
_atom_site_type_symbol
_atom_site_label
_atom_site_fract_x
_atom_site_fract_y
_atom_site_fract_z
Si Si1 0.643465 0.336841 0.375716
Si Si2 0.510576 0.581767 0.778922
Si Si3 0.989117 0.692348 0.969859
Si Si4 0.189045 0.570826 0.526943
Si Si5 0.689861 0.171759 0.617399
Si Si6 0.914532 0.001116 0.657779
Si Si7 0.500000 0.500000 0.000000
Si Si8 0.143176 0.492357 0.208349
O O1 0.444251 0.506611 0.424387
O O2 0.770189 0.463211 0.417239
O O3 0.873247 0.303960 0.268550
O O4 0.464324 0.067255 0.404353
O O5 0.240978 0.657174 0.865836
O O6 0.494650 0.330916 0.715182
O O7 0.700026 0.796313 0.720589
O O8 0.652056 0.548056 0.799672
O O9 0.719238 0.581127 0.999735
O O10 0.000000 0.500000 0.000000
O O11 0.000000 0.000000 0.000000
O O12 0.932201 0.371123 0.552951
O O13 0.147782 0.857789 0.570213
O O14 0.813514 0.060026 0.628042
O O15 0.940410 0.241607 0.721885
O O16 0.726849 0.518093 0.889376
#
# Coordination Sequence:
#
# PCOD9110941 Si02
#       8
#     2   2   2   2   2   2   1   2
#     4  11  22  41  67  97 137 181 237 290 361 445
#     4  10  22  45  69  95 147 189 232 309 377 430
#     4  12  28  51  77 111 152 198 257 329 388 457
#     4  10  22  43  63  96 139 184 225 296 362 430
#     4  10  22  41  65  99 139 179 236 289 364 441
#     4  10  20  42  67  94 142 184 225 301 357 440
#     4  12  28  48  78 110 146 204 260 314 394 466
#     4  11  23  46  66 105 138 186 249 304 368 450
#
# _framework density 23.338401000000001
#
# number of rings (size 3 to 8) (size 9 to 14) (size 15 to 20)
#    0.000    1.333    5.333    1.200    3.733    2.667 
#    7.200    0.000    0.000    0.000    0.000    0.000 
#    0.000    0.000    0.000    0.000    0.000    0.000 
#
# Total GULP energy -83550.484713 kJ/mol
# GULP energy per Si atom -5570.032314 kJ/mol
# Density = 2.328528 g / cm^3
# Si number density = 23.338401 Si / 1000 Ang^3
#
#
#
# Elastic Constant Matrix: (Units=GPa)
#
#
# Indices 1 2 3 4 5 6 
#
# 1 98.8106 56.7640 47.7242 -1.2865 -20.9352 15.7548
# 2 56.7640 116.0243 48.7027 -0.0402 -4.5002 -2.9679
# 3 47.7242 48.7027 164.8492 -17.4578 -27.7963 -5.6428
# 4 -1.2865 -0.0402 -17.4578 28.3054 -13.3817 -8.4735
# 5 -20.9352 -4.5002 -27.7963 -13.3817 50.0923 -3.7966
# 6 15.7548 -2.9679 -5.6428 -8.4735 -3.7966 35.7543
#
#
#
# Elastic Compliance Matrix: (Units=1/GPa)
#
#
# Indices 1 2 3 4 5 6 
#
# 1 0.018295 -0.007880 -0.002701 -0.001489 0.004357 -0.009032
# 2 -0.007880 0.013484 -0.002601 -0.002964 -0.004086 0.003045
# 3 -0.002701 -0.002601 0.010500 0.012128 0.008187 0.006375
# 4 -0.001489 -0.002964 0.012128 0.059300 0.023110 0.018832
# 5 0.004357 -0.004086 0.008187 0.023110 0.032739 0.007986
# 6 -0.009032 0.003045 0.006375 0.018832 0.007986 0.038519
#
#
# Mechanical properties :
#
#
# Convention : Reuss Voigt Hill
#
# Bulk Modulus (GPa) = 62.83070 76.22952 69.53011
# Shear Modulus (GPa) = 24.44918 37.92996 31.18957
#
# Velocity S-wave (km/s) = 3.24017 4.03577 3.65965
# Velocity P-wave (km/s) = 6.40143 7.37904 6.90755
#
# Compressibility (1/GPa) = 0.01591579
#
# Stress axis : x y z
#
# Youngs Moduli (GPa) = 54.65829 74.16056 95.24213
#
# Poissons Ratio (x) = 0.58437 0.25723
# Poissons Ratio (y) = 0.43070 0.24774
# Poissons Ratio (z) = 0.14762 0.19290
#
# Static dielectric constant tensor:
#      x y z
#    x 1.899830 -0.071160 0.013240 
#    y -0.071160 2.007130 -0.001310 
#    z 0.013240 -0.001310 1.885800 
# 
# From -- ./inp_files/605730.got.cif
#   From: 2010.05.17/outbox.cif.g08.bks.cpg/sg2_303_cif.got.tgz:605730.got - 2010.06.03 11:33:40.
