data_PCOD9110084
_publ_section_title
;
Structure prediction by ZEFSAII (Michael W. Deem and Ramdas Pophale) SiO2 
 PCOD9110084
Probable space group: P -1
;
_chemical_formula_sum "Si O2"
_cell_formula_units_Z 14
_cell_length_a 13.632475
_cell_length_b 8.357203
_cell_length_c 8.851288
_cell_angle_alpha 50.412651
_cell_angle_beta 53.258450
_cell_angle_gamma 50.492483
_cell_volume 567.202335
_symmetry_space_group_name_H-M "P -1"
_symmetry_group_IT_number 2
_symmetry_cell_setting 'triclinic'
loop_
_space_group_symop_operation_xyz
x,y,z
-x,-y,-z
loop_
_atom_site_type_symbol
_atom_site_label
_atom_site_fract_x
_atom_site_fract_y
_atom_site_fract_z
Si Si1 0.238142 0.701738 0.487277
Si Si2 0.717360 0.455812 0.121873
Si Si3 0.642243 0.920622 0.825117
Si Si4 0.044612 0.789485 0.363438
Si Si5 0.786604 0.041425 0.073601
Si Si6 0.568481 0.368361 0.866565
Si Si7 0.788404 0.741061 0.520494
O O1 0.248472 0.610874 0.698120
O O2 0.094990 0.781634 0.492585
O O3 0.339376 0.534197 0.369401
O O4 0.302996 0.886672 0.319569
O O5 0.767628 0.239608 0.095347
O O6 0.558200 0.571866 0.162564
O O7 0.749736 0.673773 0.930559
O O8 0.650188 0.862692 0.671456
O O9 0.500000 0.000000 0.000000
O O10 0.137824 0.533153 0.370113
O O11 0.894090 0.824810 0.453793
O O12 0.080940 0.974557 0.128147
O O13 0.784581 0.832972 0.297816
O O14 0.671294 0.133575 0.995252
O O15 0.500000 0.500000 0.000000
#
# Coordination Sequence:
#
# PCOD9110084 Si02
#       7
#     2   2   2   2   2   2   2
#     4  11  23  40  64  95 129 175 213 269 335 373
#     4  11  21  41  61  93 139 173 206 271 327 387
#     4  12  25  39  65  98 134 172 218 265 327 398
#     4  10  24  44  71  95 130 167 226 279 310 398
#     4  10  20  41  69  95 124 175 217 273 328 380
#     4   9  20  35  61  91 127 167 219 258 315 392
#     4  11  23  45  69  96 127 176 224 265 332 381
#
# _framework density 24.682549999999999
#
# number of rings (size 3 to 8) (size 9 to 14) (size 15 to 20)
#    0.000    1.429    4.286    0.857    0.000    2.857 
#    0.000    1.429    0.000    0.000    0.000    0.000 
#    0.000    0.000    0.000    0.000    0.000    0.000 
#
# Total GULP energy -78041.646686 kJ/mol
# GULP energy per Si atom -5574.403335 kJ/mol
# Density = 2.462637 g / cm^3
# Si number density = 24.682550 Si / 1000 Ang^3
#
#
#
# Elastic Constant Matrix: (Units=GPa)
#
#
# Indices 1 2 3 4 5 6 
#
# 1 93.3294 -9.9999 23.8051 12.0822 19.8216 -9.0804
# 2 -9.9999 62.9109 15.1091 12.8755 -1.6949 -6.8568
# 3 23.8051 15.1091 164.0996 -2.4181 29.6578 2.8830
# 4 12.0822 12.8755 -2.4181 38.2729 11.5643 -7.2645
# 5 19.8216 -1.6949 29.6578 11.5643 48.3675 0.1191
# 6 -9.0804 -6.8568 2.8830 -7.2645 0.1191 17.2143
#
#
#
# Elastic Compliance Matrix: (Units=1/GPa)
#
#
# Indices 1 2 3 4 5 6 
#
# 1 0.013536 0.004009 -0.001883 -0.003218 -0.003502 0.007719
# 2 0.004009 0.019696 -0.003131 -0.007538 0.002752 0.007284
# 3 -0.001883 -0.003131 0.007597 0.003154 -0.004745 -0.002149
# 4 -0.003218 -0.007538 0.003154 0.034414 -0.009131 0.009358
# 5 -0.003502 0.002752 -0.004745 -0.009131 0.027309 -0.003998
# 6 0.007719 0.007284 -0.002149 0.009358 -0.003998 0.069401
#
#
# Mechanical properties :
#
#
# Convention : Reuss Voigt Hill
#
# Bulk Modulus (GPa) = 25.76086 42.01873 33.88979
# Shear Modulus (GPa) = 26.75194 40.19932 33.47563
#
# Velocity S-wave (km/s) = 3.29574 4.04004 3.68672
# Velocity P-wave (km/s) = 4.99421 6.23082 5.64647
#
# Compressibility (1/GPa) = 0.03881858
#
# Stress axis : x y z
#
# Youngs Moduli (GPa) = 73.87812 50.77255 131.62831
#
# Poissons Ratio (x) = -0.20356 0.24784
# Poissons Ratio (y) = -0.29619 0.41218
# Poissons Ratio (z) = 0.13910 0.15899
#
# Static dielectric constant tensor:
#      x y z
#    x 2.498000 0.722180 -0.129430 
#    y 0.722180 2.959140 -0.019680 
#    z -0.129430 -0.019680 2.043580 
# 
# From -- ./inp_files/293910.got.cif
#   From: 2010.05.17/outbox.cif.g08.bks.cpg/sg2_147_cif.got.tgz:293910.got - 2010.06.03 11:33:40.
