data_PCOD9110526
_publ_section_title
;
Structure prediction by ZEFSAII (Michael W. Deem and Ramdas Pophale) SiO2 
 PCOD9110526
Probable space group: P -1
;
_chemical_formula_sum "Si O2"
_cell_formula_units_Z 16
_cell_length_a 19.548973
_cell_length_b 16.557558
_cell_length_c 8.337031
_cell_angle_alpha 136.892817
_cell_angle_beta 35.216555
_cell_angle_gamma 148.825282
_cell_volume 801.175159
_symmetry_space_group_name_H-M "P -1"
_symmetry_group_IT_number 2
_symmetry_cell_setting 'triclinic'
loop_
_space_group_symop_operation_xyz
x,y,z
-x,-y,-z
loop_
_atom_site_type_symbol
_atom_site_label
_atom_site_fract_x
_atom_site_fract_y
_atom_site_fract_z
Si Si1 0.052679 0.483300 0.208199
Si Si2 0.290662 0.801856 0.671791
Si Si3 0.898826 0.323532 0.865892
Si Si4 0.372270 0.240143 0.352993
Si Si5 0.730712 0.562570 0.138483
Si Si6 0.072071 0.238476 0.246026
Si Si7 0.764457 0.903040 0.241682
Si Si8 0.599000 0.880573 0.201825
O O1 0.142071 0.647163 0.184210
O O2 0.000000 0.500000 0.500000
O O3 0.885160 0.339748 0.248814
O O4 0.161700 0.440970 0.952964
O O5 0.409683 0.770306 0.393983
O O6 0.348147 0.948540 0.668899
O O7 0.257778 0.812218 0.935200
O O8 0.010871 0.284829 0.569125
O O9 0.000000 0.500000 0.000000
O O10 0.558022 0.392247 0.221186
O O11 0.285640 0.309956 0.604359
O O12 0.319203 0.153033 0.502330
O O13 0.342701 0.146774 0.111483
O O14 0.817126 0.617803 0.880609
O O15 0.166955 0.184644 0.041307
O O16 0.916083 0.088072 0.235524
O O17 0.660201 0.868703 0.236186
#
# Coordination Sequence:
#
# PCOD9110526 Si02
#       8
#     2   2   2   2   2   2   2   2
#     4  11  20  36  64  87 118 165 201 249 312 363
#     4  10  24  41  54  93 124 156 212 256 301 381
#     4  10  22  36  59  89 125 154 202 261 305 357
#     4  10  23  42  62  93 130 160 207 262 305 379
#     4  10  21  39  64  92 124 163 208 256 318 363
#     4  10  20  42  63  94 126 155 215 264 298 376
#     4  10  23  41  69  91 121 171 206 252 322 373
#     4  11  23  42  63  87 130 164 203 258 317 368
#
# _framework density 19.970665
#
# number of rings (size 3 to 8) (size 9 to 14) (size 15 to 20)
#    0.000    1.750    1.250    2.250    3.500    2.000 
#    0.000   14.375    0.000    0.000    0.000    0.000 
#    0.000    0.000    0.000    0.000    0.000    0.000 
#
# Total GULP energy -89152.439890 kJ/mol
# GULP energy per Si atom -5572.027493 kJ/mol
# Density = 1.992521 g / cm^3
# Si number density = 19.970665 Si / 1000 Ang^3
#
#
#
# Elastic Constant Matrix: (Units=GPa)
#
#
# Indices 1 2 3 4 5 6 
#
# 1 129.2229 29.2399 46.4465 -2.1175 -14.9085 -12.4293
# 2 29.2399 49.8139 13.1302 -8.8048 -8.2222 -8.2724
# 3 46.4465 13.1302 112.5228 -2.8172 -3.4248 -5.1931
# 4 -2.1175 -8.8048 -2.8172 29.5420 -0.3317 7.5488
# 5 -14.9085 -8.2222 -3.4248 -0.3317 33.0395 -7.8806
# 6 -12.4293 -8.2724 -5.1931 7.5488 -7.8806 22.9790
#
#
#
# Elastic Compliance Matrix: (Units=1/GPa)
#
#
# Indices 1 2 3 4 5 6 
#
# 1 0.011159 -0.004100 -0.003744 -0.002311 0.005087 0.006217
# 2 -0.004100 0.025894 -0.000661 0.005568 0.006321 0.007294
# 3 -0.003744 -0.000661 0.010481 0.000625 -0.000855 -0.000393
# 4 -0.002311 0.005568 0.000625 0.038581 -0.002194 -0.012531
# 5 0.005087 0.006321 -0.000855 -0.002194 0.038499 0.018758
# 6 0.006217 0.007294 -0.000393 -0.012531 0.018758 0.059967
#
#
# Mechanical properties :
#
#
# Convention : Reuss Voigt Hill
#
# Bulk Modulus (GPa) = 32.75965 52.13254 42.44609
# Shear Modulus (GPa) = 23.61115 30.62831 27.11973
#
# Velocity S-wave (km/s) = 3.44218 3.92045 3.68907
# Velocity P-wave (km/s) = 5.67782 6.83041 6.28061
#
# Compressibility (1/GPa) = 0.03052535
#
# Stress axis : x y z
#
# Youngs Moduli (GPa) = 89.61510 38.61897 95.41025
#
# Poissons Ratio (x) = 0.15832 0.35720
# Poissons Ratio (y) = 0.36738 0.06306
# Poissons Ratio (z) = 0.33550 0.02553
#
# Static dielectric constant tensor:
#      x y z
#    x 1.704370 0.000920 0.036830 
#    y 0.000920 1.717500 -0.001850 
#    z 0.036830 -0.001850 1.776870 
# 
# From -- ./inp_files/348651.got.cif
#   From: 2010.05.17/outbox.cif.g08.bks.cpg/sg2_175_cif.got.tgz:348651.got - 2010.06.03 11:33:40.
