data_PCOD9110385
_publ_section_title
;
Structure prediction by ZEFSAII (Michael W. Deem and Ramdas Pophale) SiO2 
 PCOD9110385
Probable space group: P -1
;
_chemical_formula_sum "Si O2"
_cell_formula_units_Z 16
_cell_length_a 23.465065
_cell_length_b 8.574845
_cell_length_c 5.925315
_cell_angle_alpha 74.486029
_cell_angle_beta 128.770904
_cell_angle_gamma 134.996294
_cell_volume 623.209588
_symmetry_space_group_name_H-M "P -1"
_symmetry_group_IT_number 2
_symmetry_cell_setting 'triclinic'
loop_
_space_group_symop_operation_xyz
x,y,z
-x,-y,-z
loop_
_atom_site_type_symbol
_atom_site_label
_atom_site_fract_x
_atom_site_fract_y
_atom_site_fract_z
Si Si1 0.577407 0.393628 0.273469
Si Si2 0.843568 0.227112 0.821323
Si Si3 0.144496 0.159891 0.632625
Si Si4 0.130547 0.669686 0.642989
Si Si5 0.743029 0.416703 0.507571
Si Si6 0.631718 0.827583 0.001966
Si Si7 0.076753 0.229209 0.836586
Si Si8 0.681409 0.741040 0.766940
O O1 0.632704 0.324623 0.329533
O O2 0.452767 0.192057 0.076655
O O3 0.625508 0.505100 0.598548
O O4 0.606235 0.608486 0.133062
O O5 0.905656 0.327903 0.698270
O O6 0.771155 0.274014 0.635200
O O7 0.759479 0.949881 0.705248
O O8 0.894130 0.300673 0.173421
O O9 0.209377 0.427252 0.657567
O O10 0.091567 0.094792 0.770826
O O11 0.237127 0.180195 0.864035
O O12 0.044241 0.962511 0.306103
O O13 0.093579 0.426590 0.675559
O O14 0.256288 0.901862 0.836152
O O15 0.827575 0.624658 0.812130
O O16 0.608997 0.755540 0.707000
#
# Coordination Sequence:
#
# PCOD9110385 Si02
#       8
#     2   2   2   2   2   2   2   2
#     4  11  21  37  65  92 121 168 218 257 325 381
#     4  10  22  38  66  86 132 174 206 260 330 368
#     4  11  21  37  65  92 121 168 218 257 325 381
#     4  10  20  42  60  90 130 176 200 270 324 372
#     4  11  21  40  62  93 127 170 206 273 314 385
#     4  10  22  38  62  90 126 166 214 264 319 382
#     4  10  22  38  62  90 126 166 214 264 319 382
#     4  11  21  40  62  93 127 170 206 273 314 385
#
# _framework density 25.673546000000002
#
# number of rings (size 3 to 8) (size 9 to 14) (size 15 to 20)
#    0.000    1.500    5.000    0.750    0.000    0.000 
#    0.000   12.500    0.000    0.000    0.000    0.000 
#    0.000    0.000    0.000    0.000    0.000    0.000 
#
# Total GULP energy -89126.017704 kJ/mol
# GULP energy per Si atom -5570.376106 kJ/mol
# Density = 2.561511 g / cm^3
# Si number density = 25.673546 Si / 1000 Ang^3
#
#
#
# Elastic Constant Matrix: (Units=GPa)
#
#
# Indices 1 2 3 4 5 6 
#
# 1 116.8997 18.4604 24.9224 9.4325 4.4398 25.8232
# 2 18.4604 71.8750 14.6169 5.8823 13.1797 18.3726
# 3 24.9224 14.6169 52.7458 -3.3079 -10.2013 19.7829
# 4 9.4325 5.8823 -3.3079 29.1585 -2.8889 -3.2790
# 5 4.4398 13.1797 -10.2013 -2.8889 46.3903 -0.4284
# 6 25.8232 18.3726 19.7829 -3.2790 -0.4284 45.7491
#
#
#
# Elastic Compliance Matrix: (Units=1/GPa)
#
#
# Indices 1 2 3 4 5 6 
#
# 1 0.010962 0.000072 -0.004156 -0.004801 -0.002327 -0.004785
# 2 0.000072 0.017894 -0.004419 -0.005422 -0.006453 -0.005765
# 3 -0.004156 -0.004419 0.026572 0.005241 0.007759 -0.006922
# 4 -0.004801 -0.005422 0.005241 0.038705 0.005613 0.005448
# 5 -0.002327 -0.006453 0.007759 0.005613 0.025679 0.001193
# 6 -0.004785 -0.005765 -0.006922 0.005448 0.001193 0.030269
#
#
# Mechanical properties :
#
#
# Convention : Reuss Voigt Hill
#
# Bulk Modulus (GPa) = 26.02561 39.72444 32.87503
# Shear Modulus (GPa) = 27.79416 36.49432 32.14424
#
# Velocity S-wave (km/s) = 3.29386 3.77434 3.54225
# Velocity P-wave (km/s) = 4.96237 5.87373 5.43718
#
# Compressibility (1/GPa) = 0.03842369
#
# Stress axis : x y z
#
# Youngs Moduli (GPa) = 91.22686 55.88511 37.63308
#
# Poissons Ratio (x) = -0.00405 0.15640
# Poissons Ratio (y) = -0.00661 0.16629
# Poissons Ratio (z) = 0.37912 0.24695
#
# Static dielectric constant tensor:
#      x y z
#    x 2.070050 0.024060 -0.002470 
#    y 0.024060 1.984530 -0.038030 
#    z -0.002470 -0.038030 2.240780 
# 
# From -- ./inp_files/97942.got.cif
#   From: 2010.05.17/outbox.cif.g08.bks.cpg/sg2_49_cif.got.tgz:97942.got - 2010.06.03 11:33:40.
