data_PCOD9110943
_publ_section_title
;
Structure prediction by ZEFSAII (Michael W. Deem and Ramdas Pophale) SiO2 
 PCOD9110943
Probable space group: P -1
;
_chemical_formula_sum "Si O2"
_cell_formula_units_Z 16
_cell_length_a 11.615193
_cell_length_b 11.354072
_cell_length_c 11.356752
_cell_angle_alpha 142.484446
_cell_angle_beta 127.590807
_cell_angle_gamma 41.300705
_cell_volume 601.610627
_symmetry_space_group_name_H-M "P -1"
_symmetry_group_IT_number 2
_symmetry_cell_setting 'triclinic'
loop_
_space_group_symop_operation_xyz
x,y,z
-x,-y,-z
loop_
_atom_site_type_symbol
_atom_site_label
_atom_site_fract_x
_atom_site_fract_y
_atom_site_fract_z
Si Si1 0.298889 0.707612 0.432343
Si Si2 0.425020 0.298781 0.041651
Si Si3 0.795520 0.104312 0.215393
Si Si4 0.061052 0.378688 0.176515
Si Si5 0.389348 0.882539 0.288379
Si Si6 0.729525 0.439517 0.096974
Si Si7 0.091328 0.125537 0.474685
Si Si8 0.560615 0.841064 0.662924
O O1 0.328998 0.462960 0.223559
O O2 0.270048 0.780867 0.606698
O O3 0.467862 0.703861 0.490297
O O4 0.142543 0.910246 0.419044
O O5 0.627753 0.210009 0.111336
O O6 0.332783 0.454968 0.992134
O O7 0.438112 0.058903 0.847646
O O8 0.939093 0.161783 0.322736
O O9 0.890159 0.825016 0.046776
O O10 0.242751 0.311300 0.291405
O O11 0.924017 0.376924 0.179528
O O12 0.963428 0.651225 0.304168
O O13 0.578189 0.646182 0.245630
O O14 0.262259 0.043532 0.440238
O O15 0.425488 0.029449 0.338632
O O16 0.286142 0.779041 0.082800
#
# Coordination Sequence:
#
# PCOD9110943 Si02
#       8
#     2   2   2   2   2   2   2   2
#     4  12  24  42  68  93 128 171 216 259 314 379
#     4  10  21  43  66  93 126 167 211 262 314 377
#     4  11  25  43  65  95 131 167 212 266 315 372
#     4  11  24  43  64  95 134 164 213 264 314 381
#     4  10  21  42  65  95 127 166 211 260 316 382
#     4  10  20  42  67  95 128 167 207 259 326 375
#     4  12  24  42  66  97 128 167 216 258 319 379
#     4  10  25  42  63  99 128 168 211 260 320 373
#
# _framework density 26.595274
#
# number of rings (size 3 to 8) (size 9 to 14) (size 15 to 20)
#    0.000    1.250    2.500    3.000    0.000    6.500 
#    4.500    0.000    0.000    0.000    0.000    0.000 
#    0.000    0.000    0.000    0.000    0.000    0.000 
#
# Total GULP energy -89629.882187 kJ/mol
# GULP energy per Si atom -5601.867637 kJ/mol
# Density = 2.653474 g / cm^3
# Si number density = 26.595274 Si / 1000 Ang^3
#
#
#
# Elastic Constant Matrix: (Units=GPa)
#
#
# Indices 1 2 3 4 5 6 
#
# 1 105.9043 31.6394 12.1374 -0.6195 -6.3026 -23.8223
# 2 31.6394 71.0366 45.4178 21.3020 -10.7050 -12.1915
# 3 12.1374 45.4178 134.6829 40.1868 -13.8321 -8.2431
# 4 -0.6195 21.3020 40.1868 44.8985 -12.3753 0.7536
# 5 -6.3026 -10.7050 -13.8321 -12.3753 56.4880 -1.2418
# 6 -23.8223 -12.1915 -8.2431 0.7536 -1.2418 23.1415
#
#
#
# Elastic Compliance Matrix: (Units=1/GPa)
#
#
# Indices 1 2 3 4 5 6 
#
# 1 0.013533 -0.004866 0.000649 0.002124 0.001467 0.011608
# 2 -0.004866 0.022221 -0.004796 -0.006052 0.001284 0.005255
# 3 0.000649 -0.004796 0.011565 -0.008029 0.000292 0.002538
# 4 0.002124 -0.006052 -0.008029 0.033649 0.004392 -0.004721
# 5 0.001467 0.001284 0.000292 0.004392 0.019213 0.003179
# 6 0.011608 0.005255 0.002538 -0.004721 0.003179 0.059159
#
#
# Mechanical properties :
#
#
# Convention : Reuss Voigt Hill
#
# Bulk Modulus (GPa) = 34.13870 54.44588 44.29229
# Shear Modulus (GPa) = 26.71957 39.73421 33.22689
#
# Velocity S-wave (km/s) = 3.17310 3.86947 3.53845
# Velocity P-wave (km/s) = 5.12728 6.36240 5.77794
#
# Compressibility (1/GPa) = 0.02929227
#
# Stress axis : x y z
#
# Youngs Moduli (GPa) = 73.89512 45.00315 86.47123
#
# Poissons Ratio (x) = 0.21898 -0.05608
# Poissons Ratio (y) = 0.35956 0.41468
# Poissons Ratio (z) = -0.04793 0.21582
#
# Static dielectric constant tensor:
#      x y z
#    x 2.064890 -0.006790 -0.038010 
#    y -0.006790 2.092010 -0.033990 
#    z -0.038010 -0.033990 2.105170 
# 
# From -- ./inp_files/427014.got.cif
#   From: 2010.05.17/outbox.cif.g08.bks.cpg/sg2_214_cif.got.tgz:427014.got - 2010.06.03 11:33:40.
