data_PCOD9110307
_publ_section_title
;
Structure prediction by ZEFSAII (Michael W. Deem and Ramdas Pophale) SiO2 
 PCOD9110307
Probable space group: P -1
;
_chemical_formula_sum "Si O2"
_cell_formula_units_Z 16
_cell_length_a 9.790443
_cell_length_b 8.678556
_cell_length_c 11.026779
_cell_angle_alpha 118.466658
_cell_angle_beta 78.700854
_cell_angle_gamma 75.114294
_cell_volume 737.987935
_symmetry_space_group_name_H-M "P -1"
_symmetry_group_IT_number 2
_symmetry_cell_setting 'triclinic'
loop_
_space_group_symop_operation_xyz
x,y,z
-x,-y,-z
loop_
_atom_site_type_symbol
_atom_site_label
_atom_site_fract_x
_atom_site_fract_y
_atom_site_fract_z
Si Si1 0.837343 0.543240 0.594885
Si Si2 0.524960 0.485973 0.789009
Si Si3 0.059575 0.901555 0.253389
Si Si4 0.465564 0.329196 0.389284
Si Si5 0.793041 0.166587 0.539539
Si Si6 0.272372 0.049488 0.124774
Si Si7 0.272765 0.500329 0.008793
Si Si8 0.397356 0.065416 0.854890
O O1 0.711540 0.617675 0.538313
O O2 0.833794 0.350602 0.577298
O O3 0.790922 0.722151 0.759488
O O4 0.000000 0.500000 0.500000
O O5 0.524563 0.636085 0.744343
O O6 0.610745 0.274986 0.633188
O O7 0.627687 0.490551 0.887458
O O8 0.359443 0.533203 0.888715
O O9 0.138764 0.917843 0.373400
O O10 0.111944 0.678175 0.125519
O O11 0.143710 0.983416 0.171972
O O12 0.881847 0.020129 0.361961
O O13 0.500000 0.500000 0.500000
O O14 0.565077 0.107703 0.311491
O O15 0.434099 0.952393 0.134300
O O16 0.313202 0.019747 0.966196
O O17 0.295758 0.281092 0.913738
#
# Coordination Sequence:
#
# PCOD9110307 Si02
#       8
#     2   2   2   2   2   2   2   2
#     4  10  18  32  51  77 104 133 174 222 263 304
#     4   9  17  31  51  74 106 136 169 218 267 314
#     4  10  17  25  42  72 109 133 157 207 274 317
#     4  10  21  35  52  75 108 143 173 211 265 324
#     4   9  17  27  41  70 107 135 158 202 267 316
#     4  10  17  27  48  75 102 130 170 221 268 298
#     4  10  17  29  50  78 104 130 175 227 266 298
#     4  10  18  29  47  73 100 132 172 221 260 304
#
# _framework density 21.680572000000002
#
# number of rings (size 3 to 8) (size 9 to 14) (size 15 to 20)
#    0.000    2.250    1.250    6.750    0.000    0.000 
#    0.000    0.625    0.000    0.750    0.000    3.500 
#    0.000   13.875    0.000    0.000    0.000    0.000 
#
# Total GULP energy -89169.754427 kJ/mol
# GULP energy per Si atom -5573.109652 kJ/mol
# Density = 2.163123 g / cm^3
# Si number density = 21.680572 Si / 1000 Ang^3
#
#
#
# Elastic Constant Matrix: (Units=GPa)
#
#
# Indices 1 2 3 4 5 6 
#
# 1 40.4280 6.8691 45.3604 10.6374 -17.7190 1.3653
# 2 6.8691 70.7028 36.8187 26.4950 -9.6427 3.7078
# 3 45.3604 36.8187 128.3844 42.3019 -37.6177 6.0687
# 4 10.6374 26.4950 42.3019 50.0765 -0.7290 -6.0672
# 5 -17.7190 -9.6427 -37.6177 -0.7290 31.8686 4.6663
# 6 1.3653 3.7078 6.0687 -6.0672 4.6663 12.1277
#
#
#
# Elastic Compliance Matrix: (Units=1/GPa)
#
#
# Indices 1 2 3 4 5 6 
#
# 1 0.043843 0.004819 -0.012678 -0.001632 0.011616 -0.005351
# 2 0.004819 0.023093 0.006971 -0.022543 0.021889 -0.030791
# 3 -0.012678 0.006971 0.047957 -0.049460 0.061226 -0.073003
# 4 -0.001632 -0.022543 -0.049460 0.085621 -0.079567 0.105274
# 5 0.011616 0.021889 0.061226 -0.079567 0.133944 -0.129979
# 6 -0.005351 -0.030791 -0.073003 0.105274 -0.129979 0.231679
#
#
# Mechanical properties :
#
#
# Convention : Reuss Voigt Hill
#
# Bulk Modulus (GPa) = 8.84040 46.40128 27.62084
# Shear Modulus (GPa) = 8.25605 28.84569 18.55087
#
# Velocity S-wave (km/s) = 1.95354 3.65154 2.92831
# Velocity P-wave (km/s) = 3.02900 6.26315 4.91944
#
# Compressibility (1/GPa) = 0.11311699
#
# Stress axis : x y z
#
# Youngs Moduli (GPa) = 22.80885 43.30369 20.85215
#
# Poissons Ratio (x) = -0.20869 0.26436
# Poissons Ratio (y) = -0.10992 -0.14537
# Poissons Ratio (z) = 0.28917 -0.30189
#
# Static dielectric constant tensor:
#      x y z
#    x 1.835950 -0.035320 0.031500 
#    y -0.035320 1.830900 0.045490 
#    z 0.031500 0.045490 2.198590 
# 
# From -- ./inp_files/303360.got.cif
#   From: 2010.05.17/outbox.cif.g08.bks.cpg/sg2_152_cif.got.tgz:303360.got - 2010.06.03 11:33:40.
