data_PCOD9110733
_publ_section_title
;
Structure prediction by ZEFSAII (Michael W. Deem and Ramdas Pophale) SiO2 
 PCOD9110733
Probable space group: P -1
;
_chemical_formula_sum "Si O2"
_cell_formula_units_Z 16
_cell_length_a 15.031134
_cell_length_b 5.263206
_cell_length_c 11.324344
_cell_angle_alpha 117.832889
_cell_angle_beta 56.291150
_cell_angle_gamma 118.146496
_cell_volume 630.919737
_symmetry_space_group_name_H-M "P -1"
_symmetry_group_IT_number 2
_symmetry_cell_setting 'triclinic'
loop_
_space_group_symop_operation_xyz
x,y,z
-x,-y,-z
loop_
_atom_site_type_symbol
_atom_site_label
_atom_site_fract_x
_atom_site_fract_y
_atom_site_fract_z
Si Si1 0.718702 0.114192 0.674311
Si Si2 0.777891 0.675072 0.087408
Si Si3 0.412258 0.495389 0.464172
Si Si4 0.193935 0.629576 0.754283
Si Si5 0.466237 0.337829 0.817696
Si Si6 0.151920 0.279581 0.209034
Si Si7 0.638995 0.917402 0.937832
Si Si8 0.064373 0.081723 0.591813
O O1 0.784600 0.463917 0.687909
O O2 0.626951 0.857665 0.619116
O O3 0.662801 0.116081 0.845447
O O4 0.821276 0.982638 0.541913
O O5 0.806250 0.508113 0.144273
O O6 0.645594 0.586147 0.130208
O O7 0.810515 0.031172 0.166584
O O8 0.839751 0.621446 0.911626
O O9 0.500000 0.500000 0.500000
O O10 0.310607 0.610729 0.608860
O O11 0.468680 0.696478 0.354941
O O12 0.098509 0.409882 0.696194
O O13 0.557515 0.607336 0.876086
O O14 0.421260 0.075380 0.890634
O O15 0.235696 0.075315 0.114883
O O16 0.023661 0.134489 0.302255
O O17 0.000000 0.000000 0.500000
#
# Coordination Sequence:
#
# PCOD9110733 Si02
#       8
#     2   2   2   2   2   2   2   2
#     4  10  22  40  68  99 130 173 232 284 341 411
#     4  11  26  46  70 102 140 186 228 285 347 411
#     4  10  20  42  66 101 138 184 225 281 346 408
#     4  11  27  47  70 103 141 180 234 284 343 419
#     4   9  19  39  63  96 132 180 221 277 334 402
#     4  11  24  41  70  96 135 181 231 288 346 409
#     4   9  19  39  60  97 131 174 228 273 333 401
#     4  11  24  46  70 100 133 177 230 290 348 407
#
# _framework density 25.359801999999998
#
# number of rings (size 3 to 8) (size 9 to 14) (size 15 to 20)
#    0.000    1.750    2.500    0.375    3.500    5.500 
#    0.000    5.625    0.000    0.000    0.000    0.000 
#    0.000    0.000    0.000    0.000    0.000    0.000 
#
# Total GULP energy -89367.001712 kJ/mol
# GULP energy per Si atom -5585.437607 kJ/mol
# Density = 2.530208 g / cm^3
# Si number density = 25.359802 Si / 1000 Ang^3
#
#
#
# Elastic Constant Matrix: (Units=GPa)
#
#
# Indices 1 2 3 4 5 6 
#
# 1 90.0585 47.1662 46.6244 -3.2767 9.9483 22.8178
# 2 47.1662 155.1758 59.6919 11.1377 12.2689 22.8103
# 3 46.6244 59.6919 120.8034 -11.4741 33.3483 12.5880
# 4 -3.2767 11.1377 -11.4741 43.9901 -0.1066 6.8309
# 5 9.9483 12.2689 33.3483 -0.1066 14.1583 5.3484
# 6 22.8178 22.8103 12.5880 6.8309 5.3484 34.1266
#
#
#
# Elastic Compliance Matrix: (Units=1/GPa)
#
#
# Indices 1 2 3 4 5 6 
#
# 1 0.017307 -0.001848 -0.007832 0.001216 0.011482 -0.009491
# 2 -0.001848 0.009657 -0.007045 -0.003843 0.010835 -0.003550
# 3 -0.007832 -0.007045 0.035559 0.009259 -0.074597 0.006666
# 4 0.001216 -0.003843 0.009259 0.026834 -0.017513 -0.004286
# 5 0.011482 0.010835 -0.074597 -0.017513 0.236676 -0.020990
# 6 -0.009491 -0.003550 0.006666 -0.004286 -0.020990 0.039710
#
#
# Mechanical properties :
#
#
# Convention : Reuss Voigt Hill
#
# Bulk Modulus (GPa) = 34.39477 74.77806 54.58642
# Shear Modulus (GPa) = 12.22848 32.62533 22.42691
#
# Velocity S-wave (km/s) = 2.19829 3.59067 2.97703
# Velocity P-wave (km/s) = 4.47610 6.83677 5.77827
#
# Compressibility (1/GPa) = 0.02907419
#
# Stress axis : x y z
#
# Youngs Moduli (GPa) = 57.78112 103.55461 28.12215
#
# Poissons Ratio (x) = 0.19134 0.22025
# Poissons Ratio (y) = 0.10676 0.19811
# Poissons Ratio (z) = 0.45253 0.72951
#
# Static dielectric constant tensor:
#      x y z
#    x 2.060830 -0.166000 0.059550 
#    y -0.166000 2.093540 0.030270 
#    z 0.059550 0.030270 1.992710 
# 
# From -- ./inp_files/459614.got.cif
#   From: 2010.05.17/outbox.cif.g08.bks.cpg/sg2_230_cif.got.tgz:459614.got - 2010.06.03 11:33:40.
