data_PCOD9110075
_publ_section_title
;
Structure prediction by ZEFSAII (Michael W. Deem and Ramdas Pophale) SiO2 
 PCOD9110075
Probable space group: P -1
;
_chemical_formula_sum "Si O2"
_cell_formula_units_Z 16
_cell_length_a 21.838004
_cell_length_b 14.463272
_cell_length_c 12.053765
_cell_angle_alpha 152.098119
_cell_angle_beta 152.114547
_cell_angle_gamma 28.894889
_cell_volume 751.818667
_symmetry_space_group_name_H-M "P -1"
_symmetry_group_IT_number 2
_symmetry_cell_setting 'triclinic'
loop_
_space_group_symop_operation_xyz
x,y,z
-x,-y,-z
loop_
_atom_site_type_symbol
_atom_site_label
_atom_site_fract_x
_atom_site_fract_y
_atom_site_fract_z
Si Si1 0.808214 0.062350 0.430566
Si Si2 0.387484 0.500481 0.995973
Si Si3 0.615599 0.049257 0.312861
Si Si4 0.340830 0.492450 0.680841
Si Si5 0.156812 0.978354 0.184801
Si Si6 0.870356 0.996899 0.083744
Si Si7 0.550841 0.471273 0.422169
Si Si8 0.851968 0.702435 0.941313
O O1 0.722735 0.066543 0.409300
O O2 0.718812 0.311380 0.508725
O O3 0.974461 0.998492 0.650309
O O4 0.798599 0.886994 0.145743
O O5 0.505385 0.560876 0.184944
O O6 0.250937 0.715898 0.045262
O O7 0.466027 0.376805 0.103122
O O8 0.346251 0.397001 0.713344
O O9 0.741562 0.936518 0.489962
O O10 0.506730 0.277239 0.436251
O O11 0.500000 0.000000 0.000000
O O12 0.251785 0.756932 0.827613
O O13 0.258892 0.396313 0.369391
O O14 0.140969 0.068122 0.129739
O O15 0.000000 0.000000 0.000000
O O16 0.868646 0.826119 0.989923
O O17 0.500000 0.500000 0.500000
O O18 0.000000 0.500000 0.000000
#
# Coordination Sequence:
#
# PCOD9110075 Si02
#       8
#     2   2   2   2   2   2   2   2
#     4  11  22  39  66  93 134 178 219 275 338 399
#     4   9  20  39  66  86 130 174 208 275 332 390
#     4  10  22  40  67 101 130 172 226 280 329 396
#     4  10  22  43  62  94 130 170 225 269 330 396
#     4  10  20  41  69  93 132 175 218 270 342 408
#     4  11  23  43  66  96 136 180 219 273 344 396
#     4   9  20  38  59  91 125 168 214 258 331 395
#     4  12  26  39  64  99 132 173 227 278 330 395
#
# _framework density 21.281728999999999
#
# number of rings (size 3 to 8) (size 9 to 14) (size 15 to 20)
#    0.000    1.750    2.500    1.125    5.250    0.000 
#    4.500    6.250    0.000    4.500    0.000    0.000 
#    0.000    0.000    0.000    0.000    0.000    0.000 
#
# Total GULP energy -89080.786460 kJ/mol
# GULP energy per Si atom -5567.549154 kJ/mol
# Density = 2.123329 g / cm^3
# Si number density = 21.281729 Si / 1000 Ang^3
#
#
#
# Elastic Constant Matrix: (Units=GPa)
#
#
# Indices 1 2 3 4 5 6 
#
# 1 96.3400 43.4257 26.9092 -2.1719 -26.1232 -1.9192
# 2 43.4257 111.9108 41.6561 -21.6576 -10.1087 -20.5267
# 3 26.9092 41.6561 107.4281 -23.0891 -21.7710 -3.7515
# 4 -2.1719 -21.6576 -23.0891 29.5623 1.2902 -0.9722
# 5 -26.1232 -10.1087 -21.7710 1.2902 40.9198 -11.4899
# 6 -1.9192 -20.5267 -3.7515 -0.9722 -11.4899 41.2027
#
#
#
# Elastic Compliance Matrix: (Units=1/GPa)
#
#
# Indices 1 2 3 4 5 6 
#
# 1 0.015252 -0.005669 -0.000883 -0.004073 0.007976 -0.000066
# 2 -0.005669 0.015158 -0.002007 0.009331 0.000889 0.007573
# 3 -0.000883 -0.002007 0.013621 0.008891 0.006533 0.002231
# 4 -0.004073 0.009331 0.008891 0.047340 0.005138 0.007818
# 5 0.007976 0.000889 0.006533 0.005138 0.036339 0.011664
# 6 -0.000066 0.007573 0.002231 0.007818 0.011664 0.031680
#
#
# Mechanical properties :
#
#
# Convention : Reuss Voigt Hill
#
# Bulk Modulus (GPa) = 37.16052 59.96233 48.56143
# Shear Modulus (GPa) = 26.95706 35.91617 31.43662
#
# Velocity S-wave (km/s) = 3.56290 4.11256 3.84756
# Velocity P-wave (km/s) = 5.86727 7.12654 6.52734
#
# Compressibility (1/GPa) = 0.02691028
#
# Stress axis : x y z
#
# Youngs Moduli (GPa) = 65.56628 65.97211 73.41614
#
# Poissons Ratio (x) = 0.37402 0.06485
# Poissons Ratio (y) = 0.37172 0.14738
# Poissons Ratio (z) = 0.05792 0.13243
#
# Static dielectric constant tensor:
#      x y z
#    x 1.792030 0.092780 -0.060590 
#    y 0.092780 1.831790 -0.051620 
#    z -0.060590 -0.051620 1.850120 
# 
# From -- ./inp_files/472034.got.cif
#   From: 2010.05.17/outbox.cif.g08.bks.cpg/sg2_237_cif.got.tgz:472034.got - 2010.06.03 11:33:40.
