data_PCOD9110486
_publ_section_title
;
Structure prediction by ZEFSAII (Michael W. Deem and Ramdas Pophale) SiO2 
 PCOD9110486
Probable space group: P -1
;
_chemical_formula_sum "Si O2"
_cell_formula_units_Z 14
_cell_length_a 8.505387
_cell_length_b 14.714430
_cell_length_c 7.128434
_cell_angle_alpha 78.486929
_cell_angle_beta 84.518386
_cell_angle_gamma 49.003795
_cell_volume 659.038465
_symmetry_space_group_name_H-M "P -1"
_symmetry_group_IT_number 2
_symmetry_cell_setting 'triclinic'
loop_
_space_group_symop_operation_xyz
x,y,z
-x,-y,-z
loop_
_atom_site_type_symbol
_atom_site_label
_atom_site_fract_x
_atom_site_fract_y
_atom_site_fract_z
Si Si1 0.688763 0.053012 0.502867
Si Si2 0.972068 0.435453 0.190503
Si Si3 0.382543 0.316294 0.348312
Si Si4 0.007600 0.030482 0.196932
Si Si5 0.365323 0.645274 0.432076
Si Si6 0.514879 0.596005 0.055569
Si Si7 0.034273 0.206006 0.315761
O O1 0.470175 0.179037 0.419136
O O2 0.847251 0.033137 0.338225
O O3 0.767619 0.065974 0.687493
O O4 0.855450 0.277529 0.466592
O O5 0.724465 0.520462 0.190546
O O6 0.132019 0.408632 0.342496
O O7 0.051695 0.301215 0.190313
O O8 0.000000 0.500000 0.000000
O O9 0.496335 0.331412 0.487742
O O10 0.457197 0.337338 0.136605
O O11 0.246037 0.078810 0.425355
O O12 0.038409 0.843192 0.807851
O O13 0.000000 0.000000 0.000000
O O14 0.500000 0.500000 0.500000
O O15 0.338711 0.674459 0.201453
O O16 0.500000 0.500000 0.000000
#
# Coordination Sequence:
#
# PCOD9110486 Si02
#       7
#     2   2   2   2   2   2   2
#     4   9  20  37  58  95 125 157 218 257 331 373
#     4  10  23  41  62  93 133 175 213 262 322 392
#     4  11  22  41  60  92 136 166 214 271 319 393
#     4   9  18  36  65  94 127 160 213 272 320 369
#     4  12  21  39  67  95 127 167 224 270 316 382
#     4  11  23  40  64  93 123 173 220 267 319 376
#     4  10  20  42  62  98 127 163 220 263 320 383
#
# _framework density 21.243068000000001
#
# number of rings (size 3 to 8) (size 9 to 14) (size 15 to 20)
#    0.857    0.857    4.286    0.000    0.000    3.429 
#    0.000    0.000    0.000    0.857    0.000    0.000 
#    0.000    0.000    0.000    0.000    0.000    0.000 
#
# Total GULP energy -77984.812151 kJ/mol
# GULP energy per Si atom -5570.343725 kJ/mol
# Density = 2.119472 g / cm^3
# Si number density = 21.243068 Si / 1000 Ang^3
#
#
#
# Elastic Constant Matrix: (Units=GPa)
#
#
# Indices 1 2 3 4 5 6 
#
# 1 71.8384 39.4684 26.3051 -7.0263 3.9572 6.6565
# 2 39.4684 147.0158 45.9384 -11.3294 1.9803 13.5912
# 3 26.3051 45.9384 143.0989 -0.7457 -0.5780 8.1135
# 4 -7.0263 -11.3294 -0.7457 22.6567 -2.9198 1.9698
# 5 3.9572 1.9803 -0.5780 -2.9198 10.3815 -7.6656
# 6 6.6565 13.5912 8.1135 1.9698 -7.6656 48.9095
#
#
#
# Elastic Compliance Matrix: (Units=1/GPa)
#
#
# Indices 1 2 3 4 5 6 
#
# 1 0.017462 -0.003552 -0.001954 0.002876 -0.006956 -0.002271
# 2 -0.003552 0.008844 -0.002064 0.003299 -0.000931 -0.001911
# 3 -0.001954 -0.002064 0.008024 -0.001216 0.001037 -0.000280
# 4 0.002876 0.003299 -0.001216 0.048141 0.010741 -0.001362
# 5 -0.006956 -0.000931 0.001037 0.010741 0.116113 0.018799
# 6 -0.002271 -0.001911 -0.000280 -0.001362 0.018799 0.024334
#
#
# Mechanical properties :
#
#
# Convention : Reuss Voigt Hill
#
# Bulk Modulus (GPa) = 52.11333 65.04186 58.57759
# Shear Modulus (GPa) = 20.45363 33.07231 26.76297
#
# Velocity S-wave (km/s) = 3.10633 3.94998 3.55328
# Velocity P-wave (km/s) = 6.11971 7.17548 6.66852
#
# Compressibility (1/GPa) = 0.01918895
#
# Stress axis : x y z
#
# Youngs Moduli (GPa) = 57.26709 113.07009 124.62877
#
# Poissons Ratio (x) = 0.40163 0.24352
# Poissons Ratio (y) = 0.20342 0.25729
# Poissons Ratio (z) = 0.11190 0.23343
#
# Static dielectric constant tensor:
#      x y z
#    x 1.793100 -0.047820 0.008900 
#    y -0.047820 1.836650 -0.003540 
#    z 0.008900 -0.003540 1.760330 
# 
# From -- ./inp_files/192386.got.cif
#   From: 2010.05.17/outbox.cif.g08.bks.cpg/sg2_97_cif.got.tgz:192386.got - 2010.06.03 11:33:40.
