data_PCOD9110123
_publ_section_title
;
Structure prediction by ZEFSAII (Michael W. Deem and Ramdas Pophale) SiO2 
 PCOD9110123
Probable space group: P -1
;
_chemical_formula_sum "Si O2"
_cell_formula_units_Z 12
_cell_length_a 11.595476
_cell_length_b 14.803346
_cell_length_c 5.186305
_cell_angle_alpha 105.095791
_cell_angle_beta 103.993537
_cell_angle_gamma 35.099590
_cell_volume 493.559865
_symmetry_space_group_name_H-M "P -1"
_symmetry_group_IT_number 2
_symmetry_cell_setting 'triclinic'
loop_
_space_group_symop_operation_xyz
x,y,z
-x,-y,-z
loop_
_atom_site_type_symbol
_atom_site_label
_atom_site_fract_x
_atom_site_fract_y
_atom_site_fract_z
Si Si1 0.047399 0.196835 0.208274
Si Si2 0.729569 0.105881 0.138226
Si Si3 0.438164 0.645887 0.129213
Si Si4 0.894523 0.207362 0.634202
Si Si5 0.304175 0.372254 0.024410
Si Si6 0.929798 0.627924 0.373667
O O1 0.116168 0.254184 0.385194
O O2 0.909626 0.248542 0.404485
O O3 0.926845 0.261825 0.924555
O O4 0.225892 0.008793 0.120167
O O5 0.729397 0.200027 0.036230
O O6 0.502298 0.239366 0.209594
O O7 0.905891 0.980746 0.344436
O O8 0.619571 0.603447 0.139689
O O9 0.500000 0.500000 0.000000
O O10 0.314917 0.712981 0.377216
O O11 0.112850 0.527423 0.197794
O O12 0.250531 0.304765 0.832317
O O13 0.000000 0.500000 0.500000
#
# Coordination Sequence:
#
# PCOD9110123 Si02
#       6
#     2   2   2   2   2   2
#     4  10  24  41  73  93 137 177 222 269 336 392
#     4   8  22  41  66 102 129 181 217 273 335 400
#     4  10  20  41  69  99 137 172 223 273 334 403
#     4  10  22  45  66 103 135 178 213 276 335 397
#     4   9  23  42  62  99 129 180 222 274 334 392
#     4  11  24  42  66  95 137 176 226 282 330 395
#
# _framework density 24.313158000000001
#
# number of rings (size 3 to 8) (size 9 to 14) (size 15 to 20)
#    2.000    0.333    0.000    1.500    7.000    2.667 
#    3.000    3.333    0.000    0.000    0.000    0.000 
#    0.000    0.000    0.000    0.000    0.000    0.000 
#
# Total GULP energy -66936.667161 kJ/mol
# GULP energy per Si atom -5578.055597 kJ/mol
# Density = 2.425782 g / cm^3
# Si number density = 24.313158 Si / 1000 Ang^3
#
#
#
# Elastic Constant Matrix: (Units=GPa)
#
#
# Indices 1 2 3 4 5 6 
#
# 1 160.0646 54.0012 57.5076 13.8261 11.5457 -0.7087
# 2 54.0012 68.2173 18.1348 18.5694 19.4778 15.9862
# 3 57.5076 18.1348 113.5584 6.2935 24.7792 12.7029
# 4 13.8261 18.5694 6.2935 26.9257 11.7162 4.1033
# 5 11.5457 19.4778 24.7792 11.7162 62.0311 3.5818
# 6 -0.7087 15.9862 12.7029 4.1033 3.5818 47.1687
#
#
#
# Elastic Compliance Matrix: (Units=1/GPa)
#
#
# Indices 1 2 3 4 5 6 
#
# 1 0.011033 -0.009162 -0.005201 0.000041 0.002635 0.004468
# 2 -0.009162 0.027930 0.003043 -0.011462 -0.005595 -0.009001
# 3 -0.005201 0.003043 0.012440 0.000378 -0.004790 -0.004129
# 4 0.000041 -0.011462 0.000378 0.047315 -0.005501 0.000085
# 5 0.002635 -0.005595 -0.004790 -0.005501 0.020215 0.002169
# 6 0.004468 -0.009001 -0.004129 0.000085 0.002169 0.025258
#
#
# Mechanical properties :
#
#
# Convention : Reuss Voigt Hill
#
# Bulk Modulus (GPa) = 34.76840 66.79194 50.78017
# Shear Modulus (GPa) = 28.34138 41.37154 34.85646
#
# Velocity S-wave (km/s) = 3.41791 4.12953 3.79046
# Velocity P-wave (km/s) = 5.46877 7.09003 6.33151
#
# Compressibility (1/GPa) = 0.02876175
#
# Stress axis : x y z
#
# Youngs Moduli (GPa) = 90.63403 35.80386 80.38404
#
# Poissons Ratio (x) = 0.32804 0.41811
# Poissons Ratio (y) = 0.83039 -0.24457
# Poissons Ratio (z) = 0.47143 -0.10894
#
# Static dielectric constant tensor:
#      x y z
#    x 1.956060 -0.002740 0.059510 
#    y -0.002740 1.986150 0.011460 
#    z 0.059510 0.011460 2.048690 
# 
# From -- ./inp_files/41475.got.cif
#   From: 2010.05.17/outbox.cif.g08.bks.cpg/sg2_21_cif.got.tgz:41475.got - 2010.06.03 11:33:40.
