data_PCOD9110731
_publ_section_title
;
Structure prediction by ZEFSAII (Michael W. Deem and Ramdas Pophale) SiO2 
 PCOD9110731
Probable space group: P -1
;
_chemical_formula_sum "Si O2"
_cell_formula_units_Z 14
_cell_length_a 7.482647
_cell_length_b 5.056082
_cell_length_c 15.482175
_cell_angle_alpha 93.562337
_cell_angle_beta 123.586834
_cell_angle_gamma 92.042015
_cell_volume 485.273653
_symmetry_space_group_name_H-M "P -1"
_symmetry_group_IT_number 2
_symmetry_cell_setting 'triclinic'
loop_
_space_group_symop_operation_xyz
x,y,z
-x,-y,-z
loop_
_atom_site_type_symbol
_atom_site_label
_atom_site_fract_x
_atom_site_fract_y
_atom_site_fract_z
Si Si1 0.706074 0.752662 0.356132
Si Si2 0.353653 0.746813 0.553756
Si Si3 0.834044 0.350797 0.255305
Si Si4 0.193491 0.961203 0.340522
Si Si5 0.500000 0.000000 0.000000
Si Si6 0.000000 0.000000 0.000000
Si Si7 0.606078 0.992517 0.834732
Si Si8 0.891116 0.649186 0.119484
O O1 0.685976 0.545552 0.425022
O O2 0.851993 0.619847 0.321802
O O3 0.769016 0.041548 0.418767
O O4 0.485487 0.786183 0.244973
O O5 0.602054 0.851305 0.634797
O O6 0.293110 0.794260 0.440299
O O7 0.599646 0.216973 0.215191
O O8 0.816781 0.378581 0.147016
O O9 0.017897 0.163502 0.322807
O O10 0.078220 0.764656 0.236409
O O11 0.655797 0.073536 0.950368
O O12 0.325778 0.196445 0.925151
O O13 0.031844 0.274587 0.953351
O O14 0.829521 0.871871 0.875499
#
# Coordination Sequence:
#
# PCOD9110731 Si02
#       8
#     2   2   2   2   1   1   2   2
#     4  12  25  51  78 118 158 209 256 339 377 485
#     4  11  29  48  82 114 165 206 273 312 414 456
#     4  12  25  46  81 110 163 204 258 334 395 458
#     4  11  27  50  75 117 156 212 259 334 389 483
#     4  10  20  42  66 100 154 194 246 314 390 454
#     4  10  26  44  80 106 160 208 272 314 408 466
#     4  11  23  49  69 118 151 205 262 327 388 471
#     4  11  24  47  72 111 156 202 265 325 395 469
#
# _framework density 28.849702000000001
#
# number of rings (size 3 to 8) (size 9 to 14) (size 15 to 20)
#    0.000    0.857    4.286    0.857    6.000    4.571 
#    0.000    1.429    0.000    0.000    0.000    0.000 
#    0.000    0.000    0.000    0.000    0.000    0.000 
#
# Total GULP energy -78011.259173 kJ/mol
# GULP energy per Si atom -5572.232798 kJ/mol
# Density = 2.878404 g / cm^3
# Si number density = 28.849702 Si / 1000 Ang^3
#
#
#
# Elastic Constant Matrix: (Units=GPa)
#
#
# Indices 1 2 3 4 5 6 
#
# 1 63.4600 25.9424 6.1358 -16.9177 -5.3283 -1.4946
# 2 25.9424 98.5075 29.6548 -36.4730 -11.5291 -5.6850
# 3 6.1358 29.6548 156.5391 -42.3902 -3.0208 -1.9656
# 4 -16.9177 -36.4730 -42.3902 58.2254 18.0352 -18.7217
# 5 -5.3283 -11.5291 -3.0208 18.0352 67.3208 -2.1993
# 6 -1.4946 -5.6850 -1.9656 -18.7217 -2.1993 37.1091
#
#
#
# Elastic Compliance Matrix: (Units=1/GPa)
#
#
# Indices 1 2 3 4 5 6 
#
# 1 0.018404 -0.003070 0.001402 0.005576 -0.000398 0.003135
# 2 -0.003070 0.015768 0.000556 0.012284 -0.000531 0.008487
# 3 0.001402 0.000556 0.008803 0.009390 -0.001743 0.005242
# 4 0.005576 0.012284 0.009390 0.043521 -0.007906 0.024092
# 5 -0.000398 -0.000531 -0.001743 -0.007906 0.016667 -0.003190
# 6 0.003135 0.008487 0.005242 0.024092 -0.003190 0.040617
#
#
# Mechanical properties :
#
#
# Convention : Reuss Voigt Hill
#
# Bulk Modulus (GPa) = 24.53912 49.10807 36.82360
# Shear Modulus (GPa) = 31.33058 49.64928 40.48993
#
# Velocity S-wave (km/s) = 3.29902 4.15295 3.75037
# Velocity P-wave (km/s) = 4.79955 6.32890 5.61652
#
# Compressibility (1/GPa) = 0.04075125
#
# Stress axis : x y z
#
# Youngs Moduli (GPa) = 54.33490 63.41797 113.60059
#
# Poissons Ratio (x) = 0.19469 -0.15926
# Poissons Ratio (y) = 0.16680 -0.06315
# Poissons Ratio (z) = -0.07617 -0.03525
#
# Static dielectric constant tensor:
#      x y z
#    x 2.076320 0.005960 -0.350830 
#    y 0.005960 2.024260 -0.131530 
#    z -0.350830 -0.131530 2.005880 
# 
# From -- ./inp_files/552496.got.cif
#   From: 2010.05.17/outbox.cif.g08.bks.cpg/sg2_277_cif.got.tgz:552496.got - 2010.06.03 11:33:40.
