data_PCOD9110553
_publ_section_title
;
Structure prediction by ZEFSAII (Michael W. Deem and Ramdas Pophale) SiO2 
 PCOD9110553
Probable space group: P -1
;
_chemical_formula_sum "Si O2"
_cell_formula_units_Z 14
_cell_length_a 7.825143
_cell_length_b 10.280664
_cell_length_c 21.748988
_cell_angle_alpha 39.434707
_cell_angle_beta 35.697664
_cell_angle_gamma 46.051845
_cell_volume 637.886545
_symmetry_space_group_name_H-M "P -1"
_symmetry_group_IT_number 2
_symmetry_cell_setting 'triclinic'
loop_
_space_group_symop_operation_xyz
x,y,z
-x,-y,-z
loop_
_atom_site_type_symbol
_atom_site_label
_atom_site_fract_x
_atom_site_fract_y
_atom_site_fract_z
Si Si1 0.279875 0.918291 0.641520
Si Si2 0.369257 0.166107 0.307271
Si Si3 0.803541 0.518470 0.193932
Si Si4 0.810414 0.321018 0.635398
Si Si5 0.921113 0.398242 0.790147
Si Si6 0.358480 0.548173 0.955965
Si Si7 0.503538 0.276215 0.610950
O O1 0.465796 0.824071 0.680347
O O2 0.150606 0.729585 0.718004
O O3 0.500000 0.000000 0.500000
O O4 0.030377 0.109954 0.664685
O O5 0.097113 0.359595 0.313315
O O6 0.574527 0.232471 0.168135
O O7 0.330569 0.930346 0.395584
O O8 0.451247 0.604575 0.266198
O O9 0.934159 0.621407 0.177105
O O10 0.011467 0.545400 0.065466
O O11 0.654313 0.281757 0.631173
O O12 0.000000 0.500000 0.500000
O O13 0.572890 0.388776 0.905763
O O14 0.153764 0.261706 0.727515
O O15 0.500000 0.500000 0.000000
O O16 0.500000 0.500000 0.500000
#
# Coordination Sequence:
#
# PCOD9110553 Si02
#       7
#     2   2   2   2   2   2   2
#     4  12  25  38  62  89 128 170 199 253 313 373
#     4  10  23  41  62  95 122 159 213 252 312 361
#     4  10  20  42  64  86 122 163 206 249 315 357
#     4  11  23  40  58  91 127 163 201 251 308 370
#     4   8  20  40  62  91 115 158 204 261 299 356
#     4   8  18  42  67  88 121 156 210 265 298 364
#     4  11  23  37  65  92 124 162 207 256 309 367
#
# _framework density 21.947478
#
# number of rings (size 3 to 8) (size 9 to 14) (size 15 to 20)
#    0.857    1.143    1.429    1.714    4.000    2.286 
#    2.571    2.857    0.000    0.000    0.000    0.000 
#    0.000    0.000    0.000    0.000    0.000    0.000 
#
# Total GULP energy -78035.454650 kJ/mol
# GULP energy per Si atom -5573.961046 kJ/mol
# Density = 2.189752 g / cm^3
# Si number density = 21.947478 Si / 1000 Ang^3
#
#
#
# Elastic Constant Matrix: (Units=GPa)
#
#
# Indices 1 2 3 4 5 6 
#
# 1 52.2502 -5.1902 1.2584 5.4291 13.6110 -0.8502
# 2 -5.1902 118.4406 24.1487 26.5124 -4.6515 -8.8344
# 3 1.2584 24.1487 93.1227 22.3735 6.6377 -6.7703
# 4 5.4291 26.5124 22.3735 40.2004 -8.4592 -6.6292
# 5 13.6110 -4.6515 6.6377 -8.4592 27.7429 -4.4422
# 6 -0.8502 -8.8344 -6.7703 -6.6292 -4.4422 15.5403
#
#
#
# Elastic Compliance Matrix: (Units=1/GPa)
#
#
# Indices 1 2 3 4 5 6 
#
# 1 0.024465 0.001805 0.002400 -0.010174 -0.016270 -0.005581
# 2 0.001805 0.010284 -0.001005 -0.006067 -0.000318 0.002828
# 3 0.002400 -0.001005 0.013585 -0.008833 -0.007352 -0.000392
# 4 -0.010174 -0.006067 -0.008833 0.042435 0.021659 0.016439
# 5 -0.016270 -0.000318 -0.007352 0.021659 0.055681 0.020882
# 6 -0.005581 0.002828 -0.000392 0.016439 0.020882 0.078462
#
#
# Mechanical properties :
#
#
# Convention : Reuss Voigt Hill
#
# Bulk Modulus (GPa) = 18.27098 33.80526 26.03812
# Shear Modulus (GPa) = 21.11875 32.93649 27.02762
#
# Velocity S-wave (km/s) = 3.10537 3.87808 3.51304
# Velocity P-wave (km/s) = 4.60442 5.95726 5.32398
#
# Compressibility (1/GPa) = 0.05473160
#
# Stress axis : x y z
#
# Youngs Moduli (GPa) = 40.87515 97.24208 73.61268
#
# Poissons Ratio (x) = -0.17552 -0.17664
# Poissons Ratio (y) = -0.07378 0.07400
# Poissons Ratio (z) = -0.09809 0.09775
#
# Static dielectric constant tensor:
#      x y z
#    x 1.829640 -0.007680 -0.032390 
#    y -0.007680 1.878030 0.049920 
#    z -0.032390 0.049920 1.846500 
# 
# From -- ./inp_files/304941.got.cif
#   From: 2010.05.17/outbox.cif.g08.bks.cpg/sg2_153_cif.got.tgz:304941.got - 2010.06.03 11:33:40.
