data_PCOD9110740
_publ_section_title
;
Structure prediction by ZEFSAII (Michael W. Deem and Ramdas Pophale) SiO2 
 PCOD9110740
Probable space group: P -1
;
_chemical_formula_sum "Si O2"
_cell_formula_units_Z 16
_cell_length_a 9.123125
_cell_length_b 21.546595
_cell_length_c 18.244434
_cell_angle_alpha 18.677758
_cell_angle_beta 137.884345
_cell_angle_gamma 129.779870
_cell_volume 736.466464
_symmetry_space_group_name_H-M "P -1"
_symmetry_group_IT_number 2
_symmetry_cell_setting 'triclinic'
loop_
_space_group_symop_operation_xyz
x,y,z
-x,-y,-z
loop_
_atom_site_type_symbol
_atom_site_label
_atom_site_fract_x
_atom_site_fract_y
_atom_site_fract_z
Si Si1 0.371125 0.824291 0.977131
Si Si2 0.113355 0.206665 0.181045
Si Si3 0.891671 0.473920 0.912196
Si Si4 0.886006 0.577125 0.450307
Si Si5 0.874822 0.912054 0.184455
Si Si6 0.652230 0.126314 0.242872
Si Si7 0.608476 0.821374 0.316061
Si Si8 0.837907 0.829829 0.924976
O O1 0.336583 0.960934 0.737738
O O2 0.154315 0.744875 0.991021
O O3 0.362634 0.965630 0.884398
O O4 0.612493 0.655353 0.251761
O O5 0.225386 0.157242 0.199071
O O6 0.202198 0.017575 0.480134
O O7 0.102182 0.392784 0.022808
O O8 0.715278 0.659897 0.598208
O O9 0.753450 0.312607 0.059258
O O10 0.000000 0.500000 0.000000
O O11 0.942648 0.770003 0.295923
O O12 0.000000 0.500000 0.500000
O O13 0.973063 0.383073 0.751699
O O14 0.758894 0.783792 0.339988
O O15 0.070712 0.988912 0.211015
O O16 0.665659 0.116992 0.861852
O O17 0.389869 0.179241 0.108319
#
# Coordination Sequence:
#
# PCOD9110740 Si02
#       8
#     2   2   2   2   2   2   2   2
#     4  10  20  42  70  92 136 171 222 284 318 402
#     4  11  23  42  67  95 130 179 230 273 335 398
#     4  11  23  41  71  97 129 175 229 288 325 400
#     4  11  24  44  64 102 139 175 226 273 345 406
#     4  10  24  41  70  99 140 176 220 282 335 407
#     4  11  24  43  63 100 135 178 224 277 341 396
#     4  10  20  42  66 105 127 169 235 273 331 392
#     4  12  25  44  69  98 143 183 213 281 349 408
#
# _framework density 21.725360999999999
#
# number of rings (size 3 to 8) (size 9 to 14) (size 15 to 20)
#    0.000    1.250    2.500    4.125    3.500    1.000 
#    4.500    0.625    0.000    0.000    0.000    0.000 
#    0.000    0.000    0.000    0.000    0.000    0.000 
#
# Total GULP energy -89230.835515 kJ/mol
# GULP energy per Si atom -5576.927220 kJ/mol
# Density = 2.167591 g / cm^3
# Si number density = 21.725361 Si / 1000 Ang^3
#
#
#
# Elastic Constant Matrix: (Units=GPa)
#
#
# Indices 1 2 3 4 5 6 
#
# 1 76.6210 33.6928 15.2351 -3.0462 6.1002 -22.3168
# 2 33.6928 105.0261 23.2863 -0.4045 4.3928 -19.6608
# 3 15.2351 23.2863 110.3455 17.6606 -9.6769 -5.9898
# 4 -3.0462 -0.4045 17.6606 34.0922 -11.7695 1.2891
# 5 6.1002 4.3928 -9.6769 -11.7695 27.1413 5.9920
# 6 -22.3168 -19.6608 -5.9898 1.2891 5.9920 39.6046
#
#
#
# Elastic Compliance Matrix: (Units=1/GPa)
#
#
# Indices 1 2 3 4 5 6 
#
# 1 0.018074 -0.003426 -0.001824 0.000049 -0.006154 0.009137
# 2 -0.003426 0.011973 -0.002041 -0.000277 -0.002933 0.004158
# 3 -0.001824 -0.002041 0.010708 -0.004804 0.002621 -0.000662
# 4 0.000049 -0.000277 -0.004804 0.037332 0.015479 -0.004393
# 5 -0.006154 -0.002933 0.002621 0.015479 0.049100 -0.012460
# 6 0.009137 0.004158 -0.000662 -0.004393 -0.012460 0.034390
#
#
# Mechanical properties :
#
#
# Convention : Reuss Voigt Hill
#
# Bulk Modulus (GPa) = 38.20721 48.49123 43.34922
# Shear Modulus (GPa) = 27.04432 34.81953 30.93192
#
# Velocity S-wave (km/s) = 3.53204 4.00773 3.77738
# Velocity P-wave (km/s) = 5.85306 6.61698 6.24671
#
# Compressibility (1/GPa) = 0.02617307
#
# Stress axis : x y z
#
# Youngs Moduli (GPa) = 55.32957 83.52262 93.38968
#
# Poissons Ratio (x) = 0.28611 0.17034
# Poissons Ratio (y) = 0.18953 0.19061
# Poissons Ratio (z) = 0.10092 0.17047
#
# Static dielectric constant tensor:
#      x y z
#    x 1.870040 -0.128810 0.029530 
#    y -0.128810 2.009240 -0.041970 
#    z 0.029530 -0.041970 1.812960 
# 
# From -- ./inp_files/428848.got.cif
#   From: 2010.05.17/outbox.cif.g08.bks.cpg/sg2_215_cif.got.tgz:428848.got - 2010.06.03 11:33:40.
