data_PCOD9110416
_publ_section_title
;
Structure prediction by ZEFSAII (Michael W. Deem and Ramdas Pophale) SiO2 
 PCOD9110416
Probable space group: P -1
;
_chemical_formula_sum "Si O2"
_cell_formula_units_Z 15
_cell_length_a 9.167610
_cell_length_b 5.227806
_cell_length_c 14.864044
_cell_angle_alpha 67.567032
_cell_angle_beta 74.387500
_cell_angle_gamma 89.877104
_cell_volume 630.119266
_symmetry_space_group_name_H-M "P -1"
_symmetry_group_IT_number 2
_symmetry_cell_setting 'triclinic'
loop_
_space_group_symop_operation_xyz
x,y,z
-x,-y,-z
loop_
_atom_site_type_symbol
_atom_site_label
_atom_site_fract_x
_atom_site_fract_y
_atom_site_fract_z
Si Si1 0.047986 0.323045 0.432853
Si Si2 0.683241 0.697906 0.014021
Si Si3 0.117036 0.921985 0.832383
Si Si4 0.964228 0.479619 0.779537
Si Si5 0.368346 0.678143 0.102832
Si Si6 0.000000 0.000000 0.000000
Si Si7 0.608317 0.644540 0.586749
Si Si8 0.410883 0.089608 0.640251
O O1 0.972793 0.432850 0.340653
O O2 0.229584 0.354716 0.394991
O O3 0.000000 0.500000 0.500000
O O4 0.000000 0.000000 0.500000
O O5 0.537148 0.624921 0.114594
O O6 0.847206 0.774660 0.020591
O O7 0.657947 0.471913 0.969442
O O8 0.644479 0.992645 0.938814
O O9 0.272039 0.019698 0.742001
O O10 0.019446 0.184180 0.840529
O O11 0.021419 0.715360 0.808847
O O12 0.120211 0.821710 0.946693
O O13 0.783836 0.446841 0.805276
O O14 0.529508 0.333415 0.627813
O O15 0.639497 0.786522 0.463638
O O16 0.495860 0.825268 0.634615
#
# Coordination Sequence:
#
# PCOD9110416 Si02
#       8
#     2   2   2   2   2   1   2   2
#     4  12  25  41  67 100 132 172 223 272 328 410
#     4  10  22  38  66  88 131 163 222 272 330 392
#     4  12  26  41  67  98 133 177 225 283 341 397
#     4  12  23  43  66  93 135 174 223 277 336 406
#     4  10  20  42  61  92 122 179 209 266 341 395
#     4  12  24  44  66 102 132 176 232 290 328 408
#     4  10  21  40  65  92 127 169 208 270 333 400
#     4  10  21  40  63  92 130 165 211 267 340 397
#
# _framework density 23.805015999999998
#
# number of rings (size 3 to 8) (size 9 to 14) (size 15 to 20)
#    0.000    1.067    2.667    4.000    0.000    5.333 
#    0.000    4.000    0.000    0.000    0.000    0.000 
#    0.000    0.000    0.000    0.000    0.000    0.000 
#
# Total GULP energy -83683.246413 kJ/mol
# GULP energy per Si atom -5578.883094 kJ/mol
# Density = 2.375084 g / cm^3
# Si number density = 23.805016 Si / 1000 Ang^3
#
#
#
# Elastic Constant Matrix: (Units=GPa)
#
#
# Indices 1 2 3 4 5 6 
#
# 1 103.2960 18.8867 41.6766 -9.1952 -14.2898 23.3454
# 2 18.8867 125.3936 29.8633 12.1506 10.9686 21.1564
# 3 41.6766 29.8633 82.0029 23.0357 -25.9553 3.2642
# 4 -9.1952 12.1506 23.0357 28.7831 0.1146 -4.0565
# 5 -14.2898 10.9686 -25.9553 0.1146 37.2098 -2.9765
# 6 23.3454 21.1564 3.2642 -4.0565 -2.9765 19.7795
#
#
#
# Elastic Compliance Matrix: (Units=1/GPa)
#
#
# Indices 1 2 3 4 5 6 
#
# 1 0.023824 0.005116 -0.020943 0.018336 -0.009245 -0.027765
# 2 0.005116 0.014221 -0.011083 0.001610 -0.011630 -0.020841
# 3 -0.020943 -0.011083 0.044291 -0.033824 0.028351 0.026593
# 4 0.018336 0.001610 -0.033824 0.066088 -0.017782 -0.006904
# 5 -0.009245 -0.011630 0.028351 -0.017782 0.048367 0.022305
# 6 -0.027765 -0.020841 0.026593 -0.006904 0.022305 0.103171
#
#
# Mechanical properties :
#
#
# Convention : Reuss Voigt Hill
#
# Bulk Modulus (GPa) = 35.06777 54.61618 44.84197
# Shear Modulus (GPa) = 13.76316 31.83886 22.80101
#
# Velocity S-wave (km/s) = 2.40711 3.66113 3.09823
# Velocity P-wave (km/s) = 4.74223 6.39256 5.62821
#
# Compressibility (1/GPa) = 0.02851622
#
# Stress axis : x y z
#
# Youngs Moduli (GPa) = 41.97515 70.31656 22.57786
#
# Poissons Ratio (x) = -0.35973 0.47284
# Poissons Ratio (y) = -0.21474 0.25023
# Poissons Ratio (z) = 0.87908 0.77932
#
# Static dielectric constant tensor:
#      x y z
#    x 1.834610 -0.013050 -0.175150 
#    y -0.013050 1.874300 0.019110 
#    z -0.175150 0.019110 1.741640 
# 
# From -- ./inp_files/358240.got.cif
#   From: 2010.05.17/outbox.cif.g08.bks.cpg/sg2_180_cif.got.tgz:358240.got - 2010.06.03 11:33:40.
