data_PCOD9110999
_publ_section_title
;
Structure prediction by ZEFSAII (Michael W. Deem and Ramdas Pophale) SiO2 
 PCOD9110999
Probable space group: P -1
;
_chemical_formula_sum "Si O2"
_cell_formula_units_Z 16
_cell_length_a 11.843029
_cell_length_b 13.790783
_cell_length_c 9.278630
_cell_angle_alpha 116.436909
_cell_angle_beta 147.398657
_cell_angle_gamma 65.961784
_cell_volume 729.475006
_symmetry_space_group_name_H-M "P -1"
_symmetry_group_IT_number 2
_symmetry_cell_setting 'triclinic'
loop_
_space_group_symop_operation_xyz
x,y,z
-x,-y,-z
loop_
_atom_site_type_symbol
_atom_site_label
_atom_site_fract_x
_atom_site_fract_y
_atom_site_fract_z
Si Si1 0.167537 0.608596 0.124047
Si Si2 0.547659 0.098957 0.220954
Si Si3 0.145652 0.923465 0.205948
Si Si4 0.580653 0.253455 0.741642
Si Si5 0.256371 0.600326 0.768019
Si Si6 0.188568 0.419845 0.801426
Si Si7 0.808884 0.773708 0.884310
Si Si8 0.411262 0.670075 0.689336
O O1 0.267936 0.682525 0.158386
O O2 0.351386 0.607293 0.439318
O O3 0.119349 0.503767 0.911060
O O4 0.959130 0.666438 0.011580
O O5 0.703871 0.049513 0.480849
O O6 0.343052 0.161565 0.120548
O O7 0.649414 0.202038 0.319951
O O8 0.500000 0.000000 0.000000
O O9 0.314092 0.866207 0.238193
O O10 0.975721 0.851514 0.051715
O O11 0.000000 0.000000 0.000000
O O12 0.349599 0.260378 0.433560
O O13 0.608834 0.307193 0.959911
O O14 0.286994 0.493498 0.830092
O O15 0.304805 0.601874 0.653586
O O16 0.005874 0.629679 0.519225
O O17 0.350736 0.337716 0.002595
#
# Coordination Sequence:
#
# PCOD9110999 Si02
#       8
#     2   2   2   2   2   2   2   2
#     4  10  21  41  65  95 124 171 221 259 319 395
#     4  11  26  44  65 101 133 169 222 282 335 389
#     4  10  22  41  64  95 123 168 228 270 330 401
#     4   9  20  40  63  89 127 169 212 263 321 388
#     4  10  24  40  61  97 135 168 223 257 334 385
#     4  10  24  42  63  96 135 175 216 270 321 392
#     4  10  20  42  68  84 130 168 215 268 324 385
#     4  12  23  41  65  95 134 171 223 269 325 389
#
# _framework density 21.933582000000001
#
# number of rings (size 3 to 8) (size 9 to 14) (size 15 to 20)
#    0.000    1.750    3.750    0.750    1.750   12.000 
#    0.000    0.000    0.000    0.000    0.000    0.000 
#    0.000    0.000    0.000    0.000    0.000    0.000 
#
# Total GULP energy -89147.353507 kJ/mol
# GULP energy per Si atom -5571.709594 kJ/mol
# Density = 2.188366 g / cm^3
# Si number density = 21.933582 Si / 1000 Ang^3
#
#
#
# Elastic Constant Matrix: (Units=GPa)
#
#
# Indices 1 2 3 4 5 6 
#
# 1 51.7865 19.4996 10.3697 -1.1725 -12.7237 1.8517
# 2 19.4996 63.6072 49.2981 -13.7004 -22.1271 -1.8191
# 3 10.3697 49.2981 130.9247 -6.1457 -15.1319 -14.2102
# 4 -1.1725 -13.7004 -6.1457 41.6358 3.2273 -6.4976
# 5 -12.7237 -22.1271 -15.1319 3.2273 36.5859 -0.6624
# 6 1.8517 -1.8191 -14.2102 -6.4976 -0.6624 18.0248
#
#
#
# Elastic Compliance Matrix: (Units=1/GPa)
#
#
# Indices 1 2 3 4 5 6 
#
# 1 0.022785 -0.006619 0.000756 -0.002241 0.004376 -0.003060
# 2 -0.006619 0.030711 -0.009381 0.007554 0.011718 -0.000463
# 3 0.000756 -0.009381 0.011993 0.000045 -0.000302 0.008436
# 4 -0.002241 0.007554 0.000045 0.028077 0.001534 0.011205
# 5 0.004376 0.011718 -0.000302 0.001534 0.035724 0.002361
# 6 -0.003060 -0.000463 0.008436 0.011205 0.002361 0.066523
#
#
# Mechanical properties :
#
#
# Convention : Reuss Voigt Hill
#
# Bulk Modulus (GPa) = 28.57026 44.96145 36.76586
# Shear Modulus (GPa) = 21.01116 30.39269 25.70193
#
# Velocity S-wave (km/s) = 3.09843 3.72650 3.42688
# Velocity P-wave (km/s) = 5.08472 6.24973 5.69708
#
# Compressibility (1/GPa) = 0.03500143
#
# Stress axis : x y z
#
# Youngs Moduli (GPa) = 43.88898 32.56119 83.38026
#
# Poissons Ratio (x) = 0.21552 -0.06304
# Poissons Ratio (y) = 0.29050 0.78220
# Poissons Ratio (z) = -0.03318 0.30546
#
# Static dielectric constant tensor:
#      x y z
#    x 1.848510 -0.022020 0.042760 
#    y -0.022020 1.870270 -0.012620 
#    z 0.042760 -0.012620 1.800790 
# 
# From -- ./inp_files/135092.got.cif
#   From: 2010.05.17/outbox.cif.g08.bks.cpg/sg2_68_cif.got.tgz:135092.got - 2010.06.03 11:33:40.
