data_PCOD9110083
_publ_section_title
;
Structure prediction by ZEFSAII (Michael W. Deem and Ramdas Pophale) SiO2 
 PCOD9110083
Probable space group: P -1
;
_chemical_formula_sum "Si O2"
_cell_formula_units_Z 16
_cell_length_a 24.038935
_cell_length_b 9.388607
_cell_length_c 9.702662
_cell_angle_alpha 135.027825
_cell_angle_beta 41.836416
_cell_angle_gamma 151.578297
_cell_volume 685.730507
_symmetry_space_group_name_H-M "P -1"
_symmetry_group_IT_number 2
_symmetry_cell_setting 'triclinic'
loop_
_space_group_symop_operation_xyz
x,y,z
-x,-y,-z
loop_
_atom_site_type_symbol
_atom_site_label
_atom_site_fract_x
_atom_site_fract_y
_atom_site_fract_z
Si Si1 0.884346 0.051261 0.698329
Si Si2 0.520922 0.547480 0.156579
Si Si3 0.145624 0.698815 0.677818
Si Si4 0.250046 0.794794 0.834406
Si Si5 0.393242 0.639523 0.938400
Si Si6 0.885592 0.893339 0.887760
Si Si7 0.850625 0.787086 0.302207
Si Si8 0.677166 0.761714 0.452954
O O1 0.021340 0.380657 0.625704
O O2 0.900232 0.941652 0.728950
O O3 0.822758 0.825561 0.531296
O O4 0.805094 0.105565 0.923268
O O5 0.595113 0.488259 0.039157
O O6 0.400880 0.339702 0.334917
O O7 0.607763 0.899764 0.257934
O O8 0.500000 0.500000 0.000000
O O9 0.175837 0.636200 0.719677
O O10 0.266287 0.940549 0.523247
O O11 0.119024 0.880246 0.901708
O O12 0.226190 0.558072 0.808176
O O13 0.402099 0.511842 0.699050
O O14 0.248899 0.450675 0.071803
O O15 0.500000 0.000000 0.000000
O O16 0.002238 0.999409 0.819355
O O17 0.799362 0.853669 0.334542
#
# Coordination Sequence:
#
# PCOD9110083 Si02
#       8
#     2   2   2   2   2   2   2   2
#     4  11  20  41  68 106 136 184 244 284 358 425
#     4  12  26  49  73  98 145 198 242 293 353 436
#     4  10  20  41  69  94 140 189 226 296 367 411
#     4  11  22  43  70  96 141 190 238 296 345 429
#     4  11  26  47  74 106 143 191 237 297 365 425
#     4  10  20  42  68 100 142 186 233 294 355 426
#     4  12  25  39  70 109 139 184 244 292 356 428
#     4  11  27  46  66 110 147 185 237 298 370 421
#
# _framework density 23.332781000000001
#
# number of rings (size 3 to 8) (size 9 to 14) (size 15 to 20)
#    0.000    1.000    6.250    2.250    1.750    5.000 
#    0.000    0.000    0.000    0.000    0.000    0.000 
#    0.000    0.000    0.000    0.000    0.000    0.000 
#
# Total GULP energy -89540.484144 kJ/mol
# GULP energy per Si atom -5596.280259 kJ/mol
# Density = 2.327967 g / cm^3
# Si number density = 23.332781 Si / 1000 Ang^3
#
#
#
# Elastic Constant Matrix: (Units=GPa)
#
#
# Indices 1 2 3 4 5 6 
#
# 1 71.0660 -10.3976 12.5214 0.5824 17.3326 -1.6928
# 2 -10.3976 106.3576 25.3579 -10.8906 -6.5263 4.6242
# 3 12.5214 25.3579 81.8906 -7.5289 18.2188 -8.5201
# 4 0.5824 -10.8906 -7.5289 37.5364 -1.7535 -0.7441
# 5 17.3326 -6.5263 18.2188 -1.7535 28.4090 -3.1430
# 6 -1.6928 4.6242 -8.5201 -0.7441 -3.1430 20.5190
#
#
#
# Elastic Compliance Matrix: (Units=1/GPa)
#
#
# Indices 1 2 3 4 5 6 
#
# 1 0.016707 0.001272 -0.000991 -0.000543 -0.009385 -0.000777
# 2 0.001272 0.011409 -0.004946 0.002447 0.004759 -0.003703
# 3 -0.000991 -0.004946 0.017102 0.001642 -0.010672 0.006559
# 4 -0.000543 0.002447 0.001642 0.027795 0.001706 0.001355
# 5 -0.009385 0.004759 -0.010672 0.001706 0.049113 0.001307
# 6 -0.000777 -0.003703 0.006559 0.001355 0.001307 0.052479
#
#
# Mechanical properties :
#
#
# Convention : Reuss Voigt Hill
#
# Bulk Modulus (GPa) = 27.86492 34.91970 31.39231
# Shear Modulus (GPa) = 25.52327 32.74836 29.13582
#
# Velocity S-wave (km/s) = 3.31097 3.75044 3.53754
# Velocity P-wave (km/s) = 5.15607 5.80972 5.49263
#
# Compressibility (1/GPa) = 0.03588742
#
# Stress axis : x y z
#
# Youngs Moduli (GPa) = 59.85518 87.64628 58.47119
#
# Poissons Ratio (x) = -0.11149 0.05796
# Poissons Ratio (y) = -0.07614 0.28922
# Poissons Ratio (z) = 0.05934 0.43353
#
# Static dielectric constant tensor:
#      x y z
#    x 1.858750 0.043030 -0.032590 
#    y 0.043030 1.862120 -0.051900 
#    z -0.032590 -0.051900 1.943760 
# 
# From -- ./inp_files/352414.got.cif
#   From: 2010.05.17/outbox.cif.g08.bks.cpg/sg2_177_cif.got.tgz:352414.got - 2010.06.03 11:33:40.
