data_PCOD9110824
_publ_section_title
;
Structure prediction by ZEFSAII (Michael W. Deem and Ramdas Pophale) SiO2 
 PCOD9110824
Probable space group: P -1
;
_chemical_formula_sum "Si O2"
_cell_formula_units_Z 12
_cell_length_a 10.724428
_cell_length_b 13.215302
_cell_length_c 6.779697
_cell_angle_alpha 102.155817
_cell_angle_beta 88.041290
_cell_angle_gamma 33.289732
_cell_volume 474.359844
_symmetry_space_group_name_H-M "P -1"
_symmetry_group_IT_number 2
_symmetry_cell_setting 'triclinic'
loop_
_space_group_symop_operation_xyz
x,y,z
-x,-y,-z
loop_
_atom_site_type_symbol
_atom_site_label
_atom_site_fract_x
_atom_site_fract_y
_atom_site_fract_z
Si Si1 0.888396 0.211571 0.832101
Si Si2 0.431130 0.792999 0.717600
Si Si3 0.531802 0.551070 0.329555
Si Si4 0.836257 0.471407 0.846298
Si Si5 0.537016 0.958747 0.710550
Si Si6 0.905020 0.645599 0.845128
O O1 0.712883 0.273168 0.721952
O O2 0.946789 0.277984 0.739615
O O3 0.737513 0.356792 0.092995
O O4 0.142050 0.978620 0.788514
O O5 0.566311 0.636274 0.469397
O O6 0.557514 0.665670 0.861356
O O7 0.473225 0.885028 0.732098
O O8 0.500000 0.500000 0.500000
O O9 0.944421 0.495827 0.741565
O O10 0.882951 0.465369 0.069355
O O11 0.807816 0.780154 0.719652
O O12 0.500000 0.000000 0.500000
O O13 0.337362 0.171089 0.923387
#
# Coordination Sequence:
#
# PCOD9110824 Si02
#       6
#     2   2   2   2   2   2
#     4  11  24  46  69  97 134 175 223 282 341 391
#     4  11  23  45  71 100 134 179 226 274 334 401
#     4  11  25  47  68  98 133 171 229 284 337 398
#     4  10  20  42  66  94 136 178 219 270 332 395
#     4  10  21  39  65 101 135 178 221 263 333 397
#     4   9  20  40  60  94 141 172 217 276 320 395
#
# _framework density 25.297252
#
# number of rings (size 3 to 8) (size 9 to 14) (size 15 to 20)
#    0.000    1.667    3.333    0.500    2.333    0.667 
#    9.000    2.500    0.000    0.000    0.000    0.000 
#    0.000    0.000    0.000    0.000    0.000    0.000 
#
# Total GULP energy -67101.245883 kJ/mol
# GULP energy per Si atom -5591.770490 kJ/mol
# Density = 2.523967 g / cm^3
# Si number density = 25.297252 Si / 1000 Ang^3
#
#
#
# Elastic Constant Matrix: (Units=GPa)
#
#
# Indices 1 2 3 4 5 6 
#
# 1 40.3882 1.3951 18.1677 -6.4728 19.8334 5.6220
# 2 1.3951 199.7998 71.9973 -40.5237 7.3025 -35.7098
# 3 18.1677 71.9973 147.0396 -18.0769 18.7463 -20.5521
# 4 -6.4728 -40.5237 -18.0769 42.1850 2.6869 12.1974
# 5 19.8334 7.3025 18.7463 2.6869 30.7952 -2.5940
# 6 5.6220 -35.7098 -20.5521 12.1974 -2.5940 36.4834
#
#
#
# Elastic Compliance Matrix: (Units=1/GPa)
#
#
# Indices 1 2 3 4 5 6 
#
# 1 0.044507 0.002244 -0.002986 0.013323 -0.029628 -0.012905
# 2 0.002244 0.007863 -0.002646 0.005788 -0.001885 0.003791
# 3 -0.002986 -0.002646 0.009263 0.000354 -0.002886 0.002765
# 4 0.013323 0.005788 0.000354 0.034910 -0.013960 -0.008852
# 5 -0.029628 -0.001885 -0.002886 -0.013960 0.055796 0.009729
# 6 -0.012905 0.003791 0.002765 -0.008852 0.009729 0.038318
#
#
# Mechanical properties :
#
#
# Convention : Reuss Voigt Hill
#
# Bulk Modulus (GPa) = 18.22922 63.37198 40.80060
# Shear Modulus (GPa) = 23.17836 41.60388 32.39112
#
# Velocity S-wave (km/s) = 3.03023 4.05977 3.58218
# Velocity P-wave (km/s) = 4.41188 6.86155 5.76826
#
# Compressibility (1/GPa) = 0.05485699
#
# Stress axis : x y z
#
# Youngs Moduli (GPa) = 22.46862 127.17678 107.95287
#
# Poissons Ratio (x) = -0.28538 0.32238
# Poissons Ratio (y) = -0.05042 0.28560
# Poissons Ratio (z) = 0.06710 0.33646
#
# Static dielectric constant tensor:
#      x y z
#    x 2.080670 -0.038290 -0.045740 
#    y -0.038290 2.024510 0.011400 
#    z -0.045740 0.011400 1.976700 
# 
# From -- ./inp_files/78148.got.cif
#   From: 2010.05.17/outbox.cif.g08.bks.cpg/sg2_40_cif.got.tgz:78148.got - 2010.06.03 11:33:40.
