data_PCOD9110463
_publ_section_title
;
Structure prediction by ZEFSAII (Michael W. Deem and Ramdas Pophale) SiO2 
 PCOD9110463
Probable space group: P -1
;
_chemical_formula_sum "Si O2"
_cell_formula_units_Z 14
_cell_length_a 5.204720
_cell_length_b 20.643585
_cell_length_c 4.982825
_cell_angle_alpha 73.185152
_cell_angle_beta 87.610259
_cell_angle_gamma 88.254132
_cell_volume 511.944338
_symmetry_space_group_name_H-M "P -1"
_symmetry_group_IT_number 2
_symmetry_cell_setting 'triclinic'
loop_
_space_group_symop_operation_xyz
x,y,z
-x,-y,-z
loop_
_atom_site_type_symbol
_atom_site_label
_atom_site_fract_x
_atom_site_fract_y
_atom_site_fract_z
Si Si1 0.567052 0.162298 0.807139
Si Si2 0.909031 0.059347 0.126079
Si Si3 0.828441 0.435862 0.623183
Si Si4 0.547297 0.387146 0.155035
Si Si5 0.218897 0.277174 0.476556
Si Si6 0.070596 0.700496 0.032156
Si Si7 0.597442 0.911003 0.612806
O O1 0.849760 0.128079 0.876275
O O2 0.462664 0.233321 0.616381
O O3 0.463805 0.155648 0.122499
O O4 0.442832 0.108321 0.669612
O O5 0.636536 0.044000 0.299313
O O6 0.120579 0.070625 0.328600
O O7 0.000000 0.000000 0.000000
O O8 0.007849 0.377981 0.825975
O O9 0.000000 0.500000 0.500000
O O10 0.715419 0.408844 0.379608
O O11 0.596959 0.441851 0.849905
O O12 0.295198 0.355863 0.335404
O O13 0.649205 0.318783 0.070730
O O14 0.995599 0.269709 0.715620
O O15 0.083269 0.258278 0.230233
#
# Coordination Sequence:
#
# PCOD9110463 Si02
#       7
#     2   2   2   2   2   2   2
#     4  10  26  42  65 101 135 181 219 301 333 425
#     4  10  24  46  71 102 140 182 235 288 347 414
#     4  10  20  42  62  90 129 168 213 273 336 394
#     4  10  22  39  64  91 122 173 206 274 328 395
#     4  12  22  44  62  94 130 165 231 261 347 404
#     4  10  22  39  64  89 123 169 204 276 323 398
#     4  10  24  44  68 102 135 181 234 278 362 403
#
# _framework density 27.346720999999999
#
# number of rings (size 3 to 8) (size 9 to 14) (size 15 to 20)
#    1.714    0.000    1.429    2.571    2.000    2.286 
#    5.143    4.286    0.000    0.000    0.000    0.000 
#    0.000    0.000    0.000    0.000    0.000    0.000 
#
# Total GULP energy -78132.609368 kJ/mol
# GULP energy per Si atom -5580.900669 kJ/mol
# Density = 2.728448 g / cm^3
# Si number density = 27.346721 Si / 1000 Ang^3
#
#
#
# Elastic Constant Matrix: (Units=GPa)
#
#
# Indices 1 2 3 4 5 6 
#
# 1 86.5205 19.2000 24.3234 15.9182 10.4197 -15.6111
# 2 19.2000 78.8929 23.2356 8.0329 8.4759 -10.1396
# 3 24.3234 23.2356 132.5965 17.1606 8.7478 -13.9020
# 4 15.9182 8.0329 17.1606 54.3707 -2.0148 7.7977
# 5 10.4197 8.4759 8.7478 -2.0148 50.4164 3.7670
# 6 -15.6111 -10.1396 -13.9020 7.7977 3.7670 32.7770
#
#
#
# Elastic Compliance Matrix: (Units=1/GPa)
#
#
# Indices 1 2 3 4 5 6 
#
# 1 0.014908 -0.001482 -0.000737 -0.005185 -0.003506 0.007965
# 2 -0.001482 0.014386 -0.001461 -0.001861 -0.002218 0.003822
# 3 -0.000737 -0.001461 0.008817 -0.002955 -0.001535 0.003816
# 4 -0.005185 -0.001861 -0.002955 0.022699 0.003560 -0.010108
# 5 -0.003506 -0.002218 -0.001535 0.003560 0.021816 -0.006361
# 6 0.007965 0.003822 0.003816 -0.010108 -0.006361 0.040240
#
#
# Mechanical properties :
#
#
# Convention : Reuss Voigt Hill
#
# Bulk Modulus (GPa) = 32.52231 47.94757 40.23494
# Shear Modulus (GPa) = 35.59316 42.92955 39.26136
#
# Velocity S-wave (km/s) = 3.61162 3.96640 3.79316
# Velocity P-wave (km/s) = 5.41388 6.20868 5.82485
#
# Compressibility (1/GPa) = 0.03074812
#
# Stress axis : x y z
#
# Youngs Moduli (GPa) = 67.07960 69.51439 113.42044
#
# Poissons Ratio (x) = 0.10305 0.08363
# Poissons Ratio (y) = 0.09944 0.16571
# Poissons Ratio (z) = 0.04946 0.10156
#
# Static dielectric constant tensor:
#      x y z
#    x 2.162680 -0.024100 -0.038510 
#    y -0.024100 2.224130 -0.070060 
#    z -0.038510 -0.070060 2.137140 
# 
# From -- ./inp_files/11947.got.cif
#   From: 2010.05.17/outbox.cif.g08.bks.cpg/sg2_6_cif.got.tgz:11947.got - 2010.06.03 11:33:40.
