data_PCOD9110166
_publ_section_title
;
Structure prediction by ZEFSAII (Michael W. Deem and Ramdas Pophale) SiO2 
 PCOD9110166
Probable space group: P -1
;
_chemical_formula_sum "Si O2"
_cell_formula_units_Z 14
_cell_length_a 5.089864
_cell_length_b 8.843672
_cell_length_c 26.525671
_cell_angle_alpha 147.490460
_cell_angle_beta 82.614547
_cell_angle_gamma 97.314622
_cell_volume 635.980029
_symmetry_space_group_name_H-M "P -1"
_symmetry_group_IT_number 2
_symmetry_cell_setting 'triclinic'
loop_
_space_group_symop_operation_xyz
x,y,z
-x,-y,-z
loop_
_atom_site_type_symbol
_atom_site_label
_atom_site_fract_x
_atom_site_fract_y
_atom_site_fract_z
Si Si1 0.016936 0.976259 0.197471
Si Si2 0.764330 0.911935 0.441238
Si Si3 0.319261 0.705125 0.031440
Si Si4 0.485595 0.664426 0.689618
Si Si5 0.276420 0.590285 0.491218
Si Si6 0.671023 0.052136 0.060842
Si Si7 0.056175 0.542175 0.892603
O O1 0.247184 0.216725 0.257372
O O2 0.727511 0.094391 0.244324
O O3 0.066421 0.793208 0.094458
O O4 0.072490 0.765551 0.183853
O O5 0.696263 0.577956 0.346129
O O6 0.500000 0.000000 0.500000
O O7 0.773003 0.092143 0.439874
O O8 0.000000 0.000000 0.500000
O O9 0.483785 0.994389 0.096019
O O10 0.500000 0.500000 0.000000
O O11 0.266134 0.560699 0.938288
O O12 0.611865 0.556742 0.603656
O O13 0.500000 0.500000 0.500000
O O14 0.000000 0.500000 0.500000
O O15 0.816740 0.353970 0.133815
O O16 0.500000 0.000000 0.000000
O O17 0.871970 0.798439 0.983954
#
# Coordination Sequence:
#
# PCOD9110166 Si02
#       7
#     2   2   2   2   2   2   2
#     4  12  24  38  64  91 136 164 210 280 325 362
#     4  10  20  41  70  94 126 166 207 249 308 401
#     4  11  21  37  62  89 117 170 233 264 303 382
#     4  11  25  42  62  99 132 166 205 261 342 379
#     4  11  22  42  74  98 123 166 215 255 305 403
#     4   9  20  37  60  83 113 158 241 261 313 368
#     4  10  21  38  61  85 121 175 222 265 314 379
#
# _framework density 22.013271
#
# number of rings (size 3 to 8) (size 9 to 14) (size 15 to 20)
#    0.000    1.429    1.429    5.571    4.000    0.000 
#    0.000    4.286    0.000    0.000    0.000    0.000 
#    0.000    0.000    0.000    0.000    0.000    0.000 
#
# Total GULP energy -77973.020037 kJ/mol
# GULP energy per Si atom -5569.501431 kJ/mol
# Density = 2.196317 g / cm^3
# Si number density = 22.013271 Si / 1000 Ang^3
#
#
#
# Elastic Constant Matrix: (Units=GPa)
#
#
# Indices 1 2 3 4 5 6 
#
# 1 132.3988 40.8867 15.9630 6.5056 -8.4081 1.0200
# 2 40.8867 165.1766 22.2527 25.0592 -9.0214 22.3005
# 3 15.9630 22.2527 62.1023 8.0877 -9.5132 2.1953
# 4 6.5056 25.0592 8.0877 33.6070 2.6310 0.5050
# 5 -8.4081 -9.0214 -9.5132 2.6310 36.9744 -3.3599
# 6 1.0200 22.3005 2.1953 0.5050 -3.3599 54.4487
#
#
#
# Elastic Compliance Matrix: (Units=1/GPa)
#
#
# Indices 1 2 3 4 5 6 
#
# 1 0.008377 -0.001943 -0.001312 0.000040 0.001160 0.000763
# 2 -0.001943 0.008009 -0.001377 -0.005317 0.001258 -0.003061
# 3 -0.001312 -0.001377 0.018022 -0.003392 0.004258 0.000156
# 4 0.000040 -0.005317 -0.003392 0.034854 -0.004485 0.001714
# 5 0.001160 0.001258 0.004258 -0.004485 0.029134 0.001131
# 6 0.000763 -0.003061 0.000156 0.001714 0.001131 0.019653
#
#
# Mechanical properties :
#
#
# Convention : Reuss Voigt Hill
#
# Bulk Modulus (GPa) = 39.76958 57.54250 48.65604
# Shear Modulus (GPa) = 36.84780 43.71104 40.27942
#
# Velocity S-wave (km/s) = 4.09576 4.46092 4.28223
# Velocity P-wave (km/s) = 6.36179 7.26152 6.82650
#
# Compressibility (1/GPa) = 0.02514485
#
# Stress axis : x y z
#
# Youngs Moduli (GPa) = 119.37763 124.85588 55.48908
#
# Poissons Ratio (x) = 0.24254 0.07278
# Poissons Ratio (y) = 0.23190 0.07642
# Poissons Ratio (z) = 0.15658 0.17194
#
# Static dielectric constant tensor:
#      x y z
#    x 1.943970 -0.071000 0.058880 
#    y -0.071000 2.121680 0.086500 
#    z 0.058880 0.086500 1.882930 
# 
# From -- ./inp_files/615203.got.cif
#   From: 2010.05.17/outbox.cif.g08.bks.cpg/sg2_308_cif.got.tgz:615203.got - 2010.06.03 11:33:40.
