data_PCOD9110366
_publ_section_title
;
Structure prediction by ZEFSAII (Michael W. Deem and Ramdas Pophale) SiO2 
 PCOD9110366
Probable space group: P -1
;
_chemical_formula_sum "Si O2"
_cell_formula_units_Z 16
_cell_length_a 13.644815
_cell_length_b 14.799993
_cell_length_c 8.809435
_cell_angle_alpha 39.609298
_cell_angle_beta 109.790907
_cell_angle_gamma 126.780228
_cell_volume 881.814407
_symmetry_space_group_name_H-M "P -1"
_symmetry_group_IT_number 2
_symmetry_cell_setting 'triclinic'
loop_
_space_group_symop_operation_xyz
x,y,z
-x,-y,-z
loop_
_atom_site_type_symbol
_atom_site_label
_atom_site_fract_x
_atom_site_fract_y
_atom_site_fract_z
Si Si1 0.352698 0.225067 0.245377
Si Si2 0.055980 0.156833 0.708767
Si Si3 0.381079 0.567674 0.741696
Si Si4 0.803159 0.478963 0.528510
Si Si5 0.885085 0.286403 0.026173
Si Si6 0.874461 0.953684 0.404761
Si Si7 0.806651 0.131117 0.511424
Si Si8 0.843999 0.443118 0.269553
O O1 0.482117 0.284290 0.320502
O O2 0.243276 0.159995 0.398163
O O3 0.303776 0.067690 0.308303
O O4 0.373404 0.392061 0.960275
O O5 0.142418 0.338949 0.601121
O O6 0.127750 0.133066 0.640833
O O7 0.935860 0.146420 0.589680
O O8 0.000000 0.000000 0.000000
O O9 0.333853 0.596885 0.519634
O O10 0.273236 0.541218 0.836078
O O11 0.882245 0.505287 0.382790
O O12 0.817718 0.357587 0.803779
O O13 0.821750 0.219513 0.242841
O O14 0.881074 0.127488 0.154846
O O15 0.032959 0.439076 0.918978
O O16 0.000000 0.000000 0.500000
O O17 0.795573 0.246174 0.479844
#
# Coordination Sequence:
#
# PCOD9110366 Si02
#       8
#     2   2   2   2   2   2   2   2
#     4  10  20  42  59  85 115 150 203 236 279 344
#     4  12  23  35  57  90 120 147 190 242 293 344
#     4   9  22  38  62  79 118 160 191 234 283 346
#     4  10  23  36  55  87 117 154 189 232 296 337
#     4  11  20  36  56  88 122 146 189 239 297 341
#     4  11  22  37  61  88 115 152 190 245 291 337
#     4  11  23  34  59  89 115 147 191 245 285 343
#     4  10  21  36  56  84 119 152 187 231 288 347
#
# _framework density 18.144407999999999
#
# number of rings (size 3 to 8) (size 9 to 14) (size 15 to 20)
#    0.750    0.750    3.750    3.000    1.750    0.500 
#    0.000    3.125    0.000    1.500    0.000    0.000 
#    0.000    0.000    0.000    0.000    0.000    0.000 
#
# Total GULP energy -89205.123101 kJ/mol
# GULP energy per Si atom -5575.320194 kJ/mol
# Density = 1.810311 g / cm^3
# Si number density = 18.144408 Si / 1000 Ang^3
#
#
#
# Elastic Constant Matrix: (Units=GPa)
#
#
# Indices 1 2 3 4 5 6 
#
# 1 52.7437 39.7956 12.7935 1.3776 18.1951 9.6250
# 2 39.7956 96.5097 1.9090 -18.7682 15.1025 -11.3833
# 3 12.7935 1.9090 37.9385 4.2584 18.8365 -2.3695
# 4 1.3776 -18.7682 4.2584 25.5986 -3.0461 8.1496
# 5 18.1951 15.1025 18.8365 -3.0461 27.3727 -1.7312
# 6 9.6250 -11.3833 -2.3695 8.1496 -1.7312 49.7581
#
#
#
# Elastic Compliance Matrix: (Units=1/GPa)
#
#
# Indices 1 2 3 4 5 6 
#
# 1 0.042349 -0.018648 -0.003774 -0.013915 -0.017507 -0.010968
# 2 -0.018648 0.021511 0.004260 0.013967 -0.000443 0.006428
# 3 -0.003774 0.004260 0.044016 -0.009007 -0.030868 0.004202
# 4 -0.013915 0.013967 -0.009007 0.054100 0.013577 -0.002930
# 5 -0.017507 -0.000443 -0.030868 0.013577 0.071298 0.002072
# 6 -0.010968 0.006428 0.004202 -0.002930 0.002072 0.024442
#
#
# Mechanical properties :
#
#
# Convention : Reuss Voigt Hill
#
# Bulk Modulus (GPa) = 13.97575 32.90978 23.44276
# Shear Modulus (GPa) = 15.72868 29.39214 22.56041
#
# Velocity S-wave (km/s) = 2.94744 4.02917 3.52999
# Velocity P-wave (km/s) = 4.39346 6.31052 5.43715
#
# Compressibility (1/GPa) = 0.07155251
#
# Stress axis : x y z
#
# Youngs Moduli (GPa) = 23.61305 46.48880 22.71898
#
# Poissons Ratio (x) = 0.86693 0.08573
# Poissons Ratio (y) = 0.44034 -0.09678
# Poissons Ratio (z) = 0.08910 -0.19804
#
# Static dielectric constant tensor:
#      x y z
#    x 1.629000 -0.018920 0.013960 
#    y -0.018920 1.639280 -0.002640 
#    z 0.013960 -0.002640 1.634560 
# 
# From -- ./inp_files/312395.got.cif
#   From: 2010.05.17/outbox.cif.g08.bks.cpg/sg2_157_cif.got.tgz:312395.got - 2010.06.03 11:33:40.
