data_PCOD9110684
_publ_section_title
;
Structure prediction by ZEFSAII (Michael W. Deem and Ramdas Pophale) SiO2 
 PCOD9110684
Probable space group: P -1
;
_chemical_formula_sum "Si O2"
_cell_formula_units_Z 14
_cell_length_a 7.442946
_cell_length_b 17.837142
_cell_length_c 7.108083
_cell_angle_alpha 99.228067
_cell_angle_beta 80.875791
_cell_angle_gamma 40.381406
_cell_volume 542.210094
_symmetry_space_group_name_H-M "P -1"
_symmetry_group_IT_number 2
_symmetry_cell_setting 'triclinic'
loop_
_space_group_symop_operation_xyz
x,y,z
-x,-y,-z
loop_
_atom_site_type_symbol
_atom_site_label
_atom_site_fract_x
_atom_site_fract_y
_atom_site_fract_z
Si Si1 0.358557 0.944993 0.520565
Si Si2 0.826439 0.121977 0.208152
Si Si3 0.815310 0.751678 0.073350
Si Si4 0.366316 0.628356 0.122923
Si Si5 0.029608 0.543395 0.215832
Si Si6 0.940716 0.833712 0.550744
Si Si7 0.122417 0.364178 0.323073
O O1 0.255047 0.901153 0.604937
O O2 0.497944 0.888119 0.264951
O O3 0.627767 0.890091 0.588088
O O4 0.087126 0.094929 0.586779
O O5 0.487480 0.260015 0.244162
O O6 0.004018 0.137652 0.255971
O O7 0.000000 0.000000 0.000000
O O8 0.066720 0.728061 0.082506
O O9 0.862438 0.657544 0.147865
O O10 0.865585 0.714862 0.835536
O O11 0.240719 0.685447 0.375193
O O12 0.500000 0.500000 0.000000
O O13 0.646962 0.584200 0.990247
O O14 0.937875 0.492192 0.293105
O O15 0.030864 0.589979 0.429417
#
# Coordination Sequence:
#
# PCOD9110684 Si02
#       7
#     2   2   2   2   2   2   2
#     4  10  22  44  70  95 130 177 220 274 339 393
#     4  12  26  42  64 104 136 170 226 275 332 404
#     4  10  20  42  65  90 130 172 217 275 329 390
#     4   9  21  39  68  95 124 175 226 265 331 391
#     4  10  22  40  60  93 132 174 222 266 327 395
#     4  10  23  43  71  96 130 180 222 270 339 393
#     4  11  24  38  61  97 131 172 218 269 337 385
#
# _framework density 25.820246999999998
#
# number of rings (size 3 to 8) (size 9 to 14) (size 15 to 20)
#    0.000    1.714    1.429    1.714    4.000    5.714 
#    2.571    0.000    0.000    0.000    0.000    0.000 
#    0.000    0.000    0.000    0.000    0.000    0.000 
#
# Total GULP energy -78144.785142 kJ/mol
# GULP energy per Si atom -5581.770367 kJ/mol
# Density = 2.576148 g / cm^3
# Si number density = 25.820247 Si / 1000 Ang^3
#
#
#
# Elastic Constant Matrix: (Units=GPa)
#
#
# Indices 1 2 3 4 5 6 
#
# 1 85.8582 9.2279 22.8756 11.6733 30.8305 -6.8858
# 2 9.2279 82.4664 6.5753 6.5104 0.8904 5.1473
# 3 22.8756 6.5753 161.8709 28.4248 43.3248 -12.2885
# 4 11.6733 6.5104 28.4248 36.5604 3.1014 -2.7164
# 5 30.8305 0.8904 43.3248 3.1014 44.5987 1.8958
# 6 -6.8858 5.1473 -12.2885 -2.7164 1.8958 28.7560
#
#
#
# Elastic Compliance Matrix: (Units=1/GPa)
#
#
# Indices 1 2 3 4 5 6 
#
# 1 0.017817 -0.002007 0.003187 -0.006040 -0.015225 0.006421
# 2 -0.002007 0.012716 -0.000823 -0.001420 0.002176 -0.003386
# 3 0.003187 -0.000823 0.010914 -0.007877 -0.012481 0.005653
# 4 -0.006040 -0.001420 -0.007877 0.034708 0.009524 -0.001908
# 5 -0.015225 0.002176 -0.012481 0.009524 0.044852 -0.011426
# 6 0.006421 -0.003386 0.005653 -0.001908 -0.011426 0.039908
#
#
# Mechanical properties :
#
#
# Convention : Reuss Voigt Hill
#
# Bulk Modulus (GPa) = 23.71892 45.28370 34.50131
# Shear Modulus (GPa) = 28.69343 41.41748 35.05545
#
# Velocity S-wave (km/s) = 3.33720 4.00943 3.68866
# Velocity P-wave (km/s) = 4.90462 6.24581 5.61540
#
# Compressibility (1/GPa) = 0.04216043
#
# Stress axis : x y z
#
# Youngs Moduli (GPa) = 56.12551 78.63903 91.62648
#
# Poissons Ratio (x) = 0.15786 -0.29200
# Poissons Ratio (y) = 0.11266 0.07541
# Poissons Ratio (z) = -0.17886 0.06472
#
# Static dielectric constant tensor:
#      x y z
#    x 2.136080 -0.036080 0.044730 
#    y -0.036080 2.097970 0.072750 
#    z 0.044730 0.072750 2.084090 
# 
# From -- ./inp_files/53463.got.cif
#   From: 2010.05.17/outbox.cif.g08.bks.cpg/sg2_27_cif.got.tgz:53463.got - 2010.06.03 11:33:40.
