data_PCOD9110485
_publ_section_title
;
Structure prediction by ZEFSAII (Michael W. Deem and Ramdas Pophale) SiO2 
 PCOD9110485
Probable space group: P -1
;
_chemical_formula_sum "Si O2"
_cell_formula_units_Z 13
_cell_length_a 11.704959
_cell_length_b 10.293541
_cell_length_c 11.691971
_cell_angle_alpha 45.495995
_cell_angle_beta 141.944665
_cell_angle_gamma 142.619815
_cell_volume 516.413010
_symmetry_space_group_name_H-M "P -1"
_symmetry_group_IT_number 2
_symmetry_cell_setting 'triclinic'
loop_
_space_group_symop_operation_xyz
x,y,z
-x,-y,-z
loop_
_atom_site_type_symbol
_atom_site_label
_atom_site_fract_x
_atom_site_fract_y
_atom_site_fract_z
Si Si1 0.000000 0.500000 0.000000
Si Si2 0.379602 0.466967 0.246006
Si Si3 0.543014 0.816452 0.362639
Si Si4 0.860674 0.238001 0.559956
Si Si5 0.344751 0.993070 0.226667
Si Si6 0.259741 0.209870 0.830460
Si Si7 0.128739 0.898102 0.716433
O O1 0.151153 0.449231 0.064338
O O2 0.012964 0.346524 0.203407
O O3 0.493759 0.651728 0.322033
O O4 0.366418 0.257498 0.416918
O O5 0.539520 0.560966 0.204260
O O6 0.331679 0.811754 0.242762
O O7 0.696416 0.048577 0.277625
O O8 0.814307 0.131724 0.715433
O O9 0.000000 0.500000 0.500000
O O10 0.027510 0.190429 0.656601
O O11 0.606823 0.130273 0.383556
O O12 0.297942 0.149403 0.022881
O O13 0.244288 0.031556 0.840814
O O14 0.000000 0.000000 0.500000
#
# Coordination Sequence:
#
# PCOD9110485 Si02
#       7
#     1   2   2   2   2   2   2
#     4  12  22  36  60 106 130 194 228 266 348 420
#     4  10  22  37  66  99 143 175 228 275 346 435
#     4  10  20  42  62  96 139 182 215 282 349 417
#     4  11  26  48  72 100 134 185 244 304 367 419
#     4  11  24  46  73  98 139 186 237 303 359 423
#     4  11  24  46  68 103 139 187 231 296 355 428
#     4  11  22  40  66 100 150 179 228 283 345 429
#
# _framework density 25.173649999999999
#
# number of rings (size 3 to 8) (size 9 to 14) (size 15 to 20)
#    0.000    1.231    1.538    4.154    0.000    3.077 
#   13.846    0.000    0.000    0.000    0.000    0.000 
#    0.000    0.000    0.000    0.000    0.000    0.000 
#
# Total GULP energy -72471.935579 kJ/mol
# GULP energy per Si atom -5574.764275 kJ/mol
# Density = 2.511635 g / cm^3
# Si number density = 25.173650 Si / 1000 Ang^3
#
#
#
# Elastic Constant Matrix: (Units=GPa)
#
#
# Indices 1 2 3 4 5 6 
#
# 1 131.9755 43.8231 28.2868 -4.9351 -10.5489 40.5248
# 2 43.8231 107.7204 55.3713 -22.6431 -13.9172 41.3344
# 3 28.2868 55.3713 163.1288 -17.7702 -9.8831 21.6962
# 4 -4.9351 -22.6431 -17.7702 27.7148 16.0147 -0.6147
# 5 -10.5489 -13.9172 -9.8831 16.0147 47.5577 -6.4586
# 6 40.5248 41.3344 21.6962 -0.6147 -6.4586 35.8305
#
#
#
# Elastic Compliance Matrix: (Units=1/GPa)
#
#
# Indices 1 2 3 4 5 6 
#
# 1 0.011838 0.001868 -0.000314 0.003102 -0.000016 -0.015303
# 2 0.001868 0.025396 -0.002930 0.020744 -0.003818 -0.029967
# 3 -0.000314 -0.002930 0.007552 0.002569 -0.000339 -0.000854
# 4 0.003102 0.020744 0.002569 0.065528 -0.019024 -0.031299
# 5 -0.000016 -0.003818 -0.000339 -0.019024 0.027500 0.009258
# 6 -0.015303 -0.029967 -0.000854 -0.031299 0.009258 0.081436
#
#
# Mechanical properties :
#
#
# Convention : Reuss Voigt Hill
#
# Bulk Modulus (GPa) = 23.79126 73.08745 48.43936
# Shear Modulus (GPa) = 21.18514 40.57683 30.88099
#
# Velocity S-wave (km/s) = 2.90411 4.01917 3.50625
# Velocity P-wave (km/s) = 4.55154 7.11581 5.97291
#
# Compressibility (1/GPa) = 0.04203224
#
# Stress axis : x y z
#
# Youngs Moduli (GPa) = 84.47337 39.37668 132.41231
#
# Poissons Ratio (x) = -0.07354 0.04164
# Poissons Ratio (y) = -0.15776 0.38796
# Poissons Ratio (z) = 0.02656 0.11537
#
# Static dielectric constant tensor:
#      x y z
#    x 2.043250 -0.090250 -0.053570 
#    y -0.090250 2.273460 0.197190 
#    z -0.053570 0.197190 2.013760 
# 
# From -- ./inp_files/422920.got.cif
#   From: 2010.05.17/outbox.cif.g08.bks.cpg/sg2_212_cif.got.tgz:422920.got - 2010.06.03 11:33:40.
