data_PCOD9110395
_publ_section_title
;
Structure prediction by ZEFSAII (Michael W. Deem and Ramdas Pophale) SiO2 
 PCOD9110395
Probable space group: P -1
;
_chemical_formula_sum "Si O2"
_cell_formula_units_Z 12
_cell_length_a 4.830962
_cell_length_b 16.051322
_cell_length_c 14.198659
_cell_angle_alpha 153.981995
_cell_angle_beta 75.373009
_cell_angle_gamma 94.193672
_cell_volume 435.547931
_symmetry_space_group_name_H-M "P -1"
_symmetry_group_IT_number 2
_symmetry_cell_setting 'triclinic'
loop_
_space_group_symop_operation_xyz
x,y,z
-x,-y,-z
loop_
_atom_site_type_symbol
_atom_site_label
_atom_site_fract_x
_atom_site_fract_y
_atom_site_fract_z
Si Si1 0.750515 0.829766 0.682959
Si Si2 0.000000 0.500000 0.000000
Si Si3 0.000000 0.000000 0.500000
Si Si4 0.400913 0.576354 0.710198
Si Si5 0.162652 0.222203 0.166810
Si Si6 0.833952 0.240163 0.608312
Si Si7 0.687408 0.355303 0.999633
O O1 0.636413 0.639872 0.500399
O O2 0.895224 0.830198 0.774431
O O3 0.982471 0.798185 0.543575
O O4 0.451314 0.032445 0.910439
O O5 0.996045 0.407354 0.012147
O O6 0.989215 0.721141 0.273060
O O7 0.801298 0.044157 0.457092
O O8 0.702981 0.156127 0.743399
O O9 0.701641 0.595083 0.657527
O O10 0.408596 0.639057 0.880748
O O11 0.115003 0.725839 0.828451
O O12 0.520926 0.436499 0.827806
#
# Coordination Sequence:
#
# PCOD9110395 Si02
#       7
#     2   1   1   2   2   2   2
#     4  11  25  48  76 106 157 196 245 318 373 438
#     4  10  20  42  60  96 126 176 234 284 356 422
#     4  10  22  42  70 100 136 190 250 310 356 450
#     4  12  25  48  77 111 150 198 250 310 372 456
#     4  11  28  47  74 118 148 197 260 299 375 454
#     4  11  23  45  66 103 138 195 236 306 370 436
#     4  11  24  43  70  99 145 186 246 299 376 435
#
# _framework density 27.551501999999999
#
# number of rings (size 3 to 8) (size 9 to 14) (size 15 to 20)
#    0.000    1.000    1.667    5.000    0.000    8.000 
#    6.000    6.667    0.000    0.000    0.000    0.000 
#    0.000    0.000    0.000    0.000    0.000    0.000 
#
# Total GULP energy -66807.294833 kJ/mol
# GULP energy per Si atom -5567.274569 kJ/mol
# Density = 2.748879 g / cm^3
# Si number density = 27.551502 Si / 1000 Ang^3
#
#
#
# Elastic Constant Matrix: (Units=GPa)
#
#
# Indices 1 2 3 4 5 6 
#
# 1 53.4164 -11.9139 -0.6553 50.2626 20.4424 -36.6918
# 2 -11.9139 144.0040 33.3011 12.5956 28.5161 -45.7544
# 3 -0.6553 33.3011 127.0736 18.3375 5.4470 -28.9430
# 4 50.2626 12.5956 18.3375 43.4277 -32.7368 11.8052
# 5 20.4424 28.5161 5.4470 -32.7368 2.3040 44.9488
# 6 -36.6918 -45.7544 -28.9430 11.8052 44.9488 15.5575
#
#
#
# Elastic Compliance Matrix: (Units=1/GPa)
#
#
# Indices 1 2 3 4 5 6 
#
# 1 0.012672 -0.002796 -0.000741 -0.003712 0.010466 -0.007139
# 2 -0.002796 0.006562 -0.002350 0.003745 0.001892 0.000024
# 3 -0.000741 -0.002350 0.008522 -0.000340 0.002434 0.000423
# 4 -0.003712 0.003745 -0.000340 0.016979 -0.008096 0.012134
# 5 0.010466 0.001892 0.002434 -0.008096 0.010861 0.009540
# 6 -0.007139 0.000024 0.000423 0.012134 0.009540 0.011529
#
#
# Mechanical properties :
#
#
# Convention : Reuss Voigt Hill
#
# Bulk Modulus (GPa) = 62.57257 40.66196 51.61727
# Shear Modulus (GPa) = 59.36419 32.50864 45.93641
#
# Velocity S-wave (km/s) = 4.64687 3.43873 4.08768
# Velocity P-wave (km/s) = 7.17995 5.52784 6.40737
#
# Compressibility (1/GPa) = 0.01598144
#
# Stress axis : x y z
#
# Youngs Moduli (GPa) = 78.91644 152.39490 117.33651
#
# Poissons Ratio (x) = 0.42616 0.08692
# Poissons Ratio (y) = 0.22069 0.27575
# Poissons Ratio (z) = 0.05846 0.35813
#
# Static dielectric constant tensor:
#      x y z
#    x 1.312530 -0.337700 -0.259450 
#    y -0.337700 1.729850 -0.336000 
#    z -0.259450 -0.336000 1.729370 
# 
# From -- ./inp_files/132481.got.cif
#   From: 2010.05.17/outbox.cif.g08.bks.cpg/sg2_67_cif.got.tgz:132481.got - 2010.06.03 11:33:40.
