data_PCOD9110064
_publ_section_title
;
Structure prediction by ZEFSAII (Michael W. Deem and Ramdas Pophale) SiO2 
 PCOD9110064
Probable space group: P -1
;
_chemical_formula_sum "Si O2"
_cell_formula_units_Z 16
_cell_length_a 16.120520
_cell_length_b 11.108309
_cell_length_c 8.351631
_cell_angle_alpha 97.588727
_cell_angle_beta 46.363832
_cell_angle_gamma 61.690843
_cell_volume 660.456684
_symmetry_space_group_name_H-M "P -1"
_symmetry_group_IT_number 2
_symmetry_cell_setting 'triclinic'
loop_
_space_group_symop_operation_xyz
x,y,z
-x,-y,-z
loop_
_atom_site_type_symbol
_atom_site_label
_atom_site_fract_x
_atom_site_fract_y
_atom_site_fract_z
Si Si1 0.132461 0.027281 0.578470
Si Si2 0.545161 0.256377 0.125740
Si Si3 0.608633 0.371791 0.642494
Si Si4 0.660122 0.767934 0.732822
Si Si5 0.799589 0.152639 0.034582
Si Si6 0.396020 0.316273 0.865463
Si Si7 0.058570 0.461081 0.228034
Si Si8 0.819192 0.895733 0.148599
O O1 0.244261 0.823897 0.481057
O O2 0.098922 0.147213 0.790736
O O3 0.280401 0.947737 0.237139
O O4 0.955139 0.111783 0.750323
O O5 0.453733 0.445042 0.185379
O O6 0.393363 0.278536 0.347572
O O7 0.637127 0.242460 0.152343
O O8 0.713511 0.298769 0.321622
O O9 0.437048 0.424664 0.843238
O O10 0.866082 0.648806 0.427125
O O11 0.643989 0.702834 0.907036
O O12 0.500000 0.000000 0.000000
O O13 0.879285 0.960576 0.970615
O O14 0.594378 0.095116 0.504345
O O15 0.225754 0.418055 0.998785
O O16 0.000000 0.500000 0.500000
O O17 0.127891 0.274125 0.034050
#
# Coordination Sequence:
#
# PCOD9110064 Si02
#       8
#     2   2   2   2   2   2   2   2
#     4  10  21  39  62  94 127 165 210 260 312 384
#     4  12  23  40  64  93 133 168 204 266 324 364
#     4  10  21  41  65  94 125 165 210 260 312 383
#     4  11  25  43  61  92 132 165 210 268 321 369
#     4  10  23  37  63  97 129 166 203 267 318 375
#     4   9  20  44  66  95 124 163 215 265 309 375
#     4  10  23  39  67  92 115 173 219 256 301 390
#     4  10  20  41  69  92 129 166 214 265 312 381
#
# _framework density 24.225660999999999
#
# number of rings (size 3 to 8) (size 9 to 14) (size 15 to 20)
#    0.000    2.000    2.500    3.000    7.000    1.000 
#    2.250    0.625    0.000    0.000    0.000    0.000 
#    0.000    0.000    0.000    0.000    0.000    0.000 
#
# Total GULP energy -89452.195396 kJ/mol
# GULP energy per Si atom -5590.762212 kJ/mol
# Density = 2.417052 g / cm^3
# Si number density = 24.225661 Si / 1000 Ang^3
#
#
#
# Elastic Constant Matrix: (Units=GPa)
#
#
# Indices 1 2 3 4 5 6 
#
# 1 132.2112 18.0322 56.7397 23.8737 -28.3658 19.5442
# 2 18.0322 50.8073 9.8959 11.1410 -5.5126 22.9414
# 3 56.7397 9.8959 60.2309 10.5668 -13.1225 13.0441
# 4 23.8737 11.1410 10.5668 25.3668 6.1261 9.6219
# 5 -28.3658 -5.5126 -13.1225 6.1261 60.3350 -2.0641
# 6 19.5442 22.9414 13.0441 9.6219 -2.0641 34.0243
#
#
#
# Elastic Compliance Matrix: (Units=1/GPa)
#
#
# Indices 1 2 3 4 5 6 
#
# 1 0.016067 0.000379 -0.011528 -0.011428 0.006191 -0.001458
# 2 0.000379 0.029589 0.000724 -0.007551 0.003186 -0.018117
# 3 -0.011528 0.000724 0.028469 0.000356 0.000636 -0.004843
# 4 -0.011428 -0.007551 0.000356 0.058450 -0.012116 -0.005745
# 5 0.006191 0.003186 0.000636 -0.012116 0.021102 -0.001242
# 6 -0.001458 -0.018117 -0.004843 -0.005745 -0.001242 0.045850
#
#
# Mechanical properties :
#
#
# Convention : Reuss Voigt Hill
#
# Bulk Modulus (GPa) = 18.77096 45.84276 32.30686
# Shear Modulus (GPa) = 20.99649 34.51732 27.75690
#
# Velocity S-wave (km/s) = 2.94718 3.77878 3.38859
# Velocity P-wave (km/s) = 4.39845 6.16467 5.35488
#
# Compressibility (1/GPa) = 0.05327378
#
# Stress axis : x y z
#
# Youngs Moduli (GPa) = 62.24017 33.79659 35.12612
#
# Poissons Ratio (x) = -0.01280 0.40495
# Poissons Ratio (y) = -0.02358 -0.02544
# Poissons Ratio (z) = 0.71753 -0.02447
#
# Static dielectric constant tensor:
#      x y z
#    x 1.932870 -0.056470 -0.013190 
#    y -0.056470 1.940480 -0.007860 
#    z -0.013190 -0.007860 1.942750 
# 
# From -- ./inp_files/307907.got.cif
#   From: 2010.05.17/outbox.cif.g08.bks.cpg/sg2_154_cif.got.tgz:307907.got - 2010.06.03 11:33:40.
