data_PCOD9110389
_publ_section_title
;
Structure prediction by ZEFSAII (Michael W. Deem and Ramdas Pophale) SiO2 
 PCOD9110389
Probable space group: P -1
;
_chemical_formula_sum "Si O2"
_cell_formula_units_Z 15
_cell_length_a 15.180670
_cell_length_b 8.947018
_cell_length_c 11.376788
_cell_angle_alpha 95.708119
_cell_angle_beta 151.848225
_cell_angle_gamma 71.967878
_cell_volume 639.318774
_symmetry_space_group_name_H-M "P -1"
_symmetry_group_IT_number 2
_symmetry_cell_setting 'triclinic'
loop_
_space_group_symop_operation_xyz
x,y,z
-x,-y,-z
loop_
_atom_site_type_symbol
_atom_site_label
_atom_site_fract_x
_atom_site_fract_y
_atom_site_fract_z
Si Si1 0.500000 0.000000 0.500000
Si Si2 0.406966 0.766296 0.754727
Si Si3 0.792767 0.166119 0.227884
Si Si4 0.431774 0.717798 0.377589
Si Si5 0.557218 0.985325 0.822012
Si Si6 0.750544 0.381749 0.637017
Si Si7 0.871499 0.456436 0.247631
Si Si8 0.146670 0.358397 0.978366
O O1 0.658312 0.082534 0.730503
O O2 0.584383 0.962736 0.458682
O O3 0.320378 0.750501 0.776767
O O4 0.441804 0.929504 0.782212
O O5 0.270581 0.745630 0.488813
O O6 0.633577 0.604290 0.993163
O O7 0.869147 0.280978 0.254379
O O8 0.000000 0.000000 0.500000
O O9 0.634215 0.115165 0.969536
O O10 0.548518 0.572899 0.405996
O O11 0.279138 0.673479 0.271977
O O12 0.639337 0.689080 0.699331
O O13 0.767704 0.809500 0.016612
O O14 0.966071 0.381202 0.857846
O O15 0.933158 0.482772 0.190503
O O16 0.000000 0.500000 0.500000
#
# Coordination Sequence:
#
# PCOD9110389 Si02
#       8
#     1   2   2   2   2   2   2   2
#     4  10  20  42  60  92 136 164 202 278 320 386
#     4  11  22  44  65  93 130 178 220 270 326 393
#     4  12  25  41  67  97 131 175 222 273 336 395
#     4  10  22  39  64  91 132 165 222 261 323 394
#     4  10  22  41  65  91 135 170 215 269 331 388
#     4  11  20  38  69  88 122 176 213 265 324 378
#     4  11  23  42  63  93 131 167 222 276 323 393
#     4  10  21  43  62  92 129 168 216 274 316 389
#
# _framework density 23.462475000000001
#
# number of rings (size 3 to 8) (size 9 to 14) (size 15 to 20)
#    0.000    1.333    4.000    4.400    1.867    0.000 
#    2.400    2.667    0.000    0.000    0.000    0.000 
#    0.000    0.000    0.000    0.000    0.000    0.000 
#
# Total GULP energy -83545.411953 kJ/mol
# GULP energy per Si atom -5569.694130 kJ/mol
# Density = 2.340907 g / cm^3
# Si number density = 23.462475 Si / 1000 Ang^3
#
#
#
# Elastic Constant Matrix: (Units=GPa)
#
#
# Indices 1 2 3 4 5 6 
#
# 1 105.3082 9.4355 22.4175 6.5399 25.1397 14.4636
# 2 9.4355 73.7731 2.7377 23.4185 7.5214 11.0904
# 3 22.4175 2.7377 55.6145 16.8742 -4.7632 13.0878
# 4 6.5399 23.4185 16.8742 31.3797 -0.2293 -11.1754
# 5 25.1397 7.5214 -4.7632 -0.2293 31.0935 11.6141
# 6 14.4636 11.0904 13.0878 -11.1754 11.6141 36.6341
#
#
#
# Elastic Compliance Matrix: (Units=1/GPa)
#
#
# Indices 1 2 3 4 5 6 
#
# 1 0.014115 -0.002644 -0.009742 0.005943 -0.014083 0.004986
# 2 -0.002644 0.033321 0.024230 -0.050281 0.011070 -0.036548
# 3 -0.009742 0.024230 0.054724 -0.063694 0.029257 -0.051745
# 4 0.005943 -0.050281 -0.063694 0.133139 -0.033913 0.086996
# 5 -0.014083 0.011070 0.029257 -0.033913 0.059036 -0.037304
# 6 0.004986 -0.036548 -0.051745 0.086996 -0.037304 0.093244
#
#
# Mechanical properties :
#
#
# Convention : Reuss Voigt Hill
#
# Bulk Modulus (GPa) = 7.94611 33.76413 20.85512
# Shear Modulus (GPa) = 12.32017 33.16182 22.74100
#
# Velocity S-wave (km/s) = 2.29399 3.76360 3.11665
# Velocity P-wave (km/s) = 3.22655 5.77132 4.67540
#
# Compressibility (1/GPa) = 0.12584772
#
# Stress axis : x y z
#
# Youngs Moduli (GPa) = 70.84719 30.01130 18.27364
#
# Poissons Ratio (x) = 0.07935 0.17802
# Poissons Ratio (y) = 0.18732 -0.44278
# Poissons Ratio (z) = 0.69020 -0.72718
#
# Static dielectric constant tensor:
#      x y z
#    x 1.620880 0.003550 0.161540 
#    y 0.003550 1.571950 0.136970 
#    z 0.161540 0.136970 1.720230 
# 
# From -- ./inp_files/293893.got.cif
#   From: 2010.05.17/outbox.cif.g08.bks.cpg/sg2_147_cif.got.tgz:293893.got - 2010.06.03 11:33:40.
