data_PCOD9110725
_publ_section_title
;
Structure prediction by ZEFSAII (Michael W. Deem and Ramdas Pophale) SiO2 
 PCOD9110725
Probable space group: P -1
;
_chemical_formula_sum "Si O2"
_cell_formula_units_Z 15
_cell_length_a 15.556805
_cell_length_b 7.737932
_cell_length_c 12.795601
_cell_angle_alpha 103.459032
_cell_angle_beta 25.068406
_cell_angle_gamma 109.103702
_cell_volume 608.829083
_symmetry_space_group_name_H-M "P -1"
_symmetry_group_IT_number 2
_symmetry_cell_setting 'triclinic'
loop_
_space_group_symop_operation_xyz
x,y,z
-x,-y,-z
loop_
_atom_site_type_symbol
_atom_site_label
_atom_site_fract_x
_atom_site_fract_y
_atom_site_fract_z
Si Si1 0.023186 0.798467 0.978921
Si Si2 0.500000 0.000000 0.500000
Si Si3 0.265283 0.488665 0.381617
Si Si4 0.827142 0.822833 0.402707
Si Si5 0.578740 0.089202 0.037700
Si Si6 0.497467 0.855500 0.278438
Si Si7 0.755910 0.475577 0.829349
Si Si8 0.113094 0.236137 0.094945
O O1 0.953107 0.694526 0.932386
O O2 0.265865 0.839414 0.753282
O O3 0.861657 0.728683 0.242018
O O4 0.000000 0.000000 0.000000
O O5 0.561968 0.002254 0.557643
O O6 0.136548 0.317064 0.568404
O O7 0.309624 0.689137 0.416981
O O8 0.187554 0.489212 0.348927
O O9 0.507222 0.473514 0.106609
O O10 0.608176 0.856467 0.686499
O O11 0.978974 0.031350 0.250233
O O12 0.628715 0.945506 0.044137
O O13 0.754413 0.273704 0.841416
O O14 0.500000 0.000000 0.000000
O O15 0.646702 0.782879 0.184582
O O16 0.870967 0.625807 0.807647
#
# Coordination Sequence:
#
# PCOD9110725 Si02
#       8
#     2   1   2   2   2   2   2   2
#     4  10  20  42  65  98 130 170 218 270 332 392
#     4  12  22  40  74  94 130 176 214 276 332 392
#     4   9  19  37  62  90 130 171 225 258 331 397
#     4  10  21  40  64  91 130 173 214 275 320 396
#     4  11  22  40  65  94 134 175 219 272 322 391
#     4  11  21  38  65  97 127 175 215 271 332 385
#     4   9  19  39  61  91 128 178 215 270 327 389
#     4  10  21  40  66  91 131 170 219 270 328 392
#
# _framework density 24.637456
#
# number of rings (size 3 to 8) (size 9 to 14) (size 15 to 20)
#    0.000    1.867    4.000    1.600    1.867    0.533 
#    2.400    6.000    0.000    0.000    0.000    0.000 
#    0.000    0.000    0.000    0.000    0.000    0.000 
#
# Total GULP energy -83539.116069 kJ/mol
# GULP energy per Si atom -5569.274405 kJ/mol
# Density = 2.458138 g / cm^3
# Si number density = 24.637456 Si / 1000 Ang^3
#
#
#
# Elastic Constant Matrix: (Units=GPa)
#
#
# Indices 1 2 3 4 5 6 
#
# 1 184.0458 70.6996 67.5632 -10.0537 37.0024 33.2212
# 2 70.6996 84.8496 15.8266 -31.9361 18.7041 12.5992
# 3 67.5632 15.8266 128.4780 -4.6787 20.5868 2.9401
# 4 -10.0537 -31.9361 -4.6787 24.4243 -6.3160 -6.2993
# 5 37.0024 18.7041 20.5868 -6.3160 56.8701 -2.1603
# 6 33.2212 12.5992 2.9401 -6.2993 -2.1603 29.6402
#
#
#
# Elastic Compliance Matrix: (Units=1/GPa)
#
#
# Indices 1 2 3 4 5 6 
#
# 1 0.018925 -0.020252 -0.006923 -0.026415 -0.006765 -0.018023
# 2 -0.020252 0.046712 0.006268 0.058440 0.002598 0.014831
# 3 -0.006923 0.006268 0.010887 0.008874 -0.000289 0.005880
# 4 -0.026415 0.058440 0.008874 0.118159 0.009003 0.029653
# 5 -0.006765 0.002598 -0.000289 0.009003 0.022618 0.010068
# 6 -0.018023 0.014831 0.005880 0.029653 0.010068 0.054087
#
#
# Mechanical properties :
#
#
# Convention : Reuss Voigt Hill
#
# Bulk Modulus (GPa) = 28.80994 78.39467 53.60230
# Shear Modulus (GPa) = 15.39548 38.40585 26.90067
#
# Velocity S-wave (km/s) = 2.50247 3.95250 3.30792
# Velocity P-wave (km/s) = 4.47982 7.26072 6.03269
#
# Compressibility (1/GPa) = 0.03471024
#
# Stress axis : x y z
#
# Youngs Moduli (GPa) = 52.84047 21.40774 91.85441
#
# Poissons Ratio (x) = 0.43355 0.63590
# Poissons Ratio (y) = 1.07014 -0.57577
# Poissons Ratio (z) = 0.36581 -0.13419
#
# Static dielectric constant tensor:
#      x y z
#    x 2.001970 -0.062090 -0.093020 
#    y -0.062090 1.862140 -0.066600 
#    z -0.093020 -0.066600 1.914290 
# 
# From -- ./inp_files/447626.got.cif
#   From: 2010.05.17/outbox.cif.g08.bks.cpg/sg2_224_cif.got.tgz:447626.got - 2010.06.03 11:33:40.
