data_PCOD9110635
_publ_section_title
;
Structure prediction by ZEFSAII (Michael W. Deem and Ramdas Pophale) SiO2 
 PCOD9110635
Probable space group: P -1
;
_chemical_formula_sum "Si O2"
_cell_formula_units_Z 15
_cell_length_a 8.917630
_cell_length_b 10.893759
_cell_length_c 14.356672
_cell_angle_alpha 54.575686
_cell_angle_beta 64.270768
_cell_angle_gamma 108.171238
_cell_volume 656.212553
_symmetry_space_group_name_H-M "P -1"
_symmetry_group_IT_number 2
_symmetry_cell_setting 'triclinic'
loop_
_space_group_symop_operation_xyz
x,y,z
-x,-y,-z
loop_
_atom_site_type_symbol
_atom_site_label
_atom_site_fract_x
_atom_site_fract_y
_atom_site_fract_z
Si Si1 0.616949 0.415312 0.986505
Si Si2 0.500000 0.000000 0.000000
Si Si3 0.858603 0.126581 0.337481
Si Si4 0.551265 0.145689 0.283190
Si Si5 0.924143 0.795259 0.055899
Si Si6 0.488904 0.871355 0.270549
Si Si7 0.892110 0.629594 0.320247
Si Si8 0.139657 0.083706 0.151732
O O1 0.655441 0.351350 0.099942
O O2 0.401423 0.191900 0.075802
O O3 0.500000 0.500000 0.000000
O O4 0.903830 0.634825 0.773922
O O5 0.534326 0.105934 0.841225
O O6 0.819687 0.238552 0.826246
O O7 0.743742 0.171878 0.278163
O O8 0.980201 0.071914 0.272726
O O9 0.640927 0.924870 0.556333
O O10 0.405714 0.940149 0.337058
O O11 0.766088 0.739825 0.033791
O O12 0.200240 0.927240 0.886495
O O13 0.800228 0.601478 0.251607
O O14 0.000000 0.000000 0.000000
O O15 0.320638 0.610776 0.460257
O O16 0.957489 0.830001 0.268970
#
# Coordination Sequence:
#
# PCOD9110635 Si02
#       8
#     2   1   2   2   2   2   2   2
#     4  10  23  42  66  91 128 175 221 274 331 379
#     4  10  22  40  60  92 136 168 218 268 324 398
#     4  10  23  44  66  95 131 174 223 273 331 382
#     4  11  23  43  66  97 133 171 224 275 324 400
#     4   9  20  39  59  90 133 167 219 266 316 389
#     4  11  22  40  64  96 132 175 215 268 335 394
#     4  10  22  39  66  96 134 173 218 268 334 400
#     4  10  20  42  64  97 134 174 218 277 324 394
#
# _framework density 22.858447000000002
#
# number of rings (size 3 to 8) (size 9 to 14) (size 15 to 20)
#    0.000    1.867    1.333    1.600    0.000    7.467 
#    9.600   12.000    0.000    0.000    0.000    0.000 
#    0.000    0.000    0.000    0.000    0.000    0.000 
#
# Total GULP energy -83520.745047 kJ/mol
# GULP energy per Si atom -5568.049670 kJ/mol
# Density = 2.280642 g / cm^3
# Si number density = 22.858447 Si / 1000 Ang^3
#
#
#
# Elastic Constant Matrix: (Units=GPa)
#
#
# Indices 1 2 3 4 5 6 
#
# 1 41.0673 5.4915 28.8297 8.1894 11.6136 17.9914
# 2 5.4915 56.6139 28.1413 6.6708 2.0091 5.1843
# 3 28.8297 28.1413 123.4078 12.4911 20.3478 14.9344
# 4 8.1894 6.6708 12.4911 27.6497 -3.0362 6.6978
# 5 11.6136 2.0091 20.3478 -3.0362 28.7606 6.7512
# 6 17.9914 5.1843 14.9344 6.6978 6.7512 30.2024
#
#
#
# Elastic Compliance Matrix: (Units=1/GPa)
#
#
# Indices 1 2 3 4 5 6 
#
# 1 0.039380 0.001498 -0.005316 -0.006287 -0.008745 -0.017738
# 2 0.001498 0.020293 -0.004741 -0.002603 0.001476 -0.001784
# 3 -0.005316 -0.004741 0.011763 -0.003360 -0.006272 0.000311
# 4 -0.006287 -0.002603 -0.003360 0.042874 0.011062 -0.006127
# 5 -0.008745 0.001476 -0.006272 0.011062 0.044840 -0.004419
# 6 -0.017738 -0.001784 0.000311 -0.006127 -0.004419 0.046175
#
#
# Mechanical properties :
#
#
# Convention : Reuss Voigt Hill
#
# Bulk Modulus (GPa) = 18.41074 38.44598 28.42836
# Shear Modulus (GPa) = 20.78581 27.89766 24.34173
#
# Velocity S-wave (km/s) = 3.01878 3.49729 3.26681
# Velocity P-wave (km/s) = 4.49693 5.75879 5.16653
#
# Compressibility (1/GPa) = 0.05431612
#
# Stress axis : x y z
#
# Youngs Moduli (GPa) = 25.39382 49.27864 85.01299
#
# Poissons Ratio (x) = -0.07383 0.45197
# Poissons Ratio (y) = -0.03805 0.40308
# Poissons Ratio (z) = 0.13501 0.23365
#
# Static dielectric constant tensor:
#      x y z
#    x 1.913950 -0.046310 -0.000450 
#    y -0.046310 1.982030 -0.016220 
#    z -0.000450 -0.016220 1.803240 
# 
# From -- ./inp_files/500024.got.cif
#   From: 2010.05.17/outbox.cif.g08.bks.cpg/sg2_251_cif.got.tgz:500024.got - 2010.06.03 11:33:40.
