data_PCOD9110513
_publ_section_title
;
Structure prediction by ZEFSAII (Michael W. Deem and Ramdas Pophale) SiO2 
 PCOD9110513
Probable space group: P -1
;
_chemical_formula_sum "Si O2"
_cell_formula_units_Z 14
_cell_length_a 22.499016
_cell_length_b 10.042433
_cell_length_c 9.186765
_cell_angle_alpha 130.112689
_cell_angle_beta 152.210139
_cell_angle_gamma 44.084532
_cell_volume 673.036046
_symmetry_space_group_name_H-M "P -1"
_symmetry_group_IT_number 2
_symmetry_cell_setting 'triclinic'
loop_
_space_group_symop_operation_xyz
x,y,z
-x,-y,-z
loop_
_atom_site_type_symbol
_atom_site_label
_atom_site_fract_x
_atom_site_fract_y
_atom_site_fract_z
Si Si1 0.845229 0.529696 0.643451
Si Si2 0.317216 0.325890 0.326591
Si Si3 0.551884 0.278264 0.994259
Si Si4 0.603446 0.790591 0.126940
Si Si5 0.140060 0.800263 0.784713
Si Si6 0.646829 0.500584 0.771874
Si Si7 0.812575 0.978463 0.208304
O O1 0.772137 0.531837 0.639768
O O2 0.744165 0.730894 0.488079
O O3 0.848634 0.363964 0.424930
O O4 0.000000 0.500000 0.000000
O O5 0.465473 0.206467 0.642499
O O6 0.340316 0.440672 0.322503
O O7 0.237374 0.193369 0.019210
O O8 0.495610 0.271127 0.027879
O O9 0.500000 0.500000 0.000000
O O10 0.712078 0.143009 0.214128
O O11 0.656106 0.666268 0.009120
O O12 0.500000 0.000000 0.000000
O O13 0.197540 0.933912 0.914762
O O14 0.233055 0.697544 0.051938
O O15 0.977129 0.907213 0.548138
O O16 0.500000 0.500000 0.500000
#
# Coordination Sequence:
#
# PCOD9110513 Si02
#       7
#     2   2   2   2   2   2   2
#     4  10  20  42  63  91 126 170 206 254 316 385
#     4  11  22  37  67  93 119 165 213 252 309 376
#     4  11  22  40  64  86 123 168 209 250 312 380
#     4  10  22  39  60  91 121 159 208 260 309 357
#     4  10  23  40  63  89 128 169 200 262 317 366
#     4  11  23  41  62  91 127 162 206 259 317 368
#     4  11  21  38  61  93 123 155 219 254 304 369
#
# _framework density 20.801262999999999
#
# number of rings (size 3 to 8) (size 9 to 14) (size 15 to 20)
#    0.000    1.429    1.429    5.571    0.000    4.000 
#    2.571    0.000    0.000    5.143    0.000    0.000 
#    0.000    0.000    0.000    0.000    0.000    0.000 
#
# Total GULP energy -78168.178335 kJ/mol
# GULP energy per Si atom -5583.441310 kJ/mol
# Density = 2.075392 g / cm^3
# Si number density = 20.801263 Si / 1000 Ang^3
#
#
#
# Elastic Constant Matrix: (Units=GPa)
#
#
# Indices 1 2 3 4 5 6 
#
# 1 126.9803 25.7495 40.0727 -21.8391 2.4949 5.1685
# 2 25.7495 72.6860 26.8278 -18.7775 10.8300 8.7300
# 3 40.0727 26.8278 75.7861 -15.1278 10.0287 1.9502
# 4 -21.8391 -18.7775 -15.1278 36.9244 -2.1806 6.9705
# 5 2.4949 10.8300 10.0287 -2.1806 32.8843 -6.0605
# 6 5.1685 8.7300 1.9502 6.9705 -6.0605 41.2457
#
#
#
# Elastic Compliance Matrix: (Units=1/GPa)
#
#
# Indices 1 2 3 4 5 6 
#
# 1 0.010168 -0.000900 -0.004311 0.004114 0.000845 -0.001451
# 2 -0.000900 0.019227 -0.003720 0.008529 -0.005680 -0.006057
# 3 -0.004311 -0.003720 0.017859 0.002752 -0.003812 -0.000542
# 4 0.004114 0.008529 0.002752 0.036507 -0.003215 -0.009093
# 5 0.000845 -0.005680 -0.003812 -0.003215 0.034433 0.006879
# 6 -0.001451 -0.006057 -0.000542 -0.009093 0.006879 0.028282
#
#
# Mechanical properties :
#
#
# Convention : Reuss Voigt Hill
#
# Bulk Modulus (GPa) = 34.02349 51.19472 42.60910
# Shear Modulus (GPa) = 28.71299 34.39770 31.55534
#
# Velocity S-wave (km/s) = 3.71933 4.07090 3.89908
# Velocity P-wave (km/s) = 5.90225 6.83821 6.38740
#
# Compressibility (1/GPa) = 0.02939146
#
# Stress axis : x y z
#
# Youngs Moduli (GPa) = 98.34477 52.01057 55.99281
#
# Poissons Ratio (x) = 0.04680 0.24141
# Poissons Ratio (y) = 0.08849 0.20832
# Poissons Ratio (z) = 0.42400 0.19350
#
# Static dielectric constant tensor:
#      x y z
#    x 1.723370 -0.001430 -0.012440 
#    y -0.001430 1.791850 0.009510 
#    z -0.012440 0.009510 1.874810 
# 
# From -- ./inp_files/168121.got.cif
#   From: 2010.05.17/outbox.cif.g08.bks.cpg/sg2_85_cif.got.tgz:168121.got - 2010.06.03 11:33:40.
