data_PCOD9110808
_publ_section_title
;
Structure prediction by ZEFSAII (Michael W. Deem and Ramdas Pophale) SiO2 
 PCOD9110808
Probable space group: P -1
;
_chemical_formula_sum "Si O2"
_cell_formula_units_Z 16
_cell_length_a 16.817218
_cell_length_b 15.501014
_cell_length_c 23.753345
_cell_angle_alpha 19.485161
_cell_angle_beta 18.450548
_cell_angle_gamma 28.402502
_cell_volume 647.371521
_symmetry_space_group_name_H-M "P -1"
_symmetry_group_IT_number 2
_symmetry_cell_setting 'triclinic'
loop_
_space_group_symop_operation_xyz
x,y,z
-x,-y,-z
loop_
_atom_site_type_symbol
_atom_site_label
_atom_site_fract_x
_atom_site_fract_y
_atom_site_fract_z
Si Si1 0.269810 0.149168 0.161368
Si Si2 0.831489 0.462736 0.912577
Si Si3 0.465813 0.189902 0.716437
Si Si4 0.443346 0.975069 0.448342
Si Si5 0.156656 0.290792 0.712244
Si Si6 0.210459 0.561796 0.400728
Si Si7 0.062810 0.081309 0.719388
Si Si8 0.255734 0.108099 0.375685
O O1 0.168943 0.363166 0.138776
O O2 0.378837 0.942178 0.257436
O O3 0.506319 0.282559 0.883823
O O4 0.034153 0.016828 0.364985
O O5 0.702995 0.625007 0.851266
O O6 0.096001 0.417151 0.734074
O O7 0.657318 0.185325 0.203977
O O8 0.500000 0.500000 0.500000
O O9 0.563698 0.074190 0.664573
O O10 0.172724 0.079109 0.992412
O O11 0.232793 0.902188 0.681694
O O12 0.323479 0.114999 0.390820
O O13 0.570460 0.750371 0.470140
O O14 0.076413 0.474999 0.602968
O O15 0.000000 0.000000 0.000000
O O16 0.214716 0.292930 0.528641
O O17 0.052219 0.739837 0.360088
#
# Coordination Sequence:
#
# PCOD9110808 Si02
#       8
#     2   2   2   2   2   2   2   2
#     4  10  22  45  68  97 129 185 223 264 329 404
#     4  10  20  42  66  93 131 174 229 269 324 398
#     4  10  23  42  65 102 135 172 220 279 336 390
#     4  11  23  41  61 102 132 172 222 278 333 381
#     4  10  24  40  63 102 136 167 216 284 337 376
#     4  10  21  43  69  97 131 175 226 269 324 406
#     4  10  22  41  72  97 129 176 224 272 329 395
#     4  11  24  40  68  95 135 179 221 268 331 399
#
# _framework density 24.715329000000001
#
# number of rings (size 3 to 8) (size 9 to 14) (size 15 to 20)
#    0.000    1.750    1.250    2.625    5.250    3.500 
#    4.500    9.375    0.000    0.000    0.000    0.000 
#    0.000    0.000    0.000    0.000    0.000    0.000 
#
# Total GULP energy -89614.053635 kJ/mol
# GULP energy per Si atom -5600.878352 kJ/mol
# Density = 2.465908 g / cm^3
# Si number density = 24.715329 Si / 1000 Ang^3
#
#
#
# Elastic Constant Matrix: (Units=GPa)
#
#
# Indices 1 2 3 4 5 6 
#
# 1 88.6246 10.6519 42.5734 -0.2927 10.0460 -2.2471
# 2 10.6519 144.0382 42.5261 6.5918 2.5470 2.2941
# 3 42.5734 42.5261 137.5761 4.4803 8.6348 1.8632
# 4 -0.2927 6.5918 4.4803 41.0665 -8.5320 8.7484
# 5 10.0460 2.5470 8.6348 -8.5320 42.2674 -2.2436
# 6 -2.2471 2.2941 1.8632 8.7484 -2.2436 23.5887
#
#
#
# Elastic Compliance Matrix: (Units=1/GPa)
#
#
# Indices 1 2 3 4 5 6 
#
# 1 0.013543 0.000250 -0.004129 -0.000301 -0.002373 0.001478
# 2 0.000250 0.007686 -0.002404 -0.000978 -0.000239 -0.000194
# 3 -0.004129 -0.002404 0.009384 -0.000714 -0.000974 -0.000728
# 4 -0.000301 -0.000978 -0.000714 0.027757 0.005366 -0.009661
# 5 -0.002373 -0.000239 -0.000974 0.005366 0.025536 0.000313
# 6 0.001478 -0.000194 -0.000728 -0.009661 0.000313 0.046223
#
#
# Mechanical properties :
#
#
# Convention : Reuss Voigt Hill
#
# Bulk Modulus (GPa) = 55.41395 62.41574 58.91485
# Shear Modulus (GPa) = 33.62267 39.68368 36.65317
#
# Velocity S-wave (km/s) = 3.69236 4.01138 3.85517
# Velocity P-wave (km/s) = 6.37554 6.83839 6.61102
#
# Compressibility (1/GPa) = 0.01804600
#
# Stress axis : x y z
#
# Youngs Moduli (GPa) = 73.84113 130.10926 106.56712
#
# Poissons Ratio (x) = -0.03251 0.44005
# Poissons Ratio (y) = -0.01845 0.25614
# Poissons Ratio (z) = 0.30492 0.31273
#
# Static dielectric constant tensor:
#      x y z
#    x 2.002040 -0.082210 0.017420 
#    y -0.082210 2.010510 0.002130 
#    z 0.017420 0.002130 1.897500 
# 
# From -- ./inp_files/243650.got.cif
#   From: 2010.05.17/outbox.cif.g08.bks.cpg/sg2_122_cif.got.tgz:243650.got - 2010.06.03 11:33:40.
