data_PCOD9110331
_publ_section_title
;
Structure prediction by ZEFSAII (Michael W. Deem and Ramdas Pophale) SiO2 
 PCOD9110331
Probable space group: P -1
;
_chemical_formula_sum "Si O2"
_cell_formula_units_Z 16
_cell_length_a 15.012375
_cell_length_b 24.485229
_cell_length_c 18.018758
_cell_angle_alpha 160.948589
_cell_angle_beta 150.053970
_cell_angle_gamma 20.551107
_cell_volume 748.906645
_symmetry_space_group_name_H-M "P -1"
_symmetry_group_IT_number 2
_symmetry_cell_setting 'triclinic'
loop_
_space_group_symop_operation_xyz
x,y,z
-x,-y,-z
loop_
_atom_site_type_symbol
_atom_site_label
_atom_site_fract_x
_atom_site_fract_y
_atom_site_fract_z
Si Si1 0.201047 0.843005 0.117929
Si Si2 0.653001 0.701189 0.168759
Si Si3 0.680914 0.987765 0.453066
Si Si4 0.193207 0.457256 0.640903
Si Si5 0.377654 0.848995 0.732720
Si Si6 0.074518 0.379141 0.182218
Si Si7 0.218942 0.574308 0.238666
Si Si8 0.386019 0.747694 0.770764
O O1 0.403148 0.791887 0.143412
O O2 0.249262 0.890654 0.295097
O O3 0.236512 0.620458 0.860078
O O4 0.903505 0.080883 0.189810
O O5 0.878960 0.572011 0.225883
O O6 0.593154 0.913944 0.356687
O O7 0.753905 0.508275 0.930522
O O8 0.460884 0.178252 0.480705
O O9 0.936996 0.745806 0.289254
O O10 0.000000 0.500000 0.500000
O O11 0.075368 0.530667 0.732825
O O12 0.671578 0.678535 0.701981
O O13 0.287461 0.724819 0.487448
O O14 0.373256 0.874538 0.852401
O O15 0.190712 0.117481 0.910982
O O16 0.422349 0.339280 0.136234
O O17 0.500000 0.500000 0.500000
#
# Coordination Sequence:
#
# PCOD9110331 Si02
#       8
#     2   2   2   2   2   2   2   2
#     4  12  25  48  73 101 141 193 230 284 356 423
#     4  12  29  42  71 111 142 183 233 301 346 414
#     4  12  25  49  74 102 144 190 236 279 358 423
#     4  12  29  47  73 102 140 187 238 295 349 420
#     4  10  22  41  71 100 136 192 230 291 343 422
#     4  11  24  43  67 100 146 178 241 283 357 413
#     4  11  25  44  72 105 141 186 237 290 347 414
#     4  10  20  41  73  98 131 183 236 274 348 409
#
# _framework density 21.364478999999999
#
# number of rings (size 3 to 8) (size 9 to 14) (size 15 to 20)
#    0.000    0.750    5.000    1.875    7.000    3.000 
#    0.000    0.000    0.000    0.000    0.000    0.000 
#    0.000    0.000    0.000    0.000    0.000    0.000 
#
# Total GULP energy -89570.793301 kJ/mol
# GULP energy per Si atom -5598.174581 kJ/mol
# Density = 2.131585 g / cm^3
# Si number density = 21.364479 Si / 1000 Ang^3
#
#
#
# Elastic Constant Matrix: (Units=GPa)
#
#
# Indices 1 2 3 4 5 6 
#
# 1 68.2417 32.4106 28.9066 3.7086 -3.7293 -20.1563
# 2 32.4106 149.1254 39.9887 19.5293 2.5717 -2.4724
# 3 28.9066 39.9887 79.3708 -2.3237 10.9517 6.4001
# 4 3.7086 19.5293 -2.3237 31.5639 2.5899 -2.2920
# 5 -3.7293 2.5717 10.9517 2.5899 30.4861 -1.3891
# 6 -20.1563 -2.4724 6.4001 -2.2920 -1.3891 38.6298
#
#
#
# Elastic Compliance Matrix: (Units=1/GPa)
#
#
# Indices 1 2 3 4 5 6 
#
# 1 0.024976 -0.002337 -0.010230 -0.001807 0.007753 0.014749
# 2 -0.002337 0.008993 -0.003937 -0.005669 0.000838 -0.000298
# 3 -0.010230 -0.003937 0.020445 0.005238 -0.009119 -0.008994
# 4 -0.001807 -0.005669 0.005238 0.036159 -0.004705 -0.000197
# 5 0.007753 0.000838 -0.009119 -0.004705 0.037660 0.006685
# 6 0.014749 -0.000298 -0.008994 -0.000197 0.006685 0.035282
#
#
# Mechanical properties :
#
#
# Convention : Reuss Voigt Hill
#
# Bulk Modulus (GPa) = 46.71998 55.48332 51.10165
# Shear Modulus (GPa) = 24.55087 33.16474 28.85780
#
# Velocity S-wave (km/s) = 3.39358 3.94424 3.67923
# Velocity P-wave (km/s) = 6.10498 6.83878 6.48227
#
# Compressibility (1/GPa) = 0.02140412
#
# Stress axis : x y z
#
# Youngs Moduli (GPa) = 40.03913 111.20308 48.91093
#
# Poissons Ratio (x) = 0.25993 0.50038
# Poissons Ratio (y) = 0.09359 0.19256
# Poissons Ratio (z) = 0.40961 0.43780
#
# Static dielectric constant tensor:
#      x y z
#    x 1.765770 0.004340 0.012240 
#    y 0.004340 1.768680 0.011520 
#    z 0.012240 0.011520 1.779430 
# 
# From -- ./inp_files/335641.got.cif
#   From: 2010.05.17/outbox.cif.g08.bks.cpg/sg2_168_cif.got.tgz:335641.got - 2010.06.03 11:33:40.
