data_PCOD9110655
_publ_section_title
;
Structure prediction by ZEFSAII (Michael W. Deem and Ramdas Pophale) SiO2 
 PCOD9110655
Probable space group: P -1
;
_chemical_formula_sum "Si O2"
_cell_formula_units_Z 16
_cell_length_a 5.155351
_cell_length_b 24.310610
_cell_length_c 19.142272
_cell_angle_alpha 22.840921
_cell_angle_beta 54.228718
_cell_angle_gamma 56.235084
_cell_volume 754.478419
_symmetry_space_group_name_H-M "P -1"
_symmetry_group_IT_number 2
_symmetry_cell_setting 'triclinic'
loop_
_space_group_symop_operation_xyz
x,y,z
-x,-y,-z
loop_
_atom_site_type_symbol
_atom_site_label
_atom_site_fract_x
_atom_site_fract_y
_atom_site_fract_z
Si Si1 0.599956 0.336202 0.668388
Si Si2 0.069495 0.161304 0.984673
Si Si3 0.686307 0.413837 0.814183
Si Si4 0.851884 0.144210 0.632135
Si Si5 0.515048 0.441095 0.963310
Si Si6 0.942167 0.634350 0.764935
Si Si7 0.190959 0.138088 0.829928
Si Si8 0.213528 0.606051 0.566997
O O1 0.500000 0.500000 0.500000
O O2 0.385143 0.242910 0.860554
O O3 0.551018 0.323173 0.607932
O O4 0.958070 0.277853 0.691313
O O5 0.177293 0.117745 0.940250
O O6 0.791598 0.282174 0.901734
O O7 0.008173 0.015624 0.202771
O O8 0.595086 0.369438 0.959619
O O9 0.420721 0.516169 0.696908
O O10 0.987970 0.506197 0.677045
O O11 0.492492 0.136603 0.730053
O O12 0.993449 0.258868 0.528761
O O13 0.920482 0.226246 0.454171
O O14 0.798801 0.523178 0.860801
O O15 0.240051 0.559209 0.846766
O O16 0.351007 0.343169 0.160763
O O17 0.000000 0.000000 0.000000
#
# Coordination Sequence:
#
# PCOD9110655 Si02
#       8
#     2   2   2   2   2   2   2   2
#     4  12  24  40  59  89 129 171 223 270 320 379
#     4  12  27  39  60  95 132 173 217 271 330 385
#     4  12  24  43  65  99 132 168 215 273 331 387
#     4  12  23  43  62  97 125 175 223 268 324 388
#     4  10  20  42  65 103 125 164 210 277 324 384
#     4  10  22  38  71  96 129 161 221 266 324 388
#     4  12  25  43  63  88 135 180 220 276 319 384
#     4  12  24  39  67  92 125 174 219 265 320 388
#
# _framework density 21.206703000000001
#
# number of rings (size 3 to 8) (size 9 to 14) (size 15 to 20)
#    0.000    0.500    6.250    2.625    0.000    2.000 
#    0.000    0.625    0.000    0.000    0.000    7.875 
#    0.000    0.000    0.000    0.000    0.000    0.000 
#
# Total GULP energy -89124.045918 kJ/mol
# GULP energy per Si atom -5570.252870 kJ/mol
# Density = 2.115844 g / cm^3
# Si number density = 21.206703 Si / 1000 Ang^3
#
#
#
# Elastic Constant Matrix: (Units=GPa)
#
#
# Indices 1 2 3 4 5 6 
#
# 1 90.0052 4.2310 22.6387 1.3953 9.9279 -8.5775
# 2 4.2310 40.5154 34.5772 22.0893 -4.0759 -7.5525
# 3 22.6387 34.5772 145.4046 13.3109 2.7384 -5.5814
# 4 1.3953 22.0893 13.3109 47.4956 -1.8018 5.4751
# 5 9.9279 -4.0759 2.7384 -1.8018 21.1366 3.6498
# 6 -8.5775 -7.5525 -5.5814 5.4751 3.6498 25.4531
#
#
#
# Elastic Compliance Matrix: (Units=1/GPa)
#
#
# Indices 1 2 3 4 5 6 
#
# 1 0.012788 0.001376 -0.001854 -0.001385 -0.006578 0.005552
# 2 0.001376 0.047359 -0.008996 -0.021245 0.005010 0.016395
# 3 -0.001854 -0.008996 0.009117 0.001787 -0.001643 -0.001444
# 4 -0.001385 -0.021245 0.001787 0.032081 0.001385 -0.013478
# 5 -0.006578 0.005010 -0.001643 0.001385 0.053256 -0.009025
# 6 0.005552 0.016395 -0.001444 -0.013478 -0.009025 0.049900
#
#
# Mechanical properties :
#
#
# Convention : Reuss Voigt Hill
#
# Bulk Modulus (GPa) = 19.87488 44.31323 32.09405
# Shear Modulus (GPa) = 20.81385 33.11562 26.96474
#
# Velocity S-wave (km/s) = 3.13625 3.95595 3.56971
# Velocity P-wave (km/s) = 4.74416 6.46585 5.67073
#
# Compressibility (1/GPa) = 0.05031478
#
# Stress axis : x y z
#
# Youngs Moduli (GPa) = 78.19557 21.11524 109.68149
#
# Poissons Ratio (x) = -0.02905 0.20339
# Poissons Ratio (y) = -0.10757 0.98674
# Poissons Ratio (z) = 0.14500 0.18996
#
# Static dielectric constant tensor:
#      x y z
#    x 1.815560 0.026870 -0.002800 
#    y 0.026870 1.842150 0.071400 
#    z -0.002800 0.071400 1.810030 
# 
# From -- ./inp_files/584500.got.cif
#   From: 2010.05.17/outbox.cif.g08.bks.cpg/sg2_293_cif.got.tgz:584500.got - 2010.06.03 11:33:40.
