data_PCOD9110274
_publ_section_title
;
Structure prediction by ZEFSAII (Michael W. Deem and Ramdas Pophale) SiO2 
 PCOD9110274
Probable space group: P -1
;
_chemical_formula_sum "Si O2"
_cell_formula_units_Z 14
_cell_length_a 5.677736
_cell_length_b 11.935842
_cell_length_c 14.898791
_cell_angle_alpha 46.885533
_cell_angle_beta 116.487323
_cell_angle_gamma 129.640539
_cell_volume 567.483675
_symmetry_space_group_name_H-M "P -1"
_symmetry_group_IT_number 2
_symmetry_cell_setting 'triclinic'
loop_
_space_group_symop_operation_xyz
x,y,z
-x,-y,-z
loop_
_atom_site_type_symbol
_atom_site_label
_atom_site_fract_x
_atom_site_fract_y
_atom_site_fract_z
Si Si1 0.885126 0.829932 0.794427
Si Si2 0.698369 0.923078 0.419416
Si Si3 0.020118 0.731660 0.623155
Si Si4 0.499066 0.096160 0.037371
Si Si5 0.216603 0.504548 0.115680
Si Si6 0.149292 0.400291 0.527850
Si Si7 0.166146 0.910536 0.240808
O O1 0.680400 0.629225 0.834268
O O2 0.195719 0.861628 0.877807
O O3 0.738556 0.900361 0.801537
O O4 0.008140 0.961692 0.658275
O O5 0.732800 0.765748 0.551728
O O6 0.413732 0.860245 0.341782
O O7 0.715263 0.071560 0.408787
O O8 0.960851 0.593470 0.768664
O O9 0.041713 0.676563 0.555957
O O10 0.202649 0.952419 0.120527
O O11 0.539132 0.291548 0.931404
O O12 0.500000 0.000000 0.000000
O O13 0.000000 0.500000 0.000000
O O14 0.500000 0.500000 0.500000
O O15 0.000000 0.500000 0.500000
O O16 0.128013 0.246232 0.675618
#
# Coordination Sequence:
#
# PCOD9110274 Si02
#       7
#     2   2   2   2   2   2   2
#     4   9  19  40  66  93 137 178 231 301 357 422
#     4   9  19  40  67 105 132 174 238 298 375 426
#     4  10  20  41  72 100 139 185 235 301 364 434
#     4  10  23  40  67  96 138 190 241 287 356 437
#     4   9  20  41  66  97 138 182 234 299 353 429
#     4  12  28  46  69 107 151 192 240 300 373 446
#     4  11  23  42  71  96 140 186 234 307 363 429
#
# _framework density 24.670313
#
# number of rings (size 3 to 8) (size 9 to 14) (size 15 to 20)
#    0.000    2.000    1.429    1.714    4.000    1.714 
#    5.143    0.000    0.000    0.000    0.000    0.000 
#    0.000    0.000    0.000    0.000    0.000    0.000 
#
# Total GULP energy -78154.390841 kJ/mol
# GULP energy per Si atom -5582.456489 kJ/mol
# Density = 2.461416 g / cm^3
# Si number density = 24.670313 Si / 1000 Ang^3
#
#
#
# Elastic Constant Matrix: (Units=GPa)
#
#
# Indices 1 2 3 4 5 6 
#
# 1 87.7780 46.2209 43.0045 -5.6405 -19.0743 -24.7745
# 2 46.2209 128.0053 64.7123 -13.5355 -29.8630 -37.5500
# 3 43.0045 64.7123 162.8679 -9.2686 -29.4270 -16.6438
# 4 -5.6405 -13.5355 -9.2686 42.0761 -3.2474 -2.6511
# 5 -19.0743 -29.8630 -29.4270 -3.2474 41.8020 15.7474
# 6 -24.7745 -37.5500 -16.6438 -2.6511 15.7474 50.6258
#
#
#
# Elastic Compliance Matrix: (Units=1/GPa)
#
#
# Indices 1 2 3 4 5 6 
#
# 1 0.015623 -0.002625 -0.002174 0.001214 0.002170 0.004372
# 2 -0.002625 0.013724 -0.003070 0.004140 0.004208 0.006794
# 3 -0.002174 -0.003070 0.008429 0.000740 0.003405 -0.001590
# 4 0.001214 0.004140 0.000740 0.026021 0.004608 0.003837
# 5 0.002170 0.004208 0.003405 0.004608 0.032379 -0.004528
# 6 0.004372 0.006794 -0.001590 0.003837 -0.004528 0.028018
#
#
# Mechanical properties :
#
#
# Convention : Reuss Voigt Hill
#
# Bulk Modulus (GPa) = 45.37562 76.28075 60.82819
# Shear Modulus (GPa) = 33.94917 41.88169 37.91543
#
# Velocity S-wave (km/s) = 3.71363 4.12473 3.92457
# Velocity P-wave (km/s) = 6.06801 7.32610 6.72653
#
# Compressibility (1/GPa) = 0.02203827
#
# Stress axis : x y z
#
# Youngs Moduli (GPa) = 64.00626 72.86367 118.64396
#
# Poissons Ratio (x) = 0.19126 0.25797
# Poissons Ratio (y) = 0.16801 0.36422
# Poissons Ratio (z) = 0.13917 0.22368
#
# Static dielectric constant tensor:
#      x y z
#    x 2.000500 0.043200 0.021110 
#    y 0.043200 2.050830 -0.007120 
#    z 0.021110 -0.007120 2.023800 
# 
# From -- ./inp_files/367213.got.cif
#   From: 2010.05.17/outbox.cif.g08.bks.cpg/sg2_184_cif.got.tgz:367213.got - 2010.06.03 11:33:40.
