data_PCOD9110417
_publ_section_title
;
Structure prediction by ZEFSAII (Michael W. Deem and Ramdas Pophale) SiO2 
 PCOD9110417
Probable space group: P -1
;
_chemical_formula_sum "Si O2"
_cell_formula_units_Z 16
_cell_length_a 13.859271
_cell_length_b 19.001091
_cell_length_c 9.259333
_cell_angle_alpha 112.141315
_cell_angle_beta 58.650902
_cell_angle_gamma 158.463878
_cell_volume 718.485122
_symmetry_space_group_name_H-M "P -1"
_symmetry_group_IT_number 2
_symmetry_cell_setting 'triclinic'
loop_
_space_group_symop_operation_xyz
x,y,z
-x,-y,-z
loop_
_atom_site_type_symbol
_atom_site_label
_atom_site_fract_x
_atom_site_fract_y
_atom_site_fract_z
Si Si1 0.971428 0.372817 0.212289
Si Si2 0.876096 0.260299 0.764251
Si Si3 0.207358 0.889458 0.015948
Si Si4 0.692788 0.671767 0.272538
Si Si5 0.563076 0.853221 0.597718
Si Si6 0.271699 0.529990 0.402869
Si Si7 0.263786 0.264684 0.376966
Si Si8 0.623349 0.340233 0.127550
O O1 0.947714 0.274974 0.082721
O O2 0.635323 0.198147 0.331697
O O3 0.104509 0.449725 0.326742
O O4 0.201674 0.566930 0.085291
O O5 0.033200 0.342896 0.554538
O O6 0.108249 0.455523 0.826645
O O7 0.559532 0.105243 0.872512
O O8 0.826740 0.156486 0.824498
O O9 0.022381 0.850257 0.104477
O O10 0.533495 0.630930 0.258418
O O11 0.492199 0.470520 0.296336
O O12 0.705840 0.716705 0.457319
O O13 0.414057 0.690935 0.498323
O O14 0.508289 0.804704 0.774342
O O15 0.920224 0.072349 0.460142
O O16 0.371931 0.249005 0.230191
#
# Coordination Sequence:
#
# PCOD9110417 Si02
#       8
#     2   2   2   2   2   2   2   2
#     4  11  24  41  62  90 132 164 203 257 309 367
#     4   9  18  37  61  90 125 153 206 251 301 361
#     4  10  21  37  63  95 121 160 210 255 303 358
#     4  11  21  39  66  94 126 159 198 265 308 363
#     4  11  24  41  66  91 119 169 213 252 304 367
#     4  11  24  43  62  90 130 169 202 247 316 374
#     4  11  21  39  68  96 120 159 212 258 307 360
#     4  10  20  42  61  93 122 159 211 258 299 360
#
# _framework density 22.269075999999998
#
# number of rings (size 3 to 8) (size 9 to 14) (size 15 to 20)
#    0.000    1.500    5.000    1.875    7.000    1.000 
#    0.000    0.625    0.000    0.000    0.000    0.000 
#    0.000    0.000    0.000    0.000    0.000    0.000 
#
# Total GULP energy -89551.089864 kJ/mol
# GULP energy per Si atom -5596.943116 kJ/mol
# Density = 2.221839 g / cm^3
# Si number density = 22.269076 Si / 1000 Ang^3
#
#
#
# Elastic Constant Matrix: (Units=GPa)
#
#
# Indices 1 2 3 4 5 6 
#
# 1 95.6732 36.1924 38.6082 0.6776 -13.7139 30.6106
# 2 36.1924 76.4568 37.3791 -6.7133 -3.2942 21.9196
# 3 38.6082 37.3791 63.8017 -13.6822 -14.0094 25.0838
# 4 0.6776 -6.7133 -13.6822 27.2740 15.2457 -11.1661
# 5 -13.7139 -3.2942 -14.0094 15.2457 31.5450 -3.3931
# 6 30.6106 21.9196 25.0838 -11.1661 -3.3931 37.1136
#
#
#
# Elastic Compliance Matrix: (Units=1/GPa)
#
#
# Indices 1 2 3 4 5 6 
#
# 1 0.021197 -0.003961 -0.005186 -0.018194 0.013585 -0.015871
# 2 -0.003961 0.019998 -0.009065 0.002422 -0.005061 -0.002151
# 3 -0.005186 -0.009065 0.030072 0.006042 0.006342 -0.008296
# 4 -0.018194 0.002422 0.006042 0.073068 -0.037268 0.028069
# 5 0.013585 -0.005061 0.006342 -0.037268 0.055905 -0.018603
# 6 -0.015871 -0.002151 -0.008296 0.028069 -0.018603 0.053656
#
#
# Mechanical properties :
#
#
# Convention : Reuss Voigt Hill
#
# Bulk Modulus (GPa) = 28.69982 51.14345 39.92163
# Shear Modulus (GPa) = 16.55985 27.43666 21.99825
#
# Velocity S-wave (km/s) = 2.72991 3.51387 3.14640
# Velocity P-wave (km/s) = 4.78040 6.28323 5.58262
#
# Compressibility (1/GPa) = 0.03484342
#
# Stress axis : x y z
#
# Youngs Moduli (GPa) = 47.17559 50.00621 33.25305
#
# Poissons Ratio (x) = 0.19808 0.17243
# Poissons Ratio (y) = 0.18687 0.30145
# Poissons Ratio (z) = 0.24463 0.45332
#
# Static dielectric constant tensor:
#      x y z
#    x 1.828310 -0.059200 -0.025720 
#    y -0.059200 1.857120 -0.005020 
#    z -0.025720 -0.005020 1.813480 
# 
# From -- ./inp_files/319393.got.cif
#   From: 2010.05.17/outbox.cif.g08.bks.cpg/sg2_160_cif.got.tgz:319393.got - 2010.06.03 11:33:40.
