data_PCOD9110293
_publ_section_title
;
Structure prediction by ZEFSAII (Michael W. Deem and Ramdas Pophale) SiO2 
 PCOD9110293
Probable space group: P -1
;
_chemical_formula_sum "Si O2"
_cell_formula_units_Z 15
_cell_length_a 11.929803
_cell_length_b 7.549694
_cell_length_c 11.846449
_cell_angle_alpha 128.596837
_cell_angle_beta 46.959381
_cell_angle_gamma 113.576869
_cell_volume 608.845394
_symmetry_space_group_name_H-M "P -1"
_symmetry_group_IT_number 2
_symmetry_cell_setting 'triclinic'
loop_
_space_group_symop_operation_xyz
x,y,z
-x,-y,-z
loop_
_atom_site_type_symbol
_atom_site_label
_atom_site_fract_x
_atom_site_fract_y
_atom_site_fract_z
Si Si1 0.000000 0.500000 0.500000
Si Si2 0.352643 0.764604 0.090516
Si Si3 0.859171 0.837536 0.551709
Si Si4 0.016533 0.744754 0.027762
Si Si5 0.533497 0.930625 0.237931
Si Si6 0.729299 0.835775 0.390194
Si Si7 0.640678 0.333239 0.195539
Si Si8 0.153954 0.341452 0.107457
O O1 0.084235 0.375109 0.499587
O O2 0.106818 0.343339 0.271107
O O3 0.465763 0.781013 0.124305
O O4 0.220569 0.588397 0.134847
O O5 0.270651 0.011103 0.235740
O O6 0.426170 0.697625 0.894969
O O7 0.794548 0.791801 0.453752
O O8 0.000000 0.000000 0.500000
O O9 0.877952 0.895131 0.238103
O O10 0.982478 0.716661 0.907717
O O11 0.000000 0.500000 0.000000
O O12 0.189350 0.791391 0.960188
O O13 0.400314 0.960463 0.434967
O O14 0.546457 0.190955 0.291659
O O15 0.701407 0.821530 0.098415
O O16 0.663065 0.598876 0.301988
#
# Coordination Sequence:
#
# PCOD9110293 Si02
#       8
#     1   2   2   2   2   2   2   2
#     4  12  24  40  70 112 138 178 242 300 346 428
#     4  11  22  44  71  94 143 195 228 291 364 420
#     4  11  22  41  71 104 141 183 236 295 358 415
#     4  10  20  41  72  95 131 187 231 290 358 417
#     4  11  26  41  65 106 143 186 241 291 353 432
#     4  10  22  43  71  99 139 197 235 282 373 429
#     4  11  21  42  71  99 138 186 240 290 356 429
#     4  12  24  44  69 105 142 180 249 300 351 426
#
# _framework density 24.636797000000001
#
# number of rings (size 3 to 8) (size 9 to 14) (size 15 to 20)
#    0.000    1.067    4.000    4.400    0.000    2.133 
#    0.000    4.000    0.000    0.000    0.000    0.000 
#    0.000    0.000    0.000    0.000    0.000    0.000 
#
# Total GULP energy -83657.629315 kJ/mol
# GULP energy per Si atom -5577.175288 kJ/mol
# Density = 2.458072 g / cm^3
# Si number density = 24.636797 Si / 1000 Ang^3
#
#
#
# Elastic Constant Matrix: (Units=GPa)
#
#
# Indices 1 2 3 4 5 6 
#
# 1 97.9492 10.5043 32.4734 4.7060 16.3726 -5.9009
# 2 10.5043 47.7688 5.2985 4.4005 -4.0918 8.4879
# 3 32.4734 5.2985 135.0519 -4.3626 -2.6344 -9.0316
# 4 4.7060 4.4005 -4.3626 34.1946 -5.6612 -3.1458
# 5 16.3726 -4.0918 -2.6344 -5.6612 32.6354 -4.2934
# 6 -5.9009 8.4879 -9.0316 -3.1458 -4.2934 27.4437
#
#
#
# Elastic Compliance Matrix: (Units=1/GPa)
#
#
# Indices 1 2 3 4 5 6 
#
# 1 0.013077 -0.003113 -0.003184 -0.002946 -0.007560 0.001206
# 2 -0.003113 0.023671 -0.000764 -0.002987 0.002880 -0.008134
# 3 -0.003184 -0.000764 0.008545 0.002413 0.003020 0.003113
# 4 -0.002946 -0.002987 0.002413 0.032160 0.007662 0.005970
# 5 -0.007560 0.002880 0.003020 0.007662 0.037046 0.005151
# 6 0.001206 -0.008134 0.003113 0.005970 0.005151 0.041728
#
#
# Mechanical properties :
#
#
# Convention : Reuss Voigt Hill
#
# Bulk Modulus (GPa) = 32.08261 41.92469 37.00365
# Shear Modulus (GPa) = 27.66422 34.35434 31.00928
#
# Velocity S-wave (km/s) = 3.35458 3.73826 3.55160
# Velocity P-wave (km/s) = 5.29668 5.97385 5.64542
#
# Compressibility (1/GPa) = 0.03116954
#
# Stress axis : x y z
#
# Youngs Moduli (GPa) = 76.47151 42.24665 117.02453
#
# Poissons Ratio (x) = 0.13151 0.37263
# Poissons Ratio (y) = 0.23805 0.08946
# Poissons Ratio (z) = 0.24350 0.03229
#
# Static dielectric constant tensor:
#      x y z
#    x 1.929300 0.007480 -0.030860 
#    y 0.007480 1.959560 -0.008820 
#    z -0.030860 -0.008820 2.022590 
# 
# From -- ./inp_files/239903.got.cif
#   From: 2010.05.17/outbox.cif.g08.bks.cpg/sg2_120_cif.got.tgz:239903.got - 2010.06.03 11:33:40.
