data_PCOD9110720
_publ_section_title
;
Structure prediction by ZEFSAII (Michael W. Deem and Ramdas Pophale) SiO2 
 PCOD9110720
Probable space group: P -1
;
_chemical_formula_sum "Si O2"
_cell_formula_units_Z 15
_cell_length_a 17.550821
_cell_length_b 7.701590
_cell_length_c 5.806337
_cell_angle_alpha 120.972258
_cell_angle_beta 84.700772
_cell_angle_gamma 77.612710
_cell_volume 637.713334
_symmetry_space_group_name_H-M "P -1"
_symmetry_group_IT_number 2
_symmetry_cell_setting 'triclinic'
loop_
_space_group_symop_operation_xyz
x,y,z
-x,-y,-z
loop_
_atom_site_type_symbol
_atom_site_label
_atom_site_fract_x
_atom_site_fract_y
_atom_site_fract_z
Si Si1 0.289941 0.420788 0.359200
Si Si2 0.589046 0.419563 0.325494
Si Si3 0.706491 0.989632 0.213811
Si Si4 0.687144 0.243985 0.786463
Si Si5 0.061902 0.528819 0.190319
Si Si6 0.000000 0.000000 0.500000
Si Si7 0.107030 0.068433 0.941472
Si Si8 0.171109 0.678567 0.925013
O O1 0.363407 0.413152 0.506355
O O2 0.296573 0.599635 0.301267
O O3 0.208934 0.520054 0.597903
O O4 0.295925 0.214174 0.067976
O O5 0.500000 0.500000 0.500000
O O6 0.637797 0.190935 0.266282
O O7 0.603609 0.364179 0.014940
O O8 0.690517 0.021561 0.515198
O O9 0.797280 0.998865 0.175530
O O10 0.759704 0.231432 0.932557
O O11 0.022939 0.762816 0.455119
O O12 0.083589 0.316057 0.189344
O O13 0.138591 0.555048 0.044944
O O14 0.000000 0.500000 0.000000
O O15 0.936226 0.943047 0.294971
O O16 0.099904 0.890239 0.008965
#
# Coordination Sequence:
#
# PCOD9110720 Si02
#       8
#     2   2   2   2   2   1   2   2
#     4  10  23  41  66 106 130 177 235 282 338 412
#     4  10  23  43  65 100 144 182 221 274 345 412
#     4  11  22  40  68 100 131 174 239 277 342 412
#     4  10  20  42  65  97 135 179 221 285 336 401
#     4  10  24  43  63  97 130 177 224 288 348 405
#     4  10  24  44  66  90 142 170 226 296 342 410
#     4  11  22  43  68 100 128 180 236 284 347 414
#     4  11  22  45  73  95 140 181 231 291 343 420
#
# _framework density 23.521540999999999
#
# number of rings (size 3 to 8) (size 9 to 14) (size 15 to 20)
#    0.000    1.600    4.000    1.600    1.867    8.000 
#    4.800    4.667    0.000    0.000    0.000    0.000 
#    0.000    0.000    0.000    0.000    0.000    0.000 
#
# Total GULP energy -83518.578857 kJ/mol
# GULP energy per Si atom -5567.905257 kJ/mol
# Density = 2.346800 g / cm^3
# Si number density = 23.521541 Si / 1000 Ang^3
#
#
#
# Elastic Constant Matrix: (Units=GPa)
#
#
# Indices 1 2 3 4 5 6 
#
# 1 93.8454 28.2504 47.3204 20.4123 -22.4904 0.1595
# 2 28.2504 106.0524 43.1576 26.3386 -5.2792 1.0689
# 3 47.3204 43.1576 173.3606 40.9381 0.7874 10.8861
# 4 20.4123 26.3386 40.9381 44.3930 9.8271 -3.3740
# 5 -22.4904 -5.2792 0.7874 9.8271 37.3480 2.3581
# 6 0.1595 1.0689 10.8861 -3.3740 2.3581 23.6530
#
#
#
# Elastic Compliance Matrix: (Units=1/GPa)
#
#
# Indices 1 2 3 4 5 6 
#
# 1 0.016762 -0.000938 -0.002531 -0.007582 0.012085 -0.001192
# 2 -0.000938 0.011859 -0.001157 -0.006259 0.002857 -0.001175
# 3 -0.002531 -0.001157 0.008572 -0.006448 0.000132 -0.004809
# 4 -0.007582 -0.006259 -0.006448 0.040148 -0.016553 0.010679
# 5 0.012085 0.002857 0.000132 -0.016553 0.039222 -0.006543
# 6 -0.001192 -0.001175 -0.004809 0.010679 -0.006543 0.046728
#
#
# Mechanical properties :
#
#
# Convention : Reuss Voigt Hill
#
# Bulk Modulus (GPa) = 35.79324 67.85723 51.82524
# Shear Modulus (GPa) = 27.49413 38.04746 32.77079
#
# Velocity S-wave (km/s) = 3.42261 4.02625 3.73664
# Velocity P-wave (km/s) = 5.55602 7.10816 6.37947
#
# Compressibility (1/GPa) = 0.02793824
#
# Stress axis : x y z
#
# Youngs Moduli (GPa) = 59.65837 84.32672 116.66548
#
# Poissons Ratio (x) = 0.07913 0.29532
# Poissons Ratio (y) = 0.05598 0.13502
# Poissons Ratio (z) = 0.15102 0.09759
#
# Static dielectric constant tensor:
#      x y z
#    x 1.883380 -0.006210 -0.025430 
#    y -0.006210 1.939120 -0.079010 
#    z -0.025430 -0.079010 2.063930 
# 
# From -- ./inp_files/116481.got.cif
#   From: 2010.05.17/outbox.cif.g08.bks.cpg/sg2_59_cif.got.tgz:116481.got - 2010.06.03 11:33:40.
