data_PCOD9110192
_publ_section_title
;
Structure prediction by ZEFSAII (Michael W. Deem and Ramdas Pophale) SiO2 
 PCOD9110192
Probable space group: P -1
;
_chemical_formula_sum "Si O2"
_cell_formula_units_Z 14
_cell_length_a 5.034642
_cell_length_b 8.871183
_cell_length_c 17.677030
_cell_angle_alpha 102.630268
_cell_angle_beta 105.703042
_cell_angle_gamma 125.082381
_cell_volume 547.313301
_symmetry_space_group_name_H-M "P -1"
_symmetry_group_IT_number 2
_symmetry_cell_setting 'triclinic'
loop_
_space_group_symop_operation_xyz
x,y,z
-x,-y,-z
loop_
_atom_site_type_symbol
_atom_site_label
_atom_site_fract_x
_atom_site_fract_y
_atom_site_fract_z
Si Si1 0.959069 0.841962 0.804881
Si Si2 0.014217 0.654440 0.189128
Si Si3 0.285979 0.564491 0.313297
Si Si4 0.615239 0.864788 0.501211
Si Si5 0.832232 0.297161 0.058964
Si Si6 0.896266 0.812235 0.065562
Si Si7 0.977296 0.941558 0.303375
O O1 0.719822 0.619905 0.719836
O O2 0.151400 0.814527 0.882259
O O3 0.841790 0.953491 0.853265
O O4 0.169866 0.999045 0.766609
O O5 0.105961 0.543222 0.128333
O O6 0.770362 0.660774 0.110813
O O7 0.162870 0.860937 0.269906
O O8 0.928987 0.514359 0.240788
O O9 0.339874 0.646903 0.411015
O O10 0.627742 0.758157 0.308396
O O11 0.500000 0.000000 0.500000
O O12 0.000000 0.000000 0.500000
O O13 0.716872 0.869220 0.596356
O O14 0.435337 0.225773 0.006415
O O15 0.927203 0.237218 0.985574
#
# Coordination Sequence:
#
# PCOD9110192 Si02
#       7
#     2   2   2   2   2   2   2
#     4  10  24  43  66  98 128 174 218 271 322 386
#     4  10  22  37  66  94 124 174 220 267 322 388
#     4  10  22  42  68  96 132 170 214 268 325 391
#     4  10  20  41  70  97 133 171 210 263 331 387
#     4  11  24  42  62  91 132 173 218 273 326 380
#     4  11  24  42  62  91 132 173 218 273 326 380
#     4  10  22  42  68  96 132 170 214 268 325 391
#
# _framework density 25.579498999999998
#
# number of rings (size 3 to 8) (size 9 to 14) (size 15 to 20)
#    0.000    1.714    1.429    1.714    8.000    0.571 
#    5.143    0.000    0.000    3.429    0.000    0.000 
#    0.000    0.000    0.000    0.000    0.000    0.000 
#
# Total GULP energy -77977.044509 kJ/mol
# GULP energy per Si atom -5569.788894 kJ/mol
# Density = 2.552128 g / cm^3
# Si number density = 25.579499 Si / 1000 Ang^3
#
#
#
# Elastic Constant Matrix: (Units=GPa)
#
#
# Indices 1 2 3 4 5 6 
#
# 1 92.2596 38.3727 23.4956 5.6931 -33.1526 -24.4100
# 2 38.3727 140.8024 80.2538 10.3194 -11.7318 -26.3904
# 3 23.4956 80.2538 198.3358 18.7777 -38.1408 -18.5949
# 4 5.6931 10.3194 18.7777 47.8198 -17.6019 -4.1006
# 5 -33.1526 -11.7318 -38.1408 -17.6019 37.4122 7.6372
# 6 -24.4100 -26.3904 -18.5949 -4.1006 7.6372 31.5234
#
#
#
# Elastic Compliance Matrix: (Units=1/GPa)
#
#
# Indices 1 2 3 4 5 6 
#
# 1 0.023087 -0.005198 0.004440 0.006464 0.024121 0.011141
# 2 -0.005198 0.011740 -0.005047 -0.002564 -0.008190 0.004477
# 3 0.004440 -0.005047 0.008833 0.001562 0.011727 0.001785
# 4 0.006464 -0.002564 0.001562 0.027225 0.018758 0.002777
# 5 0.024121 -0.008190 0.011727 0.018758 0.065219 0.005378
# 6 0.011141 0.004477 0.001785 0.002777 0.005378 0.044209
#
#
# Mechanical properties :
#
#
# Convention : Reuss Voigt Hill
#
# Bulk Modulus (GPa) = 31.20264 79.51576 55.35920
# Shear Modulus (GPa) = 24.67828 42.63612 33.65720
#
# Velocity S-wave (km/s) = 3.10944 4.08709 3.63131
# Velocity P-wave (km/s) = 5.01161 7.30928 6.26665
#
# Compressibility (1/GPa) = 0.03204857
#
# Stress axis : x y z
#
# Youngs Moduli (GPa) = 43.31430 85.17758 113.21283
#
# Poissons Ratio (x) = 0.44276 -0.50261
# Poissons Ratio (y) = 0.22515 0.57142
# Poissons Ratio (z) = -0.19230 0.42992
#
# Static dielectric constant tensor:
#      x y z
#    x 2.195670 0.084650 0.132610 
#    y 0.084650 2.005480 0.044890 
#    z 0.132610 0.044890 2.111620 
# 
# From -- ./inp_files/208565.got.cif
#   From: 2010.05.17/outbox.cif.g08.bks.cpg/sg2_105_cif.got.tgz:208565.got - 2010.06.03 11:33:40.
