data_PCOD9110827
_publ_section_title
;
Structure prediction by ZEFSAII (Michael W. Deem and Ramdas Pophale) SiO2 
 PCOD9110827
Probable space group: P -1
;
_chemical_formula_sum "Si O2"
_cell_formula_units_Z 13
_cell_length_a 9.913862
_cell_length_b 9.413474
_cell_length_c 9.905020
_cell_angle_alpha 62.814496
_cell_angle_beta 65.799031
_cell_angle_gamma 42.266893
_cell_volume 549.038653
_symmetry_space_group_name_H-M "P -1"
_symmetry_group_IT_number 2
_symmetry_cell_setting 'triclinic'
loop_
_space_group_symop_operation_xyz
x,y,z
-x,-y,-z
loop_
_atom_site_type_symbol
_atom_site_label
_atom_site_fract_x
_atom_site_fract_y
_atom_site_fract_z
Si Si1 0.325928 0.681099 0.390342
Si Si2 0.266986 0.061987 0.361512
Si Si3 0.370463 0.070012 0.886719
Si Si4 0.500000 0.000000 0.500000
Si Si5 0.486889 0.372046 0.951657
Si Si6 0.835665 0.488869 0.604639
Si Si7 0.913658 0.476920 0.868934
O O1 0.500000 0.500000 0.500000
O O2 0.229034 0.917465 0.379226
O O3 0.429108 0.639822 0.222046
O O4 0.177053 0.643349 0.440631
O O5 0.506575 0.936324 0.283464
O O6 0.292461 0.053799 0.513943
O O7 0.144661 0.296514 0.241596
O O8 0.143688 0.295315 0.897786
O O9 0.500000 0.000000 0.000000
O O10 0.381159 0.874291 0.943019
O O11 0.377325 0.261250 0.410883
O O12 0.500000 0.500000 0.000000
O O13 0.258299 0.472645 0.988932
O O14 0.888418 0.397559 0.774058
O O15 0.000000 0.500000 0.500000
#
# Coordination Sequence:
#
# PCOD9110827 Si02
#       7
#     2   2   2   1   2   2   2
#     4  12  24  45  72 105 148 182 234 302 346 420
#     4  10  22  42  69 102 139 187 233 285 361 412
#     4  11  23  44  70 100 138 181 235 304 352 414
#     4  10  20  42  66  94 142 186 222 274 348 432
#     4  11  24  46  68 105 139 186 237 291 359 415
#     4  11  23  43  69 101 141 188 235 281 361 421
#     4  10  24  43  73 100 139 188 241 285 358 435
#
# _framework density 23.677748999999999
#
# number of rings (size 3 to 8) (size 9 to 14) (size 15 to 20)
#    0.000    1.231    4.615    0.923    0.000    3.077 
#    0.000    4.615    0.000    0.000    0.000    0.000 
#    0.000    0.000    0.000    0.000    0.000    0.000 
#
# Total GULP energy -72512.333077 kJ/mol
# GULP energy per Si atom -5577.871775 kJ/mol
# Density = 2.362386 g / cm^3
# Si number density = 23.677749 Si / 1000 Ang^3
#
#
#
# Elastic Constant Matrix: (Units=GPa)
#
#
# Indices 1 2 3 4 5 6 
#
# 1 163.9720 90.0342 18.2525 -27.9167 0.3108 5.6792
# 2 90.0342 149.0606 -0.6304 -24.1095 -1.2890 14.2129
# 3 18.2525 -0.6304 52.7803 -6.9106 -7.2966 -5.2851
# 4 -27.9167 -24.1095 -6.9106 26.5188 -0.7612 -4.9397
# 5 0.3108 -1.2890 -7.2966 -0.7612 39.2357 0.7187
# 6 5.6792 14.2129 -5.2851 -4.9397 0.7187 73.9414
#
#
#
# Elastic Compliance Matrix: (Units=1/GPa)
#
#
# Indices 1 2 3 4 5 6 
#
# 1 0.010282 -0.005433 -0.003007 0.005152 -0.000726 0.000391
# 2 -0.005433 0.010878 0.002640 0.004666 0.001004 -0.001183
# 3 -0.003007 0.002640 0.021436 0.005232 0.004170 0.001565
# 4 0.005152 0.004666 0.005232 0.049234 0.001998 0.002351
# 5 -0.000726 0.001004 0.004170 0.001998 0.026339 0.000038
# 6 0.000391 -0.001183 0.001565 0.002351 0.000038 0.013990
#
#
# Mechanical properties :
#
#
# Convention : Reuss Voigt Hill
#
# Bulk Modulus (GPa) = 32.26322 64.56951 48.41636
# Shear Modulus (GPa) = 32.44834 45.14961 38.79897
#
# Velocity S-wave (km/s) = 3.70593 4.37147 4.05239
# Velocity P-wave (km/s) = 5.65397 7.26698 6.51062
#
# Compressibility (1/GPa) = 0.03099505
#
# Stress axis : x y z
#
# Youngs Moduli (GPa) = 97.26079 91.93090 46.65033
#
# Poissons Ratio (x) = 0.49947 0.14028
# Poissons Ratio (y) = 0.52843 -0.12316
# Poissons Ratio (z) = 0.29248 -0.24270
#
# Static dielectric constant tensor:
#      x y z
#    x 1.935530 -0.029240 -0.122170 
#    y -0.029240 1.944900 0.025210 
#    z -0.122170 0.025210 1.862890 
# 
# From -- ./inp_files/411818.got.cif
#   From: 2010.05.17/outbox.cif.g08.bks.cpg/sg2_206_cif.got.tgz:411818.got - 2010.06.03 11:33:40.
