data_PCOD9110551
_publ_section_title
;
Structure prediction by ZEFSAII (Michael W. Deem and Ramdas Pophale) SiO2 
 PCOD9110551
Probable space group: P -1
;
_chemical_formula_sum "Si O2"
_cell_formula_units_Z 16
_cell_length_a 5.797293
_cell_length_b 5.011166
_cell_length_c 21.071074
_cell_angle_alpha 79.822795
_cell_angle_beta 68.446211
_cell_angle_gamma 75.108949
_cell_volume 547.904056
_symmetry_space_group_name_H-M "P -1"
_symmetry_group_IT_number 2
_symmetry_cell_setting 'triclinic'
loop_
_space_group_symop_operation_xyz
x,y,z
-x,-y,-z
loop_
_atom_site_type_symbol
_atom_site_label
_atom_site_fract_x
_atom_site_fract_y
_atom_site_fract_z
Si Si1 0.567094 0.371717 0.926671
Si Si2 0.010277 0.750298 0.441122
Si Si3 0.474722 0.037874 0.595396
Si Si4 0.937596 0.718131 0.054868
Si Si5 0.997617 0.094899 0.141012
Si Si6 0.266012 0.253052 0.745064
Si Si7 0.749561 0.715164 0.787590
Si Si8 0.655015 0.572930 0.677523
O O1 0.374025 0.196752 0.926569
O O2 0.856568 0.165195 0.909289
O O3 0.581795 0.595116 0.862015
O O4 0.500000 0.500000 0.000000
O O5 0.722180 0.897248 0.445374
O O6 0.000000 0.500000 0.500000
O O7 0.236969 0.899225 0.437212
O O8 0.109048 0.624986 0.368345
O O9 0.344348 0.169805 0.668637
O O10 0.513709 0.716294 0.623558
O O11 0.966256 0.414202 0.112766
O O12 0.000000 0.500000 0.000000
O O13 0.000000 0.000000 0.000000
O O14 0.751310 0.987862 0.192401
O O15 0.156768 0.052279 0.191457
O O16 0.475480 0.415492 0.740496
O O17 0.999777 0.468657 0.763355
O O18 0.704950 0.791551 0.715039
#
# Coordination Sequence:
#
# PCOD9110551 Si02
#       8
#     2   2   2   2   2   2   2   2
#     4   9  22  39  62  90 127 167 214 271 330 388
#     4  11  26  47  67  98 138 178 226 278 326 396
#     4  11  25  42  72 100 132 175 229 271 338 396
#     4  10  20  42  64  85 126 174 219 269 326 388
#     4   9  22  35  65  93 127 168 214 266 333 396
#     4  10  21  41  61  95 138 165 218 272 338 396
#     4  11  21  40  63  97 133 170 214 276 343 399
#     4  11  25  39  71  96 138 178 220 281 342 397
#
# _framework density 29.202190999999999
#
# number of rings (size 3 to 8) (size 9 to 14) (size 15 to 20)
#    0.750    1.000    1.250    2.250    3.500    4.000 
#    0.000    1.250    0.000    0.000    0.000    0.000 
#    0.000    0.000    0.000    0.000    0.000    0.000 
#
# Total GULP energy -89225.452883 kJ/mol
# GULP energy per Si atom -5576.590805 kJ/mol
# Density = 2.913573 g / cm^3
# Si number density = 29.202191 Si / 1000 Ang^3
#
#
#
# Elastic Constant Matrix: (Units=GPa)
#
#
# Indices 1 2 3 4 5 6 
#
# 1 202.1044 76.1706 102.4992 -32.0517 25.9553 -8.0692
# 2 76.1706 173.1242 64.6508 -18.9838 -3.5407 13.6393
# 3 102.4992 64.6508 156.5529 -15.1912 -3.6775 7.8507
# 4 -32.0517 -18.9838 -15.1912 69.1680 -4.9282 4.4630
# 5 25.9553 -3.5407 -3.6775 -4.9282 63.3629 -3.2097
# 6 -8.0692 13.6393 7.8507 4.4630 -3.2097 53.4690
#
#
#
# Elastic Compliance Matrix: (Units=1/GPa)
#
#
# Indices 1 2 3 4 5 6 
#
# 1 0.009377 -0.002200 -0.005231 0.002159 -0.003982 0.002325
# 2 -0.002200 0.007584 -0.001467 0.000959 0.001210 -0.002059
# 3 -0.005231 -0.001467 0.010548 -0.000212 0.002566 -0.001792
# 4 0.002159 0.000959 -0.000212 0.015774 0.000324 -0.001185
# 5 -0.003982 0.001210 0.002566 0.000324 0.017642 -0.000254
# 6 0.002325 -0.002059 -0.001792 -0.001185 -0.000254 0.019925
#
#
# Mechanical properties :
#
#
# Convention : Reuss Voigt Hill
#
# Bulk Modulus (GPa) = 102.95968 113.15807 108.05888
# Shear Modulus (GPa) = 49.07541 56.43069 52.75305
#
# Velocity S-wave (km/s) = 4.10388 4.40069 4.25488
# Velocity P-wave (km/s) = 7.60197 8.04086 7.82449
#
# Compressibility (1/GPa) = 0.00971254
#
# Stress axis : x y z
#
# Youngs Moduli (GPa) = 106.64708 131.85718 94.80348
#
# Poissons Ratio (x) = 0.29007 0.49595
# Poissons Ratio (y) = 0.23461 0.13907
# Poissons Ratio (z) = 0.55791 0.19342
#
# Static dielectric constant tensor:
#      x y z
#    x 2.608920 -0.131200 -0.097950 
#    y -0.131200 2.364570 0.097260 
#    z -0.097950 0.097260 2.305840 
# 
# From -- ./inp_files/603199.got.cif
#   From: 2010.05.17/outbox.cif.g08.bks.cpg/sg2_302_cif.got.tgz:603199.got - 2010.06.03 11:33:40.
