data_PCOD9110159
_publ_section_title
;
Structure prediction by ZEFSAII (Michael W. Deem and Ramdas Pophale) SiO2 
 PCOD9110159
Probable space group: P -1
;
_chemical_formula_sum "Si O2"
_cell_formula_units_Z 16
_cell_length_a 8.105033
_cell_length_b 5.989539
_cell_length_c 18.354359
_cell_angle_alpha 52.765559
_cell_angle_beta 84.032372
_cell_angle_gamma 98.526848
_cell_volume 680.001689
_symmetry_space_group_name_H-M "P -1"
_symmetry_group_IT_number 2
_symmetry_cell_setting 'triclinic'
loop_
_space_group_symop_operation_xyz
x,y,z
-x,-y,-z
loop_
_atom_site_type_symbol
_atom_site_label
_atom_site_fract_x
_atom_site_fract_y
_atom_site_fract_z
Si Si1 0.685464 0.218383 0.646692
Si Si2 0.266395 0.632126 0.920528
Si Si3 0.384904 0.626312 0.763232
Si Si4 0.528369 0.092002 0.898018
Si Si5 0.982361 0.932989 0.928825
Si Si6 0.118645 0.611293 0.242927
Si Si7 0.888296 0.962457 0.586228
Si Si8 0.515653 0.698128 0.592655
O O1 0.795943 0.277121 0.704607
O O2 0.556224 0.429653 0.598742
O O3 0.551235 0.900552 0.716786
O O4 0.834323 0.225599 0.577679
O O5 0.256310 0.649505 0.829694
O O6 0.128028 0.780838 0.930374
O O7 0.452233 0.815830 0.903903
O O8 0.204491 0.304299 0.019166
O O9 0.421973 0.321322 0.838683
O O10 0.369194 0.622785 0.676595
O O11 0.721171 0.284239 0.839267
O O12 0.500000 0.000000 0.000000
O O13 0.002491 0.204887 0.820406
O O14 0.000000 0.000000 0.000000
O O15 0.047864 0.262153 0.320381
O O16 0.698981 0.782885 0.606979
O O17 0.000000 0.000000 0.500000
O O18 0.500000 0.000000 0.500000
#
# Coordination Sequence:
#
# PCOD9110159 Si02
#       8
#     2   2   2   2   2   2   2   2
#     4  10  20  41  70  91 136 168 222 273 345 393
#     4  11  24  42  63  95 136 182 223 274 346 397
#     4  11  20  40  64  97 134 164 224 278 328 404
#     4  12  23  38  69 100 131 174 229 282 333 400
#     4  11  26  45  61  94 143 180 225 278 335 412
#     4  11  22  42  66  97 131 175 226 283 327 402
#     4  10  23  44  64  99 132 175 220 279 336 409
#     4  10  22  42  65  97 129 169 222 283 332 404
#
# _framework density 23.529354999999999
#
# number of rings (size 3 to 8) (size 9 to 14) (size 15 to 20)
#    0.000    1.250    5.000    2.250    1.750    7.000 
#   11.250    0.000    0.000    0.000    0.000    0.000 
#    0.000    0.000    0.000    0.000    0.000    0.000 
#
# Total GULP energy -89169.330495 kJ/mol
# GULP energy per Si atom -5573.083156 kJ/mol
# Density = 2.347580 g / cm^3
# Si number density = 23.529355 Si / 1000 Ang^3
#
#
#
# Elastic Constant Matrix: (Units=GPa)
#
#
# Indices 1 2 3 4 5 6 
#
# 1 37.5584 17.9202 24.2754 -4.2328 -5.8564 -14.9765
# 2 17.9202 92.4631 58.8151 -6.4496 -1.7478 -22.8823
# 3 24.2754 58.8151 173.7497 -3.2038 -1.4945 -34.0727
# 4 -4.2328 -6.4496 -3.2038 36.2110 -15.2593 -12.0893
# 5 -5.8564 -1.7478 -1.4945 -15.2593 46.6492 3.0881
# 6 -14.9765 -22.8823 -34.0727 -12.0893 3.0881 34.4912
#
#
#
# Elastic Compliance Matrix: (Units=1/GPa)
#
#
# Indices 1 2 3 4 5 6 
#
# 1 0.038172 -0.000917 -0.000918 0.014038 0.008045 0.019260
# 2 -0.000917 0.015738 -0.003373 0.006036 0.001767 0.008669
# 3 -0.000918 -0.003373 0.008317 0.002299 0.000356 0.006354
# 4 0.014038 0.006036 0.002299 0.046058 0.015331 0.027142
# 5 0.008045 0.001767 0.000356 0.015331 0.027011 0.007973
# 6 0.019260 0.008669 0.006354 0.027142 0.007973 0.058183
#
#
# Mechanical properties :
#
#
# Convention : Reuss Voigt Hill
#
# Bulk Modulus (GPa) = 19.30037 56.19918 37.74978
# Shear Modulus (GPa) = 22.60756 36.98764 29.79760
#
# Velocity S-wave (km/s) = 3.10308 3.96912 3.56251
# Velocity P-wave (km/s) = 4.58904 6.70386 5.74461
#
# Compressibility (1/GPa) = 0.05181247
#
# Stress axis : x y z
#
# Youngs Moduli (GPa) = 26.19687 63.54072 120.23837
#
# Poissons Ratio (x) = 0.05824 0.11038
# Poissons Ratio (y) = 0.02401 0.40555
# Poissons Ratio (z) = 0.02405 0.21432
#
# Static dielectric constant tensor:
#      x y z
#    x 1.932130 -0.013900 -0.029220 
#    y -0.013900 2.052450 0.015690 
#    z -0.029220 0.015690 1.809880 
# 
# From -- ./inp_files/525771.got.cif
#   From: 2010.05.17/outbox.cif.g08.bks.cpg/sg2_263_cif.got.tgz:525771.got - 2010.06.03 11:33:40.
