data_PCOD9110912
_publ_section_title
;
Structure prediction by ZEFSAII (Michael W. Deem and Ramdas Pophale) SiO2 
 PCOD9110912
Probable space group: P -1
;
_chemical_formula_sum "Si O2"
_cell_formula_units_Z 14
_cell_length_a 16.712017
_cell_length_b 13.599528
_cell_length_c 12.066733
_cell_angle_alpha 30.184533
_cell_angle_beta 30.489248
_cell_angle_gamma 27.058956
_cell_volume 574.361126
_symmetry_space_group_name_H-M "P -1"
_symmetry_group_IT_number 2
_symmetry_cell_setting 'triclinic'
loop_
_space_group_symop_operation_xyz
x,y,z
-x,-y,-z
loop_
_atom_site_type_symbol
_atom_site_label
_atom_site_fract_x
_atom_site_fract_y
_atom_site_fract_z
Si Si1 0.182808 0.262161 0.931221
Si Si2 0.917666 0.159496 0.257261
Si Si3 0.754606 0.905563 0.729051
Si Si4 0.928219 0.339439 0.839167
Si Si5 0.905583 0.384646 0.576764
Si Si6 0.536086 0.779399 0.959768
Si Si7 0.732505 0.365141 0.601876
O O1 0.225109 0.460667 0.676527
O O2 0.194186 0.186781 0.117665
O O3 0.977911 0.331900 0.060424
O O4 0.356974 0.031555 0.881236
O O5 0.089545 0.911712 0.349549
O O6 0.732568 0.158783 0.507416
O O7 0.928900 0.181775 0.090081
O O8 0.921633 0.765064 0.572367
O O9 0.598696 0.865442 0.906450
O O10 0.940036 0.264300 0.771893
O O11 0.092002 0.385257 0.624803
O O12 0.725795 0.601572 0.836018
O O13 0.727120 0.425448 0.680723
O O14 0.447937 0.627574 0.232638
#
# Coordination Sequence:
#
# PCOD9110912 Si02
#       7
#     2   2   2   2   2   2   2
#     4  11  22  43  63  91 134 162 204 260 305 385
#     4  10  22  40  66  95 120 165 211 262 306 363
#     4  10  22  40  64  95 123 164 214 252 312 364
#     4  10  20  42  67  91 125 156 218 261 302 370
#     4   9  20  40  67  91 119 166 210 260 307 362
#     4  10  24  41  59  96 125 170 205 248 320 371
#     4  10  22  40  63  92 129 167 205 249 321 364
#
# _framework density 24.374908999999999
#
# number of rings (size 3 to 8) (size 9 to 14) (size 15 to 20)
#    0.000    2.000    1.429    0.857    2.000    5.714 
#   10.286    0.714    3.143    0.000    0.000    0.000 
#    0.000    0.000    0.000    0.000    0.000    0.000 
#
# Total GULP energy -78057.489814 kJ/mol
# GULP energy per Si atom -5575.534987 kJ/mol
# Density = 2.431943 g / cm^3
# Si number density = 24.374909 Si / 1000 Ang^3
#
#
#
# Elastic Constant Matrix: (Units=GPa)
#
#
# Indices 1 2 3 4 5 6 
#
# 1 162.2900 1.0486 86.9609 16.9736 -15.1312 12.3572
# 2 1.0486 75.9481 10.8924 0.5458 5.2483 6.5394
# 3 86.9609 10.8924 178.5503 -25.1297 -10.8095 1.2681
# 4 16.9736 0.5458 -25.1297 23.5964 1.4111 7.5485
# 5 -15.1312 5.2483 -10.8095 1.4111 67.7402 2.6387
# 6 12.3572 6.5394 1.2681 7.5485 2.6387 21.3627
#
#
#
# Elastic Compliance Matrix: (Units=1/GPa)
#
#
# Indices 1 2 3 4 5 6 
#
# 1 0.013274 0.001218 -0.009103 -0.019060 0.001854 -0.001005
# 2 0.001218 0.013822 -0.001686 -0.001608 -0.000872 -0.004159
# 3 -0.009103 -0.001686 0.013162 0.021430 -0.000149 -0.002554
# 4 -0.019060 -0.001608 0.021430 0.085356 -0.001724 -0.019702
# 5 0.001854 -0.000872 -0.000149 -0.001724 0.015337 -0.002082
# 6 -0.001005 -0.004159 -0.002554 -0.019702 -0.002082 0.056036
#
#
# Mechanical properties :
#
#
# Convention : Reuss Voigt Hill
#
# Bulk Modulus (GPa) = 47.35628 68.28802 57.82215
# Shear Modulus (GPa) = 22.40473 43.73229 33.06851
#
# Velocity S-wave (km/s) = 3.03507 4.24034 3.68729
# Velocity P-wave (km/s) = 5.63495 7.21460 6.47314
#
# Compressibility (1/GPa) = 0.02111652
#
# Stress axis : x y z
#
# Youngs Moduli (GPa) = 75.33326 72.34937 75.97609
#
# Poissons Ratio (x) = -0.08809 0.69158
# Poissons Ratio (y) = -0.09172 0.12808
# Poissons Ratio (z) = 0.68573 0.12197
#
# Static dielectric constant tensor:
#      x y z
#    x 2.023310 -0.014630 -0.099890 
#    y -0.014630 2.050200 -0.006380 
#    z -0.099890 -0.006380 2.000800 
# 
# From -- ./inp_files/465723.got.cif
#   From: 2010.05.17/outbox.cif.g08.bks.cpg/sg2_233_cif.got.tgz:465723.got - 2010.06.03 11:33:40.
