data_PCOD9110051
_publ_section_title
;
Structure prediction by ZEFSAII (Michael W. Deem and Ramdas Pophale) SiO2 
 PCOD9110051
Probable space group: P -1
;
_chemical_formula_sum "Si O2"
_cell_formula_units_Z 16
_cell_length_a 9.161469
_cell_length_b 20.692228
_cell_length_c 9.263896
_cell_angle_alpha 78.283280
_cell_angle_beta 59.683188
_cell_angle_gamma 128.205156
_cell_volume 774.794051
_symmetry_space_group_name_H-M "P -1"
_symmetry_group_IT_number 2
_symmetry_cell_setting 'triclinic'
loop_
_space_group_symop_operation_xyz
x,y,z
-x,-y,-z
loop_
_atom_site_type_symbol
_atom_site_label
_atom_site_fract_x
_atom_site_fract_y
_atom_site_fract_z
Si Si1 0.271105 0.374833 0.971973
Si Si2 0.726429 0.307334 0.690711
Si Si3 0.301213 0.565758 0.467992
Si Si4 0.642295 0.030900 0.574710
Si Si5 0.220875 0.764647 0.945420
Si Si6 0.764928 0.865809 0.743781
Si Si7 0.671817 0.622448 0.507765
Si Si8 0.037517 0.753268 0.522179
O O1 0.421057 0.362317 0.819051
O O2 0.494702 0.509016 0.745590
O O3 0.923913 0.276956 0.122407
O O4 0.223575 0.344797 0.175893
O O5 0.707318 0.358401 0.558767
O O6 0.849061 0.280465 0.574076
O O7 0.976837 0.425501 0.626221
O O8 0.394909 0.180572 0.997181
O O9 0.413764 0.573962 0.560159
O O10 0.673554 0.107103 0.619378
O O11 0.009367 0.123447 0.359473
O O12 0.500000 0.000000 0.500000
O O13 0.424409 0.899517 0.807100
O O14 0.443247 0.774278 0.849951
O O15 0.920940 0.670665 0.249488
O O16 0.000000 0.000000 0.500000
O O17 0.875663 0.732385 0.471185
#
# Coordination Sequence:
#
# PCOD9110051 Si02
#       8
#     2   2   2   2   2   2   2   2
#     4  11  20  39  70  93 128 168 207 255 323 386
#     4  11  22  41  64  98 129 166 212 258 317 374
#     4  10  22  40  69  92 130 173 206 249 319 395
#     4  11  24  44  66  90 122 176 217 255 318 380
#     4  10  20  41  69  89 124 171 216 250 316 386
#     4  10  21  41  67  88 121 167 216 258 306 377
#     4  11  22  39  67  99 125 165 211 263 316 373
#     4  12  24  40  65  96 133 160 215 270 310 373
#
# _framework density 20.650649000000001
#
# number of rings (size 3 to 8) (size 9 to 14) (size 15 to 20)
#    0.000    1.250    3.750    3.375    1.750    0.500 
#    2.250    1.250    0.000    0.000    0.000    0.000 
#    0.000    0.000    0.000    0.000    0.000    0.000 
#
# Total GULP energy -89159.461052 kJ/mol
# GULP energy per Si atom -5572.466316 kJ/mol
# Density = 2.060365 g / cm^3
# Si number density = 20.650649 Si / 1000 Ang^3
#
#
#
# Elastic Constant Matrix: (Units=GPa)
#
#
# Indices 1 2 3 4 5 6 
#
# 1 112.7129 42.1397 22.0976 -6.1361 -1.4176 6.6862
# 2 42.1397 102.0720 10.9805 -3.6320 5.5335 5.5650
# 3 22.0976 10.9805 69.3989 -5.8276 7.2770 -5.9875
# 4 -6.1361 -3.6320 -5.8276 23.3247 3.6416 5.9053
# 5 -1.4176 5.5335 7.2770 3.6416 31.4126 -3.6021
# 6 6.6862 5.5650 -5.9875 5.9053 -3.6021 36.3249
#
#
#
# Elastic Compliance Matrix: (Units=1/GPa)
#
#
# Indices 1 2 3 4 5 6 
#
# 1 0.011311 -0.004238 -0.003118 0.001828 0.001527 -0.002092
# 2 -0.004238 0.011852 -0.000270 0.001462 -0.002566 -0.001572
# 3 -0.003118 -0.000270 0.016340 0.003237 -0.003980 0.002388
# 4 0.001828 0.001462 0.003237 0.047708 -0.007433 -0.008520
# 5 0.001527 -0.002566 -0.003980 -0.007433 0.034609 0.004096
# 6 -0.002092 -0.001572 0.002388 -0.008520 0.004096 0.030340
#
#
# Mechanical properties :
#
#
# Convention : Reuss Voigt Hill
#
# Bulk Modulus (GPa) = 41.23382 48.29104 44.76243
# Shear Modulus (GPa) = 28.49081 32.14350 30.31716
#
# Velocity S-wave (km/s) = 3.71840 3.94958 3.83573
# Velocity P-wave (km/s) = 6.20049 6.65090 6.42964
#
# Compressibility (1/GPa) = 0.02425194
#
# Stress axis : x y z
#
# Youngs Moduli (GPa) = 88.41250 84.37077 61.19893
#
# Poissons Ratio (x) = 0.35754 0.19083
# Poissons Ratio (y) = 0.37467 0.01651
# Poissons Ratio (z) = 0.27568 0.02276
#
# Static dielectric constant tensor:
#      x y z
#    x 1.802990 0.012800 -0.009900 
#    y 0.012800 1.764900 -0.048440 
#    z -0.009900 -0.048440 1.762630 
# 
# From -- ./inp_files/223592.got.cif
#   From: 2010.05.17/outbox.cif.g08.bks.cpg/sg2_112_cif.got.tgz:223592.got - 2010.06.03 11:33:40.
