data_PCOD9110828
_publ_section_title
;
Structure prediction by ZEFSAII (Michael W. Deem and Ramdas Pophale) SiO2 
 PCOD9110828
Probable space group: P -1
;
_chemical_formula_sum "Si O2"
_cell_formula_units_Z 16
_cell_length_a 12.015432
_cell_length_b 11.835079
_cell_length_c 14.885204
_cell_angle_alpha 150.162653
_cell_angle_beta 83.451168
_cell_angle_gamma 76.676260
_cell_volume 780.127224
_symmetry_space_group_name_H-M "P -1"
_symmetry_group_IT_number 2
_symmetry_cell_setting 'triclinic'
loop_
_space_group_symop_operation_xyz
x,y,z
-x,-y,-z
loop_
_atom_site_type_symbol
_atom_site_label
_atom_site_fract_x
_atom_site_fract_y
_atom_site_fract_z
Si Si1 0.396554 0.578098 0.648905
Si Si2 0.372961 0.195786 0.722833
Si Si3 0.864333 0.291957 0.471957
Si Si4 0.480395 0.727589 0.087761
Si Si5 0.158141 0.170376 0.175362
Si Si6 0.197966 0.894887 0.172568
Si Si7 0.118935 0.710218 0.726413
Si Si8 0.627464 0.311771 0.608732
O O1 0.500000 0.500000 0.500000
O O2 0.292760 0.492241 0.588916
O O3 0.499909 0.449967 0.639309
O O4 0.261105 0.940470 0.926501
O O5 0.443932 0.164671 0.792640
O O6 0.500000 0.000000 0.500000
O O7 0.307820 0.028701 0.614762
O O8 0.271233 0.547905 0.945457
O O9 0.697763 0.048402 0.757075
O O10 0.885231 0.159648 0.280042
O O11 0.755385 0.297535 0.546724
O O12 0.028640 0.107744 0.370394
O O13 0.201694 0.373189 0.317586
O O14 0.500000 0.500000 0.000000
O O15 0.557982 0.533951 0.855124
O O16 0.976004 0.396268 0.342466
O O17 0.194453 0.961863 0.113380
O O18 0.000000 0.000000 0.000000
#
# Coordination Sequence:
#
# PCOD9110828 Si02
#       8
#     2   2   2   2   2   2   2   2
#     4  11  21  39  62  97 137 167 216 267 334 390
#     4  11  22  42  74  95 126 168 226 279 329 388
#     4  11  24  40  61  96 140 170 214 269 335 390
#     4  10  21  43  71  94 125 166 231 273 319 394
#     4  10  21  40  64  91 134 177 218 261 323 399
#     4  10  20  42  66  95 125 177 222 265 322 395
#     4   9  19  37  61  86 131 173 216 258 305 402
#     4  12  24  42  66 101 135 169 217 282 330 389
#
# _framework density 20.509474999999998
#
# number of rings (size 3 to 8) (size 9 to 14) (size 15 to 20)
#    0.000    1.500    5.000    1.500    0.000    4.000 
#    0.000    5.000    0.000    0.000    0.000    0.000 
#    0.000    0.000    0.000    0.000    0.000    0.000 
#
# Total GULP energy -89102.975998 kJ/mol
# GULP energy per Si atom -5568.936000 kJ/mol
# Density = 2.046279 g / cm^3
# Si number density = 20.509475 Si / 1000 Ang^3
#
#
#
# Elastic Constant Matrix: (Units=GPa)
#
#
# Indices 1 2 3 4 5 6 
#
# 1 158.7650 56.8045 58.1201 -6.9132 -17.9592 12.1837
# 2 56.8045 91.6184 51.7949 -8.6744 -9.1953 -0.4384
# 3 58.1201 51.7949 74.8581 -14.7709 -14.7688 0.4180
# 4 -6.9132 -8.6744 -14.7709 38.8421 1.9289 -0.8639
# 5 -17.9592 -9.1953 -14.7688 1.9289 39.2369 -3.1357
# 6 12.1837 -0.4384 0.4180 -0.8639 -3.1357 35.4145
#
#
#
# Elastic Compliance Matrix: (Units=1/GPa)
#
#
# Indices 1 2 3 4 5 6 
#
# 1 0.009692 -0.002921 -0.005410 -0.001131 0.001515 -0.003200
# 2 -0.002921 0.018842 -0.011052 -0.000439 -0.000958 0.001273
# 3 -0.005410 -0.011052 0.027557 0.006838 0.005131 0.002020
# 4 -0.001131 -0.000439 0.006838 0.028037 0.000659 0.001045
# 5 0.001515 -0.000958 0.005131 0.000659 0.028006 0.001902
# 6 -0.003200 0.001273 0.002020 0.001045 0.001902 0.029524
#
#
# Mechanical properties :
#
#
# Convention : Reuss Voigt Hill
#
# Bulk Modulus (GPa) = 57.72230 73.18672 65.45451
# Shear Modulus (GPa) = 26.85301 33.26686 30.05993
#
# Velocity S-wave (km/s) = 3.62235 4.03180 3.83255
# Velocity P-wave (km/s) = 6.76022 7.57864 7.18110
#
# Compressibility (1/GPa) = 0.01732433
#
# Stress axis : x y z
#
# Youngs Moduli (GPa) = 103.17829 53.07219 36.28895
#
# Poissons Ratio (x) = 0.15501 0.19634
# Poissons Ratio (y) = 0.30137 0.40107
# Poissons Ratio (z) = 0.55823 0.58656
#
# Static dielectric constant tensor:
#      x y z
#    x 1.902090 -0.026540 0.134340 
#    y -0.026540 1.872770 0.042750 
#    z 0.134340 0.042750 1.844030 
# 
# From -- ./inp_files/452636.got.cif
#   From: 2010.05.17/outbox.cif.g08.bks.cpg/sg2_227_cif.got.tgz:452636.got - 2010.06.03 11:33:40.
