data_PCOD9110629
_publ_section_title
;
Structure prediction by ZEFSAII (Michael W. Deem and Ramdas Pophale) SiO2 
 PCOD9110629
Probable space group: P -1
;
_chemical_formula_sum "Si O2"
_cell_formula_units_Z 16
_cell_length_a 22.393586
_cell_length_b 20.292853
_cell_length_c 6.024590
_cell_angle_alpha 64.652660
_cell_angle_beta 120.519710
_cell_angle_gamma 160.774637
_cell_volume 763.741304
_symmetry_space_group_name_H-M "P -1"
_symmetry_group_IT_number 2
_symmetry_cell_setting 'triclinic'
loop_
_space_group_symop_operation_xyz
x,y,z
-x,-y,-z
loop_
_atom_site_type_symbol
_atom_site_label
_atom_site_fract_x
_atom_site_fract_y
_atom_site_fract_z
Si Si1 0.432669 0.159111 0.351105
Si Si2 0.282227 0.446911 0.568823
Si Si3 0.561909 0.143759 0.368679
Si Si4 0.698987 0.050744 0.196211
Si Si5 0.619081 0.723510 0.472793
Si Si6 0.637638 0.601750 0.924914
Si Si7 0.005910 0.466551 0.311827
Si Si8 0.127566 0.904338 0.811437
O O1 0.620808 0.393198 0.335616
O O2 0.461142 0.107341 0.375403
O O3 0.394819 0.104261 0.611658
O O4 0.247857 0.017633 0.102441
O O5 0.454684 0.591551 0.521382
O O6 0.095348 0.293081 0.311830
O O7 0.232228 0.329899 0.802972
O O8 0.787558 0.369754 0.518659
O O9 0.500000 0.000000 0.500000
O O10 0.479466 0.082619 0.060298
O O11 0.839528 0.143692 0.162590
O O12 0.829456 0.236919 0.302082
O O13 0.722123 0.754544 0.735606
O O14 0.499559 0.575565 0.250667
O O15 0.765423 0.928991 0.373143
O O16 0.500000 0.500000 0.000000
O O17 0.000000 0.500000 0.500000
O O18 0.000000 0.500000 0.000000
#
# Coordination Sequence:
#
# PCOD9110629 Si02
#       8
#     2   2   2   2   2   2   2   2
#     4  11  24  42  65  97 136 173 228 281 340 415
#     4  11  22  41  66  95 134 176 218 280 341 403
#     4  11  24  44  69  94 132 177 224 285 354 404
#     4  11  25  44  68  97 134 180 225 288 347 416
#     4  10  20  42  64  97 131 171 223 278 333 403
#     4   9  20  39  68  92 133 172 216 278 333 400
#     4  12  27  45  70 103 137 177 236 291 353 431
#     4  11  24  41  67  98 134 176 231 275 341 413
#
# _framework density 20.949501999999999
#
# number of rings (size 3 to 8) (size 9 to 14) (size 15 to 20)
#    0.000    1.250    3.750    1.500    3.500    3.500 
#    0.000    5.625    0.000    0.000    0.000    0.000 
#    0.000    0.000    0.000    0.000    0.000    0.000 
#
# Total GULP energy -89184.473314 kJ/mol
# GULP energy per Si atom -5574.029582 kJ/mol
# Density = 2.090182 g / cm^3
# Si number density = 20.949502 Si / 1000 Ang^3
#
#
#
# Elastic Constant Matrix: (Units=GPa)
#
#
# Indices 1 2 3 4 5 6 
#
# 1 58.8643 14.6527 28.7077 -3.3292 6.3584 -19.0707
# 2 14.6527 61.4722 58.4320 7.3428 18.3013 -12.5363
# 3 28.7077 58.4320 151.5798 5.3409 32.8162 -3.1262
# 4 -3.3292 7.3428 5.3409 35.9075 2.6488 5.2095
# 5 6.3584 18.3013 32.8162 2.6488 36.1236 5.2555
# 6 -19.0707 -12.5363 -3.1262 5.2095 5.2555 28.3052
#
#
#
# Elastic Compliance Matrix: (Units=1/GPa)
#
#
# Indices 1 2 3 4 5 6 
#
# 1 0.025016 0.003931 -0.004825 -0.000169 -0.004760 0.018978
# 2 0.003931 0.033363 -0.010770 -0.006922 -0.010124 0.019389
# 3 -0.004825 -0.010770 0.012397 0.001100 -0.004152 -0.006083
# 4 -0.000169 -0.006922 0.001100 0.030262 0.001618 -0.008928
# 5 -0.004760 -0.010124 -0.004152 0.001618 0.039602 -0.015800
# 6 0.018978 0.019389 -0.006083 -0.008928 -0.015800 0.060608
#
#
# Mechanical properties :
#
#
# Convention : Reuss Voigt Hill
#
# Bulk Modulus (GPa) = 21.07557 52.83346 36.95452
# Shear Modulus (GPa) = 20.79942 31.40884 26.10413
#
# Velocity S-wave (km/s) = 3.15435 3.87623 3.53377
# Velocity P-wave (km/s) = 4.83204 6.73110 5.85902
#
# Compressibility (1/GPa) = 0.04744830
#
# Stress axis : x y z
#
# Youngs Moduli (GPa) = 39.97469 29.97356 80.66191
#
# Poissons Ratio (x) = -0.11784 0.38922
# Poissons Ratio (y) = -0.15716 0.86872
# Poissons Ratio (z) = 0.19289 0.32281
#
# Static dielectric constant tensor:
#      x y z
#    x 1.796010 -0.009860 -0.056630 
#    y -0.009860 1.767320 -0.035590 
#    z -0.056630 -0.035590 1.790530 
# 
# From -- ./inp_files/44068.got.cif
#   From: 2010.05.17/outbox.cif.g08.bks.cpg/sg2_23_cif.got.tgz:44068.got - 2010.06.03 11:33:40.
