data_PCOD9110782
_publ_section_title
;
Structure prediction by ZEFSAII (Michael W. Deem and Ramdas Pophale) SiO2 
 PCOD9110782
Probable space group: P -1
;
_chemical_formula_sum "Si O2"
_cell_formula_units_Z 16
_cell_length_a 9.237420
_cell_length_b 14.186398
_cell_length_c 11.129564
_cell_angle_alpha 94.824171
_cell_angle_beta 95.806803
_cell_angle_gamma 149.113994
_cell_volume 701.886859
_symmetry_space_group_name_H-M "P -1"
_symmetry_group_IT_number 2
_symmetry_cell_setting 'triclinic'
loop_
_space_group_symop_operation_xyz
x,y,z
-x,-y,-z
loop_
_atom_site_type_symbol
_atom_site_label
_atom_site_fract_x
_atom_site_fract_y
_atom_site_fract_z
Si Si1 0.720447 0.393806 0.525287
Si Si2 0.190506 0.047898 0.846658
Si Si3 0.253075 0.562890 0.204560
Si Si4 0.368433 0.691599 0.877666
Si Si5 0.762262 0.574164 0.041770
Si Si6 0.275672 0.300761 0.395395
Si Si7 0.153082 0.958403 0.198735
Si Si8 0.150994 0.983678 0.478479
O O1 0.772731 0.481837 0.663114
O O2 0.489527 0.327547 0.422030
O O3 0.000000 0.500000 0.500000
O O4 0.506102 0.188430 0.533056
O O5 0.427126 0.207573 0.776942
O O6 0.042115 0.064466 0.870452
O O7 0.406333 0.140340 0.982782
O O8 0.918157 0.825887 0.756684
O O9 0.972194 0.471222 0.152073
O O10 0.212650 0.460629 0.089284
O O11 0.341974 0.564107 0.884824
O O12 0.510876 0.818778 0.783956
O O13 0.054325 0.800821 0.124279
O O14 0.500000 0.500000 0.000000
O O15 0.500000 0.500000 0.500000
O O16 0.999711 0.162659 0.448924
O O17 0.076178 0.914223 0.328807
O O18 0.000000 0.000000 0.500000
#
# Coordination Sequence:
#
# PCOD9110782 Si02
#       8
#     2   2   2   2   2   2   2   2
#     4  11  22  43  70  98 137 187 232 279 358 420
#     4  11  20  42  69  96 141 182 229 283 355 418
#     4  11  23  45  69 100 146 188 228 290 359 421
#     4  11  26  43  70 105 144 184 229 291 364 418
#     4  11  24  40  69 105 135 185 237 286 350 420
#     4  11  24  42  73 105 132 183 242 295 345 420
#     4  12  22  42  69 102 137 181 236 293 344 418
#     4  10  20  42  66  91 133 185 227 274 348 413
#
# _framework density 22.795696
#
# number of rings (size 3 to 8) (size 9 to 14) (size 15 to 20)
#    0.000    1.000    6.250    3.375    0.000    2.500 
#    0.000    4.375    0.000    0.000    0.000    0.000 
#    0.000    0.000    0.000    0.000    0.000    0.000 
#
# Total GULP energy -89114.518319 kJ/mol
# GULP energy per Si atom -5569.657395 kJ/mol
# Density = 2.274381 g / cm^3
# Si number density = 22.795696 Si / 1000 Ang^3
#
#
#
# Elastic Constant Matrix: (Units=GPa)
#
#
# Indices 1 2 3 4 5 6 
#
# 1 51.9105 27.7625 2.7845 9.0318 -5.6114 15.7523
# 2 27.7625 130.4720 18.4104 19.1251 -22.9326 16.8655
# 3 2.7845 18.4104 100.7891 17.3851 -16.5921 -10.9085
# 4 9.0318 19.1251 17.3851 42.4516 0.2556 -10.3416
# 5 -5.6114 -22.9326 -16.5921 0.2556 32.7130 5.8199
# 6 15.7523 16.8655 -10.9085 -10.3416 5.8199 40.0642
#
#
#
# Elastic Compliance Matrix: (Units=1/GPa)
#
#
# Indices 1 2 3 4 5 6 
#
# 1 0.025883 -0.001888 0.000610 -0.007880 0.005634 -0.012068
# 2 -0.001888 0.011562 -0.000233 -0.006514 0.008991 -0.007175
# 3 0.000610 -0.000233 0.011813 -0.004646 0.005785 0.001035
# 4 -0.007880 -0.006514 -0.004646 0.033771 -0.011192 0.014918
# 5 0.005634 0.008991 0.005785 -0.011192 0.043279 -0.013601
# 6 -0.012068 -0.007175 0.001035 0.014918 -0.013601 0.038834
#
#
# Mechanical properties :
#
#
# Convention : Reuss Voigt Hill
#
# Bulk Modulus (GPa) = 21.62788 42.34293 31.98540
# Shear Modulus (GPa) = 27.23671 38.66005 32.94838
#
# Velocity S-wave (km/s) = 3.46036 4.12264 3.80594
# Velocity P-wave (km/s) = 5.04716 6.42471 5.77714
#
# Compressibility (1/GPa) = 0.04623662
#
# Stress axis : x y z
#
# Youngs Moduli (GPa) = 38.63512 86.49245 84.65207
#
# Poissons Ratio (x) = 0.16333 -0.05167
# Poissons Ratio (y) = 0.07296 0.01970
# Poissons Ratio (z) = -0.02358 0.02013
#
# Static dielectric constant tensor:
#      x y z
#    x 1.856420 -0.105520 0.046710 
#    y -0.105520 1.970670 -0.008540 
#    z 0.046710 -0.008540 1.892710 
# 
# From -- ./inp_files/399292.got.cif
#   From: 2010.05.17/outbox.cif.g08.bks.cpg/sg2_200_cif.got.tgz:399292.got - 2010.06.03 11:33:40.
