data_PCOD9110990
_publ_section_title
;
Structure prediction by ZEFSAII (Michael W. Deem and Ramdas Pophale) SiO2 
 PCOD9110990
Probable space group: P -1
;
_chemical_formula_sum "Si O2"
_cell_formula_units_Z 13
_cell_length_a 15.191971
_cell_length_b 8.183479
_cell_length_c 21.191709
_cell_angle_alpha 35.032896
_cell_angle_beta 20.608290
_cell_angle_gamma 42.014658
_cell_volume 528.730645
_symmetry_space_group_name_H-M "P -1"
_symmetry_group_IT_number 2
_symmetry_cell_setting 'triclinic'
loop_
_space_group_symop_operation_xyz
x,y,z
-x,-y,-z
loop_
_atom_site_type_symbol
_atom_site_label
_atom_site_fract_x
_atom_site_fract_y
_atom_site_fract_z
Si Si1 0.736971 0.941687 0.228440
Si Si2 0.438255 0.354327 0.020271
Si Si3 0.644835 0.892945 0.652106
Si Si4 0.649400 0.711623 0.488502
Si Si5 0.000000 0.000000 0.500000
Si Si6 0.960687 0.126117 0.715614
Si Si7 0.794230 0.535839 0.073382
O O1 0.504466 0.880496 0.356329
O O2 0.717782 0.249853 0.176136
O O3 0.736176 0.715254 0.357252
O O4 0.000000 0.000000 0.000000
O O5 0.428808 0.625560 0.894849
O O6 0.686248 0.228540 0.867287
O O7 0.500000 0.500000 0.000000
O O8 0.202153 0.127681 0.266710
O O9 0.776176 0.971366 0.605513
O O10 0.860139 0.813085 0.483979
O O11 0.460340 0.440783 0.723631
O O12 0.883524 0.739771 0.370318
O O13 0.500000 0.000000 0.500000
O O14 0.904938 0.790093 0.874148
O O15 0.000000 0.500000 0.000000
#
# Coordination Sequence:
#
# PCOD9110990 Si02
#       7
#     2   2   2   2   1   2   2
#     4  11  24  44  71 105 145 181 221 288 355 411
#     4  10  26  47  68  98 137 183 231 297 349 404
#     4  11  24  47  71  99 141 187 237 284 347 416
#     4  10  20  42  68 103 140 178 223 285 351 414
#     4  10  26  46  66  96 140 176 248 280 344 404
#     4  12  23  43  75 101 137 182 242 283 345 425
#     4  11  21  40  70 102 138 182 227 279 340 421
#
# _framework density 24.58719
#
# number of rings (size 3 to 8) (size 9 to 14) (size 15 to 20)
#    0.000    1.231    6.154    0.462    6.462    3.077 
#    0.000    3.077    0.000    0.000    0.000    0.000 
#    0.000    0.000    0.000    0.000    0.000    0.000 
#
# Total GULP energy -72385.462755 kJ/mol
# GULP energy per Si atom -5568.112520 kJ/mol
# Density = 2.453123 g / cm^3
# Si number density = 24.587190 Si / 1000 Ang^3
#
#
#
# Elastic Constant Matrix: (Units=GPa)
#
#
# Indices 1 2 3 4 5 6 
#
# 1 156.1101 9.9715 45.9206 -5.4243 3.6912 6.2933
# 2 9.9715 24.4779 14.2828 9.2303 7.3512 0.5635
# 3 45.9206 14.2828 201.1888 13.1465 28.4425 2.3343
# 4 -5.4243 9.2303 13.1465 28.2034 2.9854 5.8345
# 5 3.6912 7.3512 28.4425 2.9854 64.9743 4.1194
# 6 6.2933 0.5635 2.3343 5.8345 4.1194 12.2406
#
#
#
# Elastic Compliance Matrix: (Units=1/GPa)
#
#
# Indices 1 2 3 4 5 6 
#
# 1 0.007577 -0.003962 -0.001827 0.004733 0.000977 -0.005950
# 2 -0.003962 0.051343 -0.000932 -0.018771 -0.004978 0.010474
# 3 -0.001827 -0.000932 0.005964 -0.003004 -0.002396 0.002083
# 4 0.004733 -0.018771 -0.003004 0.048841 0.002519 -0.025124
# 5 0.000977 -0.004978 -0.002396 0.002519 0.017264 -0.006827
# 6 -0.005950 0.010474 0.002083 -0.025124 -0.006827 0.098148
#
#
# Mechanical properties :
#
#
# Convention : Reuss Voigt Hill
#
# Bulk Modulus (GPa) = 19.43885 58.01407 38.72646
# Shear Modulus (GPa) = 19.25101 41.85714 30.55408
#
# Velocity S-wave (km/s) = 2.80119 4.13049 3.52899
# Velocity P-wave (km/s) = 4.28783 6.81134 5.69122
#
# Compressibility (1/GPa) = 0.05144336
#
# Stress axis : x y z
#
# Youngs Moduli (GPa) = 131.97283 19.47688 167.66361
#
# Poissons Ratio (x) = 0.07717 0.30625
# Poissons Ratio (y) = 0.52289 0.15624
# Poissons Ratio (z) = 0.24106 0.01815
#
# Static dielectric constant tensor:
#      x y z
#    x 1.850740 0.005360 0.157630 
#    y 0.005360 2.072270 -0.038500 
#    z 0.157630 -0.038500 1.790840 
# 
# From -- ./inp_files/597099.got.cif
#   From: 2010.05.17/outbox.cif.g08.bks.cpg/sg2_299_cif.got.tgz:597099.got - 2010.06.03 11:33:40.
