data_PCOD9110677
_publ_section_title
;
Structure prediction by ZEFSAII (Michael W. Deem and Ramdas Pophale) SiO2 
 PCOD9110677
Probable space group: P -1
;
_chemical_formula_sum "Si O2"
_cell_formula_units_Z 12
_cell_length_a 10.963366
_cell_length_b 9.333748
_cell_length_c 15.170351
_cell_angle_alpha 49.184585
_cell_angle_beta 27.148380
_cell_angle_gamma 50.860733
_cell_volume 530.529348
_symmetry_space_group_name_H-M "P -1"
_symmetry_group_IT_number 2
_symmetry_cell_setting 'triclinic'
loop_
_space_group_symop_operation_xyz
x,y,z
-x,-y,-z
loop_
_atom_site_type_symbol
_atom_site_label
_atom_site_fract_x
_atom_site_fract_y
_atom_site_fract_z
Si Si1 0.601227 0.747848 0.297683
Si Si2 0.178779 0.599913 0.498389
Si Si3 0.399633 0.797308 0.128612
Si Si4 0.646840 0.821212 0.426409
Si Si5 0.169869 0.515726 0.077983
Si Si6 0.747199 0.155192 0.997310
O O1 0.405785 0.660469 0.393073
O O2 0.490716 0.769475 0.460086
O O3 0.894523 0.618561 0.168698
O O4 0.628565 0.961335 0.165028
O O5 0.172036 0.745854 0.363127
O O6 0.271343 0.380886 0.495996
O O7 0.924420 0.589937 0.730588
O O8 0.656120 0.631581 0.038329
O O9 0.309743 0.782852 0.091458
O O10 0.500000 0.000000 0.000000
O O11 0.500000 0.000000 0.500000
O O12 0.928238 0.881912 0.187448
O O13 0.333611 0.678874 0.945775
#
# Coordination Sequence:
#
# PCOD9110677 Si02
#       6
#     2   2   2   2   2   2
#     4  10  20  42  65  89 126 160 205 260 310 361
#     4  10  23  42  63  91 129 162 206 255 307 371
#     4  12  25  41  62  94 127 167 210 247 310 374
#     4  10  22  38  66  97 118 158 211 259 308 359
#     4  10  23  41  65  88 124 166 207 258 310 355
#     4  10  22  42  61  92 126 162 205 255 310 369
#
# _framework density 22.618918000000001
#
# number of rings (size 3 to 8) (size 9 to 14) (size 15 to 20)
#    0.000    2.000    1.667    4.500    4.667    6.667 
#    3.000    0.000    0.000    0.000    0.000    0.000 
#    0.000    0.000    0.000    0.000    0.000    0.000 
#
# Total GULP energy -67056.993936 kJ/mol
# GULP energy per Si atom -5588.082828 kJ/mol
# Density = 2.256744 g / cm^3
# Si number density = 22.618918 Si / 1000 Ang^3
#
#
#
# Elastic Constant Matrix: (Units=GPa)
#
#
# Indices 1 2 3 4 5 6 
#
# 1 63.4189 0.5277 -15.0795 0.4022 -2.9583 10.0540
# 2 0.5277 99.5892 33.1953 -10.2657 -9.9861 33.8864
# 3 -15.0795 33.1953 64.2426 -28.9738 3.8330 -0.4264
# 4 0.4022 -10.2657 -28.9738 45.2714 0.1070 1.4963
# 5 -2.9583 -9.9861 3.8330 0.1070 26.3086 -15.3017
# 6 10.0540 33.8864 -0.4264 1.4963 -15.3017 25.9665
#
#
#
# Elastic Compliance Matrix: (Units=1/GPa)
#
#
# Indices 1 2 3 4 5 6 
#
# 1 0.019106 0.003483 0.004913 0.004308 -0.006552 -0.015972
# 2 0.003483 0.030312 -0.014669 -0.000859 -0.015009 -0.049942
# 3 0.004913 -0.014669 0.031818 0.016436 0.000095 0.016872
# 4 0.004308 -0.000859 0.016436 0.032566 -0.005510 -0.005400
# 5 -0.006552 -0.015009 0.000095 -0.005510 0.067917 0.062466
# 6 -0.015972 -0.049942 0.016872 -0.005400 0.062466 0.147268
#
#
# Mechanical properties :
#
#
# Convention : Reuss Voigt Hill
#
# Bulk Modulus (GPa) = 14.55819 29.39309 21.97564
# Shear Modulus (GPa) = 13.72010 33.41647 23.56828
#
# Velocity S-wave (km/s) = 2.46555 3.84782 3.23146
# Velocity P-wave (km/s) = 3.81517 5.72400 4.86414
#
# Compressibility (1/GPa) = 0.06868985
#
# Stress axis : x y z
#
# Youngs Moduli (GPa) = 52.33842 32.99040 31.42923
#
# Poissons Ratio (x) = -0.11490 -0.15441
# Poissons Ratio (y) = -0.18228 0.46102
# Poissons Ratio (z) = -0.25714 0.48392
#
# Static dielectric constant tensor:
#      x y z
#    x 1.870370 -0.040400 0.026640 
#    y -0.040400 1.848400 -0.018890 
#    z 0.026640 -0.018890 1.862940 
# 
# From -- ./inp_files/511461.got.cif
#   From: 2010.05.17/outbox.cif.g08.bks.cpg/sg2_256_cif.got.tgz:511461.got - 2010.06.03 11:33:40.
