data_PCOD9110087
_publ_section_title
;
Structure prediction by ZEFSAII (Michael W. Deem and Ramdas Pophale) SiO2 
 PCOD9110087
Probable space group: P -1
;
_chemical_formula_sum "Si O2"
_cell_formula_units_Z 14
_cell_length_a 22.988690
_cell_length_b 20.042371
_cell_length_c 11.082329
_cell_angle_alpha 23.687794
_cell_angle_beta 30.900510
_cell_angle_gamma 16.321798
_cell_volume 566.662327
_symmetry_space_group_name_H-M "P -1"
_symmetry_group_IT_number 2
_symmetry_cell_setting 'triclinic'
loop_
_space_group_symop_operation_xyz
x,y,z
-x,-y,-z
loop_
_atom_site_type_symbol
_atom_site_label
_atom_site_fract_x
_atom_site_fract_y
_atom_site_fract_z
Si Si1 0.511627 0.742089 0.829599
Si Si2 0.932528 0.323822 0.638431
Si Si3 0.833540 0.321586 0.150644
Si Si4 0.924989 0.163943 0.676267
Si Si5 0.586835 0.769963 0.129551
Si Si6 0.559976 0.505316 0.511859
Si Si7 0.866692 0.614756 0.693744
O O1 0.696008 0.557047 0.710417
O O2 0.298876 0.092459 0.585821
O O3 0.621209 0.653442 0.909884
O O4 0.460358 0.611061 0.159634
O O5 0.968594 0.255529 0.544372
O O6 0.983700 0.434928 0.426923
O O7 0.085930 0.994056 0.968638
O O8 0.782853 0.302529 0.401292
O O9 0.963073 0.331383 0.926633
O O10 0.910533 0.090850 0.298799
O O11 0.718415 0.474283 0.461930
O O12 0.436332 0.828432 0.228628
O O13 0.725523 0.707166 0.896874
O O14 0.500000 0.000000 0.000000
O O15 0.500000 0.500000 0.500000
#
# Coordination Sequence:
#
# PCOD9110087 Si02
#       7
#     2   2   2   2   2   2   2
#     4  10  20  41  69  95 131 168 215 268 317 384
#     4  10  23  42  67  98 128 170 218 263 324 383
#     4   9  21  41  65  94 127 170 216 261 323 382
#     4  10  22  43  62  91 133 168 215 266 316 389
#     4  11  24  41  64  95 130 173 219 265 324 383
#     4   9  20  40  65  91 124 171 215 258 317 381
#     4  11  23  40  66  99 131 169 214 268 325 379
#
# _framework density 24.706071999999999
#
# number of rings (size 3 to 8) (size 9 to 14) (size 15 to 20)
#    0.000    2.000    0.000    2.143    0.000    9.714 
#    0.000   28.571    0.000    2.571    0.000    0.000 
#    0.000    0.000    0.000    0.000    0.000    0.000 
#
# Total GULP energy -78077.355621 kJ/mol
# GULP energy per Si atom -5576.953973 kJ/mol
# Density = 2.464984 g / cm^3
# Si number density = 24.706072 Si / 1000 Ang^3
#
#
#
# Elastic Constant Matrix: (Units=GPa)
#
#
# Indices 1 2 3 4 5 6 
#
# 1 141.6152 43.4425 51.2729 13.8498 -33.6781 17.8513
# 2 43.4425 79.5720 58.5804 15.0599 -20.4097 14.9849
# 3 51.2729 58.5804 115.6675 23.1345 -39.4647 -0.5927
# 4 13.8498 15.0599 23.1345 30.7274 -3.3377 1.5083
# 5 -33.6781 -20.4097 -39.4647 -3.3377 51.9796 -5.4335
# 6 17.8513 14.9849 -0.5927 1.5083 -5.4335 34.1738
#
#
#
# Elastic Compliance Matrix: (Units=1/GPa)
#
#
# Indices 1 2 3 4 5 6 
#
# 1 0.009835 -0.002233 -0.001659 -0.001507 0.003771 -0.003521
# 2 -0.002233 0.023908 -0.011448 -0.001819 -0.001885 -0.009735
# 3 -0.001659 -0.011448 0.020360 -0.008264 0.010218 0.008229
# 4 -0.001507 -0.001819 -0.008264 0.039795 -0.005535 -0.001195
# 5 0.003771 -0.001885 0.010218 -0.005535 0.028746 0.003849
# 6 -0.003521 -0.009735 0.008229 -0.001195 0.003849 0.036178
#
#
# Mechanical properties :
#
#
# Convention : Reuss Voigt Hill
#
# Bulk Modulus (GPa) = 42.69032 71.49402 57.09217
# Shear Modulus (GPa) = 25.34095 35.61341 30.47718
#
# Velocity S-wave (km/s) = 3.20613 3.80081 3.51606
# Velocity P-wave (km/s) = 5.56978 6.94710 6.29621
#
# Compressibility (1/GPa) = 0.02342451
#
# Stress axis : x y z
#
# Youngs Moduli (GPa) = 101.67792 41.82660 49.11577
#
# Poissons Ratio (x) = 0.09338 0.08147
# Poissons Ratio (y) = 0.22700 0.56228
# Poissons Ratio (z) = 0.16866 0.47883
#
# Static dielectric constant tensor:
#      x y z
#    x 2.425090 -0.030210 -0.178390 
#    y -0.030210 2.078120 -0.015780 
#    z -0.178390 -0.015780 2.047660 
# 
# From -- ./inp_files/475563.got.cif
#   From: 2010.05.17/outbox.cif.g08.bks.cpg/sg2_238_cif.got.tgz:475563.got - 2010.06.03 11:33:40.
