data_PCOD9110406
_publ_section_title
;
Structure prediction by ZEFSAII (Michael W. Deem and Ramdas Pophale) SiO2 
 PCOD9110406
Probable space group: P -1
;
_chemical_formula_sum "Si O2"
_cell_formula_units_Z 16
_cell_length_a 10.983987
_cell_length_b 7.991977
_cell_length_c 14.018753
_cell_angle_alpha 126.501691
_cell_angle_beta 109.372358
_cell_angle_gamma 43.502722
_cell_volume 669.810213
_symmetry_space_group_name_H-M "P -1"
_symmetry_group_IT_number 2
_symmetry_cell_setting 'triclinic'
loop_
_space_group_symop_operation_xyz
x,y,z
-x,-y,-z
loop_
_atom_site_type_symbol
_atom_site_label
_atom_site_fract_x
_atom_site_fract_y
_atom_site_fract_z
Si Si1 0.655663 0.715750 0.879964
Si Si2 0.220770 0.900773 0.523655
Si Si3 0.557143 0.073004 0.799667
Si Si4 0.039867 0.699342 0.579403
Si Si5 0.762485 0.472379 0.007654
Si Si6 0.410943 0.301846 0.465674
Si Si7 0.924413 0.902051 0.826491
Si Si8 0.060458 0.374899 0.803725
O O1 0.684709 0.501591 0.892469
O O2 0.864782 0.539389 0.850216
O O3 0.574920 0.853708 0.801813
O O4 0.500000 0.000000 0.000000
O O5 0.312746 0.575545 0.459853
O O6 0.391413 0.839078 0.507820
O O7 0.062171 0.087318 0.467032
O O8 0.151217 0.089015 0.668062
O O9 0.565079 0.953384 0.659554
O O10 0.725921 0.034038 0.840505
O O11 0.382406 0.387166 0.898666
O O12 0.963724 0.869606 0.714590
O O13 0.000000 0.500000 0.500000
O O14 0.255542 0.476594 0.562641
O O15 0.929503 0.131381 0.942587
O O16 0.825120 0.643447 0.089130
O O17 0.044478 0.585509 0.796436
#
# Coordination Sequence:
#
# PCOD9110406 Si02
#       8
#     2   2   2   2   2   2   2   2
#     4   9  21  37  61  89 118 163 211 260 312 373
#     4  11  25  43  69  97 128 172 219 270 325 384
#     4  10  20  42  61  86 129 162 205 262 319 377
#     4  12  23  43  67  96 132 171 214 268 329 378
#     4  11  22  38  64  90 120 166 213 254 316 378
#     4  11  24  44  68  97 129 170 221 271 323 385
#     4  11  24  39  61  92 127 167 206 256 320 394
#     4  11  21  42  61  88 132 164 205 266 323 375
#
# _framework density 23.887362
#
# number of rings (size 3 to 8) (size 9 to 14) (size 15 to 20)
#    0.000    1.250    3.750    2.250    3.500    0.500 
#    2.250    0.000    0.000    0.000    0.000    0.000 
#    0.000    0.000    0.000    0.000    0.000    0.000 
#
# Total GULP energy -89101.941878 kJ/mol
# GULP energy per Si atom -5568.871367 kJ/mol
# Density = 2.383299 g / cm^3
# Si number density = 23.887362 Si / 1000 Ang^3
#
#
#
# Elastic Constant Matrix: (Units=GPa)
#
#
# Indices 1 2 3 4 5 6 
#
# 1 59.3959 6.9259 27.0230 18.3760 -19.8845 -24.9347
# 2 6.9259 56.5176 29.0246 1.8740 -10.9073 -1.4686
# 3 27.0230 29.0246 149.3773 29.9155 -24.8371 0.6588
# 4 18.3760 1.8740 29.9155 24.7031 -2.1422 -7.3939
# 5 -19.8845 -10.9073 -24.8371 -2.1422 38.4944 11.7293
# 6 -24.9347 -1.4686 0.6588 -7.3939 11.7293 46.8364
#
#
#
# Elastic Compliance Matrix: (Units=1/GPa)
#
#
# Indices 1 2 3 4 5 6 
#
# 1 0.031121 -0.000780 0.000286 -0.019258 0.011751 0.010557
# 2 -0.000780 0.020373 -0.004264 0.004530 0.002778 0.000303
# 3 0.000286 -0.004264 0.011530 -0.014499 0.006834 -0.004144
# 4 -0.019258 0.004530 -0.014499 0.072288 -0.015650 0.005424
# 5 0.011751 0.002778 0.006834 -0.015650 0.038133 -0.005773
# 6 0.010557 0.000303 -0.004144 0.005424 -0.005773 0.029341
#
#
# Mechanical properties :
#
#
# Convention : Reuss Voigt Hill
#
# Bulk Modulus (GPa) = 18.68911 43.47086 31.07998
# Shear Modulus (GPa) = 21.72618 35.49461 28.61039
#
# Velocity S-wave (km/s) = 3.01911 3.85894 3.46456
# Velocity P-wave (km/s) = 4.47148 6.17195 5.38921
#
# Compressibility (1/GPa) = 0.05350710
#
# Stress axis : x y z
#
# Youngs Moduli (GPa) = 32.13275 49.08496 86.73265
#
# Poissons Ratio (x) = 0.03827 -0.02477
# Poissons Ratio (y) = 0.02505 0.36983
# Poissons Ratio (z) = -0.00918 0.20930
#
# Static dielectric constant tensor:
#      x y z
#    x 1.934070 0.016600 0.009980 
#    y 0.016600 2.108080 -0.180330 
#    z 0.009980 -0.180330 2.060090 
# 
# From -- ./inp_files/295568.got.cif
#   From: 2010.05.17/outbox.cif.g08.bks.cpg/sg2_148_cif.got.tgz:295568.got - 2010.06.03 11:33:40.
