data_PCOD9110128
_publ_section_title
;
Structure prediction by ZEFSAII (Michael W. Deem and Ramdas Pophale) SiO2 
 PCOD9110128
Probable space group: P -1
;
_chemical_formula_sum "Si O2"
_cell_formula_units_Z 14
_cell_length_a 9.347457
_cell_length_b 16.182420
_cell_length_c 9.188734
_cell_angle_alpha 40.356033
_cell_angle_beta 76.836093
_cell_angle_gamma 53.651108
_cell_volume 654.688873
_symmetry_space_group_name_H-M "P -1"
_symmetry_group_IT_number 2
_symmetry_cell_setting 'triclinic'
loop_
_space_group_symop_operation_xyz
x,y,z
-x,-y,-z
loop_
_atom_site_type_symbol
_atom_site_label
_atom_site_fract_x
_atom_site_fract_y
_atom_site_fract_z
Si Si1 0.347253 0.843788 0.389419
Si Si2 0.151926 0.552231 0.666799
Si Si3 0.231523 0.118952 0.812528
Si Si4 0.287641 0.618579 0.813770
Si Si5 0.011995 0.368628 0.942425
Si Si6 0.278838 0.380605 0.563940
Si Si7 0.548482 0.988483 0.673625
O O1 0.225399 0.798336 0.544259
O O2 0.526721 0.679480 0.477581
O O3 0.442550 0.870687 0.462064
O O4 0.248475 0.999165 0.090323
O O5 0.287623 0.536414 0.776490
O O6 0.032306 0.499372 0.827076
O O7 0.267312 0.428593 0.668217
O O8 0.984591 0.744947 0.388885
O O9 0.279418 0.228767 0.729664
O O10 0.390723 0.013926 0.785359
O O11 0.500000 0.500000 0.000000
O O12 0.127103 0.643334 0.918734
O O13 0.909091 0.451905 0.699166
O O14 0.229798 0.188668 0.121626
O O15 0.500000 0.000000 0.500000
#
# Coordination Sequence:
#
# PCOD9110128 Si02
#       7
#     2   2   2   2   2   2   2
#     4  11  23  43  62  93 143 167 207 274 327 378
#     4  11  23  41  75  95 122 172 227 262 318 392
#     4  10  21  42  67 102 128 162 219 277 320 370
#     4  12  27  44  61  96 139 175 207 272 329 379
#     4  11  22  43  68  96 127 170 223 263 318 389
#     4  10  20  41  70 100 121 166 221 275 314 381
#     4  11  23  39  68 101 129 171 217 266 323 387
#
# _framework density 21.384205000000001
#
# number of rings (size 3 to 8) (size 9 to 14) (size 15 to 20)
#    0.000    1.143    1.429    7.286    2.000    1.714 
#    0.000    0.000    0.000    0.000    0.000    0.000 
#    0.000    0.000    0.000    0.000    0.000    0.000 
#
# Total GULP energy -78272.589531 kJ/mol
# GULP energy per Si atom -5590.899252 kJ/mol
# Density = 2.133553 g / cm^3
# Si number density = 21.384205 Si / 1000 Ang^3
#
#
#
# Elastic Constant Matrix: (Units=GPa)
#
#
# Indices 1 2 3 4 5 6 
#
# 1 103.3531 53.1428 63.9314 15.3582 1.5249 14.4795
# 2 53.1428 132.5566 75.2898 25.3638 16.5906 10.2479
# 3 63.9314 75.2898 118.8577 18.2317 -14.6087 -8.4036
# 4 15.3582 25.3638 18.2317 31.7102 -7.3202 16.1625
# 5 1.5249 16.5906 -14.6087 -7.3202 43.7053 -2.3284
# 6 14.4795 10.2479 -8.4036 16.1625 -2.3284 26.2581
#
#
#
# Elastic Compliance Matrix: (Units=1/GPa)
#
#
# Indices 1 2 3 4 5 6 
#
# 1 0.020614 0.001823 -0.015782 0.007480 -0.006623 -0.022321
# 2 0.001823 0.018303 -0.014220 -0.004832 -0.013154 -0.010891
# 3 -0.015782 -0.014220 0.032377 -0.013266 0.016373 0.034232
# 4 0.007480 -0.004832 -0.013266 0.063695 0.005399 -0.045211
# 5 -0.006623 -0.013154 0.016373 0.005399 0.035218 0.013826
# 6 -0.022321 -0.010891 0.034232 -0.045211 0.013826 0.094653
#
#
# Mechanical properties :
#
#
# Convention : Reuss Voigt Hill
#
# Bulk Modulus (GPa) = 66.95261 82.16615 74.55938
# Shear Modulus (GPa) = 15.32817 31.16161 23.24489
#
# Velocity S-wave (km/s) = 2.68021 3.82150 3.30056
# Velocity P-wave (km/s) = 6.39964 7.61440 7.03329
#
# Compressibility (1/GPa) = 0.01493594
#
# Stress axis : x y z
#
# Youngs Moduli (GPa) = 48.51107 54.63665 30.88578
#
# Poissons Ratio (x) = -0.09961 0.48744
# Poissons Ratio (y) = -0.08844 0.43920
# Poissons Ratio (z) = 0.76561 0.77693
#
# Static dielectric constant tensor:
#      x y z
#    x 1.768650 -0.016490 -0.007600 
#    y -0.016490 1.797940 -0.005850 
#    z -0.007600 -0.005850 1.837520 
# 
# From -- ./inp_files/205111.got.cif
#   From: 2010.05.17/outbox.cif.g08.bks.cpg/sg2_103_cif.got.tgz:205111.got - 2010.06.03 11:33:40.
