data_PCOD9110234
_publ_section_title
;
Structure prediction by ZEFSAII (Michael W. Deem and Ramdas Pophale) SiO2 
 PCOD9110234
Probable space group: P -1
;
_chemical_formula_sum "Si O2"
_cell_formula_units_Z 16
_cell_length_a 8.444392
_cell_length_b 11.745032
_cell_length_c 16.571153
_cell_angle_alpha 153.950511
_cell_angle_beta 85.981500
_cell_angle_gamma 83.502370
_cell_volume 659.222898
_symmetry_space_group_name_H-M "P -1"
_symmetry_group_IT_number 2
_symmetry_cell_setting 'triclinic'
loop_
_space_group_symop_operation_xyz
x,y,z
-x,-y,-z
loop_
_atom_site_type_symbol
_atom_site_label
_atom_site_fract_x
_atom_site_fract_y
_atom_site_fract_z
Si Si1 0.084754 0.347486 0.651604
Si Si2 0.344457 0.653734 0.985601
Si Si3 0.474714 0.978461 0.390883
Si Si4 0.998438 0.615590 0.985677
Si Si5 0.231836 0.777368 0.895499
Si Si6 0.388027 0.085450 0.880410
Si Si7 0.245035 0.349232 0.225604
Si Si8 0.485631 0.581950 0.453916
O O1 0.266388 0.108033 0.466552
O O2 0.068721 0.353453 0.752384
O O3 0.082110 0.664107 0.838348
O O4 0.916405 0.377795 0.628125
O O5 0.464663 0.822435 0.103093
O O6 0.571666 0.643849 0.161507
O O7 0.136264 0.765080 0.076386
O O8 0.353686 0.619068 0.865604
O O9 0.544459 0.161367 0.448152
O O10 0.500000 0.000000 0.500000
O O11 0.000000 0.500000 0.000000
O O12 0.802950 0.788979 0.072830
O O13 0.325544 0.644094 0.724179
O O14 0.198505 0.103025 0.110939
O O15 0.460244 0.754161 0.647430
O O16 0.355497 0.194662 0.043594
O O17 0.351003 0.451431 0.348895
#
# Coordination Sequence:
#
# PCOD9110234 Si02
#       8
#     2   2   2   2   2   2   2   2
#     4   9  21  38  66  96 125 178 214 268 333 386
#     4  11  22  43  66  94 134 179 209 272 335 375
#     4  11  18  39  65  92 129 167 223 259 325 402
#     4  10  21  38  61  92 134 171 211 271 319 385
#     4  10  20  41  71  91 127 175 218 268 323 389
#     4  11  25  42  63 100 132 172 224 260 332 394
#     4  11  22  44  65  97 131 167 223 270 326 381
#     4  11  23  39  65  97 127 170 214 270 321 386
#
# _framework density 24.271000999999998
#
# number of rings (size 3 to 8) (size 9 to 14) (size 15 to 20)
#    0.000    1.500    5.000    1.500    0.000    2.500 
#    9.000    1.875    0.000    3.000    0.000    0.000 
#    0.000    0.000    0.000    0.000    0.000    0.000 
#
# Total GULP energy -89352.336763 kJ/mol
# GULP energy per Si atom -5584.521048 kJ/mol
# Density = 2.421576 g / cm^3
# Si number density = 24.271001 Si / 1000 Ang^3
#
#
#
# Elastic Constant Matrix: (Units=GPa)
#
#
# Indices 1 2 3 4 5 6 
#
# 1 138.2430 26.3665 43.7403 -3.3681 5.2485 -23.1903
# 2 26.3665 52.4002 11.9720 -17.1698 3.6121 -12.6827
# 3 43.7403 11.9720 68.3909 -5.7806 10.9037 -17.0964
# 4 -3.3681 -17.1698 -5.7806 46.3354 2.2808 -1.9552
# 5 5.2485 3.6121 10.9037 2.2808 27.4792 -5.5445
# 6 -23.1903 -12.6827 -17.0964 -1.9552 -5.5445 33.4800
#
#
#
# Elastic Compliance Matrix: (Units=1/GPa)
#
#
# Indices 1 2 3 4 5 6 
#
# 1 0.010038 -0.003589 -0.005362 -0.001210 0.001391 0.003015
# 2 -0.003589 0.026049 0.000966 0.009967 -0.002320 0.008073
# 3 -0.005362 0.000966 0.020749 0.003137 -0.006308 0.006386
# 4 -0.001210 0.009967 0.003137 0.025976 -0.003370 0.005498
# 5 0.001391 -0.002320 -0.006308 -0.003370 0.039873 0.003270
# 6 0.003015 0.008073 0.006386 0.005498 0.003270 0.039139
#
#
# Mechanical properties :
#
#
# Convention : Reuss Voigt Hill
#
# Bulk Modulus (GPa) = 24.47026 47.02129 35.74578
# Shear Modulus (GPa) = 26.12111 33.25595 29.68853
#
# Velocity S-wave (km/s) = 3.28415 3.70563 3.50124
# Velocity P-wave (km/s) = 4.94822 6.14202 5.57715
#
# Compressibility (1/GPa) = 0.04086593
#
# Stress axis : x y z
#
# Youngs Moduli (GPa) = 99.61993 38.38980 48.19428
#
# Poissons Ratio (x) = 0.13776 0.25843
# Poissons Ratio (y) = 0.35749 -0.04654
# Poissons Ratio (z) = 0.53418 -0.03707
#
# Static dielectric constant tensor:
#      x y z
#    x 1.952250 0.021080 0.008710 
#    y 0.021080 2.053020 -0.012620 
#    z 0.008710 -0.012620 1.958580 
# 
# From -- ./inp_files/501173.got.cif
#   From: 2010.05.17/outbox.cif.g08.bks.cpg/sg2_251_cif.got.tgz:501173.got - 2010.06.03 11:33:40.
