data_PCOD9110766
_publ_section_title
;
Structure prediction by ZEFSAII (Michael W. Deem and Ramdas Pophale) SiO2 
 PCOD9110766
Probable space group: P -1
;
_chemical_formula_sum "Si O2"
_cell_formula_units_Z 16
_cell_length_a 6.915049
_cell_length_b 16.110394
_cell_length_c 8.609521
_cell_angle_alpha 120.774020
_cell_angle_beta 62.037021
_cell_angle_gamma 121.876266
_cell_volume 673.351259
_symmetry_space_group_name_H-M "P -1"
_symmetry_group_IT_number 2
_symmetry_cell_setting 'triclinic'
loop_
_space_group_symop_operation_xyz
x,y,z
-x,-y,-z
loop_
_atom_site_type_symbol
_atom_site_label
_atom_site_fract_x
_atom_site_fract_y
_atom_site_fract_z
Si Si1 0.013087 0.519062 0.332787
Si Si2 0.503246 0.836349 0.535426
Si Si3 0.542774 0.612620 0.260928
Si Si4 0.255719 0.301339 0.027713
Si Si5 0.037059 0.277837 0.392149
Si Si6 0.257745 0.111650 0.181290
Si Si7 0.269842 0.555487 0.884286
Si Si8 0.764360 0.919065 0.191977
O O1 0.287501 0.548319 0.218930
O O2 0.000000 0.500000 0.500000
O O3 0.970354 0.626105 0.413683
O O4 0.802132 0.425379 0.242810
O O5 0.531840 0.723037 0.421315
O O6 0.600899 0.890427 0.716149
O O7 0.618192 0.898058 0.390515
O O8 0.225385 0.807943 0.597346
O O9 0.599193 0.526590 0.253423
O O10 0.744276 0.648238 0.088267
O O11 0.111363 0.326082 0.240207
O O12 0.533076 0.343241 0.015881
O O13 0.152457 0.178036 0.932141
O O14 0.217467 0.221420 0.304806
O O15 0.344423 0.092626 0.956146
O O16 0.994303 0.023800 0.212097
O O17 0.000000 0.500000 0.000000
#
# Coordination Sequence:
#
# PCOD9110766 Si02
#       8
#     2   2   2   2   2   2   2   2
#     4  11  24  39  59  90 122 158 204 253 303 367
#     4  10  21  41  65  91 126 165 204 251 316 365
#     4  10  22  41  60  88 125 155 202 259 299 365
#     4  10  21  41  61  88 127 159 204 259 301 364
#     4  10  23  39  63  92 125 162 206 254 306 368
#     4  10  20  42  66  90 127 163 207 257 307 364
#     4  12  24  38  65  88 115 166 208 241 313 370
#     4   9  21  40  64  92 126 163 205 262 303 363
#
# _framework density 23.761744
#
# number of rings (size 3 to 8) (size 9 to 14) (size 15 to 20)
#    0.000    1.750    1.250    2.250    1.750    6.500 
#    0.000    8.125    0.000    0.000    0.000    0.000 
#    0.000    0.000    0.000    0.000    0.000    0.000 
#
# Total GULP energy -89152.582500 kJ/mol
# GULP energy per Si atom -5572.036406 kJ/mol
# Density = 2.370766 g / cm^3
# Si number density = 23.761744 Si / 1000 Ang^3
#
#
#
# Elastic Constant Matrix: (Units=GPa)
#
#
# Indices 1 2 3 4 5 6 
#
# 1 59.4554 9.8618 22.9023 3.7645 11.7784 -2.7520
# 2 9.8618 79.1477 15.0398 -5.2816 -2.9404 -3.8493
# 3 22.9023 15.0398 61.1125 -16.8947 17.8965 0.8410
# 4 3.7645 -5.2816 -16.8947 44.9708 1.4758 -1.3162
# 5 11.7784 -2.9404 17.8965 1.4758 34.0574 -2.0853
# 6 -2.7520 -3.8493 0.8410 -1.3162 -2.0853 22.3814
#
#
#
# Elastic Compliance Matrix: (Units=1/GPa)
#
#
# Indices 1 2 3 4 5 6 
#
# 1 0.021143 -0.001419 -0.008108 -0.004827 -0.002836 0.002112
# 2 -0.001419 0.013870 -0.004030 0.000184 0.003966 0.002743
# 3 -0.008108 -0.004030 0.027019 0.010668 -0.012402 -0.003234
# 4 -0.004827 0.000184 0.010668 0.026841 -0.005075 0.000143
# 5 -0.002836 0.003966 -0.012402 -0.005075 0.037668 0.004011
# 6 0.002112 0.002743 -0.003234 0.000143 0.004011 0.045915
#
#
# Mechanical properties :
#
#
# Convention : Reuss Voigt Hill
#
# Bulk Modulus (GPa) = 28.63707 32.81371 30.72539
# Shear Modulus (GPa) = 23.67327 30.40935 27.04131
#
# Velocity S-wave (km/s) = 3.15981 3.58126 3.37711
# Velocity P-wave (km/s) = 5.03889 5.56237 5.30709
#
# Compressibility (1/GPa) = 0.03491977
#
# Stress axis : x y z
#
# Youngs Moduli (GPa) = 47.29736 72.09719 37.01067
#
# Poissons Ratio (x) = 0.10227 0.30007
# Poissons Ratio (y) = 0.06709 0.14916
# Poissons Ratio (z) = 0.38346 0.29056
#
# Static dielectric constant tensor:
#      x y z
#    x 1.891380 -0.048920 0.063640 
#    y -0.048920 1.993590 -0.067820 
#    z 0.063640 -0.067820 2.047340 
# 
# From -- ./inp_files/139346.got.cif
#   From: 2010.05.17/outbox.cif.g08.bks.cpg/sg2_70_cif.got.tgz:139346.got - 2010.06.03 11:33:40.
