data_PCOD9110148
_publ_section_title
;
Structure prediction by ZEFSAII (Michael W. Deem and Ramdas Pophale) SiO2 
 PCOD9110148
Probable space group: P -1
;
_chemical_formula_sum "Si O2"
_cell_formula_units_Z 14
_cell_length_a 14.103470
_cell_length_b 10.569723
_cell_length_c 8.057071
_cell_angle_alpha 88.785627
_cell_angle_beta 126.736237
_cell_angle_gamma 130.483735
_cell_volume 584.397420
_symmetry_space_group_name_H-M "P -1"
_symmetry_group_IT_number 2
_symmetry_cell_setting 'triclinic'
loop_
_space_group_symop_operation_xyz
x,y,z
-x,-y,-z
loop_
_atom_site_type_symbol
_atom_site_label
_atom_site_fract_x
_atom_site_fract_y
_atom_site_fract_z
Si Si1 0.606567 0.130809 0.367064
Si Si2 0.563097 0.652108 0.418946
Si Si3 0.958741 0.196912 0.289373
Si Si4 0.173832 0.395467 0.828759
Si Si5 0.727555 0.041891 0.757048
Si Si6 0.252311 0.727477 0.831902
Si Si7 0.026348 0.008890 0.226274
O O1 0.450558 0.087448 0.295365
O O2 0.731393 0.292882 0.344387
O O3 0.725070 0.158544 0.629231
O O4 0.467161 0.912636 0.130989
O O5 0.500000 0.500000 0.500000
O O6 0.655749 0.856284 0.593502
O O7 0.751274 0.761984 0.515569
O O8 0.381519 0.532309 0.117010
O O9 0.833634 0.204521 0.242245
O O10 0.139384 0.343933 0.598887
O O11 0.896690 0.996494 0.200763
O O12 0.931343 0.211725 0.066287
O O13 0.146327 0.522826 0.819928
O O14 0.020775 0.173299 0.764098
O O15 0.000000 0.000000 0.000000
#
# Coordination Sequence:
#
# PCOD9110148 Si02
#       7
#     2   2   2   2   2   2   2
#     4   9  20  39  72 103 146 191 233 293 363 422
#     4  12  25  45  75 102 140 188 245 296 355 429
#     4  11  25  44  69 106 147 191 236 294 364 435
#     4  12  26  47  72 110 144 185 248 297 359 437
#     4  10  20  41  70 105 141 190 241 292 353 428
#     4  10  22  43  71 109 148 185 237 303 362 428
#     4  12  26  48  75 101 147 193 237 305 358 420
#
# _framework density 23.956299999999999
#
# number of rings (size 3 to 8) (size 9 to 14) (size 15 to 20)
#    0.000    1.143    4.286    0.857    2.000    2.857 
#    0.000    2.857    0.000    0.000    0.000    0.000 
#    0.000    0.000    0.000    0.000    0.000    0.000 
#
# Total GULP energy -78039.129325 kJ/mol
# GULP energy per Si atom -5574.223523 kJ/mol
# Density = 2.390177 g / cm^3
# Si number density = 23.956300 Si / 1000 Ang^3
#
#
#
# Elastic Constant Matrix: (Units=GPa)
#
#
# Indices 1 2 3 4 5 6 
#
# 1 101.6946 55.6553 25.5495 -16.4238 -9.6861 -7.7953
# 2 55.6553 138.6365 23.7024 -4.4055 7.4885 -2.2019
# 3 25.5495 23.7024 207.7451 -15.7465 -5.6098 8.0402
# 4 -16.4238 -4.4055 -15.7465 21.9644 -0.6368 6.5920
# 5 -9.6861 7.4885 -5.6098 -0.6368 29.4564 5.8377
# 6 -7.7953 -2.2019 8.0402 6.5920 5.8377 16.8529
#
#
#
# Elastic Compliance Matrix: (Units=1/GPa)
#
#
# Indices 1 2 3 4 5 6 
#
# 1 0.015702 -0.006305 -0.000230 0.010502 0.006942 0.000036
# 2 -0.006305 0.010098 -0.000933 -0.004223 -0.005378 0.002363
# 3 -0.000230 -0.000933 0.005673 0.005583 0.002552 -0.006003
# 4 0.010502 -0.004223 0.005583 0.065398 0.012614 -0.028308
# 5 0.006942 -0.005378 0.002552 0.012614 0.041960 -0.018178
# 6 0.000036 0.002363 -0.006003 -0.028308 -0.018178 0.079895
#
#
# Mechanical properties :
#
#
# Convention : Reuss Voigt Hill
#
# Bulk Modulus (GPa) = 60.47350 73.09895 66.78623
# Shear Modulus (GPa) = 20.90535 36.53267 28.71901
#
# Velocity S-wave (km/s) = 2.95726 3.90932 3.46614
# Velocity P-wave (km/s) = 6.07936 7.13840 6.63006
#
# Compressibility (1/GPa) = 0.01653617
#
# Stress axis : x y z
#
# Youngs Moduli (GPa) = 63.68764 99.03390 176.28015
#
# Poissons Ratio (x) = 0.62439 0.04048
# Poissons Ratio (y) = 0.40154 0.16455
# Poissons Ratio (z) = 0.01462 0.09244
#
# Static dielectric constant tensor:
#      x y z
#    x 1.991210 -0.011890 0.032830 
#    y -0.011890 1.900990 0.003970 
#    z 0.032830 0.003970 1.956020 
# 
# From -- ./inp_files/332022.got.cif
#   From: 2010.05.17/outbox.cif.g08.bks.cpg/sg2_167_cif.got.tgz:332022.got - 2010.06.03 11:33:40.
