data_PCOD9110285
_publ_section_title
;
Structure prediction by ZEFSAII (Michael W. Deem and Ramdas Pophale) SiO2 
 PCOD9110285
Probable space group: P -1
;
_chemical_formula_sum "Si O2"
_cell_formula_units_Z 16
_cell_length_a 12.924727
_cell_length_b 9.060392
_cell_length_c 9.528263
_cell_angle_alpha 47.310247
_cell_angle_beta 66.595999
_cell_angle_gamma 91.914505
_cell_volume 672.617430
_symmetry_space_group_name_H-M "P -1"
_symmetry_group_IT_number 2
_symmetry_cell_setting 'triclinic'
loop_
_space_group_symop_operation_xyz
x,y,z
-x,-y,-z
loop_
_atom_site_type_symbol
_atom_site_label
_atom_site_fract_x
_atom_site_fract_y
_atom_site_fract_z
Si Si1 0.632478 0.653666 0.253746
Si Si2 0.190398 0.594753 0.638668
Si Si3 0.321618 0.129078 0.218016
Si Si4 0.090845 0.195113 0.425841
Si Si5 0.803818 0.367678 0.071419
Si Si6 0.297653 0.137759 0.648756
Si Si7 0.070902 0.226097 0.725955
Si Si8 0.519074 0.239584 0.279250
O O1 0.500000 0.500000 0.500000
O O2 0.713069 0.514863 0.320987
O O3 0.687265 0.870715 0.187263
O O4 0.647858 0.745379 0.028566
O O5 0.262833 0.860417 0.397170
O O6 0.143336 0.584247 0.830582
O O7 0.092678 0.438623 0.673705
O O8 0.221825 0.172893 0.342076
O O9 0.451372 0.213957 0.183187
O O10 0.022754 0.173347 0.626902
O O11 0.110767 0.433966 0.203053
O O12 0.000000 0.000000 0.500000
O O13 0.773153 0.114584 0.209420
O O14 0.668133 0.373084 0.123841
O O15 0.212071 0.262154 0.594376
O O16 0.430445 0.283200 0.408392
O O17 0.000000 0.000000 0.000000
O O18 0.500000 0.000000 0.500000
#
# Coordination Sequence:
#
# PCOD9110285 Si02
#       8
#     2   2   2   2   2   2   2   2
#     4  11  26  42  66 105 151 185 230 294 350 426
#     4  11  23  45  70 102 146 183 243 293 355 428
#     4  12  25  46  74 103 145 197 238 288 372 428
#     4  12  27  47  72 103 139 187 251 298 356 437
#     4  11  22  43  72 102 144 183 233 303 348 431
#     4  10  22  42  68  99 143 183 232 288 360 423
#     4  11  25  45  70  99 141 186 242 304 362 418
#     4  10  20  41  72 104 142 179 237 283 348 445
#
# _framework density 23.787668
#
# number of rings (size 3 to 8) (size 9 to 14) (size 15 to 20)
#    0.000    1.000    5.000    1.500    5.250    4.000 
#    0.000    3.750    0.000    0.000    0.000    0.000 
#    0.000    0.000    0.000    0.000    0.000    0.000 
#
# Total GULP energy -89322.848100 kJ/mol
# GULP energy per Si atom -5582.678006 kJ/mol
# Density = 2.373353 g / cm^3
# Si number density = 23.787668 Si / 1000 Ang^3
#
#
#
# Elastic Constant Matrix: (Units=GPa)
#
#
# Indices 1 2 3 4 5 6 
#
# 1 69.9468 26.6736 10.9086 8.1673 -2.9970 -8.8431
# 2 26.6736 202.6684 69.0429 7.0178 12.3541 22.3770
# 3 10.9086 69.0429 153.9489 6.5183 14.3327 4.6309
# 4 8.1673 7.0178 6.5183 39.9669 3.0268 7.4466
# 5 -2.9970 12.3541 14.3327 3.0268 28.7995 6.3639
# 6 -8.8431 22.3770 4.6309 7.4466 6.3639 37.1099
#
#
#
# Elastic Compliance Matrix: (Units=1/GPa)
#
#
# Indices 1 2 3 4 5 6 
#
# 1 0.016762 -0.002832 -0.000120 -0.004223 0.002092 0.006206
# 2 -0.002832 0.006717 -0.002619 0.000716 -0.000981 -0.004374
# 3 -0.000120 -0.002619 0.007959 -0.000815 -0.003039 0.001242
# 4 -0.004223 0.000716 -0.000815 0.027236 -0.001767 -0.006498
# 5 0.002092 -0.000981 -0.003039 -0.001767 0.038100 -0.004710
# 6 0.006206 -0.004374 0.001242 -0.006498 -0.004710 0.033020
#
#
# Mechanical properties :
#
#
# Convention : Reuss Voigt Hill
#
# Bulk Modulus (GPa) = 49.27073 71.09045 60.18059
# Shear Modulus (GPa) = 33.85207 42.50453 38.17830
#
# Velocity S-wave (km/s) = 3.77648 4.23168 4.01054
# Velocity P-wave (km/s) = 6.30662 7.33665 6.84105
#
# Compressibility (1/GPa) = 0.02029602
#
# Stress axis : x y z
#
# Youngs Moduli (GPa) = 59.65717 148.87508 125.64557
#
# Poissons Ratio (x) = 0.42154 0.01513
# Poissons Ratio (y) = 0.16892 0.32909
# Poissons Ratio (z) = 0.00719 0.38993
#
# Static dielectric constant tensor:
#      x y z
#    x 2.040330 0.060940 -0.002330 
#    y 0.060940 2.033670 0.044670 
#    z -0.002330 0.044670 1.881360 
# 
# From -- ./inp_files/235882.got.cif
#   From: 2010.05.17/outbox.cif.g08.bks.cpg/sg2_118_cif.got.tgz:235882.got - 2010.06.03 11:33:40.
