data_PCOD9110344
_publ_section_title
;
Structure prediction by ZEFSAII (Michael W. Deem and Ramdas Pophale) SiO2 
 PCOD9110344
Probable space group: P -1
;
_chemical_formula_sum "Si O2"
_cell_formula_units_Z 12
_cell_length_a 13.355970
_cell_length_b 11.990078
_cell_length_c 7.509547
_cell_angle_alpha 40.203377
_cell_angle_beta 117.154226
_cell_angle_gamma 138.827634
_cell_volume 490.757392
_symmetry_space_group_name_H-M "P -1"
_symmetry_group_IT_number 2
_symmetry_cell_setting 'triclinic'
loop_
_space_group_symop_operation_xyz
x,y,z
-x,-y,-z
loop_
_atom_site_type_symbol
_atom_site_label
_atom_site_fract_x
_atom_site_fract_y
_atom_site_fract_z
Si Si1 0.622422 0.242903 0.680859
Si Si2 0.390228 0.260905 0.583727
Si Si3 0.338692 0.022158 0.185802
Si Si4 0.694071 0.517482 0.971425
Si Si5 0.903118 0.570251 0.797692
Si Si6 0.119151 0.047002 0.180786
O O1 0.509239 0.287334 0.518958
O O2 0.776942 0.426939 0.705906
O O3 0.658460 0.180265 0.603472
O O4 0.500000 0.000000 0.000000
O O5 0.500000 0.500000 0.500000
O O6 0.306793 0.055562 0.916271
O O7 0.286359 0.281624 0.368515
O O8 0.512261 0.265162 0.101395
O O9 0.214883 0.987254 0.250282
O O10 0.803317 0.500342 0.979167
O O11 0.764426 0.666787 0.028761
O O12 0.017014 0.851140 0.494649
O O13 0.000000 0.500000 0.000000
O O14 0.000000 0.000000 0.000000
#
# Coordination Sequence:
#
# PCOD9110344 Si02
#       6
#     2   2   2   2   2   2
#     4  10  20  41  74  99 133 180 237 279 340 417
#     4   9  17  37  75  97 125 175 249 270 320 409
#     4  10  22  43  69 103 134 180 230 292 341 406
#     4  11  23  46  72  99 133 195 240 272 334 439
#     4  12  27  46  71 104 141 184 231 287 352 418
#     4  12  29  45  67 105 149 181 224 297 358 396
#
# _framework density 24.452000999999999
#
# number of rings (size 3 to 8) (size 9 to 14) (size 15 to 20)
#    0.000    1.333    5.000    2.000    9.333    0.667 
#    0.000    1.667    0.000    0.000    0.000    0.000 
#    0.000    0.000    0.000    0.000    0.000    0.000 
#
# Total GULP energy -67053.684014 kJ/mol
# GULP energy per Si atom -5587.807001 kJ/mol
# Density = 2.439635 g / cm^3
# Si number density = 24.452001 Si / 1000 Ang^3
#
#
#
# Elastic Constant Matrix: (Units=GPa)
#
#
# Indices 1 2 3 4 5 6 
#
# 1 181.9333 37.5461 0.3982 -5.3520 13.3808 5.0260
# 2 37.5461 96.1389 -0.1371 -16.8059 1.1688 -11.5226
# 3 0.3982 -0.1371 38.2330 -2.6990 -2.1902 7.9237
# 4 -5.3520 -16.8059 -2.6990 41.4005 2.6344 9.8201
# 5 13.3808 1.1688 -2.1902 2.6344 45.7217 -1.0325
# 6 5.0260 -11.5226 7.9237 9.8201 -1.0325 37.9171
#
#
#
# Elastic Compliance Matrix: (Units=1/GPa)
#
#
# Indices 1 2 3 4 5 6 
#
# 1 0.006216 -0.002564 0.000213 0.000313 -0.001802 -0.001778
# 2 -0.002564 0.012469 -0.000294 0.003941 0.000262 0.003177
# 3 0.000213 -0.000294 0.027836 0.003266 0.000938 -0.006755
# 4 0.000313 0.003941 0.003266 0.027723 -0.001786 -0.006755
# 5 -0.001802 0.000262 0.000938 -0.001786 0.022567 0.001199
# 6 -0.001778 0.003177 -0.006755 -0.006755 0.001199 0.030768
#
#
# Mechanical properties :
#
#
# Convention : Reuss Voigt Hill
#
# Bulk Modulus (GPa) = 24.25243 43.54662 33.89952
# Shear Modulus (GPa) = 34.10364 43.57440 38.83902
#
# Velocity S-wave (km/s) = 3.73864 4.22600 3.98977
# Velocity P-wave (km/s) = 5.34570 6.45444 5.92606
#
# Compressibility (1/GPa) = 0.04123298
#
# Stress axis : x y z
#
# Youngs Moduli (GPa) = 160.87636 80.19962 35.92430
#
# Poissons Ratio (x) = 0.20561 -0.00767
# Poissons Ratio (y) = 0.41244 0.01055
# Poissons Ratio (z) = -0.03433 0.02356
#
# Static dielectric constant tensor:
#      x y z
#    x 1.947560 -0.039920 0.002790 
#    y -0.039920 1.890480 0.065480 
#    z 0.002790 0.065480 2.192680 
# 
# From -- ./inp_files/261359.got.cif
#   From: 2010.05.17/outbox.cif.g08.bks.cpg/sg2_131_cif.got.tgz:261359.got - 2010.06.03 11:33:40.
