data_PCOD9110785
_publ_section_title
;
Structure prediction by ZEFSAII (Michael W. Deem and Ramdas Pophale) SiO2 
 PCOD9110785
Probable space group: P -1
;
_chemical_formula_sum "Si O2"
_cell_formula_units_Z 12
_cell_length_a 8.400285
_cell_length_b 19.674277
_cell_length_c 13.038965
_cell_angle_alpha 152.386174
_cell_angle_beta 48.635692
_cell_angle_gamma 149.407739
_cell_volume 458.444817
_symmetry_space_group_name_H-M "P -1"
_symmetry_group_IT_number 2
_symmetry_cell_setting 'triclinic'
loop_
_space_group_symop_operation_xyz
x,y,z
-x,-y,-z
loop_
_atom_site_type_symbol
_atom_site_label
_atom_site_fract_x
_atom_site_fract_y
_atom_site_fract_z
Si Si1 0.273913 0.518442 0.580399
Si Si2 0.912315 0.232815 0.151832
Si Si3 0.086729 0.721854 0.389824
Si Si4 0.844792 0.059941 0.527883
Si Si5 0.118730 0.263625 0.894078
Si Si6 0.996917 0.983700 0.858996
O O1 0.500000 0.500000 0.500000
O O2 0.587386 0.766533 0.719059
O O3 0.988866 0.352118 0.388823
O O4 0.122219 0.481250 0.706123
O O5 0.050932 0.335084 0.113791
O O6 0.500000 0.000000 0.000000
O O7 0.130677 0.202656 0.043607
O O8 0.443291 0.837788 0.369297
O O9 0.163383 0.921294 0.677796
O O10 0.946671 0.713547 0.331942
O O11 0.950186 0.946783 0.328388
O O12 0.865835 0.137532 0.735986
O O13 0.500000 0.500000 0.000000
O O14 0.000000 0.000000 0.000000
#
# Coordination Sequence:
#
# PCOD9110785 Si02
#       6
#     2   2   2   2   2   2
#     4  10  22  38  68  95 124 159 217 268 317 377
#     4  12  25  42  65  97 131 168 213 269 325 378
#     4  10  20  42  66  92 123 163 215 265 319 368
#     4  10  23  43  62  89 131 168 207 264 312 388
#     4  11  26  41  64  91 132 173 209 253 325 385
#     4  11  22  40  67  93 126 166 209 273 325 375
#
# _framework density 26.175452
#
# number of rings (size 3 to 8) (size 9 to 14) (size 15 to 20)
#    0.000    1.333    5.000    1.000    4.667    2.000 
#    0.000    1.667    0.000    0.000    0.000    0.000 
#    0.000    0.000    0.000    0.000    0.000    0.000 
#
# Total GULP energy -66833.591412 kJ/mol
# GULP energy per Si atom -5569.465951 kJ/mol
# Density = 2.611588 g / cm^3
# Si number density = 26.175452 Si / 1000 Ang^3
#
#
#
# Elastic Constant Matrix: (Units=GPa)
#
#
# Indices 1 2 3 4 5 6 
#
# 1 125.3634 23.3522 37.9444 -9.7508 14.4030 -24.0289
# 2 23.3522 136.7671 11.5407 -13.6170 19.2980 -16.2214
# 3 37.9444 11.5407 68.4085 -16.3691 21.6584 -3.6191
# 4 -9.7508 -13.6170 -16.3691 44.1038 -2.0974 16.9284
# 5 14.4030 19.2980 21.6584 -2.0974 44.5082 -5.7894
# 6 -24.0289 -16.2214 -3.6191 16.9284 -5.7894 36.4979
#
#
#
# Elastic Compliance Matrix: (Units=1/GPa)
#
#
# Indices 1 2 3 4 5 6 
#
# 1 0.011406 -0.000868 -0.006847 -0.003374 0.000919 0.008155
# 2 -0.000868 0.008261 0.000643 0.001736 -0.003293 0.001836
# 3 -0.006847 0.000643 0.023468 0.010045 -0.010070 -0.008151
# 4 -0.003374 0.001736 0.010045 0.032160 -0.005138 -0.016185
# 5 0.000919 -0.003293 -0.010070 -0.005138 0.028921 0.005114
# 6 0.008155 0.001836 -0.008151 -0.016185 0.005114 0.041094
#
#
# Mechanical properties :
#
#
# Convention : Reuss Voigt Hill
#
# Bulk Modulus (GPa) = 34.49400 52.91261 43.70331
# Shear Modulus (GPa) = 29.56510 42.20210 35.88360
#
# Velocity S-wave (km/s) = 3.36445 4.01967 3.70657
# Velocity P-wave (km/s) = 5.31971 6.46546 5.92036
#
# Compressibility (1/GPa) = 0.02899055
#
# Stress axis : x y z
#
# Youngs Moduli (GPa) = 87.67236 121.05143 42.61132
#
# Poissons Ratio (x) = 0.10508 0.29176
# Poissons Ratio (y) = 0.07611 -0.02740
# Poissons Ratio (z) = 0.60030 -0.07784
#
# Static dielectric constant tensor:
#      x y z
#    x 2.135070 -0.008170 -0.021290 
#    y -0.008170 1.504490 -0.279670 
#    z -0.021290 -0.279670 2.054090 
# 
# From -- ./inp_files/260699.got.cif
#   From: 2010.05.17/outbox.cif.g08.bks.cpg/sg2_131_cif.got.tgz:260699.got - 2010.06.03 11:33:40.
