data_PCOD9110996
_publ_section_title
;
Structure prediction by ZEFSAII (Michael W. Deem and Ramdas Pophale) SiO2 
 PCOD9110996
Probable space group: P -1
;
_chemical_formula_sum "Si O2"
_cell_formula_units_Z 14
_cell_length_a 11.914025
_cell_length_b 12.295579
_cell_length_c 5.115546
_cell_angle_alpha 104.967895
_cell_angle_beta 103.891349
_cell_angle_gamma 46.277474
_cell_volume 521.156866
_symmetry_space_group_name_H-M "P -1"
_symmetry_group_IT_number 2
_symmetry_cell_setting 'triclinic'
loop_
_space_group_symop_operation_xyz
x,y,z
-x,-y,-z
loop_
_atom_site_type_symbol
_atom_site_label
_atom_site_fract_x
_atom_site_fract_y
_atom_site_fract_z
Si Si1 0.247032 0.730683 0.336052
Si Si2 0.642083 0.704462 0.564850
Si Si3 0.086003 0.539466 0.743964
Si Si4 0.314172 0.106975 0.995660
Si Si5 0.480468 0.401610 0.191930
Si Si6 0.993636 0.725454 0.323382
Si Si7 0.338945 0.889570 0.252696
O O1 0.358062 0.574671 0.125846
O O2 0.365577 0.655728 0.603122
O O3 0.081959 0.780241 0.317005
O O4 0.228238 0.871644 0.319376
O O5 0.737065 0.614761 0.300693
O O6 0.725999 0.748835 0.796627
O O7 0.618879 0.606892 0.658692
O O8 0.466561 0.857795 0.499471
O O9 0.051282 0.666958 0.612563
O O10 0.000000 0.500000 0.500000
O O11 0.047542 0.597900 0.054387
O O12 0.279201 0.025318 0.116843
O O13 0.193557 0.162872 0.727946
O O14 0.500000 0.000000 0.000000
O O15 0.553350 0.265563 0.950649
#
# Coordination Sequence:
#
# PCOD9110996 Si02
#       7
#     2   2   2   2   2   2   2
#     4  10  23  41  70 101 143 181 246 292 364 419
#     4  11  23  42  73 105 141 184 240 303 366 427
#     4  12  26  45  75 112 146 184 241 305 373 417
#     4  12  27  46  70 101 147 195 246 288 365 438
#     4  10  20  42  68 107 135 180 237 302 363 420
#     4  12  28  47  73 111 148 192 237 306 360 431
#     4  11  24  41  71  98 143 195 235 297 347 445
#
# _framework density 26.863310999999999
#
# number of rings (size 3 to 8) (size 9 to 14) (size 15 to 20)
#    0.000    0.857    4.286    2.143    4.000    1.714 
#    0.000    0.714    0.000    0.000    0.000    0.000 
#    0.000    0.000    0.000    0.000    0.000    0.000 
#
# Total GULP energy -78350.396707 kJ/mol
# GULP energy per Si atom -5596.456908 kJ/mol
# Density = 2.680217 g / cm^3
# Si number density = 26.863311 Si / 1000 Ang^3
#
#
#
# Elastic Constant Matrix: (Units=GPa)
#
#
# Indices 1 2 3 4 5 6 
#
# 1 113.7538 50.4768 18.0349 0.4419 23.2686 -0.6778
# 2 50.4768 80.7815 23.8854 -1.4386 -0.4636 -3.3302
# 3 18.0349 23.8854 75.7255 2.1658 7.8591 -0.4298
# 4 0.4419 -1.4386 2.1658 36.6916 -0.0135 -9.7880
# 5 23.2686 -0.4636 7.8591 -0.0135 47.2517 -3.2944
# 6 -0.6778 -3.3302 -0.4298 -9.7880 -3.2944 61.9535
#
#
#
# Elastic Compliance Matrix: (Units=1/GPa)
#
#
# Indices 1 2 3 4 5 6 
#
# 1 0.014245 -0.009058 0.000229 -0.000765 -0.007200 -0.000833
# 2 -0.009058 0.019521 -0.004609 0.001537 0.005520 0.001455
# 3 0.000229 -0.004609 0.014913 -0.001191 -0.002672 -0.000472
# 4 -0.000765 0.001537 -0.001191 0.028632 0.000921 0.004638
# 5 -0.007200 0.005520 -0.002672 0.000921 0.025325 0.001692
# 6 -0.000833 0.001455 -0.000472 0.004638 0.001692 0.017030
#
#
# Mechanical properties :
#
#
# Convention : Reuss Voigt Hill
#
# Bulk Modulus (GPa) = 45.86408 50.56166 48.21287
# Shear Modulus (GPa) = 32.50795 41.03695 36.77245
#
# Velocity S-wave (km/s) = 3.48246 3.91272 3.70384
# Velocity P-wave (km/s) = 5.76890 6.26699 6.02310
#
# Compressibility (1/GPa) = 0.02180355
#
# Stress axis : x y z
#
# Youngs Moduli (GPa) = 70.20155 51.22787 67.05387
#
# Poissons Ratio (x) = 0.46402 -0.01535
# Poissons Ratio (y) = 0.63588 0.30902
# Poissons Ratio (z) = -0.01607 0.23609
#
# Static dielectric constant tensor:
#      x y z
#    x 2.157530 0.021800 -0.059790 
#    y 0.021800 2.216590 0.035710 
#    z -0.059790 0.035710 2.247560 
# 
# From -- ./inp_files/66542.got.cif
#   From: 2010.05.17/outbox.cif.g08.bks.cpg/sg2_34_cif.got.tgz:66542.got - 2010.06.03 11:33:40.
