data_PCOD9110480
_publ_section_title
;
Structure prediction by ZEFSAII (Michael W. Deem and Ramdas Pophale) SiO2 
 PCOD9110480
Probable space group: P -1
;
_chemical_formula_sum "Si O2"
_cell_formula_units_Z 15
_cell_length_a 15.062905
_cell_length_b 18.555143
_cell_length_c 11.875396
_cell_angle_alpha 37.506877
_cell_angle_beta 141.409164
_cell_angle_gamma 159.041791
_cell_volume 710.022696
_symmetry_space_group_name_H-M "P -1"
_symmetry_group_IT_number 2
_symmetry_cell_setting 'triclinic'
loop_
_space_group_symop_operation_xyz
x,y,z
-x,-y,-z
loop_
_atom_site_type_symbol
_atom_site_label
_atom_site_fract_x
_atom_site_fract_y
_atom_site_fract_z
Si Si1 0.028188 0.209395 0.233071
Si Si2 0.331137 0.960186 0.113602
Si Si3 0.769279 0.372710 0.615811
Si Si4 0.204628 0.084214 0.183211
Si Si5 0.985799 0.249719 0.718882
Si Si6 0.134051 0.546878 0.962439
Si Si7 0.500000 0.500000 0.000000
Si Si8 0.757180 0.866267 0.576624
O O1 0.206044 0.241168 0.300851
O O2 0.918992 0.063695 0.412576
O O3 0.800319 0.087424 0.073551
O O4 0.155050 0.418955 0.136448
O O5 0.351700 0.832260 0.293378
O O6 0.148954 0.864464 0.154973
O O7 0.595940 0.206266 0.085198
O O8 0.532607 0.291167 0.518614
O O9 0.949846 0.570953 0.466869
O O10 0.948281 0.458960 0.788353
O O11 0.463195 0.335436 0.116668
O O12 0.152928 0.068658 0.284672
O O13 0.185007 0.932813 0.318841
O O14 0.000000 0.000000 0.000000
O O15 0.257668 0.374968 0.843574
O O16 0.000000 0.500000 0.000000
#
# Coordination Sequence:
#
# PCOD9110480 Si02
#       8
#     2   2   2   2   2   2   1   2
#     4  10  24  45  70 100 132 181 222 286 335 394
#     4  11  25  46  66 100 140 175 231 274 334 410
#     4  11  25  43  69 100 134 184 220 280 339 400
#     4  10  22  38  63  98 134 176 214 267 337 400
#     4  11  24  40  69 102 132 180 223 275 341 401
#     4  11  25  46  71  96 137 184 225 277 337 399
#     4  10  20  42  62  94 138 174 206 276 340 394
#     4  11  22  46  70  99 139 170 231 281 335 400
#
# _framework density 21.126086000000001
#
# number of rings (size 3 to 8) (size 9 to 14) (size 15 to 20)
#    0.000    1.333    1.333    3.600    3.733    5.867 
#    4.800    2.000    0.000    0.000    0.000    0.000 
#    0.000    0.000    0.000    0.000    0.000    0.000 
#
# Total GULP energy -83510.708500 kJ/mol
# GULP energy per Si atom -5567.380567 kJ/mol
# Density = 2.107800 g / cm^3
# Si number density = 21.126086 Si / 1000 Ang^3
#
#
#
# Elastic Constant Matrix: (Units=GPa)
#
#
# Indices 1 2 3 4 5 6 
#
# 1 38.4624 -32.7259 32.7341 -32.0044 23.4291 -21.8393
# 2 -32.7259 34.6656 14.1571 -55.8070 52.0117 -43.7878
# 3 32.7341 14.1571 93.6115 -30.3253 15.5810 -11.1582
# 4 -32.0044 -55.8070 -30.3253 21.5671 4.2121 3.8666
# 5 23.4291 52.0117 15.5810 4.2121 27.6313 -2.8773
# 6 -21.8393 -43.7878 -11.1582 3.8666 -2.8773 29.4662
#
#
#
# Elastic Compliance Matrix: (Units=1/GPa)
#
#
# Indices 1 2 3 4 5 6 
#
# 1 0.015195 -0.007181 -0.008250 -0.008780 0.006547 -0.000743
# 2 -0.007181 0.001947 -0.001174 -0.007816 0.004127 -0.001445
# 3 -0.008250 -0.001174 0.016588 0.008922 -0.001813 -0.002926
# 4 -0.008780 -0.007816 0.008922 0.026521 0.011300 -0.017120
# 5 0.006547 0.004127 -0.001813 0.011300 0.023326 0.011093
# 6 -0.000743 -0.001445 -0.002926 -0.017120 0.011093 0.033462
#
#
# Mechanical properties :
#
#
# Convention : Reuss Voigt Hill
#
# Bulk Modulus (GPa) = 1925.34391 21.67443 973.50917
# Shear Modulus (GPa) = 33.23941 25.90455 29.57198
#
# Velocity S-wave (km/s) = 3.97089 3.50550 3.74543
# Velocity P-wave (km/s) = 30.56732 5.16396 21.92062
#
# Compressibility (1/GPa) = 0.00051939
#
# Stress axis : x y z
#
# Youngs Moduli (GPa) = 65.81196 513.50364 60.28397
#
# Poissons Ratio (x) = 3.68770 0.49732
# Poissons Ratio (y) = 0.47263 0.07080
# Poissons Ratio (z) = 0.54293 0.60305
#
# Static dielectric constant tensor:
#      x y z
#    x 1.928770 -0.128780 -0.088780 
#    y -0.128780 1.847480 0.057580 
#    z -0.088780 0.057580 1.934440 
# 
# From -- ./inp_files/456686.got.cif
#   From: 2010.05.17/outbox.cif.g08.bks.cpg/sg2_229_cif.got.tgz:456686.got - 2010.06.03 11:33:40.
