data_PCOD9110253
_publ_section_title
;
Structure prediction by ZEFSAII (Michael W. Deem and Ramdas Pophale) SiO2 
 PCOD9110253
Probable space group: P -1
;
_chemical_formula_sum "Si O2"
_cell_formula_units_Z 14
_cell_length_a 9.257500
_cell_length_b 12.201473
_cell_length_c 18.549907
_cell_angle_alpha 150.937844
_cell_angle_beta 137.843861
_cell_angle_gamma 47.911233
_cell_volume 681.508419
_symmetry_space_group_name_H-M "P -1"
_symmetry_group_IT_number 2
_symmetry_cell_setting 'triclinic'
loop_
_space_group_symop_operation_xyz
x,y,z
-x,-y,-z
loop_
_atom_site_type_symbol
_atom_site_label
_atom_site_fract_x
_atom_site_fract_y
_atom_site_fract_z
Si Si1 0.635281 0.089829 0.764234
Si Si2 0.776946 0.583412 0.503012
Si Si3 0.433907 0.223315 0.148727
Si Si4 0.973880 0.440624 0.041131
Si Si5 0.136985 0.217350 0.677340
Si Si6 0.718800 0.022510 0.925955
Si Si7 0.993087 0.381068 0.245233
O O1 0.381718 0.156352 0.707826
O O2 0.699165 0.845153 0.612642
O O3 0.674453 0.074412 0.856275
O O4 0.787349 0.267549 0.887039
O O5 0.594083 0.421958 0.320442
O O6 0.839067 0.573824 0.604842
O O7 0.000000 0.500000 0.500000
O O8 0.454137 0.111385 0.172120
O O9 0.200184 0.327719 0.093058
O O10 0.500000 0.000000 0.000000
O O11 0.895723 0.659987 0.186574
O O12 0.000000 0.500000 0.000000
O O13 0.052120 0.401869 0.693943
O O14 0.000000 0.000000 0.500000
O O15 0.907754 0.821926 0.884504
O O16 0.783758 0.253634 0.121372
#
# Coordination Sequence:
#
# PCOD9110253 Si02
#       7
#     2   2   2   2   2   2   2
#     4  11  25  44  74 101 138 190 234 290 355 422
#     4  11  25  44  68 104 141 178 237 298 357 413
#     4  12  25  42  70 103 137 180 235 293 356 414
#     4  12  27  48  69 102 145 187 239 292 357 423
#     4  12  26  44  69 107 147 188 237 284 359 433
#     4  10  20  41  71  96 133 175 241 280 340 406
#     4  10  21  41  68  95 135 178 223 291 337 417
#
# _framework density 20.542667999999999
#
# number of rings (size 3 to 8) (size 9 to 14) (size 15 to 20)
#    0.000    0.857    2.857    4.714    4.000    3.429 
#    0.000    2.143    0.000    0.000    0.000    0.000 
#    0.000    0.000    0.000    0.000    0.000    0.000 
#
# Total GULP energy -78071.208806 kJ/mol
# GULP energy per Si atom -5576.514915 kJ/mol
# Density = 2.049591 g / cm^3
# Si number density = 20.542668 Si / 1000 Ang^3
#
#
#
# Elastic Constant Matrix: (Units=GPa)
#
#
# Indices 1 2 3 4 5 6 
#
# 1 124.7358 59.6412 78.1309 17.9402 16.1648 3.9817
# 2 59.6412 121.3323 66.8033 20.5974 13.8142 7.5828
# 3 78.1309 66.8033 186.3406 34.0506 26.3535 -4.9197
# 4 17.9402 20.5974 34.0506 34.0952 -1.5385 -1.6404
# 5 16.1648 13.8142 26.3535 -1.5385 38.9977 4.0093
# 6 3.9817 7.5828 -4.9197 -1.6404 4.0093 35.7935
#
#
#
# Elastic Compliance Matrix: (Units=1/GPa)
#
#
# Indices 1 2 3 4 5 6 
#
# 1 0.012344 -0.003789 -0.003504 -0.000813 -0.001342 -0.000939
# 2 -0.003789 0.012090 -0.001995 -0.003491 -0.001252 -0.002434
# 3 -0.003504 -0.001995 0.009473 -0.006513 -0.004741 0.002347
# 4 -0.000813 -0.003491 -0.006513 0.038748 0.007413 0.000880
# 5 -0.001342 -0.001252 -0.004741 0.007413 0.030479 -0.003311
# 6 -0.000939 -0.002434 0.002347 0.000880 -0.003311 0.029292
#
#
# Mechanical properties :
#
#
# Convention : Reuss Voigt Hill
#
# Bulk Modulus (GPa) = 65.22293 93.50660 79.36476
# Shear Modulus (GPa) = 32.02804 36.96617 34.49711
#
# Velocity S-wave (km/s) = 3.95283 4.24663 4.10236
# Velocity P-wave (km/s) = 7.25617 8.34639 7.82030
#
# Compressibility (1/GPa) = 0.01533203
#
# Stress axis : x y z
#
# Youngs Moduli (GPa) = 81.00953 82.71307 105.55789
#
# Poissons Ratio (x) = 0.31342 0.36986
# Poissons Ratio (y) = 0.30696 0.21056
# Poissons Ratio (z) = 0.28384 0.16499
#
# Static dielectric constant tensor:
#      x y z
#    x 1.996230 -0.022280 0.080850 
#    y -0.022280 1.706770 0.005000 
#    z 0.080850 0.005000 1.719770 
# 
# From -- ./inp_files/156741.got.cif
#   From: 2010.05.17/outbox.cif.g08.bks.cpg/sg2_79_cif.got.tgz:156741.got - 2010.06.03 11:33:40.
