data_PCOD9110471
_publ_section_title
;
Structure prediction by ZEFSAII (Michael W. Deem and Ramdas Pophale) SiO2 
 PCOD9110471
Probable space group: P -1
;
_chemical_formula_sum "Si O2"
_cell_formula_units_Z 16
_cell_length_a 13.077646
_cell_length_b 9.510043
_cell_length_c 8.460852
_cell_angle_alpha 47.287252
_cell_angle_beta 92.119503
_cell_angle_gamma 106.691883
_cell_volume 721.722808
_symmetry_space_group_name_H-M "P -1"
_symmetry_group_IT_number 2
_symmetry_cell_setting 'triclinic'
loop_
_space_group_symop_operation_xyz
x,y,z
-x,-y,-z
loop_
_atom_site_type_symbol
_atom_site_label
_atom_site_fract_x
_atom_site_fract_y
_atom_site_fract_z
Si Si1 0.248153 0.043360 0.159923
Si Si2 0.642644 0.196297 0.247077
Si Si3 0.395743 0.441012 0.428599
Si Si4 0.421748 0.232288 0.263310
Si Si5 0.062914 0.462414 0.377529
Si Si6 0.179955 0.273585 0.728797
Si Si7 0.303801 0.796194 0.097952
Si Si8 0.841591 0.365861 0.333228
O O1 0.332943 0.225253 0.129185
O O2 0.320159 0.958889 0.112340
O O3 0.185374 0.853454 0.414364
O O4 0.166700 0.107767 0.991867
O O5 0.547915 0.293711 0.170062
O O6 0.762158 0.343598 0.197818
O O7 0.610096 0.007762 0.510319
O O8 0.656337 0.113359 0.139682
O O9 0.500000 0.500000 0.500000
O O10 0.411294 0.347158 0.334127
O O11 0.291468 0.294349 0.631218
O O12 0.368007 0.644347 0.247536
O O13 0.096475 0.271222 0.583696
O O14 0.174719 0.650455 0.204076
O O15 0.000000 0.500000 0.500000
O O16 0.971589 0.437525 0.258433
O O17 0.188863 0.480698 0.666383
#
# Coordination Sequence:
#
# PCOD9110471 Si02
#       8
#     2   2   2   2   2   2   2   2
#     4  11  22  39  65  92 126 166 207 250 316 367
#     4  10  23  39  62  87 130 161 212 252 314 365
#     4  11  23  39  61  88 130 165 208 257 307 363
#     4  10  24  40  60  91 129 166 203 257 305 375
#     4   9  18  40  64  90 125 160 206 266 308 366
#     4  10  21  37  64  91 124 162 213 252 307 374
#     4  11  23  39  63  93 123 164 212 257 307 375
#     4  10  20  42  62  92 128 163 203 268 311 359
#
# _framework density 22.169177000000001
#
# number of rings (size 3 to 8) (size 9 to 14) (size 15 to 20)
#    0.000    1.750    3.750    1.500    7.000    2.000 
#    0.000    0.000    0.000    6.750    0.000    0.000 
#    0.000    0.000    0.000    0.000    0.000    0.000 
#
# Total GULP energy -89284.506411 kJ/mol
# GULP energy per Si atom -5580.281651 kJ/mol
# Density = 2.211872 g / cm^3
# Si number density = 22.169177 Si / 1000 Ang^3
#
#
#
# Elastic Constant Matrix: (Units=GPa)
#
#
# Indices 1 2 3 4 5 6 
#
# 1 136.0947 38.3953 7.2585 5.7820 3.4880 4.7439
# 2 38.3953 99.7401 -9.0783 10.9642 2.0427 2.2460
# 3 7.2585 -9.0783 50.6806 -3.2736 -2.6464 -2.1634
# 4 5.7820 10.9642 -3.2736 26.5914 -8.4307 4.1723
# 5 3.4880 2.0427 -2.6464 -8.4307 15.9830 2.4928
# 6 4.7439 2.2460 -2.1634 4.1723 2.4928 23.6800
#
#
#
# Elastic Compliance Matrix: (Units=1/GPa)
#
#
# Indices 1 2 3 4 5 6 
#
# 1 0.008530 -0.003253 -0.002058 -0.001326 -0.002312 -0.001111
# 2 -0.003253 0.012099 0.002159 -0.005248 -0.003401 0.000984
# 3 -0.002058 0.002159 0.020978 0.003738 0.005480 0.000889
# 4 -0.001326 -0.005248 0.003738 0.052059 0.030803 -0.011310
# 5 -0.002312 -0.003401 0.005480 0.030803 0.082664 -0.012843
# 6 -0.001111 0.000984 0.000889 -0.011310 -0.012843 0.045785
#
#
# Mechanical properties :
#
#
# Convention : Reuss Voigt Hill
#
# Bulk Modulus (GPa) = 28.32656 39.96293 34.14475
# Shear Modulus (GPa) = 20.81712 29.91355 25.36534
#
# Velocity S-wave (km/s) = 3.06765 3.67731 3.38623
# Velocity P-wave (km/s) = 5.03513 6.00796 5.54293
#
# Compressibility (1/GPa) = 0.03530256
#
# Stress axis : x y z
#
# Youngs Moduli (GPa) = 117.23915 82.65080 47.66823
#
# Poissons Ratio (x) = 0.26884 0.09810
# Poissons Ratio (y) = 0.38134 -0.10289
# Poissons Ratio (z) = 0.24129 -0.17841
#
# Static dielectric constant tensor:
#      x y z
#    x 1.848310 0.065680 0.021890 
#    y 0.065680 1.823730 -0.004960 
#    z 0.021890 -0.004960 1.900090 
# 
# From -- ./inp_files/242131.got.cif
#   From: 2010.05.17/outbox.cif.g08.bks.cpg/sg2_122_cif.got.tgz:242131.got - 2010.06.03 11:33:40.
