data_PCOD9110097
_publ_section_title
;
Structure prediction by ZEFSAII (Michael W. Deem and Ramdas Pophale) SiO2 
 PCOD9110097
Probable space group: P -1
;
_chemical_formula_sum "Si O2"
_cell_formula_units_Z 16
_cell_length_a 15.194526
_cell_length_b 8.751873
_cell_length_c 12.151825
_cell_angle_alpha 112.211389
_cell_angle_beta 29.668361
_cell_angle_gamma 102.063814
_cell_volume 714.903418
_symmetry_space_group_name_H-M "P -1"
_symmetry_group_IT_number 2
_symmetry_cell_setting 'triclinic'
loop_
_space_group_symop_operation_xyz
x,y,z
-x,-y,-z
loop_
_atom_site_type_symbol
_atom_site_label
_atom_site_fract_x
_atom_site_fract_y
_atom_site_fract_z
Si Si1 0.434464 0.337473 0.491590
Si Si2 0.830715 0.842654 0.157725
Si Si3 0.208790 0.575709 0.625775
Si Si4 0.321479 0.353958 0.251450
Si Si5 0.292826 0.019345 0.909842
Si Si6 0.923796 0.861782 0.608425
Si Si7 0.702017 0.349854 0.799025
Si Si8 0.349027 0.840581 0.422215
O O1 0.500000 0.500000 0.500000
O O2 0.319711 0.262635 0.685347
O O3 0.295989 0.415444 0.564519
O O4 0.608453 0.180248 0.234222
O O5 0.785765 0.937361 0.115353
O O6 0.797035 0.987926 0.328346
O O7 0.028396 0.707573 0.904475
O O8 0.180183 0.486383 0.518219
O O9 0.344061 0.692175 0.474970
O O10 0.249915 0.187651 0.270803
O O11 0.327909 0.457022 0.159265
O O12 0.533191 0.327552 0.051985
O O13 0.456392 0.113205 0.775922
O O14 0.137924 0.081996 0.186031
O O15 0.099208 0.700196 0.377199
O O16 0.000000 0.000000 0.500000
O O17 0.698487 0.226872 0.663161
#
# Coordination Sequence:
#
# PCOD9110097 Si02
#       8
#     2   2   2   2   2   2   2   2
#     4  11  24  41  64  98 136 171 213 274 342 391
#     4  11  23  41  68  95 132 173 224 270 325 410
#     4  11  23  40  67  99 131 171 220 277 337 387
#     4  10  23  45  66  97 131 176 221 277 330 395
#     4  11  23  43  64  95 132 177 225 270 332 406
#     4  12  27  42  66  99 134 177 225 277 335 398
#     4  10  22  43  71  95 129 174 227 274 331 398
#     4  10  20  41  69  96 127 178 217 275 330 400
#
# _framework density 22.380644
#
# number of rings (size 3 to 8) (size 9 to 14) (size 15 to 20)
#    0.000    1.250    1.250    5.625    1.750    4.500 
#    0.000    0.000    0.000    0.000    0.000    0.000 
#    0.000    0.000    0.000    0.000    0.000    0.000 
#
# Total GULP energy -89430.665070 kJ/mol
# GULP energy per Si atom -5589.416567 kJ/mol
# Density = 2.232971 g / cm^3
# Si number density = 22.380644 Si / 1000 Ang^3
#
#
#
# Elastic Constant Matrix: (Units=GPa)
#
#
# Indices 1 2 3 4 5 6 
#
# 1 27.1424 16.4512 11.9903 2.0870 -0.3903 2.1665
# 2 16.4512 115.0467 35.4337 -1.8594 5.6447 9.6223
# 3 11.9903 35.4337 116.6870 3.3116 1.0220 -0.7204
# 4 2.0870 -1.8594 3.3116 38.7164 -0.0450 -8.1080
# 5 -0.3903 5.6447 1.0220 -0.0450 30.9097 7.9866
# 6 2.1665 9.6223 -0.7204 -8.1080 7.9866 33.8406
#
#
#
# Elastic Compliance Matrix: (Units=1/GPa)
#
#
# Indices 1 2 3 4 5 6 
#
# 1 0.041535 -0.005057 -0.002688 -0.002763 0.002166 -0.002452
# 2 -0.005057 0.010507 -0.002689 0.000527 -0.001302 -0.002288
# 3 -0.002688 -0.002689 0.009687 -0.000597 -0.000130 0.001030
# 4 -0.002763 0.000527 -0.000597 0.027530 -0.001895 0.007058
# 5 0.002166 -0.001302 -0.000130 -0.001895 0.034799 -0.008438
# 6 -0.002452 -0.002288 0.001030 0.007058 -0.008438 0.034062
#
#
# Mechanical properties :
#
#
# Convention : Reuss Voigt Hill
#
# Bulk Modulus (GPa) = 24.47315 42.95850 33.71582
# Shear Modulus (GPa) = 25.95942 33.69340 29.82641
#
# Velocity S-wave (km/s) = 3.40943 3.88425 3.65456
# Velocity P-wave (km/s) = 5.14370 6.27317 5.73630
#
# Compressibility (1/GPa) = 0.04086111
#
# Stress axis : x y z
#
# Youngs Moduli (GPa) = 24.07621 95.17366 103.23082
#
# Poissons Ratio (x) = 0.48133 0.27748
# Poissons Ratio (y) = 0.12176 0.27755
# Poissons Ratio (z) = 0.06471 0.25589
#
# Static dielectric constant tensor:
#      x y z
#    x 1.911880 -0.025280 -0.016830 
#    y -0.025280 1.819130 0.015810 
#    z -0.016830 0.015810 1.855940 
# 
# From -- ./inp_files/447729.got.cif
#   From: 2010.05.17/outbox.cif.g08.bks.cpg/sg2_224_cif.got.tgz:447729.got - 2010.06.03 11:33:40.
