data_PCOD9110099
_publ_section_title
;
Structure prediction by ZEFSAII (Michael W. Deem and Ramdas Pophale) SiO2 
 PCOD9110099
Probable space group: P -1
;
_chemical_formula_sum "Si O2"
_cell_formula_units_Z 14
_cell_length_a 8.905334
_cell_length_b 9.288998
_cell_length_c 8.144964
_cell_angle_alpha 118.546695
_cell_angle_beta 73.687993
_cell_angle_gamma 101.108151
_cell_volume 566.663098
_symmetry_space_group_name_H-M "P -1"
_symmetry_group_IT_number 2
_symmetry_cell_setting 'triclinic'
loop_
_space_group_symop_operation_xyz
x,y,z
-x,-y,-z
loop_
_atom_site_type_symbol
_atom_site_label
_atom_site_fract_x
_atom_site_fract_y
_atom_site_fract_z
Si Si1 0.631831 0.368247 0.701433
Si Si2 0.707950 0.794284 0.640670
Si Si3 0.109551 0.442108 0.081679
Si Si4 0.508771 0.065547 0.746691
Si Si5 0.172970 0.538101 0.630257
Si Si6 0.571075 0.341074 0.152559
Si Si7 0.173093 0.092545 0.973815
O O1 0.748885 0.424665 0.846067
O O2 0.546603 0.189395 0.652335
O O3 0.738497 0.395295 0.522308
O O4 0.498671 0.496989 0.809715
O O5 0.812841 0.657729 0.461534
O O6 0.544009 0.694338 0.677102
O O7 0.777642 0.855075 0.827210
O O8 0.648339 0.943854 0.639477
O O9 0.164791 0.257568 0.954829
O O10 0.005749 0.428217 0.273171
O O11 0.000000 0.500000 0.000000
O O12 0.544505 0.185709 0.958706
O O13 0.325004 0.007081 0.803635
O O14 0.260313 0.626673 0.805420
O O15 0.000000 0.000000 0.000000
#
# Coordination Sequence:
#
# PCOD9110099 Si02
#       7
#     2   2   2   2   2   2   2
#     4  11  22  42  67 103 134 178 225 291 332 392
#     4  10  22  43  66 100 136 183 219 281 345 397
#     4  12  26  43  71 101 136 182 233 278 331 409
#     4  11  23  42  73 102 137 172 234 281 333 405
#     4  11  24  44  71 100 139 178 229 277 349 402
#     4  10  20  41  69  96 132 179 234 272 328 409
#     4  11  25  43  67 103 139 183 225 278 343 401
#
# _framework density 24.706037999999999
#
# number of rings (size 3 to 8) (size 9 to 14) (size 15 to 20)
#    0.000    1.143    4.286    5.143    8.000    0.000 
#    0.000    5.000    0.000    0.000    0.000    0.000 
#    0.000    0.000    0.000    0.000    0.000    0.000 
#
# Total GULP energy -78285.276247 kJ/mol
# GULP energy per Si atom -5591.805446 kJ/mol
# Density = 2.464981 g / cm^3
# Si number density = 24.706038 Si / 1000 Ang^3
#
#
#
# Elastic Constant Matrix: (Units=GPa)
#
#
# Indices 1 2 3 4 5 6 
#
# 1 129.8905 33.6034 19.4612 -10.2044 12.2832 21.5613
# 2 33.6034 109.1253 -0.1302 1.6019 1.8900 -11.9882
# 3 19.4612 -0.1302 78.6966 -10.1903 -5.4851 -0.9616
# 4 -10.2044 1.6019 -10.1903 25.4936 -4.7962 -12.1702
# 5 12.2832 1.8900 -5.4851 -4.7962 47.4455 -4.7969
# 6 21.5613 -11.9882 -0.9616 -12.1702 -4.7969 48.1611
#
#
#
# Elastic Compliance Matrix: (Units=1/GPa)
#
#
# Indices 1 2 3 4 5 6 
#
# 1 0.010462 -0.003833 -0.002962 -0.000356 -0.003555 -0.006141
# 2 -0.003833 0.010835 0.001213 0.000779 0.001261 0.004760
# 3 -0.002962 0.001213 0.014677 0.007234 0.003562 0.004104
# 4 -0.000356 0.000779 0.007234 0.049915 0.007343 0.013843
# 5 -0.003555 0.001261 0.003562 0.007343 0.023727 0.006195
# 6 -0.006141 0.004760 0.004104 0.013843 0.006195 0.028895
#
#
# Mechanical properties :
#
#
# Convention : Reuss Voigt Hill
#
# Bulk Modulus (GPa) = 40.30897 47.06459 43.68678
# Shear Modulus (GPa) = 31.65638 41.87188 36.76413
#
# Velocity S-wave (km/s) = 3.58344 4.12127 3.86173
# Velocity P-wave (km/s) = 5.78552 6.46047 6.13229
#
# Compressibility (1/GPa) = 0.02480837
#
# Stress axis : x y z
#
# Youngs Moduli (GPa) = 95.58534 92.29234 68.13510
#
# Poissons Ratio (x) = 0.35375 0.20185
# Poissons Ratio (y) = 0.36637 -0.08263
# Poissons Ratio (z) = 0.28317 -0.11192
#
# Static dielectric constant tensor:
#      x y z
#    x 1.933520 -0.012290 0.001310 
#    y -0.012290 2.012240 -0.040850 
#    z 0.001310 -0.040850 2.063570 
# 
# From -- ./inp_files/159569.got.cif
#   From: 2010.05.17/outbox.cif.g08.bks.cpg/sg2_80_cif.got.tgz:159569.got - 2010.06.03 11:33:40.
