data_PCOD9110058
_publ_section_title
;
Structure prediction by ZEFSAII (Michael W. Deem and Ramdas Pophale) SiO2 
 PCOD9110058
Probable space group: P -1
;
_chemical_formula_sum "Si O2"
_cell_formula_units_Z 14
_cell_length_a 6.406385
_cell_length_b 14.203199
_cell_length_c 7.882708
_cell_angle_alpha 72.047320
_cell_angle_beta 79.283137
_cell_angle_gamma 104.258060
_cell_volume 634.081692
_symmetry_space_group_name_H-M "P -1"
_symmetry_group_IT_number 2
_symmetry_cell_setting 'triclinic'
loop_
_space_group_symop_operation_xyz
x,y,z
-x,-y,-z
loop_
_atom_site_type_symbol
_atom_site_label
_atom_site_fract_x
_atom_site_fract_y
_atom_site_fract_z
Si Si1 0.848002 0.259546 0.062269
Si Si2 0.446810 0.252615 0.597392
Si Si3 0.618363 0.117642 0.474523
Si Si4 0.396712 0.880668 0.139520
Si Si5 0.884560 0.439623 0.382769
Si Si6 0.322419 0.548684 0.083052
Si Si7 0.303225 0.381490 0.765888
O O1 0.091383 0.457592 0.212644
O O2 0.740534 0.354434 0.043173
O O3 0.791867 0.184286 0.274058
O O4 0.749203 0.189686 0.948358
O O5 0.426491 0.175285 0.487167
O O6 0.420757 0.176238 0.806175
O O7 0.708170 0.326450 0.501919
O O8 0.548679 0.401404 0.791999
O O9 0.705541 0.118333 0.655488
O O10 0.500000 0.000000 0.500000
O O11 0.500000 0.000000 0.000000
O O12 0.703020 0.675041 0.383086
O O13 0.000000 0.500000 0.500000
O O14 0.263142 0.491183 0.698206
O O15 0.500000 0.500000 0.000000
O O16 0.890248 0.687558 0.045429
#
# Coordination Sequence:
#
# PCOD9110058 Si02
#       7
#     2   2   2   2   2   2   2
#     4  11  22  43  67  94 134 172 212 271 326 383
#     4  10  21  39  64  93 130 173 214 267 322 380
#     4  10  22  39  68  97 123 170 220 272 327 383
#     4  10  20  41  69  91 126 168 218 271 332 377
#     4  11  22  39  62  94 131 173 218 258 322 393
#     4  11  25  37  60  94 134 171 212 267 321 389
#     4  11  23  40  63  94 133 177 217 259 326 398
#
# _framework density 22.079172
#
# number of rings (size 3 to 8) (size 9 to 14) (size 15 to 20)
#    0.857    0.571    4.286    1.286    4.000    1.143 
#    0.000    4.286    0.000    2.571    0.000    0.000 
#    0.000    0.000    0.000    0.000    0.000    0.000 
#
# Total GULP energy -78039.326640 kJ/mol
# GULP energy per Si atom -5574.237617 kJ/mol
# Density = 2.202892 g / cm^3
# Si number density = 22.079172 Si / 1000 Ang^3
#
#
#
# Elastic Constant Matrix: (Units=GPa)
#
#
# Indices 1 2 3 4 5 6 
#
# 1 74.7834 50.5055 30.7459 -12.6768 -18.8783 -10.0640
# 2 50.5055 150.7408 48.3160 -0.8803 -31.1051 -2.0384
# 3 30.7459 48.3160 125.6695 -9.5161 -20.7772 15.0435
# 4 -12.6768 -0.8803 -9.5161 49.0945 6.5116 -8.1417
# 5 -18.8783 -31.1051 -20.7772 6.5116 32.2543 7.2697
# 6 -10.0640 -2.0384 15.0435 -8.1417 7.2697 19.4459
#
#
#
# Elastic Compliance Matrix: (Units=1/GPa)
#
#
# Indices 1 2 3 4 5 6 
#
# 1 0.023393 -0.006188 -0.005411 0.008441 -0.001952 0.019908
# 2 -0.006188 0.010522 -0.000723 -0.003650 0.008177 -0.006125
# 3 -0.005411 -0.000723 0.012914 -0.003001 0.009002 -0.017488
# 4 0.008441 -0.003650 -0.003001 0.026923 -0.010822 0.021626
# 5 -0.001952 0.008177 0.009002 -0.010822 0.052805 -0.031389
# 6 0.019908 -0.006125 -0.017488 0.021626 -0.031389 0.095404
#
#
# Mechanical properties :
#
#
# Convention : Reuss Voigt Hill
#
# Bulk Modulus (GPa) = 45.07412 67.81428 56.44420
# Shear Modulus (GPa) = 19.68522 34.93403 27.30962
#
# Velocity S-wave (km/s) = 2.98916 3.98202 3.52077
# Velocity P-wave (km/s) = 5.68969 7.20575 6.49213
#
# Compressibility (1/GPa) = 0.02218568
#
# Stress axis : x y z
#
# Youngs Moduli (GPa) = 42.74856 95.03971 77.43804
#
# Poissons Ratio (x) = 0.58807 0.41901
# Poissons Ratio (y) = 0.26451 0.05596
# Poissons Ratio (z) = 0.23131 0.06868
#
# Static dielectric constant tensor:
#      x y z
#    x 1.810980 -0.044930 0.034800 
#    y -0.044930 1.858670 0.069190 
#    z 0.034800 0.069190 1.977370 
# 
# From -- ./inp_files/163396.got.cif
#   From: 2010.05.17/outbox.cif.g08.bks.cpg/sg2_82_cif.got.tgz:163396.got - 2010.06.03 11:33:40.
