data_PCOD9110802
_publ_section_title
;
Structure prediction by ZEFSAII (Michael W. Deem and Ramdas Pophale) SiO2 
 PCOD9110802
Probable space group: P -1
;
_chemical_formula_sum "Si O2"
_cell_formula_units_Z 13
_cell_length_a 14.835023
_cell_length_b 7.936486
_cell_length_c 5.146487
_cell_angle_alpha 91.392801
_cell_angle_beta 70.914532
_cell_angle_gamma 58.458005
_cell_volume 473.453900
_symmetry_space_group_name_H-M "P -1"
_symmetry_group_IT_number 2
_symmetry_cell_setting 'triclinic'
loop_
_space_group_symop_operation_xyz
x,y,z
-x,-y,-z
loop_
_atom_site_type_symbol
_atom_site_label
_atom_site_fract_x
_atom_site_fract_y
_atom_site_fract_z
Si Si1 0.500000 0.500000 0.000000
Si Si2 0.040467 0.336967 0.231069
Si Si3 0.247301 0.972984 0.333028
Si Si4 0.234763 0.298757 0.742682
Si Si5 0.427161 0.953133 0.883047
Si Si6 0.598504 0.579940 0.399121
Si Si7 0.925011 0.122413 0.324100
O O1 0.571690 0.477617 0.653894
O O2 0.410434 0.472046 0.889930
O O3 0.148638 0.111816 0.218299
O O4 0.000000 0.500000 0.500000
O O5 0.933834 0.314763 0.309756
O O6 0.105765 0.384060 0.956423
O O7 0.258122 0.133035 0.497231
O O8 0.190335 0.876751 0.544772
O O9 0.376854 0.833474 0.075375
O O10 0.283599 0.436179 0.657246
O O11 0.317026 0.161776 0.898863
O O12 0.499037 0.816791 0.566801
O O13 0.500000 0.000000 0.000000
O O14 0.000000 0.000000 0.500000
O O15 0.000000 0.000000 0.000000
#
# Coordination Sequence:
#
# PCOD9110802 Si02
#       7
#     1   2   2   2   2   2   2
#     4  10  26  44  62  88 142 192 216 270 344 416
#     4  10  23  43  66  99 136 181 227 287 349 413
#     4  10  22  39  67 101 132 176 230 280 345 414
#     4  11  22  39  70 101 129 173 235 288 344 406
#     4  11  22  38  68 104 131 172 229 290 339 405
#     4  11  23  44  66  93 141 181 225 278 342 411
#     4  10  20  42  66  92 134 174 220 286 340 397
#
# _framework density 27.457794
#
# number of rings (size 3 to 8) (size 9 to 14) (size 15 to 20)
#    0.000    1.538    3.077    1.385    4.308    0.615 
#    5.538    0.000    0.000    0.000    0.000    0.000 
#    0.000    0.000    0.000    0.000    0.000    0.000 
#
# Total GULP energy -72569.314777 kJ/mol
# GULP energy per Si atom -5582.254983 kJ/mol
# Density = 2.739530 g / cm^3
# Si number density = 27.457794 Si / 1000 Ang^3
#
#
#
# Elastic Constant Matrix: (Units=GPa)
#
#
# Indices 1 2 3 4 5 6 
#
# 1 234.9371 37.5191 65.0225 0.7368 -25.5850 17.8771
# 2 37.5191 65.9719 11.4888 -34.5383 -8.6021 29.4618
# 3 65.0225 11.4888 169.1345 2.6353 4.7524 11.8633
# 4 0.7368 -34.5383 2.6353 59.2251 12.0290 -3.5259
# 5 -25.5850 -8.6021 4.7524 12.0290 68.9806 4.1333
# 6 17.8771 29.4618 11.8633 -3.5259 4.1333 67.8552
#
#
#
# Elastic Compliance Matrix: (Units=1/GPa)
#
#
# Indices 1 2 3 4 5 6 
#
# 1 0.005705 -0.004361 -0.001944 -0.002947 0.002193 0.000443
# 2 -0.004361 0.032642 0.000020 0.018376 -0.000030 -0.012071
# 3 -0.001944 0.000020 0.006734 -0.000070 -0.001134 -0.000609
# 4 -0.002947 0.018376 -0.000070 0.027991 -0.003346 -0.005532
# 5 0.002193 -0.000030 -0.001134 -0.003346 0.016059 -0.001519
# 6 0.000443 -0.012071 -0.000609 -0.005532 -0.001519 0.019773
#
#
# Mechanical properties :
#
#
# Convention : Reuss Voigt Hill
#
# Bulk Modulus (GPa) = 30.75771 77.56714 54.16243
# Shear Modulus (GPa) = 37.78986 62.94639 50.36813
#
# Velocity S-wave (km/s) = 3.71386 4.79318 4.28762
# Velocity P-wave (km/s) = 5.44210 7.67748 6.65433
#
# Compressibility (1/GPa) = 0.03251217
#
# Stress axis : x y z
#
# Youngs Moduli (GPa) = 175.27658 30.63569 148.49935
#
# Poissons Ratio (x) = 0.13360 0.28868
# Poissons Ratio (y) = 0.76435 -0.00303
# Poissons Ratio (z) = 0.34073 -0.00062
#
# Static dielectric constant tensor:
#      x y z
#    x 2.117540 -0.026220 -0.033710 
#    y -0.026220 2.118150 -0.140400 
#    z -0.033710 -0.140400 2.075260 
# 
# From -- ./inp_files/87750.got.cif
#   From: 2010.05.17/outbox.cif.g08.bks.cpg/sg2_44_cif.got.tgz:87750.got - 2010.06.03 11:33:40.
