data_PCOD9110613
_publ_section_title
;
Structure prediction by ZEFSAII (Michael W. Deem and Ramdas Pophale) SiO2 
 PCOD9110613
Probable space group: P -1
;
_chemical_formula_sum "Si O2"
_cell_formula_units_Z 15
_cell_length_a 16.245324
_cell_length_b 12.922028
_cell_length_c 7.976125
_cell_angle_alpha 105.423256
_cell_angle_beta 144.552486
_cell_angle_gamma 51.437302
_cell_volume 642.271774
_symmetry_space_group_name_H-M "P -1"
_symmetry_group_IT_number 2
_symmetry_cell_setting 'triclinic'
loop_
_space_group_symop_operation_xyz
x,y,z
-x,-y,-z
loop_
_atom_site_type_symbol
_atom_site_label
_atom_site_fract_x
_atom_site_fract_y
_atom_site_fract_z
Si Si1 0.615067 0.447866 0.348779
Si Si2 0.848728 0.115534 0.650008
Si Si3 0.500000 0.000000 0.000000
Si Si4 0.551798 0.757498 0.785083
Si Si5 0.215579 0.424517 0.402565
Si Si6 0.230066 0.536855 0.837395
Si Si7 0.127825 0.092904 0.604744
Si Si8 0.549463 0.094646 0.670100
O O1 0.811738 0.260083 0.606643
O O2 0.692024 0.526322 0.528545
O O3 0.500000 0.500000 0.000000
O O4 0.430274 0.504834 0.180556
O O5 0.620059 0.206881 0.371963
O O6 0.923177 0.000349 0.572320
O O7 0.000000 0.000000 0.000000
O O8 0.698511 0.964639 0.264010
O O9 0.404903 0.151116 0.023645
O O10 0.465474 0.827303 0.487690
O O11 0.747680 0.569872 0.035254
O O12 0.210690 0.479232 0.604851
O O13 0.380740 0.236046 0.581741
O O14 0.000000 0.500000 0.000000
O O15 0.047956 0.722198 0.617065
O O16 0.232349 0.028638 0.931178
O O17 0.500000 0.000000 0.500000
#
# Coordination Sequence:
#
# PCOD9110613 Si02
#       8
#     2   2   1   2   2   2   2   2
#     4   9  20  44  68  92 134 181 224 280 335 408
#     4  10  23  43  67  99 133 181 231 279 346 406
#     4  10  20  42  64  94 132 178 218 288 336 398
#     4  10  23  42  66  94 137 177 227 283 340 408
#     4  11  24  43  67 103 140 178 230 289 344 410
#     4  10  23  45  69  99 136 185 231 280 352 414
#     4  11  23  43  69 100 139 179 232 284 348 414
#     4  12  24  43  65 102 138 179 229 284 348 412
#
# _framework density 23.354600000000001
#
# number of rings (size 3 to 8) (size 9 to 14) (size 15 to 20)
#    0.000    1.600    1.333    4.000    0.000    5.867 
#    4.800    6.667    0.000    0.000    0.000    0.000 
#    0.000    0.000    0.000    0.000    0.000    0.000 
#
# Total GULP energy -83531.031222 kJ/mol
# GULP energy per Si atom -5568.735415 kJ/mol
# Density = 2.330144 g / cm^3
# Si number density = 23.354600 Si / 1000 Ang^3
#
#
#
# Elastic Constant Matrix: (Units=GPa)
#
#
# Indices 1 2 3 4 5 6 
#
# 1 27.9348 33.6498 18.3408 -3.3936 -5.9328 -8.4893
# 2 33.6498 175.0124 79.9492 -25.2048 -7.7284 3.0733
# 3 18.3408 79.9492 125.1850 -12.5260 -13.6267 14.4409
# 4 -3.3936 -25.2048 -12.5260 53.9506 10.4700 0.7846
# 5 -5.9328 -7.7284 -13.6267 10.4700 37.9467 -0.7503
# 6 -8.4893 3.0733 14.4409 0.7846 -0.7503 17.4069
#
#
#
# Elastic Compliance Matrix: (Units=1/GPa)
#
#
# Indices 1 2 3 4 5 6 
#
# 1 0.066983 -0.010496 -0.007484 -0.004524 0.007712 0.041266
# 2 -0.010496 0.010267 -0.004506 0.003572 -0.002222 -0.003450
# 3 -0.007484 -0.004506 0.013926 0.000375 0.002526 -0.014316
# 4 -0.004524 0.003572 0.000375 0.021191 -0.005778 -0.004353
# 5 0.007712 -0.002222 0.002526 -0.005778 0.029679 0.003597
# 6 0.041266 -0.003450 -0.014316 -0.004353 0.003597 0.090411
#
#
# Mechanical properties :
#
#
# Convention : Reuss Voigt Hill
#
# Bulk Modulus (GPa) = 21.64260 65.77910 43.71085
# Shear Modulus (GPa) = 17.07474 34.94033 26.00754
#
# Velocity S-wave (km/s) = 2.70683 3.87211 3.34068
# Velocity P-wave (km/s) = 4.36536 6.94389 5.79974
#
# Compressibility (1/GPa) = 0.04620517
#
# Stress axis : x y z
#
# Youngs Moduli (GPa) = 14.92913 97.39859 71.80636
#
# Poissons Ratio (x) = 1.02226 0.53741
# Poissons Ratio (y) = 0.15669 0.32355
# Poissons Ratio (z) = 0.11173 0.43886
#
# Static dielectric constant tensor:
#      x y z
#    x 1.931080 0.001750 0.017580 
#    y 0.001750 1.872740 -0.057830 
#    z 0.017580 -0.057830 1.938780 
# 
# From -- ./inp_files/333567.got.cif
#   From: 2010.05.17/outbox.cif.g08.bks.cpg/sg2_167_cif.got.tgz:333567.got - 2010.06.03 11:33:40.
