data_PCOD9110764
_publ_section_title
;
Structure prediction by ZEFSAII (Michael W. Deem and Ramdas Pophale) SiO2 
 PCOD9110764
Probable space group: P -1
;
_chemical_formula_sum "Si O2"
_cell_formula_units_Z 16
_cell_length_a 8.225280
_cell_length_b 7.293506
_cell_length_c 18.376396
_cell_angle_alpha 126.065064
_cell_angle_beta 44.541576
_cell_angle_gamma 122.929820
_cell_volume 609.934413
_symmetry_space_group_name_H-M "P -1"
_symmetry_group_IT_number 2
_symmetry_cell_setting 'triclinic'
loop_
_space_group_symop_operation_xyz
x,y,z
-x,-y,-z
loop_
_atom_site_type_symbol
_atom_site_label
_atom_site_fract_x
_atom_site_fract_y
_atom_site_fract_z
Si Si1 0.342269 0.822314 0.789219
Si Si2 0.837689 0.196336 0.384726
Si Si3 0.015726 0.973548 0.146004
Si Si4 0.187823 0.847891 0.309198
Si Si5 0.391613 0.416597 0.092375
Si Si6 0.619952 0.189890 0.603922
Si Si7 0.251338 0.447500 0.606872
Si Si8 0.719188 0.498934 0.144900
O O1 0.205582 0.987742 0.825928
O O2 0.298753 0.599296 0.699107
O O3 0.240189 0.723353 0.875699
O O4 0.619035 0.943132 0.737824
O O5 0.005757 0.060024 0.253874
O O6 0.799495 0.254201 0.494180
O O7 0.893790 0.437738 0.379238
O O8 0.581337 0.036446 0.406580
O O9 0.235468 0.154582 0.083490
O O10 0.957361 0.697442 0.107132
O O11 0.240225 0.609001 0.205074
O O12 0.253785 0.870303 0.378041
O O13 0.903472 0.804948 0.382455
O O14 0.587639 0.435549 0.096407
O O15 0.500000 0.500000 0.000000
O O16 0.470265 0.383291 0.720550
O O17 0.500000 0.500000 0.500000
#
# Coordination Sequence:
#
# PCOD9110764 Si02
#       8
#     2   2   2   2   2   2   2   2
#     4  11  21  42  65  92 135 167 211 269 319 380
#     4   9  16  33  57  83 123 162 207 253 304 366
#     4  10  20  42  66  89 135 169 206 277 323 369
#     4  11  21  41  64  87 132 174 205 272 329 368
#     4  11  23  44  70  95 124 168 219 270 334 391
#     4   9  17  34  58  87 121 166 209 257 306 375
#     4  11  22  36  57  89 130 175 214 256 312 378
#     4  10  22  40  65  98 124 167 221 256 327 393
#
# _framework density 26.232326
#
# number of rings (size 3 to 8) (size 9 to 14) (size 15 to 20)
#    0.000    1.750    7.500    0.750    0.000    2.500 
#    2.250    1.250    0.000    0.000    0.000    0.000 
#    0.000    0.000    0.000    0.000    0.000    0.000 
#
# Total GULP energy -89502.541684 kJ/mol
# GULP energy per Si atom -5593.908855 kJ/mol
# Density = 2.617262 g / cm^3
# Si number density = 26.232326 Si / 1000 Ang^3
#
#
#
# Elastic Constant Matrix: (Units=GPa)
#
#
# Indices 1 2 3 4 5 6 
#
# 1 62.2629 42.9057 38.6631 -6.5815 6.8481 -4.1486
# 2 42.9057 179.7176 65.7053 -41.4651 11.9235 29.0904
# 3 38.6631 65.7053 131.5238 -30.1659 23.1192 -5.2210
# 4 -6.5815 -41.4651 -30.1659 47.3534 -9.1022 -1.8900
# 5 6.8481 11.9235 23.1192 -9.1022 36.5783 -16.7322
# 6 -4.1486 29.0904 -5.2210 -1.8900 -16.7322 31.8699
#
#
#
# Elastic Compliance Matrix: (Units=1/GPa)
#
#
# Indices 1 2 3 4 5 6 
#
# 1 0.023651 -0.006994 -0.004930 -0.004618 0.004807 0.010904
# 2 -0.006994 0.012656 -0.002094 0.006741 -0.007226 -0.016200
# 3 -0.004930 -0.002094 0.011880 0.004275 -0.004280 0.001222
# 4 -0.004618 0.006741 0.004275 0.029289 0.001682 -0.003434
# 5 0.004807 -0.007226 -0.004280 0.001682 0.045992 0.030766
# 6 0.010904 -0.016200 0.001222 -0.003434 0.030766 0.063733
#
#
# Mechanical properties :
#
#
# Convention : Reuss Voigt Hill
#
# Bulk Modulus (GPa) = 49.62038 74.22805 61.92422
# Shear Modulus (GPa) = 22.52718 38.24231 30.38475
#
# Velocity S-wave (km/s) = 2.93363 3.82230 3.40706
# Velocity P-wave (km/s) = 5.51650 6.91649 6.25578
#
# Compressibility (1/GPa) = 0.02015301
#
# Stress axis : x y z
#
# Youngs Moduli (GPa) = 42.28083 79.01151 84.17596
#
# Poissons Ratio (x) = 0.55257 0.41500
# Poissons Ratio (y) = 0.29569 0.17624
# Poissons Ratio (z) = 0.20845 0.16542
#
# Static dielectric constant tensor:
#      x y z
#    x 22.959830 -4.954550 -20.169890 
#    y -4.954550 3.182190 4.754510 
#    z -20.169890 4.754510 21.456490 
# 
# From -- ./inp_files/556367.got.cif
#   From: 2010.05.17/outbox.cif.g08.bks.cpg/sg2_279_cif.got.tgz:556367.got - 2010.06.03 11:33:40.
