data_PCOD9110430
_publ_section_title
;
Structure prediction by ZEFSAII (Michael W. Deem and Ramdas Pophale) SiO2 
 PCOD9110430
Probable space group: P -1
;
_chemical_formula_sum "Si O2"
_cell_formula_units_Z 14
_cell_length_a 5.899898
_cell_length_b 17.836775
_cell_length_c 7.716702
_cell_angle_alpha 49.973102
_cell_angle_beta 63.750341
_cell_angle_gamma 68.823522
_cell_volume 554.211703
_symmetry_space_group_name_H-M "P -1"
_symmetry_group_IT_number 2
_symmetry_cell_setting 'triclinic'
loop_
_space_group_symop_operation_xyz
x,y,z
-x,-y,-z
loop_
_atom_site_type_symbol
_atom_site_label
_atom_site_fract_x
_atom_site_fract_y
_atom_site_fract_z
Si Si1 0.624339 0.293627 0.243123
Si Si2 0.352696 0.614585 0.258374
Si Si3 0.914040 0.112039 0.315319
Si Si4 0.706769 0.472061 0.133113
Si Si5 0.149863 0.895874 0.063624
Si Si6 0.902082 0.705566 0.467157
Si Si7 0.356847 0.218592 0.913202
O O1 0.688631 0.176014 0.398195
O O2 0.726947 0.353561 0.278694
O O3 0.318808 0.318176 0.294693
O O4 0.743930 0.335872 0.966332
O O5 0.534281 0.518206 0.282010
O O6 0.516495 0.695314 0.163458
O O7 0.107586 0.617362 0.461790
O O8 0.849907 0.115797 0.127364
O O9 0.000000 0.000000 0.500000
O O10 0.146925 0.176589 0.164477
O O11 0.500000 0.500000 0.000000
O O12 0.000000 0.500000 0.000000
O O13 0.440338 0.876089 0.051501
O O14 0.023512 0.804647 0.323960
O O15 0.000000 0.000000 0.000000
O O16 0.748720 0.738066 0.295292
#
# Coordination Sequence:
#
# PCOD9110430 Si02
#       7
#     2   2   2   2   2   2   2
#     4  11  22  44  64  98 131 169 227 274 335 409
#     4  10  21  45  67  92 134 171 220 273 339 399
#     4  11  24  38  61  91 124 172 217 270 332 400
#     4  10  23  42  74 102 135 183 226 283 344 410
#     4  10  23  40  58  89 127 173 221 277 332 396
#     4  10  23  40  64  96 130 172 219 276 337 400
#     4  10  20  42  62  83 136 171 207 285 332 392
#
# _framework density 25.261104
#
# number of rings (size 3 to 8) (size 9 to 14) (size 15 to 20)
#    0.000    1.714    4.286    0.857    6.000    3.429 
#   12.857    0.714    0.000    0.000    0.000    0.000 
#    0.000    0.000    0.000    0.000    0.000    0.000 
#
# Total GULP energy -78271.579420 kJ/mol
# GULP energy per Si atom -5590.827101 kJ/mol
# Density = 2.520361 g / cm^3
# Si number density = 25.261104 Si / 1000 Ang^3
#
#
#
# Elastic Constant Matrix: (Units=GPa)
#
#
# Indices 1 2 3 4 5 6 
#
# 1 98.1101 55.9222 22.6815 -3.8425 -4.4328 -31.3382
# 2 55.9222 217.5795 27.2860 -3.5849 1.8673 -39.9215
# 3 22.6815 27.2860 70.5664 7.4958 -5.6429 -9.3379
# 4 -3.8425 -3.5849 7.4958 44.7202 -12.0017 4.5348
# 5 -4.4328 1.8673 -5.6429 -12.0017 41.8749 3.1276
# 6 -31.3382 -39.9215 -9.3379 4.5348 3.1276 45.4481
#
#
#
# Elastic Compliance Matrix: (Units=1/GPa)
#
#
# Indices 1 2 3 4 5 6 
#
# 1 0.014466 -0.001971 -0.002937 0.001082 0.000976 0.007465
# 2 -0.001971 0.005940 -0.001240 -0.000113 -0.000948 0.003680
# 3 -0.002937 -0.001240 0.016027 -0.002788 0.001077 0.000383
# 4 0.001082 -0.000113 -0.002788 0.025132 0.007166 -0.002927
# 5 0.000976 -0.000948 0.001077 0.007166 0.026410 -0.002471
# 6 0.007465 0.003680 0.000383 -0.002927 -0.002471 0.030924
#
#
# Mechanical properties :
#
#
# Convention : Reuss Voigt Hill
#
# Bulk Modulus (GPa) = 41.42830 66.44839 53.93834
# Shear Modulus (GPa) = 35.90941 45.09973 40.50457
#
# Velocity S-wave (km/s) = 3.77441 4.22992 4.00864
# Velocity P-wave (km/s) = 5.95235 7.08646 6.54402
#
# Compressibility (1/GPa) = 0.02413809
#
# Stress axis : x y z
#
# Youngs Moduli (GPa) = 69.12878 168.36382 62.39324
#
# Poissons Ratio (x) = 0.33176 0.18323
# Poissons Ratio (y) = 0.13622 0.07737
# Poissons Ratio (z) = 0.20301 0.20879
#
# Static dielectric constant tensor:
#      x y z
#    x 2.065850 -0.066520 0.026480 
#    y -0.066520 2.016380 0.010660 
#    z 0.026480 0.010660 2.045530 
# 
# From -- ./inp_files/44079.got.cif
#   From: 2010.05.17/outbox.cif.g08.bks.cpg/sg2_23_cif.got.tgz:44079.got - 2010.06.03 11:33:40.
