data_PCOD9110732
_publ_section_title
;
Structure prediction by ZEFSAII (Michael W. Deem and Ramdas Pophale) SiO2 
 PCOD9110732
Probable space group: P -1
;
_chemical_formula_sum "Si O2"
_cell_formula_units_Z 14
_cell_length_a 5.078173
_cell_length_b 5.127576
_cell_length_c 20.960926
_cell_angle_alpha 81.847610
_cell_angle_beta 90.543828
_cell_angle_gamma 85.648885
_cell_volume 538.609495
_symmetry_space_group_name_H-M "P -1"
_symmetry_group_IT_number 2
_symmetry_cell_setting 'triclinic'
loop_
_space_group_symop_operation_xyz
x,y,z
-x,-y,-z
loop_
_atom_site_type_symbol
_atom_site_label
_atom_site_fract_x
_atom_site_fract_y
_atom_site_fract_z
Si Si1 0.911841 0.931865 0.597255
Si Si2 0.729013 0.352697 0.988570
Si Si3 0.755626 0.752783 0.341284
Si Si4 0.353251 0.172012 0.275910
Si Si5 0.793394 0.782144 0.075398
Si Si6 0.437999 0.665002 0.557598
Si Si7 0.448125 0.297532 0.785345
O O1 0.871535 0.800223 0.671938
O O2 0.647805 0.880353 0.561410
O O3 0.144666 0.800812 0.559148
O O4 0.003580 0.213646 0.611506
O O5 0.587547 0.600074 0.038967
O O6 0.732669 0.079070 0.038446
O O7 0.000000 0.500000 0.000000
O O8 0.886014 0.259857 0.924311
O O9 0.561662 0.555132 0.378548
O O10 0.783645 0.682362 0.269902
O O11 0.598429 0.041279 0.323535
O O12 0.414660 0.432636 0.230653
O O13 0.348152 0.941900 0.230794
O O14 0.684305 0.751234 0.146471
O O15 0.500000 0.500000 0.500000
#
# Coordination Sequence:
#
# PCOD9110732 Si02
#       7
#     2   2   2   2   2   2   2
#     4  12  23  48  64  98 133 174 219 278 337 401
#     4   7  14  30  52  86 122 173 201 276 313 383
#     4  10  24  43  70  94 137 174 217 281 339 389
#     4  10  23  44  67  96 136 171 216 276 339 389
#     4   8  15  30  56  85 124 163 220 257 327 382
#     4  12  27  45  71  98 134 178 226 273 337 406
#     4  10  20  42  66 101 127 178 220 279 327 406
#
# _framework density 25.992858999999999
#
# number of rings (size 3 to 8) (size 9 to 14) (size 15 to 20)
#    1.714    0.286    2.857    0.429    4.000    2.286 
#    2.571    0.000    0.000    6.857    0.000    0.000 
#    0.000    0.000    0.000    0.000    0.000    0.000 
#
# Total GULP energy -78111.790166 kJ/mol
# GULP energy per Si atom -5579.413583 kJ/mol
# Density = 2.593370 g / cm^3
# Si number density = 25.992859 Si / 1000 Ang^3
#
#
#
# Elastic Constant Matrix: (Units=GPa)
#
#
# Indices 1 2 3 4 5 6 
#
# 1 205.2353 48.8667 70.1942 6.2941 -36.2012 1.6139
# 2 48.8667 164.4760 52.0145 -5.6968 -11.2298 23.0835
# 3 70.1942 52.0145 193.6579 -4.7017 -40.5720 6.2521
# 4 6.2941 -5.6968 -4.7017 30.9500 15.3587 -6.1143
# 5 -36.2012 -11.2298 -40.5720 15.3587 39.0718 4.0961
# 6 1.6139 23.0835 6.2521 -6.1143 4.0961 29.5773
#
#
#
# Elastic Compliance Matrix: (Units=1/GPa)
#
#
# Indices 1 2 3 4 5 6 
#
# 1 0.007011 -0.001334 -0.000593 -0.006069 0.008049 -0.001586
# 2 -0.001334 0.007712 -0.001412 0.000411 -0.000065 -0.005553
# 3 -0.000593 -0.001412 0.007549 -0.003745 0.008611 -0.002428
# 4 -0.006069 0.000411 -0.003745 0.051767 -0.031405 0.015852
# 5 0.008049 -0.000065 0.008611 -0.031405 0.056044 -0.016462
# 6 -0.001586 -0.005553 -0.002428 0.015852 -0.016462 0.044300
#
#
# Mechanical properties :
#
#
# Convention : Reuss Voigt Hill
#
# Bulk Modulus (GPa) = 64.12499 100.61334 82.36917
# Shear Modulus (GPa) = 26.84408 46.07271 36.45840
#
# Velocity S-wave (km/s) = 3.21713 4.21469 3.74923
# Velocity P-wave (km/s) = 6.20674 7.90424 7.10636
#
# Compressibility (1/GPa) = 0.01559454
#
# Stress axis : x y z
#
# Youngs Moduli (GPa) = 142.63097 129.66835 132.46003
#
# Poissons Ratio (x) = 0.17293 0.07855
# Poissons Ratio (y) = 0.19022 0.18708
# Poissons Ratio (z) = 0.08458 0.18314
#
# Static dielectric constant tensor:
#      x y z
#    x 1.953510 0.109420 0.231160 
#    y 0.109420 2.062320 0.092020 
#    z 0.231160 0.092020 2.060750 
# 
# From -- ./inp_files/125601.got.cif
#   From: 2010.05.17/outbox.cif.g08.bks.cpg/sg2_63_cif.got.tgz:125601.got - 2010.06.03 11:33:40.
