data_PCOD9110813
_publ_section_title
;
Structure prediction by ZEFSAII (Michael W. Deem and Ramdas Pophale) SiO2 
 PCOD9110813
Probable space group: P -1
;
_chemical_formula_sum "Si O2"
_cell_formula_units_Z 15
_cell_length_a 12.552457
_cell_length_b 19.031701
_cell_length_c 9.753022
_cell_angle_alpha 42.245814
_cell_angle_beta 138.831659
_cell_angle_gamma 152.050704
_cell_volume 697.116037
_symmetry_space_group_name_H-M "P -1"
_symmetry_group_IT_number 2
_symmetry_cell_setting 'triclinic'
loop_
_space_group_symop_operation_xyz
x,y,z
-x,-y,-z
loop_
_atom_site_type_symbol
_atom_site_label
_atom_site_fract_x
_atom_site_fract_y
_atom_site_fract_z
Si Si1 0.616256 0.616389 0.572010
Si Si2 0.755362 0.273884 0.196116
Si Si3 0.349708 0.500403 0.954627
Si Si4 0.763844 0.387039 0.747621
Si Si5 0.533621 0.820877 0.702842
Si Si6 0.500000 0.000000 0.000000
Si Si7 0.872018 0.105310 0.445571
Si Si8 0.802235 0.240322 0.753273
O O1 0.500000 0.500000 0.500000
O O2 0.672250 0.562563 0.826158
O O3 0.427603 0.611995 0.448826
O O4 0.862560 0.782668 0.516240
O O5 0.514992 0.169479 0.202109
O O6 0.852856 0.203732 0.371756
O O7 0.966512 0.440556 0.233861
O O8 0.724014 0.307893 0.966246
O O9 0.500000 0.500000 0.000000
O O10 0.474412 0.671509 0.843267
O O11 0.084305 0.382974 0.805690
O O12 0.734766 0.288803 0.741847
O O13 0.332980 0.790475 0.468622
O O14 0.777176 0.969738 0.649497
O O15 0.300342 0.913787 0.057912
O O16 0.692783 0.040393 0.238882
#
# Coordination Sequence:
#
# PCOD9110813 Si02
#       8
#     2   2   2   2   2   1   2   2
#     4  12  24  42  68  97 135 174 216 273 326 394
#     4  11  21  41  69  98 129 173 226 277 318 399
#     4  12  25  43  64  99 136 172 219 273 331 392
#     4  11  22  39  71  97 125 176 230 265 323 399
#     4  11  25  41  68  98 133 173 223 275 328 392
#     4  10  20  42  66  94 126 174 214 268 316 394
#     4  11  23  44  67 100 136 172 222 271 336 388
#     4  11  22  43  67  93 129 177 223 269 321 400
#
# _framework density 21.517222
#
# number of rings (size 3 to 8) (size 9 to 14) (size 15 to 20)
#    0.000    0.800    5.333    2.400    1.867    0.000 
#    2.400    4.667    0.000    0.000    0.000    0.000 
#    0.000    0.000    0.000    0.000    0.000    0.000 
#
# Total GULP energy -83681.666063 kJ/mol
# GULP energy per Si atom -5578.777738 kJ/mol
# Density = 2.146825 g / cm^3
# Si number density = 21.517222 Si / 1000 Ang^3
#
#
#
# Elastic Constant Matrix: (Units=GPa)
#
#
# Indices 1 2 3 4 5 6 
#
# 1 70.1960 9.8619 2.4944 -12.9013 -5.3080 9.0141
# 2 9.8619 76.0657 16.3065 -7.9167 -8.3861 23.9871
# 3 2.4944 16.3065 49.7553 -15.0740 -26.2929 19.9698
# 4 -12.9013 -7.9167 -15.0740 49.9323 -8.4731 -4.5909
# 5 -5.3080 -8.3861 -26.2929 -8.4731 49.2372 -10.4335
# 6 9.0141 23.9871 19.9698 -4.5909 -10.4335 27.1581
#
#
#
# Elastic Compliance Matrix: (Units=1/GPa)
#
#
# Indices 1 2 3 4 5 6 
#
# 1 0.016513 -0.000031 0.006678 0.006425 0.004878 -0.007404
# 2 -0.000031 0.018400 0.001860 0.002067 0.000895 -0.016915
# 3 0.006678 0.001860 0.048348 0.018253 0.024275 -0.026999
# 4 0.006425 0.002067 0.018253 0.029331 0.014377 -0.006898
# 5 0.004878 0.000895 0.024275 0.014377 0.035540 -0.004175
# 6 -0.007404 -0.016915 -0.026999 -0.006898 -0.004175 0.071302
#
#
# Mechanical properties :
#
#
# Convention : Reuss Voigt Hill
#
# Bulk Modulus (GPa) = 9.97270 28.14917 19.06094
# Shear Modulus (GPa) = 21.20024 36.42248 28.81136
#
# Velocity S-wave (km/s) = 3.14230 4.11872 3.66319
# Velocity P-wave (km/s) = 4.22022 5.97738 5.17394
#
# Compressibility (1/GPa) = 0.10027377
#
# Stress axis : x y z
#
# Youngs Moduli (GPa) = 60.55732 54.34795 20.68332
#
# Poissons Ratio (x) = 0.00170 -0.13812
# Poissons Ratio (y) = 0.00190 -0.03846
# Poissons Ratio (z) = -0.40440 -0.10106
#
# Static dielectric constant tensor:
#      x y z
#    x 1.750050 -0.010190 0.007790 
#    y -0.010190 1.926310 -0.096820 
#    z 0.007790 -0.096820 1.812580 
# 
# From -- ./inp_files/257134.got.cif
#   From: 2010.05.17/outbox.cif.g08.bks.cpg/sg2_129_cif.got.tgz:257134.got - 2010.06.03 11:33:40.
