data_PCOD9110362
_publ_section_title
;
Structure prediction by ZEFSAII (Michael W. Deem and Ramdas Pophale) SiO2 
 PCOD9110362
Probable space group: P -1
;
_chemical_formula_sum "Si O2"
_cell_formula_units_Z 15
_cell_length_a 11.957677
_cell_length_b 10.076372
_cell_length_c 10.737092
_cell_angle_alpha 89.021646
_cell_angle_beta 63.901285
_cell_angle_gamma 36.320644
_cell_volume 532.008974
_symmetry_space_group_name_H-M "P -1"
_symmetry_group_IT_number 2
_symmetry_cell_setting 'triclinic'
loop_
_space_group_symop_operation_xyz
x,y,z
-x,-y,-z
loop_
_atom_site_type_symbol
_atom_site_label
_atom_site_fract_x
_atom_site_fract_y
_atom_site_fract_z
Si Si1 0.500000 0.000000 0.500000
Si Si2 0.924811 0.037222 0.339698
Si Si3 0.144972 0.079848 0.117698
Si Si4 0.477468 0.438522 0.193476
Si Si5 0.395819 0.863046 0.356985
Si Si6 0.028497 0.471367 0.268926
Si Si7 0.795481 0.539441 0.587979
Si Si8 0.861203 0.312088 0.999626
O O1 0.509313 0.857776 0.401942
O O2 0.820340 0.749589 0.284493
O O3 0.193079 0.776479 0.298592
O O4 0.929402 0.185406 0.289010
O O5 0.001091 0.863909 0.192809
O O6 0.679365 0.203070 0.532778
O O7 0.157811 0.216877 0.157256
O O8 0.057904 0.168826 0.015511
O O9 0.421410 0.732627 0.979091
O O10 0.403315 0.393199 0.325085
O O11 0.712596 0.315088 0.113072
O O12 0.603216 0.654561 0.142846
O O13 0.104681 0.192850 0.444777
O O14 0.766853 0.666092 0.483838
O O15 0.215419 0.372139 0.276569
#
# Coordination Sequence:
#
# PCOD9110362 Si02
#       8
#     1   2   2   2   2   2   2   2
#     4  10  20  42  58  86 124 152 204 242 298 352
#     4  10  23  39  59  94 122 155 199 249 294 355
#     4  11  22  37  60  89 122 156 197 244 302 357
#     4  10  22  39  61  86 123 153 198 252 288 362
#     4  10  22  39  65  86 121 159 200 245 296 362
#     4  10  21  38  62  85 118 158 198 251 291 355
#     4   9  22  39  60  88 114 159 204 244 294 353
#     4  11  22  38  59  92 122 160 192 248 302 348
#
# _framework density 28.195014
#
# number of rings (size 3 to 8) (size 9 to 14) (size 15 to 20)
#    0.000    1.867    1.333    3.200    5.600    4.267 
#    0.000    0.667    0.000    0.000    0.000    0.000 
#    0.000    0.000    0.000    0.000    0.000    0.000 
#
# Total GULP energy -83774.116677 kJ/mol
# GULP energy per Si atom -5584.941112 kJ/mol
# Density = 2.813084 g / cm^3
# Si number density = 28.195014 Si / 1000 Ang^3
#
#
#
# Elastic Constant Matrix: (Units=GPa)
#
#
# Indices 1 2 3 4 5 6 
#
# 1 86.0696 21.9127 17.2755 -10.3853 36.3852 -22.1462
# 2 21.9127 82.5637 19.2657 6.6078 -1.1724 -6.5853
# 3 17.2755 19.2657 121.3588 13.3355 43.0432 -14.3463
# 4 -10.3853 6.6078 13.3355 48.9680 9.9736 -0.0957
# 5 36.3852 -1.1724 43.0432 9.9736 57.3832 -0.6398
# 6 -22.1462 -6.5853 -14.3463 -0.0957 -0.6398 43.2787
#
#
#
# Elastic Compliance Matrix: (Units=1/GPa)
#
#
# Indices 1 2 3 4 5 6 
#
# 1 0.028143 -0.009062 0.006858 0.010408 -0.024817 0.014952
# 2 -0.009062 0.015900 -0.004867 -0.004894 0.010532 -0.003687
# 3 0.006858 -0.004867 0.014135 0.001374 -0.015209 0.007232
# 4 0.010408 -0.004894 0.001374 0.025387 -0.012087 0.004914
# 5 -0.024817 0.010532 -0.015209 -0.012087 0.046714 -0.015474
# 6 0.014952 -0.003687 0.007232 0.004914 -0.015474 0.032376
#
#
# Mechanical properties :
#
#
# Convention : Reuss Voigt Hill
#
# Bulk Modulus (GPa) = 22.70946 45.21109 33.96028
# Shear Modulus (GPa) = 26.11302 45.36188 35.73745
#
# Velocity S-wave (km/s) = 3.04658 4.01541 3.56407
# Velocity P-wave (km/s) = 4.52189 6.12927 5.38588
#
# Compressibility (1/GPa) = 0.04403451
#
# Stress axis : x y z
#
# Youngs Moduli (GPa) = 35.53256 62.89286 70.74835
#
# Poissons Ratio (x) = 0.56996 -0.48521
# Poissons Ratio (y) = 0.32201 0.34436
# Poissons Ratio (z) = -0.24369 0.30613
#
# Static dielectric constant tensor:
#      x y z
#    x 2.217590 0.006430 -0.052110 
#    y 0.006430 2.438930 0.057520 
#    z -0.052110 0.057520 2.351210 
# 
# From -- ./inp_files/163082.got.cif
#   From: 2010.05.17/outbox.cif.g08.bks.cpg/sg2_82_cif.got.tgz:163082.got - 2010.06.03 11:33:40.
