data_PCOD9110330
_publ_section_title
;
Structure prediction by ZEFSAII (Michael W. Deem and Ramdas Pophale) SiO2 
 PCOD9110330
Probable space group: P -1
;
_chemical_formula_sum "Si O2"
_cell_formula_units_Z 14
_cell_length_a 14.879107
_cell_length_b 15.594818
_cell_length_c 7.983309
_cell_angle_alpha 147.611159
_cell_angle_beta 41.451966
_cell_angle_gamma 142.662775
_cell_volume 584.161240
_symmetry_space_group_name_H-M "P -1"
_symmetry_group_IT_number 2
_symmetry_cell_setting 'triclinic'
loop_
_space_group_symop_operation_xyz
x,y,z
-x,-y,-z
loop_
_atom_site_type_symbol
_atom_site_label
_atom_site_fract_x
_atom_site_fract_y
_atom_site_fract_z
Si Si1 0.291649 0.784138 0.292309
Si Si2 0.343860 0.321552 0.366204
Si Si3 0.547983 0.912396 0.642192
Si Si4 0.243099 0.195327 0.640278
Si Si5 0.010812 0.172817 0.166837
Si Si6 0.154058 0.479986 0.732238
Si Si7 0.418690 0.620064 0.119081
O O1 0.321390 0.673326 0.213372
O O2 0.148254 0.818062 0.593660
O O3 0.431701 0.974162 0.366815
O O4 0.270306 0.676230 0.967360
O O5 0.500000 0.500000 0.500000
O O6 0.286108 0.177839 0.359523
O O7 0.202374 0.362182 0.595767
O O8 0.408752 0.288809 0.047856
O O9 0.703578 0.914387 0.490721
O O10 0.428127 0.709652 0.432217
O O11 0.500000 0.000000 0.000000
O O12 0.076029 0.161066 0.873736
O O13 0.350492 0.407507 0.873137
O O14 0.126964 0.363256 0.407767
O O15 0.000000 0.000000 0.000000
O O16 0.000000 0.500000 0.000000
#
# Coordination Sequence:
#
# PCOD9110330 Si02
#       7
#     2   2   2   2   2   2   2
#     4  11  23  45  65  96 135 183 221 277 342 400
#     4  10  20  41  73  98 130 170 230 277 335 397
#     4  12  26  40  67 104 140 167 225 282 345 400
#     4  11  23  43  70  97 131 177 232 269 340 404
#     4  11  24  45  67  94 139 179 227 277 340 404
#     4  10  22  42  69  91 132 186 225 265 341 403
#     4  11  24  44  71  97 137 179 222 283 340 400
#
# _framework density 23.965986000000001
#
# number of rings (size 3 to 8) (size 9 to 14) (size 15 to 20)
#    0.000    1.143    4.286    2.571    4.000    0.571 
#    0.000    0.714    0.000    0.000    0.000    0.000 
#    0.000    0.000    0.000    0.000    0.000    0.000 
#
# Total GULP energy -78078.356748 kJ/mol
# GULP energy per Si atom -5577.025482 kJ/mol
# Density = 2.391144 g / cm^3
# Si number density = 23.965986 Si / 1000 Ang^3
#
#
#
# Elastic Constant Matrix: (Units=GPa)
#
#
# Indices 1 2 3 4 5 6 
#
# 1 69.1341 5.5887 26.6271 -12.9400 -27.3723 -3.1152
# 2 5.5887 69.4172 27.9540 -18.0265 -0.2001 -12.5817
# 3 26.6271 27.9540 123.8553 -13.3194 -9.0760 -3.2548
# 4 -12.9400 -18.0265 -13.3194 32.4695 -1.9964 7.5223
# 5 -27.3723 -0.2001 -9.0760 -1.9964 41.9971 6.4981
# 6 -3.1152 -12.5817 -3.2548 7.5223 6.4981 24.1991
#
#
#
# Elastic Compliance Matrix: (Units=1/GPa)
#
#
# Indices 1 2 3 4 5 6 
#
# 1 0.023771 0.001493 -0.003209 0.010965 0.015993 -0.004298
# 2 0.001493 0.019148 -0.003622 0.008022 -0.000465 0.007292
# 3 -0.003209 -0.003622 0.009672 0.001011 0.000242 -0.001375
# 4 0.010965 0.008022 0.001011 0.043197 0.011111 -0.010693
# 5 0.015993 -0.000465 0.000242 0.011111 0.036581 -0.011428
# 6 -0.004298 0.007292 -0.001375 -0.010693 -0.011428 0.050769
#
#
# Mechanical properties :
#
#
# Convention : Reuss Voigt Hill
#
# Bulk Modulus (GPa) = 23.85907 42.52736 33.19321
# Shear Modulus (GPa) = 24.06331 33.21558 28.63945
#
# Velocity S-wave (km/s) = 3.17213 3.72687 3.46063
# Velocity P-wave (km/s) = 4.83669 6.02518 5.46335
#
# Compressibility (1/GPa) = 0.04191279
#
# Stress axis : x y z
#
# Youngs Moduli (GPa) = 42.06872 52.22612 103.39391
#
# Poissons Ratio (x) = -0.07797 0.33181
# Poissons Ratio (y) = -0.06281 0.37453
# Poissons Ratio (z) = 0.13501 0.18918
#
# Static dielectric constant tensor:
#      x y z
#    x 1.931640 0.024760 0.061440 
#    y 0.024760 1.938450 -0.002370 
#    z 0.061440 -0.002370 1.967430 
# 
# From -- ./inp_files/316157.got.cif
#   From: 2010.05.17/outbox.cif.g08.bks.cpg/sg2_159_cif.got.tgz:316157.got - 2010.06.03 11:33:40.
