data_PCOD9110611
_publ_section_title
;
Structure prediction by ZEFSAII (Michael W. Deem and Ramdas Pophale) SiO2 
 PCOD9110611
Probable space group: P -1
;
_chemical_formula_sum "Si O2"
_cell_formula_units_Z 16
_cell_length_a 8.237319
_cell_length_b 17.691315
_cell_length_c 8.304760
_cell_angle_alpha 46.427000
_cell_angle_beta 52.910353
_cell_angle_gamma 79.509414
_cell_volume 639.745741
_symmetry_space_group_name_H-M "P -1"
_symmetry_group_IT_number 2
_symmetry_cell_setting 'triclinic'
loop_
_space_group_symop_operation_xyz
x,y,z
-x,-y,-z
loop_
_atom_site_type_symbol
_atom_site_label
_atom_site_fract_x
_atom_site_fract_y
_atom_site_fract_z
Si Si1 0.585681 0.290646 0.938062
Si Si2 0.267074 0.036952 0.984271
Si Si3 0.970514 0.581679 0.630773
Si Si4 0.366257 0.841086 0.205903
Si Si5 0.306333 0.374198 0.777968
Si Si6 0.892738 0.769266 0.196719
Si Si7 0.853902 0.377405 0.163206
Si Si8 0.600023 0.110105 0.394590
O O1 0.819252 0.402685 0.634875
O O2 0.643339 0.215245 0.878140
O O3 0.377682 0.308922 0.968998
O O4 0.530248 0.213176 0.238734
O O5 0.376195 0.078853 0.031181
O O6 0.143593 0.117761 0.893979
O O7 0.472397 0.062276 0.703926
O O8 0.189188 0.899933 0.235281
O O9 0.894186 0.678059 0.466602
O O10 0.076931 0.593200 0.731454
O O11 0.782119 0.456242 0.969853
O O12 0.317190 0.749515 0.513489
O O13 0.500000 0.500000 0.500000
O O14 0.282404 0.309984 0.716354
O O15 0.071430 0.376520 0.950189
O O16 0.134019 0.828239 0.876819
O O17 0.500000 0.000000 0.500000
#
# Coordination Sequence:
#
# PCOD9110611 Si02
#       8
#     2   2   2   2   2   2   2   2
#     4  10  20  42  64  93 137 169 222 280 344 401
#     4  11  23  43  68  99 140 178 228 276 344 403
#     4   9  21  42  64  93 133 176 219 284 339 404
#     4  10  21  42  66  95 135 181 216 283 337 409
#     4  12  24  43  67 100 133 179 231 284 342 411
#     4  11  26  44  69 105 138 178 234 284 339 412
#     4  10  21  40  67  93 134 180 226 272 353 400
#     4  11  24  44  68 102 139 179 223 280 341 403
#
# _framework density 25.009934999999999
#
# number of rings (size 3 to 8) (size 9 to 14) (size 15 to 20)
#    0.000    1.500    3.750    0.750    1.750    2.000 
#    2.250    3.750    0.000    0.000    0.000    0.000 
#    0.000    0.000    0.000    0.000    0.000    0.000 
#
# Total GULP energy -89109.932878 kJ/mol
# GULP energy per Si atom -5569.370805 kJ/mol
# Density = 2.495301 g / cm^3
# Si number density = 25.009935 Si / 1000 Ang^3
#
#
#
# Elastic Constant Matrix: (Units=GPa)
#
#
# Indices 1 2 3 4 5 6 
#
# 1 58.4841 9.2518 15.2333 -14.0375 13.8355 -18.9743
# 2 9.2518 63.3957 4.2949 -10.9081 -4.5395 -14.4048
# 3 15.2333 4.2949 94.8857 -12.8787 23.5994 -15.0551
# 4 -14.0375 -10.9081 -12.8787 26.6663 -5.3699 8.0244
# 5 13.8355 -4.5395 23.5994 -5.3699 41.0178 -20.5490
# 6 -18.9743 -14.4048 -15.0551 8.0244 -20.5490 50.7492
#
#
#
# Elastic Compliance Matrix: (Units=1/GPa)
#
#
# Indices 1 2 3 4 5 6 
#
# 1 0.021922 -0.000766 -0.000648 0.008710 -0.003456 0.005010
# 2 -0.000766 0.019063 -0.000499 0.006513 0.006881 0.006733
# 3 -0.000648 -0.000499 0.012924 0.004334 -0.006673 0.000063
# 4 0.008710 0.006513 0.004334 0.047262 0.001173 -0.000607
# 5 -0.003456 0.006881 -0.006673 0.001173 0.037065 0.013504
# 6 0.005010 0.006733 0.000063 -0.000607 0.013504 0.029071
#
#
# Mechanical properties :
#
#
# Convention : Reuss Voigt Hill
#
# Bulk Modulus (GPa) = 19.96684 30.48061 25.22373
# Shear Modulus (GPa) = 26.62025 36.21902 31.41964
#
# Velocity S-wave (km/s) = 3.26603 3.80963 3.54826
# Velocity P-wave (km/s) = 4.71418 5.61827 5.18596
#
# Compressibility (1/GPa) = 0.05008303
#
# Stress axis : x y z
#
# Youngs Moduli (GPa) = 45.61553 52.45847 77.37826
#
# Poissons Ratio (x) = 0.04017 0.05015
# Poissons Ratio (y) = 0.03493 0.03861
# Poissons Ratio (z) = 0.02956 0.02618
#
# Static dielectric constant tensor:
#      x y z
#    x 2.034020 0.102920 -0.048440 
#    y 0.102920 2.276050 -0.253630 
#    z -0.048440 -0.253630 2.270420 
# 
# From -- ./inp_files/222997.got.cif
#   From: 2010.05.17/outbox.cif.g08.bks.cpg/sg2_112_cif.got.tgz:222997.got - 2010.06.03 11:33:40.
