data_PCOD9110005
_publ_section_title
;
Structure prediction by ZEFSAII (Michael W. Deem and Ramdas Pophale) SiO2 
 PCOD9110005
Probable space group: P -1
;
_chemical_formula_sum "Si O2"
_cell_formula_units_Z 12
_cell_length_a 16.425271
_cell_length_b 5.030884
_cell_length_c 5.934341
_cell_angle_alpha 92.171991
_cell_angle_beta 87.069094
_cell_angle_gamma 65.694603
_cell_volume 445.389857
_symmetry_space_group_name_H-M "P -1"
_symmetry_group_IT_number 2
_symmetry_cell_setting 'triclinic'
loop_
_space_group_symop_operation_xyz
x,y,z
-x,-y,-z
loop_
_atom_site_type_symbol
_atom_site_label
_atom_site_fract_x
_atom_site_fract_y
_atom_site_fract_z
Si Si1 0.076335 0.487184 0.659806
Si Si2 0.352139 0.119406 0.099825
Si Si3 0.478931 0.319608 0.799320
Si Si4 0.302869 0.770186 0.715976
Si Si5 0.875725 0.103139 0.078437
Si Si6 0.203501 0.693700 0.352083
O O1 0.060238 0.739255 0.858175
O O2 0.144089 0.561413 0.493094
O O3 0.000000 0.500000 0.500000
O O4 0.105069 0.188258 0.790215
O O5 0.282933 0.409711 0.230975
O O6 0.417716 0.180684 0.919333
O O7 0.422982 0.923571 0.274673
O O8 0.307642 0.967131 0.931321
O O9 0.405556 0.544576 0.651200
O O10 0.500000 0.500000 0.000000
O O11 0.227281 0.671582 0.825433
O O12 0.254493 0.862040 0.484749
O O13 0.862191 0.089534 0.815257
#
# Coordination Sequence:
#
# PCOD9110005 Si02
#       6
#     2   2   2   2   2   2
#     4  11  27  49  75 112 149 187 246 309 368 451
#     4  10  20  41  68  98 147 193 244 306 358 422
#     4   9  19  39  64  98 148 184 241 319 341 416
#     4  10  22  40  66 103 144 188 246 299 354 434
#     4  11  24  46  74 109 150 188 245 307 364 447
#     4  11  25  45  77 108 142 203 241 294 383 437
#
# _framework density 26.942688
#
# number of rings (size 3 to 8) (size 9 to 14) (size 15 to 20)
#    0.000    1.667    1.667    1.500    2.333    7.333 
#    0.000    7.500    0.000    3.000    0.000    0.000 
#    0.000    0.000    0.000    0.000    0.000    0.000 
#
# Total GULP energy -66990.401406 kJ/mol
# GULP energy per Si atom -5582.533451 kJ/mol
# Density = 2.688136 g / cm^3
# Si number density = 26.942688 Si / 1000 Ang^3
#
#
#
# Elastic Constant Matrix: (Units=GPa)
#
#
# Indices 1 2 3 4 5 6 
#
# 1 152.1474 49.2504 63.3560 -4.6354 45.9562 18.5816
# 2 49.2504 103.6783 49.9366 -24.5512 22.4818 -1.4444
# 3 63.3560 49.9366 118.6041 -26.5282 49.1464 -7.2071
# 4 -4.6354 -24.5512 -26.5282 56.3351 -1.9506 5.2547
# 5 45.9562 22.4818 49.1464 -1.9506 58.8819 4.2399
# 6 18.5816 -1.4444 -7.2071 5.2547 4.2399 47.8167
#
#
#
# Elastic Compliance Matrix: (Units=1/GPa)
#
#
# Indices 1 2 3 4 5 6 
#
# 1 0.010650 -0.003028 -0.003365 -0.001780 -0.004106 -0.004178
# 2 -0.003028 0.013591 -0.003053 0.004166 -0.000189 0.000686
# 3 -0.003365 -0.003053 0.017692 0.005947 -0.011081 0.004211
# 4 -0.001780 0.004166 0.005947 0.022098 -0.004410 -0.000323
# 5 -0.004106 -0.000189 -0.011081 -0.004410 0.029522 -0.002214
# 6 -0.004178 0.000686 0.004211 -0.000323 -0.002214 0.023424
#
#
# Mechanical properties :
#
#
# Convention : Reuss Voigt Hill
#
# Bulk Modulus (GPa) = 43.40001 77.72399 60.56200
# Shear Modulus (GPa) = 34.83114 46.73252 40.78183
#
# Velocity S-wave (km/s) = 3.59943 4.16927 3.89479
# Velocity P-wave (km/s) = 5.78081 7.21717 6.53856
#
# Compressibility (1/GPa) = 0.02304147
#
# Stress axis : x y z
#
# Youngs Moduli (GPa) = 93.89706 73.57763 56.52166
#
# Poissons Ratio (x) = 0.22278 0.19019
# Poissons Ratio (y) = 0.28431 0.17257
# Poissons Ratio (z) = 0.31596 0.22464
#
# Static dielectric constant tensor:
#      x y z
#    x 1.957550 -0.309410 -0.127270 
#    y -0.309410 1.931040 -0.204180 
#    z -0.127270 -0.204180 2.262180 
# 
# From -- ./inp_files/102187.got.cif
#   From: 2010.05.17/outbox.cif.g08.bks.cpg/sg2_52_cif.got.tgz:102187.got - 2010.06.03 11:33:40.
