data_PCOD9110986
_publ_section_title
;
Structure prediction by ZEFSAII (Michael W. Deem and Ramdas Pophale) SiO2 
 PCOD9110986
Probable space group: P -1
;
_chemical_formula_sum "Si O2"
_cell_formula_units_Z 12
_cell_length_a 14.490237
_cell_length_b 9.042413
_cell_length_c 8.267374
_cell_angle_alpha 131.511239
_cell_angle_beta 55.675098
_cell_angle_gamma 86.366456
_cell_volume 473.897696
_symmetry_space_group_name_H-M "P -1"
_symmetry_group_IT_number 2
_symmetry_cell_setting 'triclinic'
loop_
_space_group_symop_operation_xyz
x,y,z
-x,-y,-z
loop_
_atom_site_type_symbol
_atom_site_label
_atom_site_fract_x
_atom_site_fract_y
_atom_site_fract_z
Si Si1 0.448022 0.206556 0.347884
Si Si2 0.818423 0.391646 0.329241
Si Si3 0.808916 0.163794 0.477952
Si Si4 0.952941 0.249517 0.625366
Si Si5 0.233899 0.120726 0.089609
Si Si6 0.267282 0.155517 0.699865
O O1 0.287785 0.496932 0.644754
O O2 0.410923 0.108969 0.464456
O O3 0.500000 0.000000 0.000000
O O4 0.594274 0.158538 0.218443
O O5 0.758749 0.306953 0.457746
O O6 0.800682 0.628460 0.602603
O O7 0.004886 0.125651 0.927034
O O8 0.807103 0.349018 0.735313
O O9 0.722196 0.075114 0.554360
O O10 0.094879 0.146880 0.297085
O O11 0.886730 0.528837 0.977960
O O12 0.000000 0.000000 0.500000
O O13 0.241636 0.148590 0.910429
#
# Coordination Sequence:
#
# PCOD9110986 Si02
#       6
#     2   2   2   2   2   2
#     4  10  25  43  71  99 140 186 226 276 347 404
#     4  10  20  42  68 102 138 178 221 281 337 407
#     4  11  23  40  72 104 134 174 232 276 344 393
#     4  12  26  42  72 107 135 178 233 284 337 406
#     4  11  22  46  69 102 143 179 225 283 340 408
#     4  12  24  45  73 101 138 181 227 287 335 405
#
# _framework density 25.321919999999999
#
# number of rings (size 3 to 8) (size 9 to 14) (size 15 to 20)
#    0.000    1.000    3.333    4.000    4.667    1.333 
#    0.000   12.500    0.000    0.000    0.000    0.000 
#    0.000    0.000    0.000    0.000    0.000    0.000 
#
# Total GULP energy -67164.372642 kJ/mol
# GULP energy per Si atom -5597.031053 kJ/mol
# Density = 2.526429 g / cm^3
# Si number density = 25.321920 Si / 1000 Ang^3
#
#
#
# Elastic Constant Matrix: (Units=GPa)
#
#
# Indices 1 2 3 4 5 6 
#
# 1 92.8351 45.2887 11.1351 1.7058 -4.9445 12.8732
# 2 45.2887 133.7228 19.9628 -0.5598 1.3267 -0.3009
# 3 11.1351 19.9628 52.1584 -7.9090 2.2363 3.7732
# 4 1.7058 -0.5598 -7.9090 37.7192 -1.5079 -1.1023
# 5 -4.9445 1.3267 2.2363 -1.5079 28.0510 9.0232
# 6 12.8732 -0.3009 3.7732 -1.1023 9.0232 42.1548
#
#
#
# Elastic Compliance Matrix: (Units=1/GPa)
#
#
# Indices 1 2 3 4 5 6 
#
# 1 0.014180 -0.004685 -0.001188 -0.000935 0.004449 -0.005234
# 2 -0.004685 0.009496 -0.002747 -0.000231 -0.001748 0.002112
# 3 -0.001188 -0.002747 0.021280 0.004394 -0.001154 -0.001200
# 4 -0.000935 -0.000231 0.004394 0.027518 0.000836 0.000431
# 5 0.004449 -0.001748 -0.001154 0.000836 0.039794 -0.009764
# 6 -0.005234 0.002112 -0.001200 0.000431 -0.009764 0.027544
#
#
# Mechanical properties :
#
#
# Convention : Reuss Voigt Hill
#
# Bulk Modulus (GPa) = 36.08092 47.94326 42.01209
# Shear Modulus (GPa) = 30.06791 35.07366 32.57078
#
# Velocity S-wave (km/s) = 3.44964 3.72574 3.59035
# Velocity P-wave (km/s) = 5.49059 6.12232 5.81504
#
# Compressibility (1/GPa) = 0.02771548
#
# Stress axis : x y z
#
# Youngs Moduli (GPa) = 70.52371 105.30714 46.99250
#
# Poissons Ratio (x) = 0.49334 0.05583
# Poissons Ratio (y) = 0.33039 0.12910
# Poissons Ratio (z) = 0.08378 0.28931
#
# Static dielectric constant tensor:
#      x y z
#    x 2.005250 -0.042920 0.043420 
#    y -0.042920 1.982220 0.021220 
#    z 0.043420 0.021220 2.060350 
# 
# From -- ./inp_files/148549.got.cif
#   From: 2010.05.17/outbox.cif.g08.bks.cpg/sg2_75_cif.got.tgz:148549.got - 2010.06.03 11:33:40.
