data_PCOD9110243
_publ_section_title
;
Structure prediction by ZEFSAII (Michael W. Deem and Ramdas Pophale) SiO2 
 PCOD9110243
Probable space group: P -1
;
_chemical_formula_sum "Si O2"
_cell_formula_units_Z 15
_cell_length_a 11.639844
_cell_length_b 13.749094
_cell_length_c 8.052613
_cell_angle_alpha 84.272167
_cell_angle_beta 84.188576
_cell_angle_gamma 147.697478
_cell_volume 642.133491
_symmetry_space_group_name_H-M "P -1"
_symmetry_group_IT_number 2
_symmetry_cell_setting 'triclinic'
loop_
_space_group_symop_operation_xyz
x,y,z
-x,-y,-z
loop_
_atom_site_type_symbol
_atom_site_label
_atom_site_fract_x
_atom_site_fract_y
_atom_site_fract_z
Si Si1 0.174632 0.993647 0.277665
Si Si2 0.148627 0.404682 0.442074
Si Si3 0.054258 0.389135 0.944087
Si Si4 0.000000 0.000000 0.000000
Si Si5 0.592440 0.959459 0.032751
Si Si6 0.510407 0.449174 0.834181
Si Si7 0.480276 0.625656 0.649986
Si Si8 0.887805 0.445175 0.758623
O O1 0.367374 0.074504 0.132372
O O2 0.015417 0.795520 0.418445
O O3 0.296205 0.150592 0.369072
O O4 0.039621 0.960508 0.169731
O O5 0.260584 0.445301 0.248684
O O6 0.365826 0.573402 0.504002
O O7 0.022284 0.414272 0.417015
O O8 0.284970 0.505654 0.836540
O O9 0.845075 0.159823 0.036977
O O10 0.989796 0.413893 0.793730
O O11 0.077886 0.473159 0.086368
O O12 0.280472 0.217769 0.903457
O O13 0.500000 0.000000 0.000000
O O14 0.384922 0.762622 0.200096
O O15 0.521760 0.541271 0.676372
O O16 0.500000 0.500000 0.000000
#
# Coordination Sequence:
#
# PCOD9110243 Si02
#       8
#     2   2   2   1   2   2   2   2
#     4  12  25  43  68 100 137 180 226 277 338 395
#     4  12  27  43  65 101 141 169 221 285 339 393
#     4  10  20  41  71  95 130 176 226 272 326 401
#     4  12  24  44  76  98 128 182 232 270 332 408
#     4  10  20  41  71  98 128 177 231 270 322 401
#     4  12  25  45  72  99 129 177 226 277 336 403
#     4  12  24  42  65  95 140 173 219 278 336 394
#     4  10  22  40  69 100 129 176 226 273 333 398
#
# _framework density 23.359631
#
# number of rings (size 3 to 8) (size 9 to 14) (size 15 to 20)
#    0.000    0.800    5.333    2.000    0.000    3.200 
#    0.000    0.667    0.000    0.000    0.000    0.000 
#    0.000    0.000    0.000    0.000    0.000    0.000 
#
# Total GULP energy -83627.900111 kJ/mol
# GULP energy per Si atom -5575.193341 kJ/mol
# Density = 2.330646 g / cm^3
# Si number density = 23.359631 Si / 1000 Ang^3
#
#
#
# Elastic Constant Matrix: (Units=GPa)
#
#
# Indices 1 2 3 4 5 6 
#
# 1 68.2909 16.6455 27.7678 -2.5387 26.8788 2.3827
# 2 16.6455 97.9122 21.3855 -28.9526 18.4561 -0.9346
# 3 27.7678 21.3855 83.2332 -6.8647 32.8860 1.4061
# 4 -2.5387 -28.9526 -6.8647 38.5178 -8.1977 2.9992
# 5 26.8788 18.4561 32.8860 -8.1977 49.3199 1.5382
# 6 2.3827 -0.9346 1.4061 2.9992 1.5382 23.0831
#
#
#
# Elastic Compliance Matrix: (Units=1/GPa)
#
#
# Indices 1 2 3 4 5 6 
#
# 1 0.019508 -0.001786 -0.002914 -0.002274 -0.008366 -0.001056
# 2 -0.001786 0.014076 -0.001571 0.009868 -0.001596 -0.000326
# 3 -0.002914 -0.001571 0.017007 -0.000290 -0.009208 -0.000148
# 4 -0.002274 0.009868 -0.000290 0.034250 0.003558 -0.004035
# 5 -0.008366 -0.001596 -0.009208 0.003558 0.032202 -0.001248
# 6 -0.001056 -0.000326 -0.000148 -0.004035 -0.001248 0.044034
#
#
# Mechanical properties :
#
#
# Convention : Reuss Voigt Hill
#
# Bulk Modulus (GPa) = 26.28094 42.33711 34.30902
# Shear Modulus (GPa) = 26.83839 34.42667 30.63253
#
# Velocity S-wave (km/s) = 3.39325 3.84313 3.62518
# Velocity P-wave (km/s) = 5.16016 6.15275 5.67818
#
# Compressibility (1/GPa) = 0.03805039
#
# Stress axis : x y z
#
# Youngs Moduli (GPa) = 51.26041 71.04445 58.80034
#
# Poissons Ratio (x) = 0.12686 0.17133
# Poissons Ratio (y) = 0.09153 0.09236
# Poissons Ratio (z) = 0.14936 0.11159
#
# Static dielectric constant tensor:
#      x y z
#    x 1.903510 -0.030040 0.001350 
#    y -0.030040 1.880720 0.021360 
#    z 0.001350 0.021360 1.890820 
# 
# From -- ./inp_files/227236.got.cif
#   From: 2010.05.17/outbox.cif.g08.bks.cpg/sg2_114_cif.got.tgz:227236.got - 2010.06.03 11:33:40.
