data_PCOD9110569
_publ_section_title
;
Structure prediction by ZEFSAII (Michael W. Deem and Ramdas Pophale) SiO2 
 PCOD9110569
Probable space group: P -1
;
_chemical_formula_sum "Si O2"
_cell_formula_units_Z 16
_cell_length_a 5.472596
_cell_length_b 20.652350
_cell_length_c 9.487513
_cell_angle_alpha 61.480457
_cell_angle_beta 126.501236
_cell_angle_gamma 87.303404
_cell_volume 669.015056
_symmetry_space_group_name_H-M "P -1"
_symmetry_group_IT_number 2
_symmetry_cell_setting 'triclinic'
loop_
_space_group_symop_operation_xyz
x,y,z
-x,-y,-z
loop_
_atom_site_type_symbol
_atom_site_label
_atom_site_fract_x
_atom_site_fract_y
_atom_site_fract_z
Si Si1 0.953792 0.788299 0.217863
Si Si2 0.291769 0.213503 0.156506
Si Si3 0.011390 0.106426 0.347829
Si Si4 0.172512 0.329284 0.549274
Si Si5 0.569851 0.029704 0.144334
Si Si6 0.387708 0.450952 0.623327
Si Si7 0.706256 0.672946 0.718234
Si Si8 0.557453 0.525273 0.838921
O O1 0.711915 0.761508 0.254771
O O2 0.316967 0.742457 0.466664
O O3 0.942578 0.755346 0.094176
O O4 0.786743 0.886695 0.039493
O O5 0.681312 0.162528 0.278357
O O6 0.242569 0.289417 0.159735
O O7 0.169140 0.157061 0.264376
O O8 0.864082 0.060131 0.238145
O O9 0.309369 0.041077 0.620730
O O10 0.404892 0.370874 0.634985
O O11 0.107878 0.327338 0.363278
O O12 0.805285 0.395911 0.415530
O O13 0.500000 0.000000 0.000000
O O14 0.500000 0.500000 0.500000
O O15 0.608071 0.448467 0.837255
O O16 0.000000 0.500000 0.500000
O O17 0.763630 0.578487 0.850171
O O18 0.500000 0.500000 0.000000
#
# Coordination Sequence:
#
# PCOD9110569 Si02
#       8
#     2   2   2   2   2   2   2   2
#     4  10  25  43  65 101 135 181 228 277 347 414
#     4  11  26  45  71  99 146 184 229 285 344 402
#     4  10  25  46  67 106 139 180 235 287 333 411
#     4  10  23  43  64  94 133 174 228 278 341 414
#     4  10  22  43  74 100 139 182 232 280 346 401
#     4  10  20  42  64  89 127 168 211 276 330 389
#     4  11  24  43  68  99 138 183 228 286 338 418
#     4  10  23  42  64  98 131 173 231 283 343 408
#
# _framework density 23.915755000000001
#
# number of rings (size 3 to 8) (size 9 to 14) (size 15 to 20)
#    0.000    1.750    1.250    0.750   10.500    5.000 
#    2.250    3.750    0.000    0.000    0.000    0.000 
#    0.000    0.000    0.000    0.000    0.000    0.000 
#
# Total GULP energy -89283.066029 kJ/mol
# GULP energy per Si atom -5580.191627 kJ/mol
# Density = 2.386132 g / cm^3
# Si number density = 23.915755 Si / 1000 Ang^3
#
#
#
# Elastic Constant Matrix: (Units=GPa)
#
#
# Indices 1 2 3 4 5 6 
#
# 1 88.7855 6.6541 34.2666 -11.7548 -16.2838 -2.0206
# 2 6.6541 114.0721 67.3997 30.1918 1.6448 -24.1881
# 3 34.2666 67.3997 91.8836 18.9064 -10.8372 -7.2132
# 4 -11.7548 30.1918 18.9064 52.7632 -3.5810 -2.9036
# 5 -16.2838 1.6448 -10.8372 -3.5810 49.8181 -0.7785
# 6 -2.0206 -24.1881 -7.2132 -2.9036 -0.7785 25.3869
#
#
#
# Elastic Compliance Matrix: (Units=1/GPa)
#
#
# Indices 1 2 3 4 5 6 
#
# 1 0.015817 0.003528 -0.008899 0.005086 0.003527 0.002782
# 2 0.003528 0.023576 -0.016392 -0.006108 -0.003360 0.017284
# 3 -0.008899 -0.016392 0.026360 -0.002337 0.003058 -0.009010
# 4 0.005086 -0.006108 -0.002337 0.024450 0.003063 -0.003188
# 5 0.003527 -0.003360 0.003058 0.003063 0.022206 -0.001020
# 6 0.002782 0.017284 -0.009010 -0.003188 -0.001020 0.053124
#
#
# Mechanical properties :
#
#
# Convention : Reuss Voigt Hill
#
# Bulk Modulus (GPa) = 44.98979 56.82022 50.90500
# Shear Modulus (GPa) = 23.09817 38.02170 30.55994
#
# Velocity S-wave (km/s) = 3.11113 3.99158 3.57853
# Velocity P-wave (km/s) = 5.63543 6.71220 6.19725
#
# Compressibility (1/GPa) = 0.02222727
#
# Stress axis : x y z
#
# Youngs Moduli (GPa) = 63.22474 42.41639 37.93597
#
# Poissons Ratio (x) = -0.14965 0.33758
# Poissons Ratio (y) = -0.22306 0.62185
# Poissons Ratio (z) = 0.56262 0.69529
#
# Static dielectric constant tensor:
#      x y z
#    x 2.051030 0.019130 0.074780 
#    y 0.019130 1.956580 0.025720 
#    z 0.074780 0.025720 1.867950 
# 
# From -- ./inp_files/141352.got.cif
#   From: 2010.05.17/outbox.cif.g08.bks.cpg/sg2_71_cif.got.tgz:141352.got - 2010.06.03 11:33:40.
