data_PCOD9110554
_publ_section_title
;
Structure prediction by ZEFSAII (Michael W. Deem and Ramdas Pophale) SiO2 
 PCOD9110554
Probable space group: P -1
;
_chemical_formula_sum "Si O2"
_cell_formula_units_Z 14
_cell_length_a 11.818062
_cell_length_b 9.624117
_cell_length_c 13.961120
_cell_angle_alpha 54.770995
_cell_angle_beta 126.433870
_cell_angle_gamma 143.999432
_cell_volume 735.172691
_symmetry_space_group_name_H-M "P -1"
_symmetry_group_IT_number 2
_symmetry_cell_setting 'triclinic'
loop_
_space_group_symop_operation_xyz
x,y,z
-x,-y,-z
loop_
_atom_site_type_symbol
_atom_site_label
_atom_site_fract_x
_atom_site_fract_y
_atom_site_fract_z
Si Si1 0.707159 0.238461 0.126377
Si Si2 0.966729 0.111167 0.857264
Si Si3 0.377054 0.684640 0.145408
Si Si4 0.841722 0.362825 0.760906
Si Si5 0.529086 0.922101 0.447709
Si Si6 0.377058 0.289681 0.287233
Si Si7 0.652625 0.353640 0.236918
O O1 0.583134 0.247715 0.135982
O O2 0.924056 0.386483 0.221676
O O3 0.583515 0.965358 0.146778
O O4 0.725702 0.360481 0.989607
O O5 0.849446 0.166451 0.826510
O O6 0.156549 0.365433 0.802272
O O7 0.838941 0.919327 0.785046
O O8 0.000000 0.000000 0.000000
O O9 0.241871 0.640576 0.180136
O O10 0.415282 0.518071 0.237134
O O11 0.680813 0.282406 0.631932
O O12 0.608425 0.810780 0.569535
O O13 0.500000 0.000000 0.500000
O O14 0.667705 0.172377 0.358166
O O15 0.521589 0.340624 0.254920
#
# Coordination Sequence:
#
# PCOD9110554 Si02
#       7
#     2   2   2   2   2   2   2
#     4  10  22  39  63  89 119 167 204 244 318 366
#     4  11  23  38  66  94 119 157 208 258 307 358
#     4  11  23  39  62  90 126 165 195 253 316 365
#     4  11  21  42  61  88 127 158 205 250 308 365
#     4  10  20  42  64  86 122 168 205 254 302 356
#     4  11  23  40  60  95 124 158 214 251 300 362
#     4  10  21  41  62  88 120 165 202 258 302 351
#
# _framework density 19.043144999999999
#
# number of rings (size 3 to 8) (size 9 to 14) (size 15 to 20)
#    0.000    1.429    4.286    2.143    0.000    6.857 
#    2.571    0.714    0.000    0.000    0.000    0.000 
#    0.000    0.000    0.000    0.000    0.000    0.000 
#
# Total GULP energy -77965.619207 kJ/mol
# GULP energy per Si atom -5568.972801 kJ/mol
# Density = 1.899980 g / cm^3
# Si number density = 19.043145 Si / 1000 Ang^3
#
#
#
# Elastic Constant Matrix: (Units=GPa)
#
#
# Indices 1 2 3 4 5 6 
#
# 1 34.0683 4.7725 10.0969 -8.7517 -11.7166 -4.8984
# 2 4.7725 83.1919 35.6269 -11.0899 15.0082 13.4700
# 3 10.0969 35.6269 85.6144 5.8316 2.1536 13.8056
# 4 -8.7517 -11.0899 5.8316 25.9696 -5.4717 1.6113
# 5 -11.7166 15.0082 2.1536 -5.4717 36.2085 -2.7145
# 6 -4.8984 13.4700 13.8056 1.6113 -2.7145 35.1026
#
#
#
# Elastic Compliance Matrix: (Units=1/GPa)
#
#
# Indices 1 2 3 4 5 6 
#
# 1 0.045535 -0.001750 -0.008253 0.019943 0.019781 0.010886
# 2 -0.001750 0.018190 -0.006830 0.007582 -0.006961 -0.005425
# 3 -0.008253 -0.006830 0.017035 -0.009783 -0.002706 -0.004991
# 4 0.019943 0.007582 -0.009783 0.053069 0.012079 0.002219
# 5 0.019781 -0.006961 -0.002706 0.012079 0.039565 0.009001
# 6 0.010886 -0.005425 -0.004991 0.002219 0.009001 0.034646
#
#
# Mechanical properties :
#
#
# Convention : Reuss Voigt Hill
#
# Bulk Modulus (GPa) = 21.23410 33.76300 27.49855
# Shear Modulus (GPa) = 19.42461 29.61470 24.51966
#
# Velocity S-wave (km/s) = 3.19726 3.94780 3.59219
# Velocity P-wave (km/s) = 4.98043 6.20874 5.62819
#
# Compressibility (1/GPa) = 0.04709406
#
# Stress axis : x y z
#
# Youngs Moduli (GPa) = 21.96089 54.97387 58.70296
#
# Poissons Ratio (x) = 0.09623 0.48449
# Poissons Ratio (y) = 0.03844 0.40093
# Poissons Ratio (z) = 0.18125 0.37546
#
# Static dielectric constant tensor:
#      x y z
#    x 1.689830 0.028180 0.005360 
#    y 0.028180 1.781790 -0.042670 
#    z 0.005360 -0.042670 1.703570 
# 
# From -- ./inp_files/386506.got.cif
#   From: 2010.05.17/outbox.cif.g08.bks.cpg/sg2_194_cif.got.tgz:386506.got - 2010.06.03 11:33:40.
