data_PCOD9110125
_publ_section_title
;
Structure prediction by ZEFSAII (Michael W. Deem and Ramdas Pophale) SiO2 
 PCOD9110125
Probable space group: P -1
;
_chemical_formula_sum "Si O2"
_cell_formula_units_Z 12
_cell_length_a 10.128707
_cell_length_b 7.678401
_cell_length_c 10.139991
_cell_angle_alpha 45.753324
_cell_angle_beta 57.941912
_cell_angle_gamma 65.830286
_cell_volume 477.777788
_symmetry_space_group_name_H-M "P -1"
_symmetry_group_IT_number 2
_symmetry_cell_setting 'triclinic'
loop_
_space_group_symop_operation_xyz
x,y,z
-x,-y,-z
loop_
_atom_site_type_symbol
_atom_site_label
_atom_site_fract_x
_atom_site_fract_y
_atom_site_fract_z
Si Si1 0.695194 0.595328 0.381239
Si Si2 0.299429 0.936082 0.268984
Si Si3 0.423033 0.744091 0.021568
Si Si4 0.551808 0.271738 0.349364
Si Si5 0.821447 0.071272 0.164532
Si Si6 0.107796 0.267294 0.027031
O O1 0.750537 0.312714 0.510146
O O2 0.525563 0.633903 0.522142
O O3 0.736407 0.678355 0.167645
O O4 0.788996 0.785662 0.320202
O O5 0.364615 0.842575 0.142316
O O6 0.434700 0.088706 0.180948
O O7 0.158130 0.125020 0.207168
O O8 0.486544 0.467986 0.169907
O O9 0.277710 0.795263 0.972858
O O10 0.734711 0.209807 0.261877
O O11 0.500000 0.000000 0.500000
O O12 0.001448 0.112706 0.069317
O O13 0.000000 0.500000 0.000000
#
# Coordination Sequence:
#
# PCOD9110125 Si02
#       6
#     2   2   2   2   2   2
#     4  10  23  45  69  97 135 182 225 274 333 408
#     4  10  23  43  67  99 135 180 224 274 339 397
#     4  10  20  41  69  99 138 176 222 281 332 396
#     4   9  20  40  64 103 130 171 228 273 324 401
#     4  11  22  43  71 101 136 175 223 282 337 396
#     4  12  26  46  67  97 141 178 221 283 343 396
#
# _framework density 25.116278999999999
#
# number of rings (size 3 to 8) (size 9 to 14) (size 15 to 20)
#    0.000    1.667    1.667    2.000    0.000    2.000 
#   21.000    0.000    0.000    0.000    0.000    0.000 
#    0.000    0.000    0.000    0.000    0.000    0.000 
#
# Total GULP energy -67063.228867 kJ/mol
# GULP energy per Si atom -5588.602406 kJ/mol
# Density = 2.505911 g / cm^3
# Si number density = 25.116279 Si / 1000 Ang^3
#
#
#
# Elastic Constant Matrix: (Units=GPa)
#
#
# Indices 1 2 3 4 5 6 
#
# 1 119.7404 14.7617 49.0732 -11.0225 -3.1014 -9.0675
# 2 14.7617 119.4514 46.8076 -20.3352 10.1418 -4.9381
# 3 49.0732 46.8076 156.5019 -38.2766 4.6407 -12.1515
# 4 -11.0225 -20.3352 -38.2766 56.3870 -10.2447 10.5548
# 5 -3.1014 10.1418 4.6407 -10.2447 33.1466 1.6217
# 6 -9.0675 -4.9381 -12.1515 10.5548 1.6217 46.2351
#
#
#
# Elastic Compliance Matrix: (Units=1/GPa)
#
#
# Indices 1 2 3 4 5 6 
#
# 1 0.009694 -0.000112 -0.002997 -0.000155 0.001259 0.001093
# 2 -0.000112 0.009788 -0.002474 0.001398 -0.002233 0.000132
# 3 -0.002997 -0.002474 0.009271 0.004849 0.000655 0.000455
# 4 -0.000155 0.001398 0.004849 0.023431 0.006325 -0.004178
# 5 0.001259 -0.002233 0.000655 0.006325 0.032952 -0.002419
# 6 0.001093 0.000132 0.000455 -0.004178 -0.002419 0.023015
#
#
# Mechanical properties :
#
#
# Convention : Reuss Voigt Hill
#
# Bulk Modulus (GPa) = 56.85575 68.55319 62.70447
# Shear Modulus (GPa) = 39.94248 46.15717 43.04983
#
# Velocity S-wave (km/s) = 3.99219 4.29154 4.14456
# Velocity P-wave (km/s) = 6.62844 7.20486 6.92265
#
# Compressibility (1/GPa) = 0.01758837
#
# Stress axis : x y z
#
# Youngs Moduli (GPa) = 103.15160 102.16649 107.86051
#
# Poissons Ratio (x) = 0.01143 0.32324
# Poissons Ratio (y) = 0.01154 0.26684
# Poissons Ratio (z) = 0.30913 0.25275
#
# Static dielectric constant tensor:
#      x y z
#    x 2.030180 0.067960 -0.010840 
#    y 0.067960 2.077330 0.026490 
#    z -0.010840 0.026490 2.043610 
# 
# From -- ./inp_files/380831.got.cif
#   From: 2010.05.17/outbox.cif.g08.bks.cpg/sg2_191_cif.got.tgz:380831.got - 2010.06.03 11:33:40.
