data_PCOD9110721
_publ_section_title
;
Structure prediction by ZEFSAII (Michael W. Deem and Ramdas Pophale) SiO2 
 PCOD9110721
Probable space group: P -1
;
_chemical_formula_sum "Si O2"
_cell_formula_units_Z 16
_cell_length_a 11.623690
_cell_length_b 14.483690
_cell_length_c 15.732972
_cell_angle_alpha 152.590936
_cell_angle_beta 143.734103
_cell_angle_gamma 52.937771
_cell_volume 656.121347
_symmetry_space_group_name_H-M "P -1"
_symmetry_group_IT_number 2
_symmetry_cell_setting 'triclinic'
loop_
_space_group_symop_operation_xyz
x,y,z
-x,-y,-z
loop_
_atom_site_type_symbol
_atom_site_label
_atom_site_fract_x
_atom_site_fract_y
_atom_site_fract_z
Si Si1 0.986809 0.063492 0.814253
Si Si2 0.105442 0.345676 0.694357
Si Si3 0.641380 0.237490 0.741432
Si Si4 0.067551 0.847070 0.839208
Si Si5 0.820868 0.438980 0.467429
Si Si6 0.532296 0.186738 0.445786
Si Si7 0.351209 0.336448 0.149193
Si Si8 0.021831 0.729227 0.245984
O O1 0.868873 0.221168 0.854534
O O2 0.891255 0.852675 0.522336
O O3 0.965690 0.978657 0.828494
O O4 0.236944 0.200724 0.053499
O O5 0.944994 0.425324 0.614262
O O6 0.030243 0.286270 0.698175
O O7 0.326526 0.561596 0.013476
O O8 0.556302 0.266832 0.623336
O O9 0.500000 0.000000 0.500000
O O10 0.118103 0.698199 0.678477
O O11 0.908268 0.684482 0.680833
O O12 0.298237 0.002850 0.140770
O O13 0.570294 0.328998 0.246491
O O14 0.587614 0.402068 0.596085
O O15 0.727749 0.113961 0.489054
O O16 0.163206 0.230397 0.880425
O O17 0.000000 0.500000 0.000000
#
# Coordination Sequence:
#
# PCOD9110721 Si02
#       8
#     2   2   2   2   2   2   2   2
#     4  11  27  44  70 107 138 183 238 281 353 411
#     4  11  24  45  70 101 143 179 232 295 339 417
#     4  12  25  46  71 100 142 188 234 289 345 415
#     4  10  25  46  66  98 141 182 232 289 338 425
#     4  10  25  45  67  99 139 183 233 284 353 404
#     4  11  23  43  66 100 140 178 230 291 345 412
#     4  11  23  42  65 103 133 177 233 282 346 409
#     4  10  20  42  65  97 142 171 226 281 345 407
#
# _framework density 24.385733999999999
#
# number of rings (size 3 to 8) (size 9 to 14) (size 15 to 20)
#    0.000    1.250    3.750    1.500    7.000    4.000 
#    0.000    0.000    0.000    0.000    0.000    0.000 
#    0.000    0.000    0.000    0.000    0.000    0.000 
#
# Total GULP energy -89558.004346 kJ/mol
# GULP energy per Si atom -5597.375272 kJ/mol
# Density = 2.433023 g / cm^3
# Si number density = 24.385734 Si / 1000 Ang^3
#
#
#
# Elastic Constant Matrix: (Units=GPa)
#
#
# Indices 1 2 3 4 5 6 
#
# 1 75.5930 5.1928 35.8650 -2.3408 -0.5114 -0.0150
# 2 5.1928 75.6060 25.4404 -10.3853 -13.1578 18.3319
# 3 35.8650 25.4404 137.3483 -2.0108 -14.0125 8.7093
# 4 -2.3408 -10.3853 -2.0108 40.1666 7.5684 3.7930
# 5 -0.5114 -13.1578 -14.0125 7.5684 43.5411 4.4901
# 6 -0.0150 18.3319 8.7093 3.7930 4.4901 13.1142
#
#
#
# Elastic Compliance Matrix: (Units=1/GPa)
#
#
# Indices 1 2 3 4 5 6 
#
# 1 0.015365 -0.001208 -0.004339 0.000279 -0.002171 0.005250
# 2 -0.001208 0.027476 -0.000700 0.009105 0.011056 -0.044364
# 3 -0.004339 -0.000700 0.009291 -0.000006 0.003384 -0.006355
# 4 0.000279 0.009105 -0.000006 0.029293 -0.000159 -0.021141
# 5 -0.002171 0.011056 0.003384 -0.000159 0.030290 -0.028030
# 6 0.005250 -0.044364 -0.006355 -0.021141 -0.028030 0.158206
#
#
# Mechanical properties :
#
#
# Convention : Reuss Voigt Hill
#
# Bulk Modulus (GPa) = 25.22647 46.83821 36.03234
# Shear Modulus (GPa) = 16.91321 34.16766 25.54044
#
# Velocity S-wave (km/s) = 2.63643 3.74723 3.23979
# Velocity P-wave (km/s) = 4.43113 6.16208 5.36685
#
# Compressibility (1/GPa) = 0.03964090
#
# Stress axis : x y z
#
# Youngs Moduli (GPa) = 65.08193 36.39507 107.62610
#
# Poissons Ratio (x) = 0.04395 0.46697
# Poissons Ratio (y) = 0.07860 0.07529
# Poissons Ratio (z) = 0.28238 0.02546
#
# Static dielectric constant tensor:
#      x y z
#    x 1.955630 -0.011120 0.023220 
#    y -0.011120 1.971810 0.034470 
#    z 0.023220 0.034470 1.949250 
# 
# From -- ./inp_files/522700.got.cif
#   From: 2010.05.17/outbox.cif.g08.bks.cpg/sg2_262_cif.got.tgz:522700.got - 2010.06.03 11:33:40.
