data_PCOD9110566
_publ_section_title
;
Structure prediction by ZEFSAII (Michael W. Deem and Ramdas Pophale) SiO2 
 PCOD9110566
Probable space group: P -1
;
_chemical_formula_sum "Si O2"
_cell_formula_units_Z 14
_cell_length_a 9.170152
_cell_length_b 19.811907
_cell_length_c 5.425162
_cell_angle_alpha 52.847932
_cell_angle_beta 54.138668
_cell_angle_gamma 49.103403
_cell_volume 563.372918
_symmetry_space_group_name_H-M "P -1"
_symmetry_group_IT_number 2
_symmetry_cell_setting 'triclinic'
loop_
_space_group_symop_operation_xyz
x,y,z
-x,-y,-z
loop_
_atom_site_type_symbol
_atom_site_label
_atom_site_fract_x
_atom_site_fract_y
_atom_site_fract_z
Si Si1 0.260884 0.546119 0.704494
Si Si2 0.813054 0.339866 0.961902
Si Si3 0.432085 0.804558 0.070357
Si Si4 0.733275 0.802437 0.161105
Si Si5 0.585388 0.030993 0.578069
Si Si6 0.588336 0.656646 0.865874
Si Si7 0.982511 0.057574 0.637956
O O1 0.500000 0.500000 0.500000
O O2 0.163746 0.601147 0.425739
O O3 0.203082 0.612024 0.860622
O O4 0.244643 0.451682 0.010097
O O5 0.024099 0.241193 0.966101
O O6 0.598995 0.338102 0.124978
O O7 0.631058 0.801386 0.003366
O O8 0.235394 0.849813 0.339687
O O9 0.370943 0.881847 0.742294
O O10 0.483666 0.704078 0.124536
O O11 0.589308 0.908089 0.186540
O O12 0.682856 0.723132 0.525128
O O13 0.500000 0.000000 0.500000
O O14 0.806327 0.939710 0.586624
O O15 0.000000 0.000000 0.500000
O O16 0.000000 0.000000 0.000000
#
# Coordination Sequence:
#
# PCOD9110566 Si02
#       7
#     2   2   2   2   2   2   2
#     4  10  23  46  72 101 137 182 232 273 334 414
#     4  11  26  44  71 103 139 181 228 278 340 404
#     4  10  23  42  64  96 133 173 227 279 336 405
#     4  11  25  43  65 105 138 172 231 285 339 404
#     4  10  23  43  64  93 134 176 226 283 333 406
#     4  10  24  43  69  95 138 182 220 284 336 401
#     4  10  20  42  64  89 124 172 217 262 333 396
#
# _framework density 24.850322999999999
#
# number of rings (size 3 to 8) (size 9 to 14) (size 15 to 20)
#    0.000    1.714    1.429    1.714   12.000    1.714 
#    2.571    0.000    0.000    0.000    0.000    0.000 
#    0.000    0.000    0.000    0.000    0.000    0.000 
#
# Total GULP energy -78142.691620 kJ/mol
# GULP energy per Si atom -5581.620830 kJ/mol
# Density = 2.479376 g / cm^3
# Si number density = 24.850323 Si / 1000 Ang^3
#
#
#
# Elastic Constant Matrix: (Units=GPa)
#
#
# Indices 1 2 3 4 5 6 
#
# 1 73.6855 25.8543 8.6745 13.8727 5.3661 -19.8593
# 2 25.8543 137.3657 20.4838 4.1309 16.8065 -7.1090
# 3 8.6745 20.4838 93.1463 7.7433 10.2546 -7.6130
# 4 13.8727 4.1309 7.7433 47.4501 -3.6870 13.6810
# 5 5.3661 16.8065 10.2546 -3.6870 44.6827 4.9850
# 6 -19.8593 -7.1090 -7.6130 13.6810 4.9850 54.5954
#
#
#
# Elastic Compliance Matrix: (Units=1/GPa)
#
#
# Indices 1 2 3 4 5 6 
#
# 1 0.018479 -0.002491 0.000548 -0.008040 -0.003049 0.008767
# 2 -0.002491 0.008265 -0.001282 -0.000048 -0.002546 0.000236
# 3 0.000548 -0.001282 0.011740 -0.002952 -0.002819 0.002667
# 4 -0.008040 -0.000048 -0.002952 0.027385 0.005111 -0.010672
# 5 -0.003049 -0.002546 -0.002819 0.005111 0.025378 -0.005432
# 6 0.008767 0.000236 0.002667 -0.010672 -0.005432 0.025078
#
#
# Mechanical properties :
#
#
# Convention : Reuss Voigt Hill
#
# Bulk Modulus (GPa) = 31.21744 46.02473 38.62108
# Shear Modulus (GPa) = 37.46548 45.95796 41.71172
#
# Velocity S-wave (km/s) = 3.88705 4.30512 4.10142
# Velocity P-wave (km/s) = 5.72145 6.57823 6.16474
#
# Compressibility (1/GPa) = 0.03203338
#
# Stress axis : x y z
#
# Youngs Moduli (GPa) = 54.11428 120.99265 85.17544
#
# Poissons Ratio (x) = 0.30141 -0.04663
# Poissons Ratio (y) = 0.13481 0.10920
# Poissons Ratio (z) = -0.02963 0.15512
#
# Static dielectric constant tensor:
#      x y z
#    x 1.924240 -0.029540 0.016990 
#    y -0.029540 1.972280 -0.019660 
#    z 0.016990 -0.019660 2.096120 
# 
# From -- ./inp_files/46486.got.cif
#   From: 2010.05.17/outbox.cif.g08.bks.cpg/sg2_24_cif.got.tgz:46486.got - 2010.06.03 11:33:40.
