data_PCOD9110157
_publ_section_title
;
Structure prediction by ZEFSAII (Michael W. Deem and Ramdas Pophale) SiO2 
 PCOD9110157
Probable space group: P -1
;
_chemical_formula_sum "Si O2"
_cell_formula_units_Z 14
_cell_length_a 12.238561
_cell_length_b 9.043774
_cell_length_c 9.136443
_cell_angle_alpha 125.037715
_cell_angle_beta 54.716205
_cell_angle_gamma 132.862996
_cell_volume 576.654985
_symmetry_space_group_name_H-M "P -1"
_symmetry_group_IT_number 2
_symmetry_cell_setting 'triclinic'
loop_
_space_group_symop_operation_xyz
x,y,z
-x,-y,-z
loop_
_atom_site_type_symbol
_atom_site_label
_atom_site_fract_x
_atom_site_fract_y
_atom_site_fract_z
Si Si1 0.519328 0.960347 0.628003
Si Si2 0.906462 0.272043 0.829471
Si Si3 0.790305 0.900405 0.478833
Si Si4 0.753143 0.486901 0.406562
Si Si5 0.939376 0.014302 0.893206
Si Si6 0.611677 0.611360 0.839231
Si Si7 0.403647 0.766951 0.009585
O O1 0.650372 0.899759 0.505561
O O2 0.358702 0.755458 0.691214
O O3 0.500000 0.000000 0.500000
O O4 0.578495 0.169961 0.797043
O O5 0.941886 0.217980 0.933665
O O6 0.776209 0.336735 0.956406
O O7 0.063818 0.429328 0.707680
O O8 0.831132 0.047216 0.673867
O O9 0.742934 0.664769 0.422975
O O10 0.944021 0.006685 0.319855
O O11 0.688563 0.503457 0.625192
O O12 0.760358 0.826588 0.907387
O O13 0.000000 0.000000 0.000000
O O14 0.500000 0.500000 0.000000
O O15 0.499117 0.652001 0.843609
O O16 0.500000 0.000000 0.000000
#
# Coordination Sequence:
#
# PCOD9110157 Si02
#       7
#     2   2   2   2   2   2   2
#     4  11  25  41  64  98 136 173 219 274 331 391
#     4  10  20  45  71  95 128 184 222 270 328 404
#     4  10  20  41  70  91 126 180 225 267 318 404
#     4  11  21  44  72  96 125 178 238 260 317 415
#     4  11  22  38  64 100 133 164 218 280 337 377
#     4  12  24  42  68 101 135 172 220 280 336 387
#     4  11  23  45  69  92 138 177 213 272 341 392
#
# _framework density 24.277951000000002
#
# number of rings (size 3 to 8) (size 9 to 14) (size 15 to 20)
#    0.000    1.143    4.286    3.000    4.000    0.000 
#    5.143    2.857    0.000    0.000    0.000    0.000 
#    0.000    0.000    0.000    0.000    0.000    0.000 
#
# Total GULP energy -78341.287166 kJ/mol
# GULP energy per Si atom -5595.806226 kJ/mol
# Density = 2.422269 g / cm^3
# Si number density = 24.277951 Si / 1000 Ang^3
#
#
#
# Elastic Constant Matrix: (Units=GPa)
#
#
# Indices 1 2 3 4 5 6 
#
# 1 166.7275 55.9376 57.5271 -21.9864 -7.6644 22.4321
# 2 55.9376 125.2531 45.4015 -28.3824 -8.8420 28.1154
# 3 57.5271 45.4015 112.0774 -24.5509 -1.0033 3.0667
# 4 -21.9864 -28.3824 -24.5509 47.8135 7.9171 -3.6187
# 5 -7.6644 -8.8420 -1.0033 7.9171 46.0865 -17.0246
# 6 22.4321 28.1154 3.0667 -3.6187 -17.0246 35.4179
#
#
#
# Elastic Compliance Matrix: (Units=1/GPa)
#
#
# Indices 1 2 3 4 5 6 
#
# 1 0.008272 -0.001371 -0.003351 0.001068 -0.000644 -0.004060
# 2 -0.001371 0.012899 -0.003173 0.005039 -0.002259 -0.009667
# 3 -0.003351 -0.003173 0.012548 0.003317 -0.000030 0.003879
# 4 0.001068 0.005039 0.003317 0.026587 -0.005084 -0.004691
# 5 -0.000644 -0.002259 -0.000030 -0.005084 0.027543 0.014924
# 6 -0.004060 -0.009667 0.003879 -0.004691 0.014924 0.044838
#
#
# Mechanical properties :
#
#
# Convention : Reuss Voigt Hill
#
# Bulk Modulus (GPa) = 55.77927 80.19894 67.98910
# Shear Modulus (GPa) = 32.37207 42.20968 37.29088
#
# Velocity S-wave (km/s) = 3.65553 4.17418 3.92343
# Velocity P-wave (km/s) = 6.39080 7.50580 6.97063
#
# Compressibility (1/GPa) = 0.01792781
#
# Stress axis : x y z
#
# Youngs Moduli (GPa) = 120.89469 77.52603 79.69464
#
# Poissons Ratio (x) = 0.10632 0.26704
# Poissons Ratio (y) = 0.16580 0.25288
# Poissons Ratio (z) = 0.40509 0.24600
#
# Static dielectric constant tensor:
#      x y z
#    x 1.960980 -0.028200 0.038640 
#    y -0.028200 1.920680 0.016510 
#    z 0.038640 0.016510 2.021970 
# 
# From -- ./inp_files/245379.got.cif
#   From: 2010.05.17/outbox.cif.g08.bks.cpg/sg2_123_cif.got.tgz:245379.got - 2010.06.03 11:33:40.
