data_PCOD9110728
_publ_section_title
;
Structure prediction by ZEFSAII (Michael W. Deem and Ramdas Pophale) SiO2 
 PCOD9110728
Probable space group: P -1
;
_chemical_formula_sum "Si O2"
_cell_formula_units_Z 16
_cell_length_a 8.776789
_cell_length_b 14.527792
_cell_length_c 9.009871
_cell_angle_alpha 137.146515
_cell_angle_beta 117.921081
_cell_angle_gamma 74.949799
_cell_volume 683.677268
_symmetry_space_group_name_H-M "P -1"
_symmetry_group_IT_number 2
_symmetry_cell_setting 'triclinic'
loop_
_space_group_symop_operation_xyz
x,y,z
-x,-y,-z
loop_
_atom_site_type_symbol
_atom_site_label
_atom_site_fract_x
_atom_site_fract_y
_atom_site_fract_z
Si Si1 0.833869 0.531645 0.319605
Si Si2 0.880635 0.374531 0.869569
Si Si3 0.822707 0.992646 0.817239
Si Si4 0.519125 0.456486 0.713078
Si Si5 0.828362 0.294664 0.263517
Si Si6 0.550885 0.690230 0.794634
Si Si7 0.003323 0.103235 0.487084
Si Si8 0.319605 0.052568 0.000966
O O1 0.633919 0.559815 0.253708
O O2 0.826817 0.441892 0.359540
O O3 0.975996 0.668236 0.535304
O O4 0.880309 0.418873 0.092227
O O5 0.681693 0.379133 0.733612
O O6 0.968534 0.244949 0.709681
O O7 0.000000 0.500000 0.000000
O O8 0.839206 0.919703 0.580920
O O9 0.691862 0.918088 0.793168
O O10 0.806567 0.155528 0.991709
O O11 0.000000 0.000000 0.000000
O O12 0.584161 0.612569 0.870940
O O13 0.434793 0.396966 0.450114
O O14 0.649601 0.279442 0.256775
O O15 0.680797 0.824508 0.970801
O O16 0.000000 0.000000 0.500000
O O17 0.836504 0.059765 0.253858
O O18 0.500000 0.000000 0.000000
#
# Coordination Sequence:
#
# PCOD9110728 Si02
#       8
#     2   2   2   2   2   2   2   2
#     4  10  23  39  70  94 128 176 217 288 335 407
#     4  12  26  42  67  92 140 178 225 275 345 407
#     4  10  23  39  67  96 135 172 232 274 331 412
#     4  10  23  40  64  99 130 172 226 281 340 405
#     4  10  20  42  66 100 128 163 230 277 343 396
#     4  10  21  39  67  98 133 167 220 285 341 399
#     4  11  27  47  67 100 142 185 228 282 343 416
#     4  11  22  41  73  98 135 177 225 284 343 400
#
# _framework density 23.402854000000001
#
# number of rings (size 3 to 8) (size 9 to 14) (size 15 to 20)
#    0.000    1.500    1.250    2.625   10.500    1.000 
#    0.000    1.875    0.000    0.750    0.000    0.000 
#    0.000    0.000    0.000    0.000    0.000    0.000 
#
# Total GULP energy -89195.714107 kJ/mol
# GULP energy per Si atom -5574.732132 kJ/mol
# Density = 2.334959 g / cm^3
# Si number density = 23.402854 Si / 1000 Ang^3
#
#
#
# Elastic Constant Matrix: (Units=GPa)
#
#
# Indices 1 2 3 4 5 6 
#
# 1 152.7957 34.2294 58.1536 12.3012 -37.4416 11.7441
# 2 34.2294 73.4665 24.2460 22.8794 -12.4093 0.1386
# 3 58.1536 24.2460 99.9639 23.6102 -30.0235 3.3858
# 4 12.3012 22.8794 23.6102 38.9832 -1.2222 -3.0355
# 5 -37.4416 -12.4093 -30.0235 -1.2222 41.6909 1.2972
# 6 11.7441 0.1386 3.3858 -3.0355 1.2972 34.2315
#
#
#
# Elastic Compliance Matrix: (Units=1/GPa)
#
#
# Indices 1 2 3 4 5 6 
#
# 1 0.010137 -0.002703 -0.003441 0.000399 0.005937 -0.003316
# 2 -0.002703 0.018402 0.000430 -0.010127 0.003069 -0.000204
# 3 -0.003441 0.000430 0.016808 -0.009194 0.008924 -0.001637
# 4 0.000399 -0.010127 -0.009194 0.037121 -0.008326 0.004421
# 5 0.005937 0.003069 0.008924 -0.008326 0.036570 -0.005056
# 6 -0.003316 -0.000204 -0.001637 0.004421 -0.005056 0.031097
#
#
# Mechanical properties :
#
#
# Convention : Reuss Voigt Hill
#
# Bulk Modulus (GPa) = 29.48215 62.16490 45.82352
# Shear Modulus (GPa) = 28.92353 36.95426 32.93889
#
# Velocity S-wave (km/s) = 3.51935 3.97804 3.75570
# Velocity P-wave (km/s) = 5.39809 6.90799 6.19918
#
# Compressibility (1/GPa) = 0.03391883
#
# Stress axis : x y z
#
# Youngs Moduli (GPa) = 98.64706 54.34274 59.49526
#
# Poissons Ratio (x) = 0.14688 0.20470
# Poissons Ratio (y) = 0.26664 -0.02555
# Poissons Ratio (z) = 0.33941 -0.02334
#
# Static dielectric constant tensor:
#      x y z
#    x 1.991070 0.022560 0.018720 
#    y 0.022560 2.039840 0.030520 
#    z 0.018720 0.030520 1.900990 
# 
# From -- ./inp_files/209564.got.cif
#   From: 2010.05.17/outbox.cif.g08.bks.cpg/sg2_105_cif.got.tgz:209564.got - 2010.06.03 11:33:40.
