data_PCOD9110666
_publ_section_title
;
Structure prediction by ZEFSAII (Michael W. Deem and Ramdas Pophale) SiO2 
 PCOD9110666
Probable space group: P -1
;
_chemical_formula_sum "Si O2"
_cell_formula_units_Z 14
_cell_length_a 15.427094
_cell_length_b 9.138994
_cell_length_c 6.128669
_cell_angle_alpha 78.547396
_cell_angle_beta 117.904565
_cell_angle_gamma 124.918431
_cell_volume 623.257199
_symmetry_space_group_name_H-M "P -1"
_symmetry_group_IT_number 2
_symmetry_cell_setting 'triclinic'
loop_
_space_group_symop_operation_xyz
x,y,z
-x,-y,-z
loop_
_atom_site_type_symbol
_atom_site_label
_atom_site_fract_x
_atom_site_fract_y
_atom_site_fract_z
Si Si1 0.558352 0.148976 0.326258
Si Si2 0.225832 0.457898 0.512673
Si Si3 0.809754 0.860514 0.684916
Si Si4 0.651611 0.958132 0.209706
Si Si5 0.074297 0.620337 0.255075
Si Si6 0.022132 0.214375 0.598825
Si Si7 0.841478 0.073720 0.047826
O O1 0.644807 0.360945 0.417689
O O2 0.500000 0.000000 0.500000
O O3 0.629543 0.082494 0.296796
O O4 0.463417 0.142523 0.050237
O O5 0.203969 0.325729 0.327083
O O6 0.150231 0.543635 0.427799
O O7 0.160901 0.312120 0.678447
O O8 0.702478 0.859354 0.435922
O O9 0.936006 0.027780 0.687021
O O10 0.807462 0.898019 0.926113
O O11 0.753877 0.065945 0.123158
O O12 0.002204 0.651144 0.340760
O O13 0.155891 0.811496 0.183334
O O14 0.000000 0.500000 0.000000
O O15 0.960176 0.162374 0.302057
#
# Coordination Sequence:
#
# PCOD9110666 Si02
#       7
#     2   2   2   2   2   2   2
#     4  11  24  44  69  92 121 162 219 271 310 369
#     4  12  23  40  64  95 129 167 211 259 320 374
#     4  10  23  41  62  95 133 166 204 256 317 387
#     4  10  22  44  68  89 122 169 210 263 324 365
#     4  11  22  37  62  96 127 163 214 262 302 378
#     4  10  22  41  63  92 132 170 206 254 317 379
#     4  10  20  42  65  87 133 169 204 262 315 373
#
# _framework density 22.462634999999999
#
# number of rings (size 3 to 8) (size 9 to 14) (size 15 to 20)
#    0.000    1.429    1.429    5.143    2.000    1.143 
#    5.143    2.857    0.000    0.000    0.000    0.000 
#    0.000    0.000    0.000    0.000    0.000    0.000 
#
# Total GULP energy -77951.970631 kJ/mol
# GULP energy per Si atom -5567.997902 kJ/mol
# Density = 2.241151 g / cm^3
# Si number density = 22.462635 Si / 1000 Ang^3
#
#
#
# Elastic Constant Matrix: (Units=GPa)
#
#
# Indices 1 2 3 4 5 6 
#
# 1 110.9915 48.3906 39.3040 7.1373 -23.9508 -2.4784
# 2 48.3906 124.2498 42.7220 20.4540 -10.3734 2.7174
# 3 39.3040 42.7220 97.1096 1.4798 -8.7803 3.6702
# 4 7.1373 20.4540 1.4798 44.8665 -4.3554 -2.5896
# 5 -23.9508 -10.3734 -8.7803 -4.3554 31.4386 11.3562
# 6 -2.4784 2.7174 3.6702 -2.5896 11.3562 31.3164
#
#
#
# Elastic Compliance Matrix: (Units=1/GPa)
#
#
# Indices 1 2 3 4 5 6 
#
# 1 0.013461 -0.003469 -0.003075 0.000314 0.008817 -0.001445
# 2 -0.003469 0.011378 -0.003491 -0.004596 -0.000064 -0.001210
# 3 -0.003075 -0.003491 0.013214 0.001647 0.001050 -0.001734
# 4 0.000314 -0.004596 0.001647 0.024565 0.002036 0.001524
# 5 0.008817 -0.000064 0.001050 0.002036 0.044659 -0.015446
# 6 -0.001445 -0.001210 -0.001734 0.001524 -0.015446 0.037853
#
#
# Mechanical properties :
#
#
# Convention : Reuss Voigt Hill
#
# Bulk Modulus (GPa) = 55.61359 65.90932 60.76145
# Shear Modulus (GPa) = 29.20662 34.98659 32.09660
#
# Velocity S-wave (km/s) = 3.60978 3.95086 3.78417
# Velocity P-wave (km/s) = 6.49508 7.08645 6.79720
#
# Compressibility (1/GPa) = 0.01798122
#
# Stress axis : x y z
#
# Youngs Moduli (GPa) = 74.28654 87.89174 75.68010
#
# Poissons Ratio (x) = 0.30493 0.23272
# Poissons Ratio (y) = 0.25773 0.26422
# Poissons Ratio (z) = 0.22843 0.30685
#
# Static dielectric constant tensor:
#      x y z
#    x 1.879380 -0.007830 0.062130 
#    y -0.007830 2.039940 0.010670 
#    z 0.062130 0.010670 1.895260 
# 
# From -- ./inp_files/90591.got.cif
#   From: 2010.05.17/outbox.cif.g08.bks.cpg/sg2_46_cif.got.tgz:90591.got - 2010.06.03 11:33:40.
