data_PCOD9110627
_publ_section_title
;
Structure prediction by ZEFSAII (Michael W. Deem and Ramdas Pophale) SiO2 
 PCOD9110627
Probable space group: P -1
;
_chemical_formula_sum "Si O2"
_cell_formula_units_Z 16
_cell_length_a 7.767093
_cell_length_b 21.305174
_cell_length_c 14.181288
_cell_angle_alpha 149.320745
_cell_angle_beta 56.378009
_cell_angle_gamma 142.861203
_cell_volume 653.299690
_symmetry_space_group_name_H-M "P -1"
_symmetry_group_IT_number 2
_symmetry_cell_setting 'triclinic'
loop_
_space_group_symop_operation_xyz
x,y,z
-x,-y,-z
loop_
_atom_site_type_symbol
_atom_site_label
_atom_site_fract_x
_atom_site_fract_y
_atom_site_fract_z
Si Si1 0.278294 0.543036 0.520207
Si Si2 0.900254 0.387785 0.059484
Si Si3 0.422383 0.019738 0.407419
Si Si4 0.668783 0.677098 0.889835
Si Si5 0.585477 0.474358 0.038925
Si Si6 0.245741 0.082978 0.213498
Si Si7 0.222776 0.690160 0.494834
Si Si8 0.946743 0.128356 0.504539
O O1 0.387802 0.484129 0.342255
O O2 0.575042 0.768386 0.734189
O O3 0.000000 0.500000 0.500000
O O4 0.107341 0.409579 0.490892
O O5 0.618980 0.360674 0.099076
O O6 0.096160 0.505910 0.247998
O O7 0.750469 0.184097 0.836138
O O8 0.153686 0.507206 0.051122
O O9 0.179176 0.982268 0.500977
O O10 0.593289 0.161749 0.453672
O O11 0.699081 0.110570 0.512799
O O12 0.673676 0.686081 0.014796
O O13 0.012122 0.865940 0.986443
O O14 0.756083 0.657932 0.282402
O O15 0.500000 0.500000 0.000000
O O16 0.522492 0.187497 0.340816
O O17 0.013586 0.067501 0.321310
#
# Coordination Sequence:
#
# PCOD9110627 Si02
#       8
#     2   2   2   2   2   2   2   2
#     4  10  26  49  69  96 141 185 233 292 338 408
#     4  11  25  43  67 107 143 178 224 287 341 418
#     4  10  23  41  66 101 141 177 221 282 340 412
#     4  12  25  44  74  99 137 189 230 278 360 405
#     4  11  24  40  71 105 145 179 227 284 346 416
#     4  11  24  43  70 100 132 180 237 282 338 411
#     4  11  26  43  70  96 137 185 234 278 348 400
#     4  10  20  42  64  96 147 174 212 284 345 404
#
# _framework density 24.491059
#
# number of rings (size 3 to 8) (size 9 to 14) (size 15 to 20)
#    0.000    1.250    2.500    1.875    7.000    4.000 
#    0.000    1.250    0.000    0.000    0.000    0.000 
#    0.000    0.000    0.000    0.000    0.000    0.000 
#
# Total GULP energy -89315.549635 kJ/mol
# GULP energy per Si atom -5582.221852 kJ/mol
# Density = 2.443532 g / cm^3
# Si number density = 24.491059 Si / 1000 Ang^3
#
#
#
# Elastic Constant Matrix: (Units=GPa)
#
#
# Indices 1 2 3 4 5 6 
#
# 1 35.0470 0.4055 -2.3871 6.6066 -2.1917 27.9935
# 2 0.4055 179.6007 6.9494 17.4713 -19.8060 3.6429
# 3 -2.3871 6.9494 82.6660 7.3322 -3.1978 10.5007
# 4 6.6066 17.4713 7.3322 37.2889 -8.2759 5.5128
# 5 -2.1917 -19.8060 -3.1978 -8.2759 6.3099 19.8900
# 6 27.9935 3.6429 10.5007 5.5128 19.8900 -3.0463
#
#
#
# Elastic Compliance Matrix: (Units=1/GPa)
#
#
# Indices 1 2 3 4 5 6 
#
# 1 0.024397 -0.002449 0.000008 -0.010655 -0.030116 0.005372
# 2 -0.002449 0.006143 -0.000730 -0.001997 0.003825 0.003686
# 3 0.000008 -0.000730 0.012079 -0.003378 -0.005100 0.001428
# 4 -0.010655 -0.001997 -0.003378 0.031448 0.009408 0.006395
# 5 -0.030116 0.003825 -0.005100 0.009408 0.047702 0.038728
# 6 0.005372 0.003686 0.001428 0.006395 0.038728 -0.005134
#
#
# Mechanical properties :
#
#
# Convention : Reuss Voigt Hill
#
# Bulk Modulus (GPa) = 27.56605 34.13883 30.85244
# Shear Modulus (GPa) = 37.01816 27.60023 32.30919
#
# Velocity S-wave (km/s) = 3.89202 3.36065 3.63605
# Velocity P-wave (km/s) = 5.61044 5.38778 5.50024
#
# Compressibility (1/GPa) = 0.03627651
#
# Stress axis : x y z
#
# Youngs Moduli (GPa) = 40.98937 162.78716 82.78598
#
# Poissons Ratio (x) = 0.39867 -0.00067
# Poissons Ratio (y) = 0.10038 0.06045
# Poissons Ratio (z) = -0.00033 0.11887
#
# Static dielectric constant tensor:
#      x y z
#    x 2.525200 -0.239420 -0.094830 
#    y -0.239420 2.171520 0.049020 
#    z -0.094830 0.049020 1.966100 
# 
# From -- ./inp_files/508735.got.cif
#   From: 2010.05.17/outbox.cif.g08.bks.cpg/sg2_255_cif.got.tgz:508735.got - 2010.06.03 11:33:40.
