data_PCOD9110649
_publ_section_title
;
Structure prediction by ZEFSAII (Michael W. Deem and Ramdas Pophale) SiO2 
 PCOD9110649
Probable space group: P -1
;
_chemical_formula_sum "Si O2"
_cell_formula_units_Z 16
_cell_length_a 13.734176
_cell_length_b 7.710756
_cell_length_c 8.983945
_cell_angle_alpha 93.838954
_cell_angle_beta 111.343269
_cell_angle_gamma 51.651048
_cell_volume 678.330813
_symmetry_space_group_name_H-M "P -1"
_symmetry_group_IT_number 2
_symmetry_cell_setting 'triclinic'
loop_
_space_group_symop_operation_xyz
x,y,z
-x,-y,-z
loop_
_atom_site_type_symbol
_atom_site_label
_atom_site_fract_x
_atom_site_fract_y
_atom_site_fract_z
Si Si1 0.222376 0.638178 0.798045
Si Si2 0.694565 0.166838 0.666974
Si Si3 0.548259 0.700688 0.633773
Si Si4 0.503413 0.198515 0.054395
Si Si5 0.773732 0.014939 0.035147
Si Si6 0.132351 0.825456 0.460513
Si Si7 0.839136 0.519819 0.766192
Si Si8 0.068574 0.512994 0.855566
O O1 0.243732 0.653316 0.637358
O O2 0.166095 0.871110 0.859588
O O3 0.000000 0.000000 0.500000
O O4 0.120677 0.585985 0.763123
O O5 0.622496 0.433335 0.661768
O O6 0.570644 0.176746 0.546519
O O7 0.758620 0.048194 0.852604
O O8 0.807065 0.081604 0.596800
O O9 0.479530 0.802726 0.760414
O O10 0.675755 0.694847 0.687329
O O11 0.360800 0.435415 0.943261
O O12 0.624350 0.160405 0.031726
O O13 0.500000 0.000000 0.000000
O O14 0.849320 0.757266 0.108135
O O15 0.117500 0.681554 0.330400
O O16 0.895685 0.435987 0.961965
O O17 0.914102 0.614309 0.761137
#
# Coordination Sequence:
#
# PCOD9110649 Si02
#       8
#     2   2   2   2   2   2   2   2
#     4  12  24  44  71 103 145 183 233 295 346 417
#     4  10  23  41  70 101 142 179 232 294 344 418
#     4  10  20  42  65 100 139 182 230 284 353 409
#     4  12  23  42  67 106 146 179 236 284 349 426
#     4  12  24  43  75 106 139 186 235 289 355 419
#     4  11  25  45  70 107 141 188 238 287 357 423
#     4  10  22  44  67  92 145 178 229 295 339 415
#     4  11  24  46  70 105 135 190 238 289 353 417
#
# _framework density 23.587313000000002
#
# number of rings (size 3 to 8) (size 9 to 14) (size 15 to 20)
#    0.000    1.000    3.750    2.625    5.250    2.500 
#    2.250    6.250    0.000    0.000    0.000    0.000 
#    0.000    0.000    0.000    0.000    0.000    0.000 
#
# Total GULP energy -89608.059919 kJ/mol
# GULP energy per Si atom -5600.503745 kJ/mol
# Density = 2.353363 g / cm^3
# Si number density = 23.587313 Si / 1000 Ang^3
#
#
#
# Elastic Constant Matrix: (Units=GPa)
#
#
# Indices 1 2 3 4 5 6 
#
# 1 174.8409 34.5946 52.0680 -9.3477 -2.4428 -12.6007
# 2 34.5946 83.6041 36.8783 12.9012 -4.4351 12.6568
# 3 52.0680 36.8783 110.1855 2.5326 10.6071 6.7362
# 4 -9.3477 12.9012 2.5326 21.6278 -3.4803 -7.8687
# 5 -2.4428 -4.4351 10.6071 -3.4803 37.7184 0.3038
# 6 -12.6007 12.6568 6.7362 -7.8687 0.3038 39.4799
#
#
#
# Elastic Compliance Matrix: (Units=1/GPa)
#
#
# Indices 1 2 3 4 5 6 
#
# 1 0.008614 -0.004441 -0.003380 0.009468 0.001807 0.006623
# 2 -0.004441 0.019640 -0.003602 -0.016763 0.001572 -0.010452
# 3 -0.003380 -0.003602 0.012506 -0.002388 -0.004360 -0.002500
# 4 0.009468 -0.016763 -0.002388 0.069749 0.005567 0.022662
# 5 0.001807 0.001572 -0.004360 0.005567 0.028540 0.001706
# 6 0.006623 -0.010452 -0.002500 0.022662 0.001706 0.035724
#
#
# Mechanical properties :
#
#
# Convention : Reuss Voigt Hill
#
# Bulk Modulus (GPa) = 55.82477 68.41248 62.11863
# Shear Modulus (GPa) = 24.55912 36.10454 30.33183
#
# Velocity S-wave (km/s) = 3.23026 3.91663 3.58989
# Velocity P-wave (km/s) = 6.13445 7.03706 6.60120
#
# Compressibility (1/GPa) = 0.01791319
#
# Stress axis : x y z
#
# Youngs Moduli (GPa) = 116.09498 50.91623 79.96174
#
# Poissons Ratio (x) = 0.22612 0.27030
# Poissons Ratio (y) = 0.51557 0.28801
# Poissons Ratio (z) = 0.39245 0.18339
#
# Static dielectric constant tensor:
#      x y z
#    x 1.904510 -0.025430 0.043260 
#    y -0.025430 1.933380 -0.014680 
#    z 0.043260 -0.014680 1.857470 
# 
# From -- ./inp_files/303726.got.cif
#   From: 2010.05.17/outbox.cif.g08.bks.cpg/sg2_152_cif.got.tgz:303726.got - 2010.06.03 11:33:40.
