data_PCOD9110914
_publ_section_title
;
Structure prediction by ZEFSAII (Michael W. Deem and Ramdas Pophale) SiO2 
 PCOD9110914
Probable space group: P -1
;
_chemical_formula_sum "Si O2"
_cell_formula_units_Z 16
_cell_length_a 9.782345
_cell_length_b 11.947710
_cell_length_c 11.151773
_cell_angle_alpha 49.531838
_cell_angle_beta 57.320033
_cell_angle_gamma 56.012468
_cell_volume 789.088056
_symmetry_space_group_name_H-M "P -1"
_symmetry_group_IT_number 2
_symmetry_cell_setting 'triclinic'
loop_
_space_group_symop_operation_xyz
x,y,z
-x,-y,-z
loop_
_atom_site_type_symbol
_atom_site_label
_atom_site_fract_x
_atom_site_fract_y
_atom_site_fract_z
Si Si1 0.343375 0.656009 0.992441
Si Si2 0.003181 0.631374 0.069619
Si Si3 0.571678 0.352843 0.480241
Si Si4 0.967935 0.296399 0.268308
Si Si5 0.511347 0.219146 0.377080
Si Si6 0.291802 0.119565 0.377941
Si Si7 0.520050 0.170344 0.017700
Si Si8 0.635721 0.813424 0.162751
O O1 0.367978 0.769750 0.797675
O O2 0.364530 0.731937 0.055978
O O3 0.500000 0.500000 0.000000
O O4 0.167006 0.627090 0.072235
O O5 0.004593 0.457394 0.164829
O O6 0.830188 0.716081 0.165460
O O7 0.008067 0.717703 0.878629
O O8 0.500000 0.500000 0.500000
O O9 0.773790 0.314011 0.386678
O O10 0.489303 0.360009 0.381753
O O11 0.509248 0.221099 0.665262
O O12 0.101772 0.167788 0.378603
O O13 0.334414 0.209735 0.410733
O O14 0.616969 0.059335 0.504779
O O15 0.398594 0.161264 0.190758
O O16 0.618751 0.994149 0.052522
O O17 0.399310 0.242573 0.913405
#
# Coordination Sequence:
#
# PCOD9110914 Si02
#       8
#     2   2   2   2   2   2   2   2
#     4  11  24  41  69  97 125 167 222 268 315 380
#     4  11  22  40  66  96 127 169 219 267 307 388
#     4  12  24  41  63  93 134 168 208 267 325 379
#     4  11  23  40  65  97 126 168 222 263 314 379
#     4  10  22  40  65  93 126 168 210 262 325 375
#     4  10  20  42  67  91 127 168 218 263 314 380
#     4  10  22  41  65  95 130 174 207 262 325 382
#     4  11  23  42  65  93 136 170 210 259 329 383
#
# _framework density 20.276571000000001
#
# number of rings (size 3 to 8) (size 9 to 14) (size 15 to 20)
#    0.000    1.250    5.000    1.500    3.500    1.000 
#    4.500    1.875    0.000    0.000    0.000    0.000 
#    0.000    0.000    0.000    0.000    0.000    0.000 
#
# Total GULP energy -89256.680669 kJ/mol
# GULP energy per Si atom -5578.542542 kJ/mol
# Density = 2.023042 g / cm^3
# Si number density = 20.276571 Si / 1000 Ang^3
#
#
#
# Elastic Constant Matrix: (Units=GPa)
#
#
# Indices 1 2 3 4 5 6 
#
# 1 161.8528 54.3314 36.4693 3.1797 -9.0427 14.5540
# 2 54.3314 53.3822 4.6288 3.7744 2.8696 21.5488
# 3 36.4693 4.6288 69.1565 6.2274 -6.8345 -11.9870
# 4 3.1797 3.7744 6.2274 21.0731 0.0672 1.7950
# 5 -9.0427 2.8696 -6.8345 0.0672 29.5082 -1.7146
# 6 14.5540 21.5488 -11.9870 1.7950 -1.7146 32.9955
#
#
#
# Elastic Compliance Matrix: (Units=1/GPa)
#
#
# Indices 1 2 3 4 5 6 
#
# 1 0.011296 -0.011845 -0.004774 0.001722 0.003568 0.001110
# 2 -0.011845 0.040334 -0.000803 -0.003323 -0.008991 -0.021695
# 3 -0.004774 -0.000803 0.019720 -0.005854 0.003795 0.010310
# 4 0.001722 -0.003323 -0.005854 0.049817 -0.000820 -0.003469
# 5 0.003568 -0.008991 0.003795 -0.000820 0.037182 0.007654
# 6 0.001110 -0.021695 0.010310 -0.003469 0.007654 0.048318
#
#
# Mechanical properties :
#
#
# Convention : Reuss Voigt Hill
#
# Bulk Modulus (GPa) = 27.39242 52.80562 40.09902
# Shear Modulus (GPa) = 19.70989 29.31284 24.51136
#
# Velocity S-wave (km/s) = 3.12116 3.80630 3.48063
# Velocity P-wave (km/s) = 5.15049 6.73917 5.99766
#
# Compressibility (1/GPa) = 0.03650645
#
# Stress axis : x y z
#
# Youngs Moduli (GPa) = 88.52806 24.79321 50.70875
#
# Poissons Ratio (x) = 0.29367 0.24208
# Poissons Ratio (y) = 1.04858 0.04073
# Poissons Ratio (z) = 0.42263 0.01991
#
# Static dielectric constant tensor:
#      x y z
#    x 1.760180 0.027250 0.022730 
#    y 0.027250 1.743680 -0.026750 
#    z 0.022730 -0.026750 1.779040 
# 
# From -- ./inp_files/388972.got.cif
#   From: 2010.05.17/outbox.cif.g08.bks.cpg/sg2_195_cif.got.tgz:388972.got - 2010.06.03 11:33:40.
