data_PCOD9110375
_publ_section_title
;
Structure prediction by ZEFSAII (Michael W. Deem and Ramdas Pophale) SiO2 
 PCOD9110375
Probable space group: P -1
;
_chemical_formula_sum "Si O2"
_cell_formula_units_Z 15
_cell_length_a 15.041939
_cell_length_b 5.030577
_cell_length_c 17.700199
_cell_angle_alpha 91.097006
_cell_angle_beta 145.019000
_cell_angle_gamma 99.182230
_cell_volume 730.957664
_symmetry_space_group_name_H-M "P -1"
_symmetry_group_IT_number 2
_symmetry_cell_setting 'triclinic'
loop_
_space_group_symop_operation_xyz
x,y,z
-x,-y,-z
loop_
_atom_site_type_symbol
_atom_site_label
_atom_site_fract_x
_atom_site_fract_y
_atom_site_fract_z
Si Si1 0.333238 0.795612 0.686940
Si Si2 0.887973 0.204902 0.834295
Si Si3 0.132192 0.957263 0.354205
Si Si4 0.035629 0.636372 0.693804
Si Si5 0.428763 0.325661 0.661329
Si Si6 0.000000 0.500000 0.500000
Si Si7 0.603911 0.305227 0.096774
Si Si8 0.781700 0.655554 0.846561
O O1 0.365340 0.571745 0.650936
O O2 0.372212 0.696516 0.796345
O O3 0.143385 0.764660 0.564440
O O4 0.428048 0.103841 0.726126
O O5 0.858974 0.095551 0.728721
O O6 0.834469 0.476645 0.816821
O O7 0.789497 0.955359 0.819854
O O8 0.077706 0.284540 0.991304
O O9 0.075260 0.653489 0.350773
O O10 0.301728 0.147179 0.509792
O O11 0.000229 0.115893 0.283425
O O12 0.220755 0.625237 0.820676
O O13 0.002569 0.669101 0.582489
O O14 0.607441 0.475353 0.754569
O O15 0.500000 0.500000 0.000000
O O16 0.500000 0.000000 0.000000
#
# Coordination Sequence:
#
# PCOD9110375 Si02
#       8
#     2   2   2   2   2   1   2   2
#     4  11  24  39  64  91 127 170 209 266 316 377
#     4  10  23  43  65  90 126 172 213 260 327 391
#     4  12  23  40  64 100 128 161 219 268 321 382
#     4  11  24  39  64  91 127 170 209 266 316 377
#     4  12  23  40  64 100 128 161 219 268 321 382
#     4  10  20  42  60  86 124 168 208 244 308 378
#     4  11  24  43  60  89 128 169 217 261 317 381
#     4  10  23  43  65  90 126 172 213 260 327 391
#
# _framework density 20.521025999999999
#
# number of rings (size 3 to 8) (size 9 to 14) (size 15 to 20)
#    0.000    1.067    2.667    3.200    0.000    8.533 
#    0.000    0.000    0.000    0.000    0.000    0.000 
#    0.000    0.000    0.000    0.000    0.000    0.000 
#
# Total GULP energy -83541.080382 kJ/mol
# GULP energy per Si atom -5569.405359 kJ/mol
# Density = 2.047432 g / cm^3
# Si number density = 20.521026 Si / 1000 Ang^3
#
#
#
# Elastic Constant Matrix: (Units=GPa)
#
#
# Indices 1 2 3 4 5 6 
#
# 1 79.6936 24.7592 23.0563 7.3647 10.1071 19.6242
# 2 24.7592 104.0686 11.1489 5.5636 5.2554 -5.1065
# 3 23.0563 11.1489 31.1277 7.9728 11.7215 16.3590
# 4 7.3647 5.5636 7.9728 31.2115 -2.8057 3.6570
# 5 10.1071 5.2554 11.7215 -2.8057 20.3367 5.0498
# 6 19.6242 -5.1065 16.3590 3.6570 5.0498 34.7258
#
#
#
# Elastic Compliance Matrix: (Units=1/GPa)
#
#
# Indices 1 2 3 4 5 6 
#
# 1 0.017812 -0.003623 -0.007216 -0.001123 -0.002234 -0.006756
# 2 -0.003623 0.011243 -0.004022 -0.000822 -0.000323 0.005729
# 3 -0.007216 -0.004022 0.064836 -0.014296 -0.029434 -0.021271
# 4 -0.001123 -0.000822 -0.014296 0.037189 0.013812 0.001323
# 5 -0.002234 -0.000323 -0.029434 0.013812 0.068320 0.003692
# 6 -0.006756 0.005729 -0.021271 0.001323 0.003692 0.042802
#
#
# Mechanical properties :
#
#
# Convention : Reuss Voigt Hill
#
# Bulk Modulus (GPa) = 15.58399 36.97985 26.28192
# Shear Modulus (GPa) = 17.04646 27.64982 22.34814
#
# Velocity S-wave (km/s) = 2.88528 3.67466 3.30364
# Velocity P-wave (km/s) = 4.32556 6.00531 5.23327
#
# Compressibility (1/GPa) = 0.06416843
#
# Stress axis : x y z
#
# Youngs Moduli (GPa) = 56.14091 88.94161 15.42353
#
# Poissons Ratio (x) = 0.32227 0.11130
# Poissons Ratio (y) = 0.20342 0.06204
# Poissons Ratio (z) = 0.40512 0.35774
#
# Static dielectric constant tensor:
#      x y z
#    x 1.694920 -0.006730 0.018190 
#    y -0.006730 1.695090 -0.027740 
#    z 0.018190 -0.027740 1.798230 
# 
# From -- ./inp_files/525806.got.cif
#   From: 2010.05.17/outbox.cif.g08.bks.cpg/sg2_263_cif.got.tgz:525806.got - 2010.06.03 11:33:40.
