data_PCOD9110357
_publ_section_title
;
Structure prediction by ZEFSAII (Michael W. Deem and Ramdas Pophale) SiO2 
 PCOD9110357
Probable space group: P -1
;
_chemical_formula_sum "Si O2"
_cell_formula_units_Z 16
_cell_length_a 5.611783
_cell_length_b 5.505899
_cell_length_c 25.799242
_cell_angle_alpha 59.768490
_cell_angle_beta 62.242242
_cell_angle_gamma 75.378626
_cell_volume 609.306128
_symmetry_space_group_name_H-M "P -1"
_symmetry_group_IT_number 2
_symmetry_cell_setting 'triclinic'
loop_
_space_group_symop_operation_xyz
x,y,z
-x,-y,-z
loop_
_atom_site_type_symbol
_atom_site_label
_atom_site_fract_x
_atom_site_fract_y
_atom_site_fract_z
Si Si1 0.689981 0.403901 0.039490
Si Si2 0.824865 0.296694 0.319618
Si Si3 0.503289 0.221088 0.884827
Si Si4 0.412252 0.862940 0.225611
Si Si5 0.965839 0.904018 0.196172
Si Si6 0.147160 0.771803 0.362274
Si Si7 0.790591 0.308668 0.439500
Si Si8 0.360517 0.963962 0.415397
O O1 0.571276 0.561775 0.086075
O O2 0.667626 0.064333 0.072480
O O3 0.500000 0.500000 0.000000
O O4 0.000000 0.500000 0.000000
O O5 0.893907 0.591598 0.256866
O O6 0.705082 0.310157 0.388638
O O7 0.586695 0.112832 0.341220
O O8 0.087714 0.099507 0.321143
O O9 0.501668 0.321959 0.813764
O O10 0.818960 0.120537 0.869441
O O11 0.676205 0.029510 0.197449
O O12 0.313594 0.688493 0.303489
O O13 0.150580 0.029075 0.209946
O O14 0.271192 0.721403 0.410874
O O15 0.860884 0.629153 0.408627
O O16 0.612830 0.168595 0.515911
O O17 0.089691 0.160631 0.427095
#
# Coordination Sequence:
#
# PCOD9110357 Si02
#       8
#     2   2   2   2   2   2   2   2
#     4  12  28  48  83 114 161 197 246 295 355 422
#     4  11  23  38  60  92 124 175 230 293 365 424
#     4  10  27  49  77 116 151 203 248 296 360 426
#     4  10  24  43  70  98 142 184 234 296 352 424
#     4  10  24  43  70  97 143 183 236 293 354 425
#     4  11  23  38  60  93 127 171 233 291 365 423
#     4  10  20  42  55  85 124 170 229 290 366 439
#     4  10  23  35  63  83 124 174 225 297 357 444
#
# _framework density 26.259378000000002
#
# number of rings (size 3 to 8) (size 9 to 14) (size 15 to 20)
#    0.750    0.750    1.250    2.250    8.750    1.500 
#    0.000    0.000    0.000    0.000    0.000    0.000 
#    0.000    0.000    0.000    0.000    0.000    0.000 
#
# Total GULP energy -89243.956490 kJ/mol
# GULP energy per Si atom -5577.747281 kJ/mol
# Density = 2.619961 g / cm^3
# Si number density = 26.259378 Si / 1000 Ang^3
#
#
#
# Elastic Constant Matrix: (Units=GPa)
#
#
# Indices 1 2 3 4 5 6 
#
# 1 122.2393 15.2221 35.3672 4.2578 -28.3074 9.2017
# 2 15.2221 93.7155 55.8341 0.2205 7.5853 6.3812
# 3 35.3672 55.8341 128.8529 9.9380 -12.1605 13.6240
# 4 4.2578 0.2205 9.9380 46.3234 11.2242 4.3814
# 5 -28.3074 7.5853 -12.1605 11.2242 52.5640 4.1007
# 6 9.2017 6.3812 13.6240 4.3814 4.1007 36.0717
#
#
#
# Elastic Compliance Matrix: (Units=1/GPa)
#
#
# Indices 1 2 3 4 5 6 
#
# 1 0.010364 -0.001194 -0.001362 -0.001891 0.006027 -0.002374
# 2 -0.001194 0.015496 -0.007142 0.002771 -0.005163 0.000511
# 3 -0.001362 -0.007142 0.012175 -0.003138 0.004023 -0.003064
# 4 -0.001891 0.002771 -0.003138 0.024268 -0.007252 -0.000946
# 5 0.006027 -0.005163 0.004023 -0.007252 0.025822 -0.004198
# 6 -0.002374 0.000511 -0.003064 -0.000946 -0.004198 0.029987
#
#
# Mechanical properties :
#
#
# Convention : Reuss Voigt Hill
#
# Bulk Modulus (GPa) = 53.64921 61.96163 57.80542
# Shear Modulus (GPa) = 34.78982 42.88411 38.83696
#
# Velocity S-wave (km/s) = 3.64380 4.04554 3.84992
# Velocity P-wave (km/s) = 6.17883 6.74308 6.46711
#
# Compressibility (1/GPa) = 0.01863960
#
# Stress axis : x y z
#
# Youngs Moduli (GPa) = 96.49143 64.53186 82.13599
#
# Poissons Ratio (x) = 0.07704 0.11184
# Poissons Ratio (y) = 0.11520 0.58662
# Poissons Ratio (z) = 0.13138 0.46089
#
# Static dielectric constant tensor:
#      x y z
#    x 2.155080 -0.000860 0.018480 
#    y -0.000860 2.195340 -0.002010 
#    z 0.018480 -0.002010 2.031690 
# 
# From -- ./inp_files/51590.got.cif
#   From: 2010.05.17/outbox.cif.g08.bks.cpg/sg2_26_cif.got.tgz:51590.got - 2010.06.03 11:33:40.
