data_PCOD9110861
_publ_section_title
;
Structure prediction by ZEFSAII (Michael W. Deem and Ramdas Pophale) SiO2 
 PCOD9110861
Probable space group: P -1
;
_chemical_formula_sum "Si O2"
_cell_formula_units_Z 15
_cell_length_a 11.695730
_cell_length_b 4.953261
_cell_length_c 12.099176
_cell_angle_alpha 63.137536
_cell_angle_beta 107.314444
_cell_angle_gamma 112.409896
_cell_volume 571.355903
_symmetry_space_group_name_H-M "P -1"
_symmetry_group_IT_number 2
_symmetry_cell_setting 'triclinic'
loop_
_space_group_symop_operation_xyz
x,y,z
-x,-y,-z
loop_
_atom_site_type_symbol
_atom_site_label
_atom_site_fract_x
_atom_site_fract_y
_atom_site_fract_z
Si Si1 0.783354 0.567662 0.714385
Si Si2 0.500000 0.000000 0.000000
Si Si3 0.813235 0.957265 0.117230
Si Si4 0.379538 0.431658 0.687163
Si Si5 0.462762 0.978589 0.255208
Si Si6 0.989957 0.549003 0.309511
Si Si7 0.811891 0.187897 0.488574
Si Si8 0.754430 0.566296 0.959865
O O1 0.673936 0.247883 0.718927
O O2 0.919704 0.528747 0.739478
O O3 0.760906 0.829856 0.577138
O O4 0.778744 0.664135 0.822506
O O5 0.614966 0.334507 0.971525
O O6 0.472893 0.049657 0.115079
O O7 0.690250 0.783300 0.188630
O O8 0.782701 0.848205 0.002642
O O9 0.921968 0.811200 0.212037
O O10 0.835551 0.329444 0.062282
O O11 0.434383 0.214385 0.664770
O O12 0.284000 0.604492 0.579017
O O13 0.494119 0.710353 0.716522
O O14 0.082998 0.672029 0.415458
O O15 0.880795 0.243571 0.378572
#
# Coordination Sequence:
#
# PCOD9110861 Si02
#       8
#     2   1   2   2   2   2   2   2
#     4  11  27  43  67 102 140 182 225 283 355 401
#     4  10  20  42  66  98 144 172 220 260 338 414
#     4  11  23  45  71 103 137 181 235 277 341 403
#     4  11  23  45  71 103 137 181 235 277 341 403
#     4  11  25  41  70 105 141 182 219 285 342 416
#     4  10  25  47  72  95 133 185 236 289 336 407
#     4  10  25  47  72  95 133 185 236 289 336 407
#     4  11  25  41  70 105 141 182 219 285 342 416
#
# _framework density 26.253337999999999
#
# number of rings (size 3 to 8) (size 9 to 14) (size 15 to 20)
#    0.000    1.333    2.667    0.400    7.467    6.400 
#    0.000    0.000    0.000    0.000    0.000    0.000 
#    0.000    0.000    0.000    0.000    0.000    0.000 
#
# Total GULP energy -83997.465270 kJ/mol
# GULP energy per Si atom -5599.831018 kJ/mol
# Density = 2.619358 g / cm^3
# Si number density = 26.253338 Si / 1000 Ang^3
#
#
#
# Elastic Constant Matrix: (Units=GPa)
#
#
# Indices 1 2 3 4 5 6 
#
# 1 130.2948 33.4227 82.6833 -40.5566 10.7330 -8.1448
# 2 33.4227 55.9046 28.9720 -2.7839 0.3017 -11.1400
# 3 82.6833 28.9720 88.4115 -20.2879 7.7518 11.0132
# 4 -40.5566 -2.7839 -20.2879 35.9315 4.0165 6.7973
# 5 10.7330 0.3017 7.7518 4.0165 37.3209 -10.5498
# 6 -8.1448 -11.1400 11.0132 6.7973 -10.5498 29.4712
#
#
#
# Elastic Compliance Matrix: (Units=1/GPa)
#
#
# Indices 1 2 3 4 5 6 
#
# 1 0.031046 -0.001896 -0.025582 0.018323 -0.002048 0.012464
# 2 -0.001896 0.031851 -0.016469 -0.015244 0.012614 0.025701
# 3 -0.025582 -0.016469 0.047656 0.005291 -0.013479 -0.037150
# 4 0.018323 -0.015244 0.005291 0.056650 -0.018682 -0.022429
# 5 -0.002048 0.012614 -0.013479 -0.018682 0.039966 0.027855
# 6 0.012464 0.025701 -0.037150 -0.022429 0.027855 0.076118
#
#
# Mechanical properties :
#
#
# Convention : Reuss Voigt Hill
#
# Bulk Modulus (GPa) = 44.13562 62.75189 53.44375
# Shear Modulus (GPa) = 13.20187 29.18024 21.19105
#
# Velocity S-wave (km/s) = 2.24490 3.33751 2.84417
# Velocity P-wave (km/s) = 4.85462 6.22947 5.58452
#
# Compressibility (1/GPa) = 0.02265744
#
# Stress axis : x y z
#
# Youngs Moduli (GPa) = 32.20981 31.39649 20.98378
#
# Poissons Ratio (x) = 0.05954 0.53681
# Poissons Ratio (y) = 0.06108 0.34559
# Poissons Ratio (z) = 0.82399 0.51708
#
# Static dielectric constant tensor:
#      x y z
#    x 2.156650 0.016800 0.128430 
#    y 0.016800 2.005460 -0.003080 
#    z 0.128430 -0.003080 2.153570 
# 
# From -- ./inp_files/100910.got.cif
#   From: 2010.05.17/outbox.cif.g08.bks.cpg/sg2_51_cif.got.tgz:100910.got - 2010.06.03 11:33:40.
