data_PCOD9110171
_publ_section_title
;
Structure prediction by ZEFSAII (Michael W. Deem and Ramdas Pophale) SiO2 
 PCOD9110171
Probable space group: P -1
;
_chemical_formula_sum "Si O2"
_cell_formula_units_Z 10
_cell_length_a 7.008314
_cell_length_b 10.683222
_cell_length_c 8.184588
_cell_angle_alpha 135.644728
_cell_angle_beta 101.303081
_cell_angle_gamma 101.006836
_cell_volume 367.861728
_symmetry_space_group_name_H-M "P -1"
_symmetry_group_IT_number 2
_symmetry_cell_setting 'triclinic'
loop_
_space_group_symop_operation_xyz
x,y,z
-x,-y,-z
loop_
_atom_site_type_symbol
_atom_site_label
_atom_site_fract_x
_atom_site_fract_y
_atom_site_fract_z
Si Si1 0.791724 0.129550 0.686934
Si Si2 0.265146 0.117618 0.019673
Si Si3 0.338312 0.780245 0.572018
Si Si4 0.709429 0.708299 0.167872
Si Si5 0.010576 0.357995 0.226894
O O1 0.633571 0.141265 0.534351
O O2 0.043698 0.268028 0.784158
O O3 0.763492 0.903186 0.474868
O O4 0.798523 0.231723 0.957503
O O5 0.450055 0.174506 0.241748
O O6 0.095160 0.194707 0.123500
O O7 0.344465 0.236586 0.970222
O O8 0.214698 0.890985 0.746078
O O9 0.197084 0.538683 0.318843
O O10 0.500000 0.500000 0.000000
O O11 0.000000 0.500000 0.500000
#
# Coordination Sequence:
#
# PCOD9110171 Si02
#       5
#     2   2   2   2   2
#     4   9  20  40  66 102 137 179 236 286 345 420
#     4   9  21  41  66 100 135 179 237 290 349 419
#     4  10  20  41  70  94 134 180 227 299 355 398
#     4   9  18  38  71 102 137 181 231 294 354 411
#     4  11  23  40  64  97 142 191 230 276 349 422
#
# _framework density 27.184128000000001
#
# number of rings (size 3 to 8) (size 9 to 14) (size 15 to 20)
#    0.000    2.400    0.000    2.400    0.000    2.400 
#    0.000   11.000    0.000   16.800    0.000    0.000 
#    0.000    0.000    0.000    0.000    0.000    0.000 
#
# Total GULP energy -55964.977484 kJ/mol
# GULP energy per Si atom -5596.497748 kJ/mol
# Density = 2.712226 g / cm^3
# Si number density = 27.184128 Si / 1000 Ang^3
#
#
#
# Elastic Constant Matrix: (Units=GPa)
#
#
# Indices 1 2 3 4 5 6 
#
# 1 130.1864 23.3656 46.4614 -13.8418 -27.9054 -19.2074
# 2 23.3656 120.5710 57.3305 4.6450 5.4660 -29.3525
# 3 46.4614 57.3305 248.5317 -15.1124 -13.8880 -21.5768
# 4 -13.8418 4.6450 -15.1124 68.2062 -0.2070 11.4018
# 5 -27.9054 5.4660 -13.8880 -0.2070 50.1429 2.5529
# 6 -19.2074 -29.3525 -21.5768 11.4018 2.5529 46.3383
#
#
#
# Elastic Compliance Matrix: (Units=1/GPa)
#
#
# Indices 1 2 3 4 5 6 
#
# 1 0.009858 -0.001198 -0.000991 0.001510 0.005236 0.002206
# 2 -0.001198 0.011356 -0.002148 -0.002586 -0.002840 0.006489
# 3 -0.000991 -0.002148 0.004837 0.000990 0.001017 0.000181
# 4 0.001510 -0.002586 0.000990 0.016140 0.001698 -0.004616
# 5 0.005236 -0.002840 0.001017 0.001698 0.023500 -0.000867
# 6 0.002206 0.006489 0.000181 -0.004616 -0.000867 0.027873
#
#
# Mechanical properties :
#
#
# Convention : Reuss Voigt Hill
#
# Bulk Modulus (GPa) = 57.54508 83.73377 70.63942
# Shear Modulus (GPa) = 46.28344 57.74625 52.01484
#
# Velocity S-wave (km/s) = 4.13072 4.61397 4.37902
# Velocity P-wave (km/s) = 6.63062 7.69768 7.18399
#
# Compressibility (1/GPa) = 0.01737768
#
# Stress axis : x y z
#
# Youngs Moduli (GPa) = 101.43753 88.06280 206.73360
#
# Poissons Ratio (x) = 0.10549 0.20480
# Poissons Ratio (y) = 0.12151 0.44409
# Poissons Ratio (z) = 0.10049 0.18917
#
# Static dielectric constant tensor:
#      x y z
#    x 2.242560 0.161070 -0.039380 
#    y 0.161070 2.206210 -0.071320 
#    z -0.039380 -0.071320 2.081870 
# 
# From -- ./inp_files/173628.got.cif
#   From: 2010.05.17/outbox.cif.g08.bks.cpg/sg2_87_cif.got.tgz:173628.got - 2010.06.03 11:33:40.
