data_PCOD9110897
_publ_section_title
;
Structure prediction by ZEFSAII (Michael W. Deem and Ramdas Pophale) SiO2 
 PCOD9110897
Probable space group: P -1
;
_chemical_formula_sum "Si O2"
_cell_formula_units_Z 14
_cell_length_a 15.231956
_cell_length_b 24.781659
_cell_length_c 15.013069
_cell_angle_alpha 20.499572
_cell_angle_beta 148.494190
_cell_angle_gamma 159.284715
_cell_volume 689.217774
_symmetry_space_group_name_H-M "P -1"
_symmetry_group_IT_number 2
_symmetry_cell_setting 'triclinic'
loop_
_space_group_symop_operation_xyz
x,y,z
-x,-y,-z
loop_
_atom_site_type_symbol
_atom_site_label
_atom_site_fract_x
_atom_site_fract_y
_atom_site_fract_z
Si Si1 0.365936 0.306606 0.756876
Si Si2 0.076709 0.476356 0.800599
Si Si3 0.465719 0.794298 0.795915
Si Si4 0.303864 0.501573 0.562601
Si Si5 0.457780 0.286588 0.288983
Si Si6 0.140930 0.113892 0.122550
Si Si7 0.233136 0.045269 0.650834
O O1 0.500000 0.500000 0.500000
O O2 0.284019 0.372847 0.660338
O O3 0.524716 0.281900 0.982215
O O4 0.137722 0.071624 0.869747
O O5 0.223351 0.572970 0.872476
O O6 0.300606 0.617532 0.702631
O O7 0.910992 0.516824 0.593065
O O8 0.889160 0.203408 0.050947
O O9 0.708441 0.895472 0.798060
O O10 0.500000 0.000000 0.500000
O O11 0.580923 0.766776 0.401463
O O12 0.265274 0.365280 0.825282
O O13 0.205262 0.099682 0.298310
O O14 0.401669 0.166382 0.519521
O O15 0.500000 0.500000 0.000000
O O16 0.000000 0.000000 0.500000
#
# Coordination Sequence:
#
# PCOD9110897 Si02
#       7
#     2   2   2   2   2   2   2
#     4  11  24  39  64  98 128 167 218 273 326 389
#     4  11  24  41  66  94 133 167 218 275 320 389
#     4  10  20  42  67  88 124 175 214 261 332 384
#     4  11  23  44  62  94 130 173 212 268 333 379
#     4  11  22  42  65  96 121 179 216 260 331 387
#     4  10  21  40  65  86 127 166 215 261 321 397
#     4  12  23  41  68  93 133 170 219 267 323 392
#
# _framework density 20.312882999999999
#
# number of rings (size 3 to 8) (size 9 to 14) (size 15 to 20)
#    0.000    1.143    2.857    5.571    4.000    0.571 
#    7.714    1.429    0.000    0.000    0.000    0.000 
#    0.000    0.000    0.000    0.000    0.000    0.000 
#
# Total GULP energy -78162.986597 kJ/mol
# GULP energy per Si atom -5583.070471 kJ/mol
# Density = 2.026665 g / cm^3
# Si number density = 20.312883 Si / 1000 Ang^3
#
#
#
# Elastic Constant Matrix: (Units=GPa)
#
#
# Indices 1 2 3 4 5 6 
#
# 1 56.1286 23.8407 27.2744 9.5449 -1.8850 0.8661
# 2 23.8407 95.9660 17.7862 -10.0122 7.3966 -1.5858
# 3 27.2744 17.7862 99.3048 3.7639 9.7543 8.7343
# 4 9.5449 -10.0122 3.7639 40.5114 2.5587 10.6299
# 5 -1.8850 7.3966 9.7543 2.5587 28.9526 6.8245
# 6 0.8661 -1.5858 8.7343 10.6299 6.8245 28.1447
#
#
#
# Elastic Compliance Matrix: (Units=1/GPa)
#
#
# Indices 1 2 3 4 5 6 
#
# 1 0.024951 -0.006247 -0.006184 -0.007831 0.005420 0.002443
# 2 -0.006247 0.012870 -0.000394 0.004900 -0.004035 0.000167
# 3 -0.006184 -0.000394 0.012454 0.001300 -0.003845 -0.003255
# 4 -0.007831 0.004900 0.001300 0.030624 -0.002340 -0.010885
# 5 0.005420 -0.004035 -0.003845 -0.002340 0.039273 -0.007840
# 6 0.002443 0.000167 -0.003255 -0.010885 -0.007840 0.042487
#
#
# Mechanical properties :
#
#
# Convention : Reuss Voigt Hill
#
# Bulk Modulus (GPa) = 40.60864 43.24465 41.92664
# Shear Modulus (GPa) = 25.44314 31.68829 28.56572
#
# Velocity S-wave (km/s) = 3.54299 3.95398 3.75412
# Velocity P-wave (km/s) = 6.06400 6.49467 6.28303
#
# Compressibility (1/GPa) = 0.02462530
#
# Stress axis : x y z
#
# Youngs Moduli (GPa) = 40.07895 77.69937 80.29651
#
# Poissons Ratio (x) = 0.48536 0.49659
# Poissons Ratio (y) = 0.25036 0.03160
# Poissons Ratio (z) = 0.24787 0.03058
#
# Static dielectric constant tensor:
#      x y z
#    x 1.754350 -0.040480 -0.038480 
#    y -0.040480 1.817010 -0.019810 
#    z -0.038480 -0.019810 1.795030 
# 
# From -- ./inp_files/256661.got.cif
#   From: 2010.05.17/outbox.cif.g08.bks.cpg/sg2_129_cif.got.tgz:256661.got - 2010.06.03 11:33:40.
