data_PCOD9110619
_publ_section_title
;
Structure prediction by ZEFSAII (Michael W. Deem and Ramdas Pophale) SiO2 
 PCOD9110619
Probable space group: P -1
;
_chemical_formula_sum "Si O2"
_cell_formula_units_Z 13
_cell_length_a 12.192351
_cell_length_b 18.626448
_cell_length_c 6.197103
_cell_angle_alpha 68.556008
_cell_angle_beta 116.056085
_cell_angle_gamma 153.480375
_cell_volume 563.204055
_symmetry_space_group_name_H-M "P -1"
_symmetry_group_IT_number 2
_symmetry_cell_setting 'triclinic'
loop_
_space_group_symop_operation_xyz
x,y,z
-x,-y,-z
loop_
_atom_site_type_symbol
_atom_site_label
_atom_site_fract_x
_atom_site_fract_y
_atom_site_fract_z
Si Si1 0.199546 0.623136 0.339949
Si Si2 0.619447 0.744899 0.082125
Si Si3 0.042029 0.646288 0.787559
Si Si4 0.025345 0.144609 0.051586
Si Si5 0.711026 0.582145 0.751727
Si Si6 0.514899 0.853648 0.715343
Si Si7 0.000000 0.000000 0.500000
O O1 0.455660 0.796503 0.481764
O O2 0.000000 0.500000 0.500000
O O3 0.187495 0.532313 0.319058
O O4 0.113698 0.638746 0.074438
O O5 0.412287 0.563228 0.097603
O O6 0.785352 0.837635 0.339271
O O7 0.808889 0.828686 0.956809
O O8 0.501080 0.762646 0.920555
O O9 0.286866 0.777997 0.698139
O O10 0.950792 0.681473 0.717835
O O11 0.196806 0.308902 0.104256
O O12 0.921266 0.039686 0.279764
O O13 0.792830 0.039256 0.811034
O O14 0.500000 0.500000 0.500000
#
# Coordination Sequence:
#
# PCOD9110619 Si02
#       7
#     2   2   2   2   2   2   1
#     4   9  18  38  63  95 122 161 213 266 315 370
#     4  11  23  41  68  97 130 167 217 267 316 385
#     4  10  22  39  64  93 126 167 212 262 320 382
#     4  11  25  42  64  99 132 172 214 261 328 381
#     4  12  25  44  64  93 135 177 211 261 326 387
#     4  10  22  40  69  96 124 163 216 273 313 376
#     4  10  20  42  64  96 126 168 216 260 318 372
#
# _framework density 23.08222
#
# number of rings (size 3 to 8) (size 9 to 14) (size 15 to 20)
#    0.000    1.538    1.538    5.077    2.154    6.769 
#    5.538    0.769    0.000    0.000    0.000    0.000 
#    0.000    0.000    0.000    0.000    0.000    0.000 
#
# Total GULP energy -72426.861583 kJ/mol
# GULP energy per Si atom -5571.297045 kJ/mol
# Density = 2.302968 g / cm^3
# Si number density = 23.082220 Si / 1000 Ang^3
#
#
#
# Elastic Constant Matrix: (Units=GPa)
#
#
# Indices 1 2 3 4 5 6 
#
# 1 71.9280 13.7769 -6.5742 9.5329 4.6644 9.0804
# 2 13.7769 90.0985 20.0865 35.6429 -12.7306 -20.7916
# 3 -6.5742 20.0865 85.1313 42.2933 -6.0858 -6.2920
# 4 9.5329 35.6429 42.2933 44.7927 -3.0083 -11.0161
# 5 4.6644 -12.7306 -6.0858 -3.0083 20.7011 5.4662
# 6 9.0804 -20.7916 -6.2920 -11.0161 5.4662 35.2605
#
#
#
# Elastic Compliance Matrix: (Units=1/GPa)
#
#
# Indices 1 2 3 4 5 6 
#
# 1 0.017183 -0.002406 0.005628 -0.009031 -0.003114 -0.007178
# 2 -0.002406 0.020626 0.005546 -0.018899 0.010461 0.006246
# 3 0.005628 0.005546 0.026582 -0.031312 0.006524 -0.004230
# 4 -0.009031 -0.018899 -0.031312 0.070396 -0.011017 0.009296
# 5 -0.003114 0.010461 0.006524 -0.011017 0.056846 -0.004120
# 6 -0.007178 0.006246 -0.004230 0.009296 -0.004120 0.036680
#
#
# Mechanical properties :
#
#
# Convention : Reuss Voigt Hill
#
# Bulk Modulus (GPa) = 12.20591 33.52623 22.86607
# Shear Modulus (GPa) = 21.00076 34.80876 27.90476
#
# Velocity S-wave (km/s) = 3.01960 3.88755 3.48074
# Velocity P-wave (km/s) = 4.17814 5.89126 5.10704
#
# Compressibility (1/GPa) = 0.08192750
#
# Stress axis : x y z
#
# Youngs Moduli (GPa) = 58.19681 48.48212 37.61922
#
# Poissons Ratio (x) = 0.11664 -0.21173
# Poissons Ratio (y) = 0.14002 -0.20863
# Poissons Ratio (z) = -0.32754 -0.26887
#
# Static dielectric constant tensor:
#      x y z
#    x 1.914360 0.068090 -0.068490 
#    y 0.068090 1.954910 -0.007150 
#    z -0.068490 -0.007150 1.907430 
# 
# From -- ./inp_files/25231.got.cif
#   From: 2010.05.17/outbox.cif.g08.bks.cpg/sg2_13_cif.got.tgz:25231.got - 2010.06.03 11:33:40.
