data_PCOD9110338
_publ_section_title
;
Structure prediction by ZEFSAII (Michael W. Deem and Ramdas Pophale) SiO2 
 PCOD9110338
Probable space group: P -1
;
_chemical_formula_sum "Si O2"
_cell_formula_units_Z 13
_cell_length_a 13.134667
_cell_length_b 5.086746
_cell_length_c 7.879835
_cell_angle_alpha 118.989145
_cell_angle_beta 112.039856
_cell_angle_gamma 88.263422
_cell_volume 419.335389
_symmetry_space_group_name_H-M "P -1"
_symmetry_group_IT_number 2
_symmetry_cell_setting 'triclinic'
loop_
_space_group_symop_operation_xyz
x,y,z
-x,-y,-z
loop_
_atom_site_type_symbol
_atom_site_label
_atom_site_fract_x
_atom_site_fract_y
_atom_site_fract_z
Si Si1 0.094507 0.785345 0.993847
Si Si2 0.765811 0.935314 0.159864
Si Si3 0.367867 0.525392 0.274802
Si Si4 0.244976 0.235369 0.422835
Si Si5 0.439358 0.203171 0.689603
Si Si6 0.935444 0.345670 0.577289
Si Si7 0.500000 0.000000 0.000000
O O1 0.169996 0.905145 0.241115
O O2 0.021837 0.448783 0.815618
O O3 0.174098 0.883927 0.911715
O O4 0.000000 0.000000 0.000000
O O5 0.867367 0.010790 0.384286
O O6 0.728336 0.589979 0.956560
O O7 0.643791 0.030100 0.140244
O O8 0.336003 0.321315 0.355700
O O9 0.485653 0.482532 0.247907
O O10 0.401924 0.877610 0.463435
O O11 0.316953 0.281538 0.652246
O O12 0.167168 0.476228 0.419310
O O13 0.520156 0.146503 0.870415
O O14 0.000000 0.500000 0.500000
#
# Coordination Sequence:
#
# PCOD9110338 Si02
#       7
#     2   2   2   2   2   2   1
#     4   8  17  36  70 100 125 180 235 287 342 401
#     4  10  22  39  65  98 142 181 226 286 355 422
#     4  10  24  42  67  98 140 183 237 283 342 427
#     4  10  20  41  74 103 136 186 236 290 351 419
#     4  11  26  43  67 101 143 191 235 287 348 428
#     4   9  18  38  69 107 144 183 223 295 360 414
#     4  12  28  44  62 108 146 184 230 288 366 422
#
# _framework density 31.001435000000001
#
# number of rings (size 3 to 8) (size 9 to 14) (size 15 to 20)
#    0.000    2.154    0.000    1.385   12.923    0.615 
#    0.000    0.000    0.000   60.923    0.000    0.000 
#    0.000    0.000    0.000    0.000    0.000    0.000 
#
# Total GULP energy -72619.428417 kJ/mol
# GULP energy per Si atom -5586.109878 kJ/mol
# Density = 3.093087 g / cm^3
# Si number density = 31.001435 Si / 1000 Ang^3
#
#
#
# Elastic Constant Matrix: (Units=GPa)
#
#
# Indices 1 2 3 4 5 6 
#
# 1 113.4925 36.0409 21.5044 5.7880 16.2665 10.0143
# 2 36.0409 128.3376 59.0415 12.0310 23.2627 2.0040
# 3 21.5044 59.0415 299.2453 20.2263 50.3610 -3.7302
# 4 5.7880 12.0310 20.2263 65.1527 5.8677 5.3482
# 5 16.2665 23.2627 50.3610 5.8677 53.6090 15.0198
# 6 10.0143 2.0040 -3.7302 5.3482 15.0198 57.9091
#
#
#
# Elastic Compliance Matrix: (Units=1/GPa)
#
#
# Indices 1 2 3 4 5 6 
#
# 1 0.009938 -0.002481 0.000048 -0.000195 -0.001630 -0.001189
# 2 -0.002481 0.009564 -0.001241 -0.001010 -0.002321 0.000713
# 3 0.000048 -0.001241 0.004300 -0.000881 -0.003806 0.001380
# 4 -0.000195 -0.001010 -0.000881 0.015947 -0.000012 -0.001458
# 5 -0.001630 -0.002321 -0.003806 -0.000012 0.025556 -0.006510
# 6 -0.001189 0.000713 0.001380 -0.001458 -0.006510 0.019362
#
#
# Mechanical properties :
#
#
# Convention : Reuss Voigt Hill
#
# Bulk Modulus (GPa) = 60.77212 86.02767 73.39990
# Shear Modulus (GPa) = 51.28249 63.63340 57.45794
#
# Velocity S-wave (km/s) = 4.07159 4.53547 4.30978
# Velocity P-wave (km/s) = 6.46138 7.43217 6.96371
#
# Compressibility (1/GPa) = 0.01645491
#
# Stress axis : x y z
#
# Youngs Moduli (GPa) = 100.62076 104.56181 232.53494
#
# Poissons Ratio (x) = 0.25939 -0.01114
# Poissons Ratio (y) = 0.24961 0.28856
# Poissons Ratio (z) = -0.00482 0.12975
#
# Static dielectric constant tensor:
#      x y z
#    x 2.504670 0.166280 -0.011260 
#    y 0.166280 2.091390 -0.177780 
#    z -0.011260 -0.177780 2.131560 
# 
# From -- ./inp_files/288184.got.cif
#   From: 2010.05.17/outbox.cif.g08.bks.cpg/sg2_145_cif.got.tgz:288184.got - 2010.06.03 11:33:40.
