data_PCOD9110863
_publ_section_title
;
Structure prediction by ZEFSAII (Michael W. Deem and Ramdas Pophale) SiO2 
 PCOD9110863
Probable space group: P -1
;
_chemical_formula_sum "Si O2"
_cell_formula_units_Z 14
_cell_length_a 8.698658
_cell_length_b 15.693860
_cell_length_c 6.828908
_cell_angle_alpha 95.273442
_cell_angle_beta 56.106647
_cell_angle_gamma 58.380341
_cell_volume 553.078738
_symmetry_space_group_name_H-M "P -1"
_symmetry_group_IT_number 2
_symmetry_cell_setting 'triclinic'
loop_
_space_group_symop_operation_xyz
x,y,z
-x,-y,-z
loop_
_atom_site_type_symbol
_atom_site_label
_atom_site_fract_x
_atom_site_fract_y
_atom_site_fract_z
Si Si1 0.826908 0.002669 0.466513
Si Si2 0.295029 0.173107 0.103950
Si Si3 0.389653 0.588491 0.890167
Si Si4 0.511786 0.776237 0.477776
Si Si5 0.289013 0.673118 0.529106
Si Si6 0.855085 0.800205 0.364606
Si Si7 0.274148 0.364885 0.287240
O O1 0.749934 0.085933 0.352101
O O2 0.923086 0.878136 0.300539
O O3 0.560662 0.069096 0.785270
O O4 0.000000 0.000000 0.500000
O O5 0.329809 0.142507 0.304187
O O6 0.261224 0.286790 0.142638
O O7 0.017891 0.219006 0.265836
O O8 0.318777 0.637851 0.728376
O O9 0.575233 0.448308 0.707441
O O10 0.524912 0.625557 0.899683
O O11 0.113540 0.665085 0.200629
O O12 0.448233 0.709374 0.394125
O O13 0.720163 0.785429 0.293103
O O14 0.622075 0.703654 0.590100
O O15 0.000000 0.500000 0.500000
#
# Coordination Sequence:
#
# PCOD9110863 Si02
#       7
#     2   2   2   2   2   2   2
#     4  12  25  46  69  94 133 178 232 282 326 394
#     4  11  23  42  67  99 131 172 227 279 339 392
#     4  10  21  40  67  97 136 172 217 269 340 405
#     4  10  24  42  64  98 133 174 224 268 338 396
#     4  10  21  40  65  98 135 169 214 279 335 400
#     4  11  24  43  65  98 131 181 222 275 332 399
#     4  10  20  42  66  99 135 170 214 274 343 401
#
# _framework density 25.312850000000001
#
# number of rings (size 3 to 8) (size 9 to 14) (size 15 to 20)
#    0.000    1.429    1.429    3.429    0.000    1.143 
#    5.143   10.714    0.000    0.000    0.000    0.000 
#    0.000    0.000    0.000    0.000    0.000    0.000 
#
# Total GULP energy -78141.469289 kJ/mol
# GULP energy per Si atom -5581.533521 kJ/mol
# Density = 2.525524 g / cm^3
# Si number density = 25.312850 Si / 1000 Ang^3
#
#
#
# Elastic Constant Matrix: (Units=GPa)
#
#
# Indices 1 2 3 4 5 6 
#
# 1 207.3175 75.9784 38.5874 15.4937 -27.0324 21.8023
# 2 75.9784 131.7562 31.5844 16.6636 4.1841 15.5550
# 3 38.5874 31.5844 97.4735 17.0910 -8.3921 -0.3902
# 4 15.4937 16.6636 17.0910 35.5707 0.7685 2.7379
# 5 -27.0324 4.1841 -8.3921 0.7685 39.1132 -1.7971
# 6 21.8023 15.5550 -0.3902 2.7379 -1.7971 57.4041
#
#
#
# Elastic Compliance Matrix: (Units=1/GPa)
#
#
# Indices 1 2 3 4 5 6 
#
# 1 0.007338 -0.003849 -0.001063 -0.000876 0.005201 -0.001547
# 2 -0.003849 0.010886 -0.001982 -0.002261 -0.004275 -0.001528
# 3 -0.001063 -0.001982 0.012346 -0.004692 0.002279 0.001320
# 4 -0.000876 -0.002261 -0.004692 0.031904 -0.002028 -0.000672
# 5 0.005201 -0.004275 0.002279 -0.002028 0.030159 0.000239
# 6 -0.001547 -0.001528 0.001320 -0.000672 0.000239 0.018470
#
#
# Mechanical properties :
#
#
# Convention : Reuss Voigt Hill
#
# Bulk Modulus (GPa) = 59.57784 80.98306 70.28045
# Shear Modulus (GPa) = 38.31881 45.77740 42.04810
#
# Velocity S-wave (km/s) = 3.89499 4.25722 4.08013
# Velocity P-wave (km/s) = 6.61934 7.49850 7.07259
#
# Compressibility (1/GPa) = 0.01678476
#
# Stress axis : x y z
#
# Youngs Moduli (GPa) = 136.27456 91.85886 80.99690
#
# Poissons Ratio (x) = 0.35353 0.08607
# Poissons Ratio (y) = 0.52447 0.16050
# Poissons Ratio (z) = 0.14482 0.18203
#
# Static dielectric constant tensor:
#      x y z
#    x 2.071410 -0.021650 0.075390 
#    y -0.021650 2.044520 -0.049630 
#    z 0.075390 -0.049630 2.038300 
# 
# From -- ./inp_files/207501.got.cif
#   From: 2010.05.17/outbox.cif.g08.bks.cpg/sg2_104_cif.got.tgz:207501.got - 2010.06.03 11:33:40.
