data_PCOD9110767
_publ_section_title
;
Structure prediction by ZEFSAII (Michael W. Deem and Ramdas Pophale) SiO2 
 PCOD9110767
Probable space group: P -1
;
_chemical_formula_sum "Si O2"
_cell_formula_units_Z 13
_cell_length_a 12.443486
_cell_length_b 11.127048
_cell_length_c 9.106305
_cell_angle_alpha 39.149630
_cell_angle_beta 53.341641
_cell_angle_gamma 73.016411
_cell_volume 601.131204
_symmetry_space_group_name_H-M "P -1"
_symmetry_group_IT_number 2
_symmetry_cell_setting 'triclinic'
loop_
_space_group_symop_operation_xyz
x,y,z
-x,-y,-z
loop_
_atom_site_type_symbol
_atom_site_label
_atom_site_fract_x
_atom_site_fract_y
_atom_site_fract_z
Si Si1 0.525618 0.717029 0.346267
Si Si2 0.000000 0.000000 0.000000
Si Si3 0.797238 0.457710 0.764813
Si Si4 0.728005 0.103022 0.648236
Si Si5 0.602078 0.692346 0.646256
Si Si6 0.908056 0.264228 0.613532
Si Si7 0.246585 0.912445 0.694572
O O1 0.500000 0.500000 0.500000
O O2 0.386514 0.781705 0.379671
O O3 0.562013 0.708044 0.496706
O O4 0.650832 0.893012 0.995459
O O5 0.070415 0.935188 0.150285
O O6 0.101946 0.902455 0.906692
O O7 0.752041 0.647337 0.575280
O O8 0.795852 0.331368 0.738019
O O9 0.946366 0.560092 0.628503
O O10 0.713545 0.286655 0.110156
O O11 0.859775 0.233662 0.515534
O O12 0.767750 0.065418 0.487035
O O13 0.631156 0.894937 0.521997
O O14 0.500000 0.500000 0.000000
#
# Coordination Sequence:
#
# PCOD9110767 Si02
#       7
#     2   1   2   2   2   2   2
#     4  11  24  44  66  96 137 178 218 272 336 394
#     4  10  20  42  66  90 130 170 220 262 334 388
#     4  10  22  41  66  95 127 172 225 267 330 394
#     4  11  25  42  64 100 138 171 220 278 334 392
#     4  12  24  42  69  96 131 176 227 270 327 404
#     4  10  21  41  66  94 128 174 218 275 329 394
#     4  11  24  42  66 100 131 175 221 277 332 394
#
# _framework density 21.625893999999999
#
# number of rings (size 3 to 8) (size 9 to 14) (size 15 to 20)
#    0.000    1.231    1.538    4.615    0.000    6.154 
#    2.769    0.000    0.000    0.000    0.000    0.000 
#    0.000    0.000    0.000    0.000    0.000    0.000 
#
# Total GULP energy -72393.221148 kJ/mol
# GULP energy per Si atom -5568.709319 kJ/mol
# Density = 2.157667 g / cm^3
# Si number density = 21.625894 Si / 1000 Ang^3
#
#
#
# Elastic Constant Matrix: (Units=GPa)
#
#
# Indices 1 2 3 4 5 6 
#
# 1 123.9144 55.9885 41.0645 0.2706 30.0715 38.5315
# 2 55.9885 103.0327 46.7621 4.4685 17.4112 33.4783
# 3 41.0645 46.7621 89.8332 -1.7922 31.1226 20.9731
# 4 0.2706 4.4685 -1.7922 37.5021 0.2962 8.5051
# 5 30.0715 17.4112 31.1226 0.2962 35.3073 5.7592
# 6 38.5315 33.4783 20.9731 8.5051 5.7592 51.5023
#
#
#
# Elastic Compliance Matrix: (Units=1/GPa)
#
#
# Indices 1 2 3 4 5 6 
#
# 1 0.014429 -0.004145 0.000756 0.002248 -0.009675 -0.007698
# 2 -0.004145 0.015986 -0.005865 -0.001055 0.001627 -0.004910
# 3 0.000756 -0.005865 0.019805 0.002573 -0.014643 -0.003606
# 4 0.002248 -0.001055 0.002573 0.028374 -0.002855 -0.006411
# 5 -0.009675 0.001627 -0.014643 -0.002855 0.047501 0.007304
# 6 -0.007698 -0.004910 -0.003606 -0.006411 0.007304 0.030078
#
#
# Mechanical properties :
#
#
# Convention : Reuss Voigt Hill
#
# Bulk Modulus (GPa) = 31.53396 67.15674 49.34535
# Shear Modulus (GPa) = 26.99011 36.39335 31.69173
#
# Velocity S-wave (km/s) = 3.53660 4.10672 3.83228
# Velocity P-wave (km/s) = 5.59374 7.32176 6.51529
#
# Compressibility (1/GPa) = 0.03171184
#
# Stress axis : x y z
#
# Youngs Moduli (GPa) = 69.30382 62.55386 50.49104
#
# Poissons Ratio (x) = 0.25930 -0.03816
# Poissons Ratio (y) = 0.28728 0.29613
# Poissons Ratio (z) = -0.05238 0.36688
#
# Static dielectric constant tensor:
#      x y z
#    x 1.881030 -0.106730 -0.103470 
#    y -0.106730 1.782420 0.040160 
#    z -0.103470 0.040160 1.846650 
# 
# From -- ./inp_files/251241.got.cif
#   From: 2010.05.17/outbox.cif.g08.bks.cpg/sg2_126_cif.got.tgz:251241.got - 2010.06.03 11:33:40.
