data_PCOD9110928
_publ_section_title
;
Structure prediction by ZEFSAII (Michael W. Deem and Ramdas Pophale) SiO2 
 PCOD9110928
Probable space group: P -1
;
_chemical_formula_sum "Si O2"
_cell_formula_units_Z 14
_cell_length_a 10.824603
_cell_length_b 11.889001
_cell_length_c 9.148173
_cell_angle_alpha 64.776015
_cell_angle_beta 138.756617
_cell_angle_gamma 106.218091
_cell_volume 700.473936
_symmetry_space_group_name_H-M "P -1"
_symmetry_group_IT_number 2
_symmetry_cell_setting 'triclinic'
loop_
_space_group_symop_operation_xyz
x,y,z
-x,-y,-z
loop_
_atom_site_type_symbol
_atom_site_label
_atom_site_fract_x
_atom_site_fract_y
_atom_site_fract_z
Si Si1 0.781546 0.151975 0.381234
Si Si2 0.419648 0.588796 0.006510
Si Si3 0.335166 0.310576 0.571920
Si Si4 0.054573 0.784039 0.800005
Si Si5 0.510958 0.038526 0.817390
Si Si6 0.063402 0.999087 0.891171
Si Si7 0.786665 0.473707 0.865039
O O1 0.844125 0.138512 0.275141
O O2 0.963032 0.119678 0.657870
O O3 0.629627 0.052649 0.333841
O O4 0.695458 0.292854 0.233577
O O5 0.574789 0.646608 0.219498
O O6 0.286349 0.516065 0.038832
O O7 0.500000 0.500000 0.000000
O O8 0.441452 0.184313 0.674624
O O9 0.333931 0.428872 0.396592
O O10 0.117550 0.276278 0.401054
O O11 0.198895 0.676702 0.054668
O O12 0.984849 0.878213 0.810378
O O13 0.500000 0.000000 0.000000
O O14 0.715485 0.013948 0.940999
O O15 0.000000 0.000000 0.000000
O O16 0.000000 0.500000 0.000000
#
# Coordination Sequence:
#
# PCOD9110928 Si02
#       7
#     2   2   2   2   2   2   2
#     4  11  23  43  68  91 132 171 218 253 315 399
#     4  11  24  41  64  97 127 164 215 269 319 369
#     4  11  21  39  70  93 124 173 218 261 311 384
#     4  10  20  42  67  93 126 173 219 256 308 396
#     4  12  21  41  72  95 121 177 219 252 314 390
#     4  12  26  40  62 102 135 161 209 275 327 363
#     4   9  21  41  63  89 124 172 214 254 313 381
#
# _framework density 19.986469
#
# number of rings (size 3 to 8) (size 9 to 14) (size 15 to 20)
#    0.000    1.143    4.286    2.571    0.000    2.857 
#    5.143    6.429    0.000    0.000    0.000    0.000 
#    0.000    0.000    0.000    0.000    0.000    0.000 
#
# Total GULP energy -78082.211300 kJ/mol
# GULP energy per Si atom -5577.300807 kJ/mol
# Density = 1.994098 g / cm^3
# Si number density = 19.986469 Si / 1000 Ang^3
#
#
#
# Elastic Constant Matrix: (Units=GPa)
#
#
# Indices 1 2 3 4 5 6 
#
# 1 137.5923 66.1539 57.3550 -5.6306 8.1290 -11.4077
# 2 66.1539 81.1854 57.8925 -5.1265 3.2727 -5.3436
# 3 57.3550 57.8925 148.0954 -47.1807 4.9198 -8.4316
# 4 -5.6306 -5.1265 -47.1807 32.6963 8.6687 11.1403
# 5 8.1290 3.2727 4.9198 8.6687 27.1511 3.2163
# 6 -11.4077 -5.3436 -8.4316 11.1403 3.2163 46.4136
#
#
#
# Elastic Compliance Matrix: (Units=1/GPa)
#
#
# Indices 1 2 3 4 5 6 
#
# 1 0.012481 -0.008611 -0.002089 -0.002571 -0.001788 0.002438
# 2 -0.008611 0.028303 -0.014665 -0.021450 0.008311 0.003051
# 3 -0.002089 -0.014665 0.026990 0.042547 -0.015318 -0.006449
# 4 -0.002571 -0.021450 0.042547 0.103600 -0.035324 -0.017791
# 5 -0.001788 0.008311 -0.015318 -0.035324 0.050093 0.002742
# 6 0.002438 0.003051 -0.006449 -0.017791 0.002742 0.025404
#
#
# Mechanical properties :
#
#
# Convention : Reuss Voigt Hill
#
# Bulk Modulus (GPa) = 58.66638 81.07512 69.87075
# Shear Modulus (GPa) = 16.48627 33.61696 25.05162
#
# Velocity S-wave (km/s) = 2.87517 4.10565 3.54422
# Velocity P-wave (km/s) = 6.35916 7.94533 7.19608
#
# Compressibility (1/GPa) = 0.01704554
#
# Stress axis : x y z
#
# Youngs Moduli (GPa) = 80.12195 35.33235 37.05023
#
# Poissons Ratio (x) = 0.30423 0.07738
# Poissons Ratio (y) = 0.68990 0.54335
# Poissons Ratio (z) = 0.16734 0.51815
#
# Static dielectric constant tensor:
#      x y z
#    x 1.712190 0.050230 0.028560 
#    y 0.050230 1.735940 0.015020 
#    z 0.028560 0.015020 1.766990 
# 
# From -- ./inp_files/185471.got.cif
#   From: 2010.05.17/outbox.cif.g08.bks.cpg/sg2_93_cif.got.tgz:185471.got - 2010.06.03 11:33:40.
