data_PCOD9110872
_publ_section_title
;
Structure prediction by ZEFSAII (Michael W. Deem and Ramdas Pophale) SiO2 
 PCOD9110872
Probable space group: P -1
;
_chemical_formula_sum "Si O2"
_cell_formula_units_Z 16
_cell_length_a 16.036065
_cell_length_b 10.952642
_cell_length_c 12.677770
_cell_angle_alpha 101.809405
_cell_angle_beta 153.956081
_cell_angle_gamma 60.490903
_cell_volume 665.821765
_symmetry_space_group_name_H-M "P -1"
_symmetry_group_IT_number 2
_symmetry_cell_setting 'triclinic'
loop_
_space_group_symop_operation_xyz
x,y,z
-x,-y,-z
loop_
_atom_site_type_symbol
_atom_site_label
_atom_site_fract_x
_atom_site_fract_y
_atom_site_fract_z
Si Si1 0.010415 0.755803 0.136254
Si Si2 0.491748 0.665335 0.543349
Si Si3 0.802904 0.516551 0.164630
Si Si4 0.617355 0.814537 0.144086
Si Si5 0.192185 0.031715 0.256375
Si Si6 0.759598 0.291999 0.960331
Si Si7 0.379837 0.886699 0.117701
Si Si8 0.049559 0.462122 0.219433
O O1 0.070216 0.587595 0.211535
O O2 0.282792 0.701921 0.395920
O O3 0.820737 0.870512 0.838475
O O4 0.837888 0.908236 0.057017
O O5 0.466593 0.827185 0.551305
O O6 0.599129 0.336895 0.676574
O O7 0.809997 0.494689 0.897531
O O8 0.596374 0.704927 0.023152
O O9 0.676031 0.455199 0.954656
O O10 0.053831 0.344028 0.489188
O O11 0.944405 0.525631 0.231319
O O12 0.469125 0.859225 0.094294
O O13 0.500000 0.000000 0.000000
O O14 0.069130 0.148173 0.242366
O O15 0.000000 0.000000 0.000000
O O16 0.747716 0.185940 0.010319
O O17 0.659858 0.743472 0.479451
#
# Coordination Sequence:
#
# PCOD9110872 Si02
#       8
#     2   2   2   2   2   2   2   2
#     4  10  20  45  66  93 145 193 239 282 339 414
#     4  10  21  43  66 102 151 197 234 278 342 419
#     4  10  24  45  68 101 142 178 228 300 364 410
#     4  10  23  47  73  99 133 177 234 301 366 425
#     4   8  16  38  62  90 138 192 227 274 330 400
#     4  10  20  42  67 100 146 186 229 290 344 415
#     4  11  22  44  71 105 138 181 243 298 347 417
#     4  11  26  39  67 108 138 192 239 283 345 417
#
# _framework density 24.030453999999999
#
# number of rings (size 3 to 8) (size 9 to 14) (size 15 to 20)
#    0.000    2.250    3.750    0.750    1.750    5.000 
#   11.250    0.625    0.000    0.000    0.000    0.875 
#    0.000    0.000    0.000    0.000    0.000    0.000 
#
# Total GULP energy -89414.851003 kJ/mol
# GULP energy per Si atom -5588.428188 kJ/mol
# Density = 2.397576 g / cm^3
# Si number density = 24.030454 Si / 1000 Ang^3
#
#
#
# Elastic Constant Matrix: (Units=GPa)
#
#
# Indices 1 2 3 4 5 6 
#
# 1 142.4159 77.7236 34.9010 -17.5393 -2.2086 4.2782
# 2 77.7236 172.1717 50.6311 -25.9156 -4.2001 -11.4069
# 3 34.9010 50.6311 74.4644 -28.4055 -6.7842 4.4890
# 4 -17.5393 -25.9156 -28.4055 38.2084 0.1948 1.1771
# 5 -2.2086 -4.2001 -6.7842 0.1948 33.1849 -7.0301
# 6 4.2782 -11.4069 4.4890 1.1771 -7.0301 50.4642
#
#
#
# Elastic Compliance Matrix: (Units=1/GPa)
#
#
# Indices 1 2 3 4 5 6 
#
# 1 0.009672 -0.003932 -0.001551 0.000674 -0.000527 -0.001660
# 2 -0.003932 0.009160 -0.003974 0.001364 0.000675 0.002820
# 3 -0.001551 -0.003974 0.022395 0.013305 0.003342 -0.002604
# 4 0.000674 0.001364 0.013305 0.037331 0.002407 -0.001468
# 5 -0.000527 0.000675 0.003342 0.002407 0.031758 0.004268
# 6 -0.001660 0.002820 -0.002604 -0.001468 0.004268 0.021454
#
#
# Mechanical properties :
#
#
# Convention : Reuss Voigt Hill
#
# Bulk Modulus (GPa) = 44.81355 79.50703 62.16029
# Shear Modulus (GPa) = 31.62124 39.42460 35.52292
#
# Velocity S-wave (km/s) = 3.63144 4.05484 3.84897
# Velocity P-wave (km/s) = 6.02265 7.42159 6.75842
#
# Compressibility (1/GPa) = 0.02231468
#
# Stress axis : x y z
#
# Youngs Moduli (GPa) = 103.39011 109.16869 44.65269
#
# Poissons Ratio (x) = 0.42921 0.06925
# Poissons Ratio (y) = 0.40649 0.17745
# Poissons Ratio (z) = 0.16033 0.43383
#
# Static dielectric constant tensor:
#      x y z
#    x 1.915550 0.026760 0.014620 
#    y 0.026760 2.006580 -0.009790 
#    z 0.014620 -0.009790 2.110250 
# 
# From -- ./inp_files/452411.got.cif
#   From: 2010.05.17/outbox.cif.g08.bks.cpg/sg2_227_cif.got.tgz:452411.got - 2010.06.03 11:33:40.
