data_PCOD9110388
_publ_section_title
;
Structure prediction by ZEFSAII (Michael W. Deem and Ramdas Pophale) SiO2 
 PCOD9110388
Probable space group: P -1
;
_chemical_formula_sum "Si O2"
_cell_formula_units_Z 14
_cell_length_a 18.467341
_cell_length_b 6.820939
_cell_length_c 5.220811
_cell_angle_alpha 111.694106
_cell_angle_beta 116.427186
_cell_angle_gamma 59.953015
_cell_volume 500.547866
_symmetry_space_group_name_H-M "P -1"
_symmetry_group_IT_number 2
_symmetry_cell_setting 'triclinic'
loop_
_space_group_symop_operation_xyz
x,y,z
-x,-y,-z
loop_
_atom_site_type_symbol
_atom_site_label
_atom_site_fract_x
_atom_site_fract_y
_atom_site_fract_z
Si Si1 0.640563 0.418721 0.079356
Si Si2 0.493991 0.259840 0.292087
Si Si3 0.941133 0.874841 0.242114
Si Si4 0.213293 0.459822 0.349375
Si Si5 0.208858 0.808722 0.150907
Si Si6 0.629081 0.968291 0.755682
Si Si7 0.897676 0.719973 0.597426
O O1 0.709324 0.475074 0.383451
O O2 0.692056 0.341030 0.850836
O O3 0.552639 0.649589 0.013306
O O4 0.624383 0.192477 0.016279
O O5 0.500000 0.500000 0.500000
O O6 0.584279 0.067816 0.457242
O O7 0.424159 0.167476 0.264154
O O8 0.845685 0.078721 0.134942
O O9 0.935977 0.702752 0.368327
O O10 0.959125 0.758817 0.934571
O O11 0.000000 0.000000 0.500000
O O12 0.269176 0.206235 0.200452
O O13 0.142666 0.451338 0.437635
O O14 0.171191 0.642237 0.148403
O O15 0.186633 0.028721 0.404116
#
# Coordination Sequence:
#
# PCOD9110388 Si02
#       7
#     2   2   2   2   2   2   2
#     4  11  22  39  64  93 135 178 231 291 349 417
#     4   9  20  38  64  88 134 178 232 295 344 417
#     4  10  22  46  73 102 145 188 228 287 355 420
#     4  12  24  39  70 101 134 183 238 290 355 417
#     4  10  23  40  66  99 139 176 233 285 347 411
#     4  10  20  42  60  92 133 181 231 294 351 412
#     4  10  24  43  72 102 141 186 233 288 354 417
#
# _framework density 27.969351
#
# number of rings (size 3 to 8) (size 9 to 14) (size 15 to 20)
#    0.857    0.857    2.857    1.286    2.000    2.857 
#    0.000    7.857    0.000    0.000    0.000    0.000 
#    0.000    0.000    0.000    0.000    0.000    0.000 
#
# Total GULP energy -78338.363728 kJ/mol
# GULP energy per Si atom -5595.597409 kJ/mol
# Density = 2.790569 g / cm^3
# Si number density = 27.969351 Si / 1000 Ang^3
#
#
#
# Elastic Constant Matrix: (Units=GPa)
#
#
# Indices 1 2 3 4 5 6 
#
# 1 105.7569 42.9844 36.6426 7.0397 11.1122 31.5706
# 2 42.9844 186.8129 52.3137 -0.1615 7.2032 33.3630
# 3 36.6426 52.3137 138.7357 7.1582 18.5013 18.9364
# 4 7.0397 -0.1615 7.1582 52.1525 6.1537 -3.0130
# 5 11.1122 7.2032 18.5013 6.1537 41.2619 7.8463
# 6 31.5706 33.3630 18.9364 -3.0130 7.8463 54.9859
#
#
#
# Elastic Compliance Matrix: (Units=1/GPa)
#
#
# Indices 1 2 3 4 5 6 
#
# 1 0.012546 -0.001318 -0.001816 -0.001661 -0.000997 -0.005726
# 2 -0.001318 0.006640 -0.001869 0.000240 0.000509 -0.002688
# 3 -0.001816 -0.001869 0.008891 -0.000658 -0.002979 -0.000496
# 4 -0.001661 0.000240 -0.000658 0.019961 -0.002756 0.002522
# 5 -0.000997 0.000509 -0.002979 -0.002756 0.026669 -0.002667
# 6 -0.005726 -0.002688 -0.000496 0.002522 -0.002667 0.023795
#
#
# Mechanical properties :
#
#
# Convention : Reuss Voigt Hill
#
# Bulk Modulus (GPa) = 55.33960 77.24301 66.29131
# Shear Modulus (GPa) = 43.65577 49.63772 46.64674
#
# Velocity S-wave (km/s) = 3.95504 4.21731 4.08828
# Velocity P-wave (km/s) = 6.37849 7.16877 6.78515
#
# Compressibility (1/GPa) = 0.01807024
#
# Stress axis : x y z
#
# Youngs Moduli (GPa) = 79.70933 150.59520 112.46915
#
# Poissons Ratio (x) = 0.19854 0.20425
# Poissons Ratio (y) = 0.10509 0.21021
# Poissons Ratio (z) = 0.14475 0.28148
#
# Static dielectric constant tensor:
#      x y z
#    x 2.236230 -0.050990 -0.053980 
#    y -0.050990 2.167130 0.015150 
#    z -0.053980 0.015150 2.195960 
# 
# From -- ./inp_files/114912.got.cif
#   From: 2010.05.17/outbox.cif.g08.bks.cpg/sg2_58_cif.got.tgz:114912.got - 2010.06.03 11:33:40.
