data_PCOD9110308
_publ_section_title
;
Structure prediction by ZEFSAII (Michael W. Deem and Ramdas Pophale) SiO2 
 PCOD9110308
Probable space group: P -1
;
_chemical_formula_sum "Si O2"
_cell_formula_units_Z 16
_cell_length_a 19.176407
_cell_length_b 11.187872
_cell_length_c 17.083512
_cell_angle_alpha 29.664670
_cell_angle_beta 32.131289
_cell_angle_gamma 23.202828
_cell_volume 692.522453
_symmetry_space_group_name_H-M "P -1"
_symmetry_group_IT_number 2
_symmetry_cell_setting 'triclinic'
loop_
_space_group_symop_operation_xyz
x,y,z
-x,-y,-z
loop_
_atom_site_type_symbol
_atom_site_label
_atom_site_fract_x
_atom_site_fract_y
_atom_site_fract_z
Si Si1 0.679326 0.361569 0.452874
Si Si2 0.576934 0.689843 0.995510
Si Si3 0.991483 0.379887 0.494578
Si Si4 0.961850 0.334925 0.857731
Si Si5 0.462776 0.408753 0.375333
Si Si6 0.717575 0.120864 0.074313
Si Si7 0.369143 0.290894 0.375006
Si Si8 0.220076 0.236829 0.929868
O O1 0.500000 0.500000 0.500000
O O2 0.652458 0.367961 0.567673
O O3 0.730475 0.573474 0.266696
O O4 0.833514 0.996218 0.479330
O O5 0.551898 0.516377 0.183774
O O6 0.667482 0.450900 0.967158
O O7 0.741241 0.649183 0.893522
O O8 0.371385 0.034770 0.971561
O O9 0.971570 0.593082 0.319985
O O10 0.000000 0.500000 0.500000
O O11 0.826871 0.401270 0.646734
O O12 0.093792 0.215745 0.873956
O O13 0.000000 0.000000 0.000000
O O14 0.358431 0.385694 0.421700
O O15 0.609243 0.022260 0.483262
O O16 0.547124 0.185469 0.231694
O O17 0.728173 0.049484 0.014055
O O18 0.000000 0.500000 0.000000
#
# Coordination Sequence:
#
# PCOD9110308 Si02
#       8
#     2   2   2   2   2   2   2   2
#     4  12  28  47  69 100 147 190 236 296 355 424
#     4  10  23  43  73 101 141 183 235 287 358 423
#     4  12  27  42  71 103 136 188 242 288 352 432
#     4  10  22  44  71 105 133 180 237 292 357 418
#     4  10  21  43  72  99 132 179 229 289 347 419
#     4  10  22  43  73 100 136 185 233 294 342 429
#     4  10  20  41  72  99 134 176 235 284 346 414
#     4  12  28  46  66 106 149 186 235 297 363 412
#
# _framework density 23.103943999999998
#
# number of rings (size 3 to 8) (size 9 to 14) (size 15 to 20)
#    0.000    1.250    1.250    4.875    5.250    4.500 
#    0.000    1.875    0.000    0.000    0.000    0.000 
#    0.000    0.000    0.000    0.000    0.000    0.000 
#
# Total GULP energy -89360.500636 kJ/mol
# GULP energy per Si atom -5585.031290 kJ/mol
# Density = 2.305136 g / cm^3
# Si number density = 23.103944 Si / 1000 Ang^3
#
#
#
# Elastic Constant Matrix: (Units=GPa)
#
#
# Indices 1 2 3 4 5 6 
#
# 1 93.4843 61.8469 20.2511 22.8658 -2.3954 -11.2004
# 2 61.8469 138.5236 20.3850 25.1403 -12.7349 -17.2326
# 3 20.2511 20.3850 98.8029 8.5781 -15.5818 -4.1673
# 4 22.8658 25.1403 8.5781 32.4458 -5.9785 -8.8554
# 5 -2.3954 -12.7349 -15.5818 -5.9785 19.0875 9.8379
# 6 -11.2004 -17.2326 -4.1673 -8.8554 9.8379 57.0396
#
#
#
# Elastic Compliance Matrix: (Units=1/GPa)
#
#
# Indices 1 2 3 4 5 6 
#
# 1 0.017401 -0.006527 -0.002681 -0.007490 -0.007408 0.001364
# 2 -0.006527 0.011238 0.000177 -0.002940 0.005534 0.000716
# 3 -0.002681 0.000177 0.012224 0.000078 0.010495 -0.001378
# 4 -0.007490 -0.002940 0.000078 0.040617 0.008612 0.002467
# 5 -0.007408 0.005534 0.010495 0.008612 0.071585 -0.010026
# 6 0.001364 0.000716 -0.001378 0.002467 -0.010026 0.020027
#
#
# Mechanical properties :
#
#
# Convention : Reuss Voigt Hill
#
# Bulk Modulus (GPa) = 43.85213 59.53076 51.69145
# Shear Modulus (GPa) = 25.15664 36.93644 31.04654
#
# Velocity S-wave (km/s) = 3.30335 4.00272 3.66973
# Velocity P-wave (km/s) = 5.79405 6.86912 6.35436
#
# Compressibility (1/GPa) = 0.02280391
#
# Stress axis : x y z
#
# Youngs Moduli (GPa) = 57.46719 88.98175 81.80399
#
# Poissons Ratio (x) = 0.58076 0.21928
# Poissons Ratio (y) = 0.37507 -0.01450
# Poissons Ratio (z) = 0.15404 -0.01577
#
# Static dielectric constant tensor:
#      x y z
#    x 1.920840 -0.045170 0.068310 
#    y -0.045170 1.872450 -0.120380 
#    z 0.068310 -0.120380 1.759330 
# 
# From -- ./inp_files/577917.got.cif
#   From: 2010.05.17/outbox.cif.g08.bks.cpg/sg2_289_cif.got.tgz:577917.got - 2010.06.03 11:33:40.
