data_PCOD9110325
_publ_section_title
;
Structure prediction by ZEFSAII (Michael W. Deem and Ramdas Pophale) SiO2 
 PCOD9110325
Probable space group: P -1
;
_chemical_formula_sum "Si O2"
_cell_formula_units_Z 16
_cell_length_a 16.738914
_cell_length_b 12.121565
_cell_length_c 20.458819
_cell_angle_alpha 153.089140
_cell_angle_beta 21.387420
_cell_angle_gamma 141.444510
_cell_volume 655.159890
_symmetry_space_group_name_H-M "P -1"
_symmetry_group_IT_number 2
_symmetry_cell_setting 'triclinic'
loop_
_space_group_symop_operation_xyz
x,y,z
-x,-y,-z
loop_
_atom_site_type_symbol
_atom_site_label
_atom_site_fract_x
_atom_site_fract_y
_atom_site_fract_z
Si Si1 0.425540 0.267922 0.113459
Si Si2 0.074047 0.346199 0.929450
Si Si3 0.587394 0.734807 0.035658
Si Si4 0.207717 0.158445 0.528193
Si Si5 0.275124 0.496369 0.553213
Si Si6 0.867491 0.835880 0.602642
Si Si7 0.942891 0.996729 0.933766
Si Si8 0.454244 0.689389 0.405767
O O1 0.212011 0.229893 0.299416
O O2 0.466776 0.531659 0.246411
O O3 0.403156 0.267208 0.052061
O O4 0.646938 0.045409 0.851207
O O5 0.948201 0.137260 0.934123
O O6 0.336476 0.212804 0.679737
O O7 0.000000 0.500000 0.000000
O O8 0.988586 0.587785 0.170239
O O9 0.398190 0.990164 0.342192
O O10 0.500000 0.500000 0.000000
O O11 0.823360 0.775231 0.901144
O O12 0.355209 0.281308 0.432854
O O13 0.075166 0.956303 0.503484
O O14 0.086319 0.405143 0.608385
O O15 0.463139 0.486456 0.350127
O O16 0.189152 0.771893 0.796466
O O17 0.201418 0.883093 0.702374
#
# Coordination Sequence:
#
# PCOD9110325 Si02
#       8
#     2   2   2   2   2   2   2   2
#     4  10  23  42  73 100 143 185 251 296 366 421
#     4  11  27  45  77 110 144 194 245 306 371 435
#     4  12  30  47  68 106 152 201 243 303 375 436
#     4  11  24  42  70 105 144 184 253 301 362 432
#     4  10  23  42  75 104 141 188 244 303 364 434
#     4  10  20  41  73 106 133 186 241 317 356 428
#     4  11  28  48  69 106 154 194 241 300 373 444
#     4  11  24  48  74 108 145 196 241 299 371 445
#
# _framework density 24.421517999999999
#
# number of rings (size 3 to 8) (size 9 to 14) (size 15 to 20)
#    0.000    1.250    2.500    1.125    8.750    2.500 
#    2.250    0.000    0.000    0.000    0.000    0.000 
#    0.000    0.000    0.000    0.000    0.000    0.000 
#
# Total GULP energy -89289.350243 kJ/mol
# GULP energy per Si atom -5580.584390 kJ/mol
# Density = 2.436593 g / cm^3
# Si number density = 24.421518 Si / 1000 Ang^3
#
#
#
# Elastic Constant Matrix: (Units=GPa)
#
#
# Indices 1 2 3 4 5 6 
#
# 1 78.7467 55.3072 30.5810 -3.7012 -3.0386 -2.8264
# 2 55.3072 152.8646 20.2373 -2.9844 -8.3094 0.8219
# 3 30.5810 20.2373 66.6038 5.0431 -13.8396 11.2133
# 4 -3.7012 -2.9844 5.0431 26.6427 4.0758 -1.7843
# 5 -3.0386 -8.3094 -13.8396 4.0758 33.5850 0.3290
# 6 -2.8264 0.8219 11.2133 -1.7843 0.3290 35.0302
#
#
#
# Elastic Compliance Matrix: (Units=1/GPa)
#
#
# Indices 1 2 3 4 5 6 
#
# 1 0.021565 -0.006634 -0.010148 0.005237 -0.004561 0.005454
# 2 -0.006634 0.008920 0.000994 -0.000504 0.002089 -0.001108
# 3 -0.010148 0.000994 0.023559 -0.007895 0.010081 -0.008880
# 4 0.005237 -0.000504 -0.007895 0.041261 -0.007962 0.005138
# 5 -0.004561 0.002089 0.010081 -0.007962 0.035043 -0.004379
# 6 0.005454 -0.001108 -0.008880 0.005138 -0.004379 0.032158
#
#
# Mechanical properties :
#
#
# Convention : Reuss Voigt Hill
#
# Bulk Modulus (GPa) = 44.50653 56.71845 50.61249
# Shear Modulus (GPa) = 24.80507 31.85756 28.33131
#
# Velocity S-wave (km/s) = 3.19047 3.61569 3.40971
# Velocity P-wave (km/s) = 5.64234 6.38014 6.02255
#
# Compressibility (1/GPa) = 0.02246861
#
# Stress axis : x y z
#
# Youngs Moduli (GPa) = 46.37103 112.10871 42.44613
#
# Poissons Ratio (x) = 0.74372 0.43076
# Poissons Ratio (y) = 0.30762 -0.04221
# Poissons Ratio (z) = 0.47059 -0.11148
#
# Static dielectric constant tensor:
#      x y z
#    x 2.002000 -0.032630 0.037730 
#    y -0.032630 2.051690 -0.042920 
#    z 0.037730 -0.042920 1.986370 
# 
# From -- ./inp_files/600110.got.cif
#   From: 2010.05.17/outbox.cif.g08.bks.cpg/sg2_301_cif.got.tgz:600110.got - 2010.06.03 11:33:40.
