data_PCOD9110443
_publ_section_title
;
Structure prediction by ZEFSAII (Michael W. Deem and Ramdas Pophale) SiO2 
 PCOD9110443
Probable space group: P -1
;
_chemical_formula_sum "Si O2"
_cell_formula_units_Z 15
_cell_length_a 13.136422
_cell_length_b 8.392502
_cell_length_c 11.764521
_cell_angle_alpha 126.210328
_cell_angle_beta 136.267858
_cell_angle_gamma 50.914003
_cell_volume 673.500558
_symmetry_space_group_name_H-M "P -1"
_symmetry_group_IT_number 2
_symmetry_cell_setting 'triclinic'
loop_
_space_group_symop_operation_xyz
x,y,z
-x,-y,-z
loop_
_atom_site_type_symbol
_atom_site_label
_atom_site_fract_x
_atom_site_fract_y
_atom_site_fract_z
Si Si1 0.184687 0.567517 0.439668
Si Si2 0.609778 0.744759 0.352030
Si Si3 0.678074 0.135763 0.654832
Si Si4 0.321836 0.428531 0.257654
Si Si5 0.099098 0.517443 0.916633
Si Si6 0.000000 0.000000 0.000000
Si Si7 0.627448 0.150099 0.252704
Si Si8 0.604824 0.702208 0.069236
O O1 0.243261 0.438708 0.548327
O O2 0.290630 0.420905 0.361732
O O3 0.229203 0.775907 0.570839
O O4 0.008548 0.598659 0.274386
O O5 0.456683 0.785601 0.323998
O O6 0.581448 0.689304 0.177940
O O7 0.646200 0.959675 0.478682
O O8 0.672906 0.340803 0.667224
O O9 0.846292 0.032318 0.807629
O O10 0.481564 0.258038 0.266677
O O11 0.177661 0.421686 0.059912
O O12 0.250167 0.492653 0.947117
O O13 0.000604 0.766380 0.945978
O O14 0.657510 0.903433 0.173024
O O15 0.552182 0.249414 0.111972
#
# Coordination Sequence:
#
# PCOD9110443 Si02
#       8
#     2   2   2   2   2   1   2   2
#     4  12  22  38  65  95 122 159 213 253 309 358
#     4  11  23  37  64  94 125 160 211 255 299 368
#     4  10  21  39  61  96 120 164 203 256 304 359
#     4  10  21  39  64  88 124 160 205 260 303 362
#     4  10  23  42  62  90 126 163 204 255 309 368
#     4  10  20  42  62  88 126 152 204 254 312 356
#     4  10  22  41  63  89 121 166 205 253 305 368
#     4  10  24  44  61  86 131 166 204 248 313 365
#
# _framework density 22.271697
#
# number of rings (size 3 to 8) (size 9 to 14) (size 15 to 20)
#    0.000    1.600    2.667    1.600    3.733    1.600 
#    0.000    0.000    0.000    0.000    0.000    0.000 
#    0.000    0.000    0.000    0.000    0.000    0.000 
#
# Total GULP energy -83678.230659 kJ/mol
# GULP energy per Si atom -5578.548711 kJ/mol
# Density = 2.222101 g / cm^3
# Si number density = 22.271697 Si / 1000 Ang^3
#
#
#
# Elastic Constant Matrix: (Units=GPa)
#
#
# Indices 1 2 3 4 5 6 
#
# 1 39.1920 -0.0615 29.8397 -10.9075 -11.8101 6.0620
# 2 -0.0615 44.4094 12.1531 -3.2094 7.8791 12.2040
# 3 29.8397 12.1531 148.7383 -11.2630 10.7370 10.6814
# 4 -10.9075 -3.2094 -11.2630 33.2251 10.7115 -1.1191
# 5 -11.8101 7.8791 10.7370 10.7115 49.7356 0.5342
# 6 6.0620 12.2040 10.6814 -1.1191 0.5342 13.6767
#
#
#
# Elastic Compliance Matrix: (Units=1/GPa)
#
#
# Indices 1 2 3 4 5 6 
#
# 1 0.037761 0.005385 -0.006906 0.007404 0.008180 -0.015862
# 2 0.005385 0.032073 -0.000873 0.004976 -0.004366 -0.029747
# 3 -0.006906 -0.000873 0.008778 0.001738 -0.003742 -0.002727
# 4 0.007404 0.004976 0.001738 0.035664 -0.007023 -0.005887
# 5 0.008180 -0.004366 -0.003742 -0.007023 0.025043 0.001639
# 6 -0.015862 -0.029747 -0.002727 -0.005887 0.001639 0.108276
#
#
# Mechanical properties :
#
#
# Convention : Reuss Voigt Hill
#
# Bulk Modulus (GPa) = 13.54579 35.13360 24.33969
# Shear Modulus (GPa) = 18.05113 32.02137 25.03625
#
# Velocity S-wave (km/s) = 2.85001 3.79589 3.35644
# Velocity P-wave (km/s) = 4.11404 5.91785 5.09639
#
# Compressibility (1/GPa) = 0.07382366
#
# Stress axis : x y z
#
# Youngs Moduli (GPa) = 26.48212 31.17895 113.92563
#
# Poissons Ratio (x) = -0.16790 0.78681
# Poissons Ratio (y) = -0.14261 0.09944
# Poissons Ratio (z) = 0.18290 0.02721
#
# Static dielectric constant tensor:
#      x y z
#    x 1.822940 -0.015790 0.001810 
#    y -0.015790 1.759070 -0.000320 
#    z 0.001810 -0.000320 1.841910 
# 
# From -- ./inp_files/182509.got.cif
#   From: 2010.05.17/outbox.cif.g08.bks.cpg/sg2_92_cif.got.tgz:182509.got - 2010.06.03 11:33:40.
