data_PCOD9110816
_publ_section_title
;
Structure prediction by ZEFSAII (Michael W. Deem and Ramdas Pophale) SiO2 
 PCOD9110816
Probable space group: P -1
;
_chemical_formula_sum "Si O2"
_cell_formula_units_Z 14
_cell_length_a 20.008582
_cell_length_b 11.946148
_cell_length_c 8.568704
_cell_angle_alpha 69.631707
_cell_angle_beta 132.498226
_cell_angle_gamma 149.406106
_cell_volume 601.683741
_symmetry_space_group_name_H-M "P -1"
_symmetry_group_IT_number 2
_symmetry_cell_setting 'triclinic'
loop_
_space_group_symop_operation_xyz
x,y,z
-x,-y,-z
loop_
_atom_site_type_symbol
_atom_site_label
_atom_site_fract_x
_atom_site_fract_y
_atom_site_fract_z
Si Si1 0.516501 0.817989 0.593649
Si Si2 0.497881 0.396563 0.826689
Si Si3 0.801346 0.778196 0.678462
Si Si4 0.768223 0.940233 0.121199
Si Si5 0.571458 0.099142 0.324678
Si Si6 0.834892 0.408313 0.269944
Si Si7 0.908893 0.743044 0.304290
O O1 0.347598 0.515200 0.421827
O O2 0.409135 0.774731 0.576552
O O3 0.592597 0.996169 0.490910
O O4 0.716621 0.987610 0.903902
O O5 0.352029 0.287142 0.518769
O O6 0.353102 0.180435 0.847124
O O7 0.647827 0.682621 0.986100
O O8 0.668201 0.497178 0.012796
O O9 0.925399 0.955694 0.627415
O O10 0.000000 0.000000 0.000000
O O11 0.009004 0.196935 0.424194
O O12 0.715618 0.278919 0.311178
O O13 0.332023 0.819794 0.016397
O O14 0.937758 0.660504 0.282966
O O15 0.000000 0.500000 0.500000
#
# Coordination Sequence:
#
# PCOD9110816 Si02
#       7
#     2   2   2   2   2   2   2
#     4  10  20  42  66  94 131 166 210 266 323 379
#     4   9  19  34  56  87 124 163 199 247 316 383
#     4  10  22  39  61  95 132 162 202 262 323 385
#     4   9  18  34  56  87 125 155 197 255 312 380
#     4  10  23  42  65  89 127 173 214 264 316 376
#     4  11  24  43  65  90 125 172 222 264 313 379
#     4  11  21  36  62  90 119 161 209 258 317 376
#
# _framework density 23.268039000000002
#
# number of rings (size 3 to 8) (size 9 to 14) (size 15 to 20)
#    0.000    2.000    0.000    3.857    0.000    5.143 
#    0.000   13.571    0.000    0.000    0.000    0.000 
#    0.000    0.000    0.000    0.000    0.000    0.000 
#
# Total GULP energy -78221.005318 kJ/mol
# GULP energy per Si atom -5587.214666 kJ/mol
# Density = 2.321508 g / cm^3
# Si number density = 23.268039 Si / 1000 Ang^3
#
#
#
# Elastic Constant Matrix: (Units=GPa)
#
#
# Indices 1 2 3 4 5 6 
#
# 1 38.3247 10.9504 21.6593 -2.0553 14.2234 -18.6679
# 2 10.9504 81.4623 35.3504 -12.1339 -4.0458 -16.9452
# 3 21.6593 35.3504 201.1688 -18.2929 17.1358 -19.3913
# 4 -2.0553 -12.1339 -18.2929 35.8591 -3.4339 0.1571
# 5 14.2234 -4.0458 17.1358 -3.4339 32.8390 -7.0182
# 6 -18.6679 -16.9452 -19.3913 0.1571 -7.0182 26.5113
#
#
#
# Elastic Compliance Matrix: (Units=1/GPa)
#
#
# Indices 1 2 3 4 5 6 
#
# 1 0.044894 -0.000570 -0.000956 0.000512 -0.013180 0.027056
# 2 -0.000570 0.016340 -0.001871 0.005067 0.005950 0.010219
# 3 -0.000956 -0.001871 0.005974 0.002130 -0.002310 0.001876
# 4 0.000512 0.005067 0.002130 0.031057 0.003817 0.005984
# 5 -0.013180 0.005950 -0.002310 0.003817 0.039178 0.003182
# 6 0.027056 0.010219 0.001876 0.005984 0.003182 0.065482
#
#
# Mechanical properties :
#
#
# Convention : Reuss Voigt Hill
#
# Bulk Modulus (GPa) = 16.55255 50.76398 33.65827
# Shear Modulus (GPa) = 21.75257 35.90826 28.83041
#
# Velocity S-wave (km/s) = 3.06088 3.93268 3.52384
# Velocity P-wave (km/s) = 4.42959 6.51810 5.57256
#
# Compressibility (1/GPa) = 0.06041367
#
# Stress axis : x y z
#
# Youngs Moduli (GPa) = 22.27463 61.19876 167.39160
#
# Poissons Ratio (x) = 0.03489 0.16005
# Poissons Ratio (y) = 0.01270 0.31319
# Poissons Ratio (z) = 0.02130 0.11450
#
# Static dielectric constant tensor:
#      x y z
#    x 1.891870 0.016670 0.009520 
#    y 0.016670 1.888460 -0.020940 
#    z 0.009520 -0.020940 1.915080 
# 
# From -- ./inp_files/346054.got.cif
#   From: 2010.05.17/outbox.cif.g08.bks.cpg/sg2_174_cif.got.tgz:346054.got - 2010.06.03 11:33:40.
