data_PCOD9110632
_publ_section_title
;
Structure prediction by ZEFSAII (Michael W. Deem and Ramdas Pophale) SiO2 
 PCOD9110632
Probable space group: P -1
;
_chemical_formula_sum "Si O2"
_cell_formula_units_Z 12
_cell_length_a 10.039121
_cell_length_b 9.451711
_cell_length_c 8.114272
_cell_angle_alpha 95.890571
_cell_angle_beta 108.680528
_cell_angle_gamma 122.017175
_cell_volume 581.770632
_symmetry_space_group_name_H-M "P -1"
_symmetry_group_IT_number 2
_symmetry_cell_setting 'triclinic'
loop_
_space_group_symop_operation_xyz
x,y,z
-x,-y,-z
loop_
_atom_site_type_symbol
_atom_site_label
_atom_site_fract_x
_atom_site_fract_y
_atom_site_fract_z
Si Si1 0.799056 0.364903 0.843924
Si Si2 0.227896 0.211224 0.157419
Si Si3 0.937553 0.583437 0.607572
Si Si4 0.861051 0.133150 0.004938
Si Si5 0.832300 0.824600 0.492195
Si Si6 0.525908 0.422111 0.838935
O O1 0.668103 0.382432 0.899448
O O2 0.806192 0.431065 0.669810
O O3 0.767478 0.179619 0.842945
O O4 0.000000 0.500000 0.000000
O O5 0.190411 0.145464 0.322678
O O6 0.391947 0.413940 0.236488
O O7 0.055757 0.197424 0.032531
O O8 0.241135 0.076356 0.039980
O O9 0.094228 0.750714 0.798528
O O10 0.000000 0.500000 0.500000
O O11 0.855770 0.667658 0.489867
O O12 0.656745 0.750126 0.314973
O O13 0.000000 0.000000 0.500000
O O14 0.500000 0.500000 0.000000
#
# Coordination Sequence:
#
# PCOD9110632 Si02
#       6
#     2   2   2   2   2   2
#     4  10  20  42  64  97 132 178 218 272 334 394
#     4  10  21  43  67  95 135 176 224 276 331 399
#     4  10  22  37  67  97 134 175 224 263 341 392
#     4   9  20  38  71  91 131 173 221 263 344 381
#     4  11  26  42  67  97 139 178 225 273 336 399
#     4  12  26  41  70 101 133 180 228 275 338 400
#
# _framework density 20.626687
#
# number of rings (size 3 to 8) (size 9 to 14) (size 15 to 20)
#    0.000    1.667    5.000    0.500   14.000    0.000 
#    0.000    3.333    0.000    0.000    0.000    0.000 
#    0.000    0.000    0.000    0.000    0.000    0.000 
#
# Total GULP energy -66945.139380 kJ/mol
# GULP energy per Si atom -5578.761615 kJ/mol
# Density = 2.057974 g / cm^3
# Si number density = 20.626687 Si / 1000 Ang^3
#
#
#
# Elastic Constant Matrix: (Units=GPa)
#
#
# Indices 1 2 3 4 5 6 
#
# 1 132.5735 44.1741 53.4645 -0.8178 -2.9307 -20.8721
# 2 44.1741 88.3849 26.1917 2.6913 6.6551 -8.0630
# 3 53.4645 26.1917 57.4636 2.9865 -1.9201 -1.6928
# 4 -0.8178 2.6913 2.9865 34.3938 -1.9227 -0.0160
# 5 -2.9307 6.6551 -1.9201 -1.9227 37.7191 6.5314
# 6 -20.8721 -8.0630 -1.6928 -0.0160 6.5314 45.3381
#
#
#
# Elastic Compliance Matrix: (Units=1/GPa)
#
#
# Indices 1 2 3 4 5 6 
#
# 1 0.014193 -0.003200 -0.011661 0.001614 0.000204 0.005500
# 2 -0.003200 0.014387 -0.003591 -0.001072 -0.003271 0.001422
# 3 -0.011661 -0.003591 0.029933 -0.002485 0.002022 -0.005182
# 4 0.001614 -0.001072 -0.002485 0.029506 0.001652 0.000232
# 5 0.000204 -0.003271 0.002022 0.001652 0.028063 -0.004455
# 6 0.005500 0.001422 -0.005182 0.000232 -0.004455 0.025290
#
#
# Mechanical properties :
#
#
# Convention : Reuss Voigt Hill
#
# Bulk Modulus (GPa) = 46.28301 58.45363 52.36832
# Shear Modulus (GPa) = 26.95726 33.79631 30.37679
#
# Velocity S-wave (km/s) = 3.61905 4.05220 3.84173
# Velocity P-wave (km/s) = 6.32064 7.09183 6.71731
#
# Compressibility (1/GPa) = 0.02160620
#
# Stress axis : x y z
#
# Youngs Moduli (GPa) = 70.45938 69.50924 33.40794
#
# Poissons Ratio (x) = 0.22246 0.38958
# Poissons Ratio (y) = 0.22550 0.11998
# Poissons Ratio (z) = 0.82164 0.24963
#
# Static dielectric constant tensor:
#      x y z
#    x 1.751100 -0.018630 -0.000870 
#    y -0.018630 1.818440 -0.022590 
#    z -0.000870 -0.022590 1.782380 
# 
# From -- ./inp_files/155039.got.cif
#   From: 2010.05.17/outbox.cif.g08.bks.cpg/sg2_78_cif.got.tgz:155039.got - 2010.06.03 11:33:40.
