data_PCOD9110179
_publ_section_title
;
Structure prediction by ZEFSAII (Michael W. Deem and Ramdas Pophale) SiO2 
 PCOD9110179
Probable space group: P -1
;
_chemical_formula_sum "Si O2"
_cell_formula_units_Z 12
_cell_length_a 17.396843
_cell_length_b 11.707625
_cell_length_c 9.246700
_cell_angle_alpha 52.074444
_cell_angle_beta 55.027801
_cell_angle_gamma 18.199536
_cell_volume 463.550940
_symmetry_space_group_name_H-M "P -1"
_symmetry_group_IT_number 2
_symmetry_cell_setting 'triclinic'
loop_
_space_group_symop_operation_xyz
x,y,z
-x,-y,-z
loop_
_atom_site_type_symbol
_atom_site_label
_atom_site_fract_x
_atom_site_fract_y
_atom_site_fract_z
Si Si1 0.230794 0.362316 0.932372
Si Si2 0.643396 0.110725 0.770972
Si Si3 0.273400 0.386657 0.539123
Si Si4 0.571287 0.524480 0.602102
Si Si5 0.170801 0.649570 0.997510
Si Si6 0.967024 0.717730 0.364618
O O1 0.261248 0.334502 0.751003
O O2 0.084054 0.706138 0.893884
O O3 0.500000 0.000000 0.000000
O O4 0.162495 0.297700 0.108050
O O5 0.712388 0.172648 0.700281
O O6 0.525169 0.289474 0.599225
O O7 0.423935 0.370999 0.911948
O O8 0.304432 0.514102 0.430207
O O9 0.031171 0.693170 0.470243
O O10 0.500000 0.000000 0.500000
O O11 0.316075 0.852352 0.704929
O O12 0.159641 0.520295 0.206015
O O13 0.000000 0.000000 0.000000
O O14 0.000000 0.500000 0.500000
#
# Coordination Sequence:
#
# PCOD9110179 Si02
#       6
#     2   2   2   2   2   2
#     4  10  20  41  70  95 137 189 225 280 354 405
#     4  10  21  42  71  95 141 187 223 290 350 407
#     4  12  23  42  73 103 142 187 233 288 354 412
#     4  11  22  43  69 100 136 186 233 283 346 414
#     4  11  21  42  69 103 141 182 228 297 348 402
#     4  12  25  42  69 105 139 180 238 289 347 417
#
# _framework density 25.887124
#
# number of rings (size 3 to 8) (size 9 to 14) (size 15 to 20)
#    0.000    1.000    6.667    3.000    0.000    0.000 
#    0.000   15.833    0.000    0.000    0.000    0.000 
#    0.000    0.000    0.000    0.000    0.000    0.000 
#
# Total GULP energy -67165.628983 kJ/mol
# GULP energy per Si atom -5597.135749 kJ/mol
# Density = 2.582820 g / cm^3
# Si number density = 25.887124 Si / 1000 Ang^3
#
#
#
# Elastic Constant Matrix: (Units=GPa)
#
#
# Indices 1 2 3 4 5 6 
#
# 1 247.3365 43.0390 62.1990 -14.8142 -21.2911 28.9535
# 2 43.0390 75.6348 10.0712 16.2555 -6.8366 23.0173
# 3 62.1990 10.0712 123.9664 19.1045 -7.0338 6.6351
# 4 -14.8142 16.2555 19.1045 31.6880 10.5205 0.4139
# 5 -21.2911 -6.8366 -7.0338 10.5205 54.6785 -8.1903
# 6 28.9535 23.0173 6.6351 0.4139 -8.1903 59.3010
#
#
#
# Elastic Compliance Matrix: (Units=1/GPa)
#
#
# Indices 1 2 3 4 5 6 
#
# 1 0.006400 -0.004499 -0.004008 0.007810 -0.000241 -0.001018
# 2 -0.004499 0.020795 0.003538 -0.016002 0.003533 -0.005671
# 3 -0.004008 0.003538 0.011744 -0.011624 0.002585 -0.000292
# 4 0.007810 -0.016002 -0.011624 0.053903 -0.010547 0.001866
# 5 -0.000241 0.003533 0.002585 -0.010547 0.021217 0.001461
# 6 -0.001018 -0.005671 -0.000292 0.001866 0.001461 0.019783
#
#
# Mechanical properties :
#
#
# Convention : Reuss Voigt Hill
#
# Bulk Modulus (GPa) = 34.48240 75.28400 54.88320
# Shear Modulus (GPa) = 32.58456 51.24207 41.91331
#
# Velocity S-wave (km/s) = 3.55169 4.45392 4.02814
# Velocity P-wave (km/s) = 5.49259 7.45618 6.54840
#
# Compressibility (1/GPa) = 0.02900030
#
# Stress axis : x y z
#
# Youngs Moduli (GPa) = 156.24791 48.08948 85.14895
#
# Poissons Ratio (x) = 0.21634 0.34132
# Poissons Ratio (y) = 0.70290 -0.30124
# Poissons Ratio (z) = 0.62632 -0.17013
#
# Static dielectric constant tensor:
#      x y z
#    x 2.076280 0.045980 -0.003840 
#    y 0.045980 2.168910 -0.028640 
#    z -0.003840 -0.028640 2.087190 
# 
# From -- ./inp_files/148544.got.cif
#   From: 2010.05.17/outbox.cif.g08.bks.cpg/sg2_75_cif.got.tgz:148544.got - 2010.06.03 11:33:40.
