data_PCOD9110410
_publ_section_title
;
Structure prediction by ZEFSAII (Michael W. Deem and Ramdas Pophale) SiO2 
 PCOD9110410
Probable space group: P -1
;
_chemical_formula_sum "Si O2"
_cell_formula_units_Z 16
_cell_length_a 13.139818
_cell_length_b 11.234488
_cell_length_c 7.700803
_cell_angle_alpha 82.432914
_cell_angle_beta 136.446972
_cell_angle_gamma 120.601958
_cell_volume 617.884208
_symmetry_space_group_name_H-M "P -1"
_symmetry_group_IT_number 2
_symmetry_cell_setting 'triclinic'
loop_
_space_group_symop_operation_xyz
x,y,z
-x,-y,-z
loop_
_atom_site_type_symbol
_atom_site_label
_atom_site_fract_x
_atom_site_fract_y
_atom_site_fract_z
Si Si1 0.787445 0.360398 0.280971
Si Si2 0.567818 0.685660 0.661965
Si Si3 0.717790 0.123445 0.954769
Si Si4 0.159046 0.481481 0.223057
Si Si5 0.707192 0.143466 0.528503
Si Si6 0.903790 0.735818 0.510367
Si Si7 0.529990 0.622378 0.230177
Si Si8 0.928222 0.765179 0.133986
O O1 0.770064 0.281355 0.454734
O O2 0.855640 0.627081 0.930670
O O3 0.000000 0.500000 0.500000
O O4 0.633795 0.388814 0.066655
O O5 0.364627 0.640359 0.452096
O O6 0.570005 0.695114 0.454445
O O7 0.530020 0.541621 0.750308
O O8 0.786348 0.807616 0.945612
O O9 0.744747 0.249227 0.090612
O O10 0.728669 0.158685 0.758587
O O11 0.509240 0.977700 0.756435
O O12 0.889071 0.118537 0.210407
O O13 0.122405 0.391611 0.371697
O O14 0.000000 0.500000 0.000000
O O15 0.854995 0.111629 0.664504
O O16 0.717690 0.716707 0.331291
O O17 0.916494 0.717570 0.326686
#
# Coordination Sequence:
#
# PCOD9110410 Si02
#       8
#     2   2   2   2   2   2   2   2
#     4  12  27  44  73 115 145 174 238 309 356 413
#     4  10  20  42  61  88 141 192 216 278 358 428
#     4  11  25  49  75 100 140 196 238 288 355 426
#     4  11  24  40  61  96 140 176 226 298 347 409
#     4  11  25  47  76 101 141 191 247 281 352 435
#     4  11  24  41  64  94 129 185 230 276 350 421
#     4  10  21  42  61  95 144 179 225 287 354 419
#     4  12  21  42  64  93 125 183 234 273 345 420
#
# _framework density 25.894821
#
# number of rings (size 3 to 8) (size 9 to 14) (size 15 to 20)
#    0.000    1.000    6.250    1.125    1.750    3.000 
#    4.500    0.625    0.000    2.250    0.000    0.000 
#    0.000    0.000    0.000    0.000    0.000    0.000 
#
# Total GULP energy -89461.361296 kJ/mol
# GULP energy per Si atom -5591.335081 kJ/mol
# Density = 2.583588 g / cm^3
# Si number density = 25.894821 Si / 1000 Ang^3
#
#
#
# Elastic Constant Matrix: (Units=GPa)
#
#
# Indices 1 2 3 4 5 6 
#
# 1 152.0032 54.5664 69.1161 14.2525 -0.8289 49.8689
# 2 54.5664 91.3605 59.0513 27.0491 1.5946 41.5709
# 3 69.1161 59.0513 213.0719 22.4840 24.9022 28.6806
# 4 14.2525 27.0491 22.4840 41.7288 20.5712 8.4408
# 5 -0.8289 1.5946 24.9022 20.5712 72.6800 7.5090
# 6 49.8689 41.5709 28.6806 8.4408 7.5090 44.9690
#
#
#
# Elastic Compliance Matrix: (Units=1/GPa)
#
#
# Indices 1 2 3 4 5 6 
#
# 1 0.011587 0.000652 -0.002437 -0.002002 0.002758 -0.011982
# 2 0.000652 0.027556 -0.004168 -0.015023 0.007350 -0.021945
# 3 -0.002437 -0.004168 0.006503 0.000800 -0.002670 0.002704
# 4 -0.002002 -0.015023 0.000800 0.037597 -0.011693 0.010494
# 5 0.002758 0.007350 -0.002670 -0.011693 0.018793 -0.009093
# 6 -0.011982 -0.021945 0.002704 0.010494 -0.009093 0.053636
#
#
# Mechanical properties :
#
#
# Convention : Reuss Voigt Hill
#
# Bulk Modulus (GPa) = 29.64035 91.32258 60.48146
# Shear Modulus (GPa) = 27.96042 50.12238 39.04140
#
# Velocity S-wave (km/s) = 3.28955 4.40433 3.88711
# Velocity P-wave (km/s) = 5.08915 7.82352 6.59951
#
# Compressibility (1/GPa) = 0.03373780
#
# Stress axis : x y z
#
# Youngs Moduli (GPa) = 86.30403 36.29035 153.78349
#
# Poissons Ratio (x) = -0.02365 0.37482
# Poissons Ratio (y) = -0.05624 0.64098
# Poissons Ratio (z) = 0.21035 0.15126
#
# Static dielectric constant tensor:
#      x y z
#    x 2.123840 -0.066410 0.075770 
#    y -0.066410 2.063180 0.063810 
#    z 0.075770 0.063810 2.060910 
# 
# From -- ./inp_files/336210.got.cif
#   From: 2010.05.17/outbox.cif.g08.bks.cpg/sg2_169_cif.got.tgz:336210.got - 2010.06.03 11:33:40.
