data_PCOD9110277
_publ_section_title
;
Structure prediction by ZEFSAII (Michael W. Deem and Ramdas Pophale) SiO2 
 PCOD9110277
Probable space group: P -1
;
_chemical_formula_sum "Si O2"
_cell_formula_units_Z 14
_cell_length_a 9.397682
_cell_length_b 8.240535
_cell_length_c 12.527334
_cell_angle_alpha 81.288586
_cell_angle_beta 48.230369
_cell_angle_gamma 65.397764
_cell_volume 646.443063
_symmetry_space_group_name_H-M "P -1"
_symmetry_group_IT_number 2
_symmetry_cell_setting 'triclinic'
loop_
_space_group_symop_operation_xyz
x,y,z
-x,-y,-z
loop_
_atom_site_type_symbol
_atom_site_label
_atom_site_fract_x
_atom_site_fract_y
_atom_site_fract_z
Si Si1 0.605921 0.174801 0.118534
Si Si2 0.448622 0.443609 0.910969
Si Si3 0.549290 0.124636 0.378792
Si Si4 0.801428 0.709725 0.840723
Si Si5 0.855512 0.175537 0.624546
Si Si6 0.017335 0.006013 0.213070
Si Si7 0.142573 0.499442 0.529307
O O1 0.576706 0.374013 0.154029
O O2 0.581414 0.065753 0.243538
O O3 0.412522 0.203350 0.132534
O O4 0.828058 0.093808 0.952967
O O5 0.625832 0.262348 0.787966
O O6 0.500000 0.500000 0.000000
O O7 0.254517 0.392064 0.025307
O O8 0.348863 0.317980 0.461384
O O9 0.774738 0.121219 0.294182
O O10 0.500000 0.000000 0.500000
O O11 0.878316 0.864114 0.810006
O O12 0.985829 0.552996 0.700525
O O13 0.814260 0.330887 0.542682
O O14 0.982571 0.130979 0.678712
O O15 0.000000 0.000000 0.500000
O O16 0.000000 0.500000 0.500000
#
# Coordination Sequence:
#
# PCOD9110277 Si02
#       7
#     2   2   2   2   2   2   2
#     4  11  23  46  74  99 137 193 240 278 343 438
#     4  10  20  41  72 101 135 183 246 279 335 421
#     4  12  28  46  70 104 144 184 235 295 359 413
#     4  11  23  42  74 104 137 181 237 289 345 418
#     4  12  23  41  69 106 141 179 233 295 349 406
#     4  12  26  43  69 110 145 178 231 299 356 413
#     4  12  23  44  72  98 136 188 243 281 346 424
#
# _framework density 21.656970999999999
#
# number of rings (size 3 to 8) (size 9 to 14) (size 15 to 20)
#    0.000    0.571    7.143    2.571    2.000    0.571 
#    0.000    0.714    0.000    0.000    0.000    0.000 
#    0.000    0.000    0.000    0.000    0.000    0.000 
#
# Total GULP energy -77969.648403 kJ/mol
# GULP energy per Si atom -5569.260600 kJ/mol
# Density = 2.160768 g / cm^3
# Si number density = 21.656971 Si / 1000 Ang^3
#
#
#
# Elastic Constant Matrix: (Units=GPa)
#
#
# Indices 1 2 3 4 5 6 
#
# 1 69.6483 45.0751 33.2884 2.3631 -27.9899 -10.3825
# 2 45.0751 134.2475 71.1152 12.3795 -10.7186 -19.3902
# 3 33.2884 71.1152 186.3959 30.6582 -6.8951 -12.7617
# 4 2.3631 12.3795 30.6582 44.3652 -7.5484 -3.0368
# 5 -27.9899 -10.7186 -6.8951 -7.5484 34.4493 3.6413
# 6 -10.3825 -19.3902 -12.7617 -3.0368 3.6413 31.2433
#
#
#
# Elastic Compliance Matrix: (Units=1/GPa)
#
#
# Indices 1 2 3 4 5 6 
#
# 1 0.029003 -0.006822 -0.002597 0.006059 0.022000 0.002368
# 2 -0.006822 0.011719 -0.002899 -0.001162 -0.003163 0.004077
# 3 -0.002597 -0.002899 0.007642 -0.004748 -0.002554 0.000295
# 4 0.006059 -0.001162 -0.004748 0.027509 0.009542 0.000915
# 5 0.022000 -0.003163 -0.002554 0.009542 0.047531 -0.000308
# 6 0.002368 0.004077 0.000295 0.000915 -0.000308 0.035569
#
#
# Mechanical properties :
#
#
# Convention : Reuss Voigt Hill
#
# Bulk Modulus (GPa) = 42.14903 76.58321 59.36612
# Shear Modulus (GPa) = 26.10702 38.06577 32.08640
#
# Velocity S-wave (km/s) = 3.47577 4.19700 3.85330
# Velocity P-wave (km/s) = 5.96760 7.67627 6.87523
#
# Compressibility (1/GPa) = 0.02372534
#
# Stress axis : x y z
#
# Youngs Moduli (GPa) = 34.47911 85.33073 130.86253
#
# Poissons Ratio (x) = 0.58216 0.33990
# Poissons Ratio (y) = 0.23523 0.37943
# Poissons Ratio (z) = 0.08955 0.24741
#
# Static dielectric constant tensor:
#      x y z
#    x 1.801520 -0.045200 0.036280 
#    y -0.045200 1.794450 -0.017220 
#    z 0.036280 -0.017220 1.835930 
# 
# From -- ./inp_files/159128.got.cif
#   From: 2010.05.17/outbox.cif.g08.bks.cpg/sg2_80_cif.got.tgz:159128.got - 2010.06.03 11:33:40.
