data_PCOD9110050
_publ_section_title
;
Structure prediction by ZEFSAII (Michael W. Deem and Ramdas Pophale) SiO2 
 PCOD9110050
Probable space group: P -1
;
_chemical_formula_sum "Si O2"
_cell_formula_units_Z 14
_cell_length_a 9.758140
_cell_length_b 11.074555
_cell_length_c 9.410458
_cell_angle_alpha 115.094111
_cell_angle_beta 129.868488
_cell_angle_gamma 45.838390
_cell_volume 559.471324
_symmetry_space_group_name_H-M "P -1"
_symmetry_group_IT_number 2
_symmetry_cell_setting 'triclinic'
loop_
_space_group_symop_operation_xyz
x,y,z
-x,-y,-z
loop_
_atom_site_type_symbol
_atom_site_label
_atom_site_fract_x
_atom_site_fract_y
_atom_site_fract_z
Si Si1 0.508707 0.280494 0.511862
Si Si2 0.811339 0.372123 0.050582
Si Si3 0.839482 0.194218 0.454077
Si Si4 0.103263 0.593522 0.565892
Si Si5 0.266577 0.881551 0.151018
Si Si6 0.513530 0.768168 0.987575
Si Si7 0.824318 0.695250 0.929603
O O1 0.683106 0.285810 0.535040
O O2 0.334770 0.448590 0.569586
O O3 0.647295 0.123510 0.636412
O O4 0.346015 0.278239 0.292407
O O5 0.895595 0.331680 0.246885
O O6 0.012144 0.274577 0.021038
O O7 0.670110 0.304293 0.906923
O O8 0.677414 0.570216 0.039428
O O9 0.980576 0.258829 0.529682
O O10 0.676173 0.214918 0.229413
O O11 0.000000 0.000000 0.500000
O O12 0.000000 0.500000 0.500000
O O13 0.405129 0.880410 0.112315
O O14 0.000000 0.000000 0.000000
O O15 0.666408 0.796467 0.008997
O O16 0.000000 0.500000 0.000000
#
# Coordination Sequence:
#
# PCOD9110050 Si02
#       7
#     2   2   2   2   2   2   2
#     4  11  23  41  67 102 130 177 238 272 328 416
#     4  11  21  42  68  95 132 171 221 289 339 385
#     4  11  24  43  65  96 139 179 220 278 343 399
#     4  12  23  41  71 104 130 171 235 284 330 406
#     4  12  24  40  64  98 133 176 226 277 330 406
#     4  10  20  41  69  88 128 176 221 270 339 390
#     4   9  21  40  66  95 129 165 215 282 342 381
#
# _framework density 25.023623000000001
#
# number of rings (size 3 to 8) (size 9 to 14) (size 15 to 20)
#    0.000    1.143    4.286    2.571    0.000    2.286 
#    0.000    5.000    0.000    0.000    0.000    0.000 
#    0.000    0.000    0.000    0.000    0.000    0.000 
#
# Total GULP energy -78236.683610 kJ/mol
# GULP energy per Si atom -5588.334544 kJ/mol
# Density = 2.496667 g / cm^3
# Si number density = 25.023623 Si / 1000 Ang^3
#
#
#
# Elastic Constant Matrix: (Units=GPa)
#
#
# Indices 1 2 3 4 5 6 
#
# 1 208.6037 42.3143 39.4997 -2.8032 -42.3015 -9.3343
# 2 42.3143 81.5598 9.0485 -22.2486 -12.5936 2.3464
# 3 39.4997 9.0485 127.2768 -19.3364 -22.2031 -4.5192
# 4 -2.8032 -22.2486 -19.3364 28.1647 5.3971 2.2334
# 5 -42.3015 -12.5936 -22.2031 5.3971 29.9725 5.4750
# 6 -9.3343 2.3464 -4.5192 2.2334 5.4750 22.7595
#
#
#
# Elastic Compliance Matrix: (Units=1/GPa)
#
#
# Indices 1 2 3 4 5 6 
#
# 1 0.007596 -0.003845 -0.001247 -0.004948 0.008772 0.001639
# 2 -0.003845 0.018941 0.002563 0.016283 0.002450 -0.005208
# 3 -0.001247 0.002563 0.010211 0.007904 0.005618 -0.000875
# 4 -0.004948 0.016283 0.007904 0.054385 -0.002839 -0.006793
# 5 0.008772 0.002450 0.005618 -0.002839 0.052906 -0.007988
# 6 0.001639 -0.005208 -0.000875 -0.006793 -0.007988 0.047561
#
#
# Mechanical properties :
#
#
# Convention : Reuss Voigt Hill
#
# Bulk Modulus (GPa) = 31.55566 66.57391 49.06478
# Shear Modulus (GPa) = 24.12874 37.95121 31.03998
#
# Velocity S-wave (km/s) = 3.10859 3.89860 3.52579
# Velocity P-wave (km/s) = 5.05195 6.85037 6.01871
#
# Compressibility (1/GPa) = 0.03169004
#
# Stress axis : x y z
#
# Youngs Moduli (GPa) = 131.65588 52.79458 97.92895
#
# Poissons Ratio (x) = 0.20299 0.12214
# Poissons Ratio (y) = 0.50620 -0.25098
# Poissons Ratio (z) = 0.16420 -0.13531
#
# Static dielectric constant tensor:
#      x y z
#    x 2.004340 -0.016910 -0.047640 
#    y -0.016910 1.978820 0.183650 
#    z -0.047640 0.183650 2.588980 
# 
# From -- ./inp_files/188750.got.cif
#   From: 2010.05.17/outbox.cif.g08.bks.cpg/sg2_95_cif.got.tgz:188750.got - 2010.06.03 11:33:40.
