data_PCOD9110147
_publ_section_title
;
Structure prediction by ZEFSAII (Michael W. Deem and Ramdas Pophale) SiO2 
 PCOD9110147
Probable space group: P -1
;
_chemical_formula_sum "Si O2"
_cell_formula_units_Z 14
_cell_length_a 7.096541
_cell_length_b 5.101611
_cell_length_c 20.643002
_cell_angle_alpha 108.002031
_cell_angle_beta 132.264146
_cell_angle_gamma 68.295989
_cell_volume 511.889684
_symmetry_space_group_name_H-M "P -1"
_symmetry_group_IT_number 2
_symmetry_cell_setting 'triclinic'
loop_
_space_group_symop_operation_xyz
x,y,z
-x,-y,-z
loop_
_atom_site_type_symbol
_atom_site_label
_atom_site_fract_x
_atom_site_fract_y
_atom_site_fract_z
Si Si1 0.315284 0.287562 0.007341
Si Si2 0.201568 0.687084 0.577587
Si Si3 0.766809 0.677842 0.687024
Si Si4 0.429656 0.764076 0.255398
Si Si5 0.964559 0.242384 0.592662
Si Si6 0.386331 0.155852 0.149958
Si Si7 0.755456 0.641510 0.142087
O O1 0.211690 0.213710 0.047487
O O2 0.499590 0.508650 0.076008
O O3 0.145876 0.381830 0.911110
O O4 0.500000 0.000000 0.000000
O O5 0.508434 0.602993 0.653753
O O6 0.000000 0.500000 0.500000
O O7 0.203419 0.805162 0.512485
O O8 0.056202 0.917751 0.613645
O O9 0.808644 0.502426 0.617079
O O10 0.022863 0.536942 0.775771
O O11 0.718984 0.018608 0.706976
O O12 0.738409 0.714360 0.342428
O O13 0.407450 0.460026 0.202426
O O14 0.341359 0.967690 0.186554
O O15 0.657474 0.961398 0.168937
#
# Coordination Sequence:
#
# PCOD9110147 Si02
#       7
#     2   2   2   2   2   2   2
#     4   9  19  37  72  97 139 183 235 283 359 406
#     4  10  24  43  69 102 138 181 229 290 355 416
#     4  11  23  45  68 106 137 183 240 287 347 425
#     4  11  25  41  70 102 143 183 237 287 356 411
#     4  10  22  45  67  96 140 183 228 289 352 419
#     4  11  20  44  65  99 142 189 223 292 349 412
#     4  10  20  41  70 104 133 189 234 290 347 422
#
# _framework density 27.349640999999998
#
# number of rings (size 3 to 8) (size 9 to 14) (size 15 to 20)
#    0.000    1.714    2.857    0.429    4.000    0.571 
#   10.286    1.429    0.000    0.000    0.000    0.000 
#    0.000    0.000    0.000    0.000    0.000    0.000 
#
# Total GULP energy -78182.818734 kJ/mol
# GULP energy per Si atom -5584.487052 kJ/mol
# Density = 2.728739 g / cm^3
# Si number density = 27.349641 Si / 1000 Ang^3
#
#
#
# Elastic Constant Matrix: (Units=GPa)
#
#
# Indices 1 2 3 4 5 6 
#
# 1 72.3460 40.9942 13.8262 22.0461 -7.9980 -26.3088
# 2 40.9942 202.6230 49.1447 51.6870 8.4868 -29.4575
# 3 13.8262 49.1447 116.0302 14.8058 -18.4823 -14.7088
# 4 22.0461 51.6870 14.8058 52.2000 -5.1791 -13.1235
# 5 -7.9980 8.4868 -18.4823 -5.1791 45.0965 12.3362
# 6 -26.3088 -29.4575 -14.7088 -13.1235 12.3362 46.8155
#
#
#
# Elastic Compliance Matrix: (Units=1/GPa)
#
#
# Indices 1 2 3 4 5 6 
#
# 1 0.019178 -0.001657 0.000184 -0.004320 0.001018 0.008314
# 2 -0.001657 0.008147 -0.002810 -0.006330 -0.004447 0.002710
# 3 0.000184 -0.002810 0.010573 0.000302 0.004799 0.000477
# 4 -0.004320 -0.006330 0.000302 0.027643 0.003590 0.000487
# 5 0.001018 -0.004447 0.004799 0.003590 0.027473 -0.006951
# 6 0.008314 0.002710 0.000477 0.000487 -0.006951 0.029855
#
#
# Mechanical properties :
#
#
# Convention : Reuss Voigt Hill
#
# Bulk Modulus (GPa) = 34.09229 66.54772 50.32000
# Shear Modulus (GPa) = 35.40739 47.95802 41.68270
#
# Velocity S-wave (km/s) = 3.60199 4.19204 3.90817
# Velocity P-wave (km/s) = 5.45816 6.91491 6.22926
#
# Compressibility (1/GPa) = 0.02933215
#
# Stress axis : x y z
#
# Youngs Moduli (GPa) = 52.14183 122.74408 94.57843
#
# Poissons Ratio (x) = 0.20334 -0.01737
# Poissons Ratio (y) = 0.08638 0.26580
# Poissons Ratio (z) = -0.00958 0.34496
#
# Static dielectric constant tensor:
#      x y z
#    x 2.331990 0.177450 -0.090520 
#    y 0.177450 2.344160 -0.107620 
#    z -0.090520 -0.107620 2.189500 
# 
# From -- ./inp_files/605755.got.cif
#   From: 2010.05.17/outbox.cif.g08.bks.cpg/sg2_303_cif.got.tgz:605755.got - 2010.06.03 11:33:40.
