data_PCOD9110708
_publ_section_title
;
Structure prediction by ZEFSAII (Michael W. Deem and Ramdas Pophale) SiO2 
 PCOD9110708
Probable space group: P -1
;
_chemical_formula_sum "Si O2"
_cell_formula_units_Z 14
_cell_length_a 15.268010
_cell_length_b 7.091882
_cell_length_c 6.746550
_cell_angle_alpha 87.908224
_cell_angle_beta 117.329319
_cell_angle_gamma 116.374510
_cell_volume 568.406272
_symmetry_space_group_name_H-M "P -1"
_symmetry_group_IT_number 2
_symmetry_cell_setting 'triclinic'
loop_
_space_group_symop_operation_xyz
x,y,z
-x,-y,-z
loop_
_atom_site_type_symbol
_atom_site_label
_atom_site_fract_x
_atom_site_fract_y
_atom_site_fract_z
Si Si1 0.066862 0.234241 0.459999
Si Si2 0.792786 0.952576 0.554569
Si Si3 0.453204 0.844196 0.650328
Si Si4 0.793605 0.489422 0.046986
Si Si5 0.004726 0.773379 0.003824
Si Si6 0.367652 0.420842 0.363099
Si Si7 0.341188 0.967323 0.895594
O O1 0.158881 0.210767 0.426582
O O2 0.132541 0.411021 0.683267
O O3 0.987887 0.267076 0.219245
O O4 0.000000 0.000000 0.500000
O O5 0.691398 0.818816 0.602720
O O6 0.751107 0.984950 0.299109
O O7 0.887861 0.167513 0.748613
O O8 0.367417 0.607203 0.495398
O O9 0.395442 0.919029 0.757221
O O10 0.500000 0.000000 0.500000
O O11 0.558869 0.851174 0.879027
O O12 0.718134 0.238243 0.016257
O O13 0.890275 0.582321 0.977559
O O14 0.704746 0.575846 0.901133
O O15 0.000000 0.000000 0.000000
O O16 0.500000 0.500000 0.500000
#
# Coordination Sequence:
#
# PCOD9110708 Si02
#       7
#     2   2   2   2   2   2   2
#     4  11  20  40  70  95 129 179 219 272 332 389
#     4  11  23  44  65 102 134 165 235 273 320 409
#     4  11  24  49  65  94 143 180 219 272 340 394
#     4  12  23  43  67  98 135 175 220 273 344 392
#     4  10  20  42  65  94 135 168 218 279 329 390
#     4  12  25  42  72 101 131 177 227 278 329 394
#     4  11  27  42  69  98 135 183 219 273 339 398
#
# _framework density 24.630272999999999
#
# number of rings (size 3 to 8) (size 9 to 14) (size 15 to 20)
#    0.000    0.857    7.143    1.714    4.000    1.143 
#    2.571    0.714    0.000    0.000    0.000    0.000 
#    0.000    0.000    0.000    0.000    0.000    0.000 
#
# Total GULP energy -78266.158545 kJ/mol
# GULP energy per Si atom -5590.439896 kJ/mol
# Density = 2.457421 g / cm^3
# Si number density = 24.630273 Si / 1000 Ang^3
#
#
#
# Elastic Constant Matrix: (Units=GPa)
#
#
# Indices 1 2 3 4 5 6 
#
# 1 45.7250 24.8516 12.4499 -2.0384 3.1660 22.8580
# 2 24.8516 97.9105 29.0400 -8.5719 13.1011 27.6529
# 3 12.4499 29.0400 170.3497 1.9420 14.5889 2.5179
# 4 -2.0384 -8.5719 1.9420 44.7624 -4.7441 -0.5070
# 5 3.1660 13.1011 14.5889 -4.7441 39.8737 2.2349
# 6 22.8580 27.6529 2.5179 -0.5070 2.2349 39.7916
#
#
#
# Elastic Compliance Matrix: (Units=1/GPa)
#
#
# Indices 1 2 3 4 5 6 
#
# 1 0.032093 -0.003026 -0.001601 0.000771 0.000033 -0.016223
# 2 -0.003026 0.014395 -0.001877 0.002283 -0.003086 -0.007944
# 3 -0.001601 -0.001877 0.006446 -0.000884 -0.001827 0.001908
# 4 0.000771 0.002283 -0.000884 0.023080 0.002360 -0.001812
# 5 0.000033 -0.003086 -0.001827 0.002360 0.026997 0.000755
# 6 -0.016223 -0.007944 0.001908 -0.001812 0.000755 0.039785
#
#
# Mechanical properties :
#
#
# Convention : Reuss Voigt Hill
#
# Bulk Modulus (GPa) = 25.04742 49.62979 37.33860
# Shear Modulus (GPa) = 29.56623 41.39510 35.48066
#
# Velocity S-wave (km/s) = 3.46844 4.10403 3.79955
# Velocity P-wave (km/s) = 5.12167 6.53078 5.86867
#
# Compressibility (1/GPa) = 0.03992427
#
# Stress axis : x y z
#
# Youngs Moduli (GPa) = 31.15990 69.47059 155.14410
#
# Poissons Ratio (x) = 0.21019 0.24846
# Poissons Ratio (y) = 0.09428 0.29122
# Poissons Ratio (z) = 0.04990 0.13040
#
# Static dielectric constant tensor:
#      x y z
#    x 2.096270 0.002660 0.026770 
#    y 0.002660 1.968340 -0.074290 
#    z 0.026770 -0.074290 2.037500 
# 
# From -- ./inp_files/106793.got.cif
#   From: 2010.05.17/outbox.cif.g08.bks.cpg/sg2_54_cif.got.tgz:106793.got - 2010.06.03 11:33:40.
