data_PCOD9110614
_publ_section_title
;
Structure prediction by ZEFSAII (Michael W. Deem and Ramdas Pophale) SiO2 
 PCOD9110614
Probable space group: P -1
;
_chemical_formula_sum "Si O2"
_cell_formula_units_Z 13
_cell_length_a 9.591200
_cell_length_b 7.722943
_cell_length_c 10.725078
_cell_angle_alpha 62.216620
_cell_angle_beta 71.311459
_cell_angle_gamma 47.890164
_cell_volume 521.376539
_symmetry_space_group_name_H-M "P -1"
_symmetry_group_IT_number 2
_symmetry_cell_setting 'triclinic'
loop_
_space_group_symop_operation_xyz
x,y,z
-x,-y,-z
loop_
_atom_site_type_symbol
_atom_site_label
_atom_site_fract_x
_atom_site_fract_y
_atom_site_fract_z
Si Si1 0.121179 0.803221 0.859279
Si Si2 0.500000 0.500000 0.000000
Si Si3 0.825521 0.267800 0.406071
Si Si4 0.963862 0.718611 0.172524
Si Si5 0.464059 0.291119 0.501152
Si Si6 0.413660 0.929922 0.945432
Si Si7 0.337489 0.236529 0.290463
O O1 0.106727 0.725575 0.752524
O O2 0.043120 0.089535 0.796913
O O3 0.336195 0.644587 0.890278
O O4 0.030569 0.740908 0.010814
O O5 0.642862 0.242614 0.945184
O O6 0.629509 0.310923 0.425794
O O7 0.737943 0.488520 0.456766
O O8 0.000000 0.000000 0.500000
O O9 0.115552 0.439888 0.272126
O O10 0.751524 0.833690 0.163940
O O11 0.412342 0.252392 0.393602
O O12 0.574166 0.050973 0.642650
O O13 0.571245 0.722068 0.867501
O O14 0.500000 0.000000 0.000000
#
# Coordination Sequence:
#
# PCOD9110614 Si02
#       7
#     2   1   2   2   2   2   2
#     4  10  21  40  70  99 130 178 227 276 344 407
#     4  10  20  42  64  94 136 174 214 278 336 402
#     4  11  24  44  66  99 132 176 230 278 326 414
#     4  10  22  41  67 101 131 178 220 282 351 405
#     4  10  25  43  67  94 130 185 223 272 343 392
#     4  11  25  41  67 102 138 178 222 282 349 409
#     4  11  23  45  66  95 137 173 225 283 334 409
#
# _framework density 24.933993999999998
#
# number of rings (size 3 to 8) (size 9 to 14) (size 15 to 20)
#    0.000    1.538    1.538    2.769    2.154    3.077 
#    5.538    3.846    0.000    0.000    0.000    0.000 
#    0.000    0.000    0.000    0.000    0.000    0.000 
#
# Total GULP energy -72455.349381 kJ/mol
# GULP energy per Si atom -5573.488414 kJ/mol
# Density = 2.487724 g / cm^3
# Si number density = 24.933994 Si / 1000 Ang^3
#
#
#
# Elastic Constant Matrix: (Units=GPa)
#
#
# Indices 1 2 3 4 5 6 
#
# 1 60.8579 14.2260 15.2065 2.9617 22.3233 -6.7212
# 2 14.2260 153.3411 53.2329 -14.1253 17.7178 -20.7741
# 3 15.2065 53.2329 75.7916 7.8636 10.6603 5.8850
# 4 2.9617 -14.1253 7.8636 40.6942 -5.8212 11.6666
# 5 22.3233 17.7178 10.6603 -5.8212 33.7560 -1.0347
# 6 -6.7212 -20.7741 5.8850 11.6666 -1.0347 38.6492
#
#
#
# Elastic Compliance Matrix: (Units=1/GPa)
#
#
# Indices 1 2 3 4 5 6 
#
# 1 0.023753 0.001231 -0.003393 -0.004730 -0.015905 0.006311
# 2 0.001231 0.010704 -0.008109 0.002954 -0.003171 0.006226
# 3 -0.003393 -0.008109 0.020741 -0.004815 -0.001086 -0.006682
# 4 -0.004730 0.002954 -0.004815 0.030145 0.008070 -0.007385
# 5 -0.015905 -0.003171 -0.001086 0.008070 0.043371 -0.005580
# 6 0.006311 0.006226 -0.006682 -0.007385 -0.005580 0.033415
#
#
# Mechanical properties :
#
#
# Convention : Reuss Voigt Hill
#
# Bulk Modulus (GPa) = 28.85361 50.59129 39.72245
# Shear Modulus (GPa) = 25.74345 36.44155 31.09250
#
# Velocity S-wave (km/s) = 3.21668 3.82713 3.53511
# Velocity P-wave (km/s) = 5.03917 6.31375 5.71212
#
# Compressibility (1/GPa) = 0.03465771
#
# Stress axis : x y z
#
# Youngs Moduli (GPa) = 42.09981 93.41980 48.21257
#
# Poissons Ratio (x) = -0.11501 0.16356
# Poissons Ratio (y) = -0.05183 0.39097
# Poissons Ratio (z) = 0.14282 0.75756
#
# Static dielectric constant tensor:
#      x y z
#    x 8.666450 2.242150 -5.072540 
#    y 2.242150 2.841060 -1.619990 
#    z -5.072540 -1.619990 5.711650 
# 
# From -- ./inp_files/237610.got.cif
#   From: 2010.05.17/outbox.cif.g08.bks.cpg/sg2_119_cif.got.tgz:237610.got - 2010.06.03 11:33:40.
