data_PCOD9110143
_publ_section_title
;
Structure prediction by ZEFSAII (Michael W. Deem and Ramdas Pophale) SiO2 
 PCOD9110143
Probable space group: P -1
;
_chemical_formula_sum "Si O2"
_cell_formula_units_Z 16
_cell_length_a 7.879586
_cell_length_b 12.868266
_cell_length_c 8.657971
_cell_angle_alpha 52.454503
_cell_angle_beta 88.527743
_cell_angle_gamma 87.177205
_cell_volume 695.196590
_symmetry_space_group_name_H-M "P -1"
_symmetry_group_IT_number 2
_symmetry_cell_setting 'triclinic'
loop_
_space_group_symop_operation_xyz
x,y,z
-x,-y,-z
loop_
_atom_site_type_symbol
_atom_site_label
_atom_site_fract_x
_atom_site_fract_y
_atom_site_fract_z
Si Si1 0.501795 0.656213 0.853876
Si Si2 0.905278 0.450109 0.397381
Si Si3 0.849288 0.246181 0.125542
Si Si4 0.128485 0.301648 0.290000
Si Si5 0.371283 0.316584 0.837404
Si Si6 0.711251 0.259984 0.768952
Si Si7 0.951050 0.964532 0.299538
Si Si8 0.765135 0.964861 0.976426
O O1 0.304406 0.704724 0.801816
O O2 0.667236 0.690953 0.719272
O O3 0.500000 0.500000 0.000000
O O4 0.552871 0.708075 0.972940
O O5 0.761997 0.561734 0.262840
O O6 0.820981 0.316428 0.577474
O O7 0.000000 0.500000 0.500000
O O8 0.039501 0.416138 0.291003
O O9 0.027244 0.301646 0.129142
O O10 0.861473 0.088774 0.272476
O O11 0.807810 0.275092 0.918651
O O12 0.077318 0.164970 0.488888
O O13 0.534940 0.343226 0.705619
O O14 0.305057 0.178294 0.910425
O O15 0.671790 0.106635 0.884150
O O16 0.875959 0.947418 0.145274
O O17 0.138442 0.007259 0.211712
#
# Coordination Sequence:
#
# PCOD9110143 Si02
#       8
#     2   2   2   2   2   2   2   2
#     4  11  27  46  67  98 140 185 230 278 343 412
#     4  12  27  42  68 102 134 180 231 281 343 407
#     4  10  24  44  72  98 136 181 226 281 341 410
#     4  12  25  45  71 101 136 184 228 282 343 406
#     4  11  24  42  70  99 135 182 227 284 341 409
#     4  10  23  46  68 100 139 176 230 287 339 404
#     4  10  21  40  70 101 138 174 226 286 338 408
#     4  10  20  41  70 103 136 176 225 279 354 397
#
# _framework density 23.015072
#
# number of rings (size 3 to 8) (size 9 to 14) (size 15 to 20)
#    0.000    1.250    1.250    3.375    8.750    1.500 
#    6.750    1.250    0.000    0.000    0.000    0.000 
#    0.000    0.000    0.000    0.000    0.000    0.000 
#
# Total GULP energy -89366.468634 kJ/mol
# GULP energy per Si atom -5585.404290 kJ/mol
# Density = 2.296269 g / cm^3
# Si number density = 23.015072 Si / 1000 Ang^3
#
#
#
# Elastic Constant Matrix: (Units=GPa)
#
#
# Indices 1 2 3 4 5 6 
#
# 1 60.9190 4.9831 18.0513 -2.2667 -9.1754 -28.4076
# 2 4.9831 101.9956 12.4688 -7.4244 -2.1429 -2.0614
# 3 18.0513 12.4688 78.3280 -16.5605 -9.5164 -12.0692
# 4 -2.2667 -7.4244 -16.5605 22.8462 -8.1378 -1.7752
# 5 -9.1754 -2.1429 -9.5164 -8.1378 24.1567 0.1422
# 6 -28.4076 -2.0614 -12.0692 -1.7752 0.1422 39.4718
#
#
#
# Elastic Compliance Matrix: (Units=1/GPa)
#
#
# Indices 1 2 3 4 5 6 
#
# 1 0.028672 -0.000009 0.000500 0.009949 0.014313 0.021183
# 2 -0.000009 0.010186 -0.000538 0.003641 0.001912 0.000518
# 3 0.000500 -0.000538 0.019892 0.020097 0.014706 0.007265
# 4 0.009949 0.003641 0.020097 0.075062 0.037207 0.016737
# 5 0.014313 0.001912 0.014706 0.037207 0.065234 0.016336
# 6 0.021183 0.000518 0.007265 0.016737 0.016336 0.043522
#
#
# Mechanical properties :
#
#
# Convention : Reuss Voigt Hill
#
# Bulk Modulus (GPa) = 17.04805 34.69436 25.87120
# Shear Modulus (GPa) = 19.06841 31.01091 25.03966
#
# Velocity S-wave (km/s) = 2.88152 3.67470 3.30201
# Velocity P-wave (km/s) = 4.30050 5.75430 5.07968
#
# Compressibility (1/GPa) = 0.05865772
#
# Stress axis : x y z
#
# Youngs Moduli (GPa) = 34.87735 98.17239 50.27080
#
# Poissons Ratio (x) = 0.00088 -0.02514
# Poissons Ratio (y) = 0.00031 0.02702
# Poissons Ratio (z) = -0.01744 0.05277
#
# Static dielectric constant tensor:
#      x y z
#    x 1.999410 -0.036930 -0.020100 
#    y -0.036930 1.761530 0.066680 
#    z -0.020100 0.066680 1.844920 
# 
# From -- ./inp_files/184243.got.cif
#   From: 2010.05.17/outbox.cif.g08.bks.cpg/sg2_93_cif.got.tgz:184243.got - 2010.06.03 11:33:40.
