data_PCOD9110271
_publ_section_title
;
Structure prediction by ZEFSAII (Michael W. Deem and Ramdas Pophale) SiO2 
 PCOD9110271
Probable space group: P -1
;
_chemical_formula_sum "Si O2"
_cell_formula_units_Z 16
_cell_length_a 13.045867
_cell_length_b 7.963938
_cell_length_c 9.436355
_cell_angle_alpha 93.955903
_cell_angle_beta 90.187531
_cell_angle_gamma 41.480545
_cell_volume 646.097786
_symmetry_space_group_name_H-M "P -1"
_symmetry_group_IT_number 2
_symmetry_cell_setting 'triclinic'
loop_
_space_group_symop_operation_xyz
x,y,z
-x,-y,-z
loop_
_atom_site_type_symbol
_atom_site_label
_atom_site_fract_x
_atom_site_fract_y
_atom_site_fract_z
Si Si1 0.359075 0.052956 0.035662
Si Si2 0.154115 0.222287 0.803569
Si Si3 0.439964 0.990622 0.646723
Si Si4 0.267117 0.817140 0.964116
Si Si5 0.727437 0.467987 0.263671
Si Si6 0.840494 0.700514 0.675552
Si Si7 0.747482 0.464179 0.578538
Si Si8 0.094808 0.012964 0.272315
O O1 0.212765 0.263096 0.939950
O O2 0.387792 0.821516 0.984123
O O3 0.295461 0.142263 0.199016
O O4 0.500000 0.000000 0.000000
O O5 0.290282 0.057166 0.676188
O O6 0.141515 0.056943 0.869207
O O7 0.998355 0.472522 0.746914
O O8 0.373465 0.239994 0.733593
O O9 0.500000 0.000000 0.500000
O O10 0.587066 0.696609 0.674405
O O11 0.811039 0.118644 0.882012
O O12 0.324483 0.590119 0.863448
O O13 0.704561 0.439455 0.424961
O O14 0.913918 0.258604 0.248035
O O15 0.818080 0.567291 0.565323
O O16 0.849189 0.884479 0.641631
O O17 0.864355 0.199505 0.645900
#
# Coordination Sequence:
#
# PCOD9110271 Si02
#       8
#     2   2   2   2   2   2   2   2
#     4   9  20  38  69 101 144 184 233 302 365 417
#     4  10  20  41  71  99 141 185 245 298 358 434
#     4  10  23  45  67  97 142 201 238 287 364 435
#     4   9  23  40  74 106 136 185 249 291 367 437
#     4  11  22  47  72 104 145 195 242 294 367 442
#     4  11  22  42  70 110 140 193 246 291 371 435
#     4  11  26  45  70 105 157 184 240 310 361 426
#     4  11  23  44  73 110 143 186 243 310 359 432
#
# _framework density 24.764054999999999
#
# number of rings (size 3 to 8) (size 9 to 14) (size 15 to 20)
#    0.750    1.000    1.250    2.625    0.000    1.500 
#    6.750    3.750    0.000    0.000    0.000    0.000 
#    0.000    0.000    0.000    0.000    0.000    0.000 
#
# Total GULP energy -89320.082104 kJ/mol
# GULP energy per Si atom -5582.505132 kJ/mol
# Density = 2.470769 g / cm^3
# Si number density = 24.764055 Si / 1000 Ang^3
#
#
#
# Elastic Constant Matrix: (Units=GPa)
#
#
# Indices 1 2 3 4 5 6 
#
# 1 88.9858 36.8056 39.2700 22.5669 7.2748 -10.4314
# 2 36.8056 123.8778 35.0404 1.9366 16.4387 -7.9685
# 3 39.2700 35.0404 101.5516 21.7783 -1.7746 7.5646
# 4 22.5669 1.9366 21.7783 39.2217 6.5707 5.1793
# 5 7.2748 16.4387 -1.7746 6.5707 19.5827 -8.1007
# 6 -10.4314 -7.9685 7.5646 5.1793 -8.1007 37.8623
#
#
#
# Elastic Compliance Matrix: (Units=1/GPa)
#
#
# Indices 1 2 3 4 5 6 
#
# 1 0.017356 -0.003733 -0.003990 -0.008750 0.001907 0.006398
# 2 -0.003733 0.011597 -0.003905 0.005713 -0.011010 -0.000944
# 3 -0.003990 -0.003905 0.014417 -0.006415 0.007237 -0.002376
# 4 -0.008750 0.005713 -0.006415 0.038154 -0.018713 -0.009150
# 5 0.001907 -0.011010 0.007237 -0.018713 0.072687 0.014874
# 6 0.006398 -0.000944 -0.002376 -0.009150 0.014874 0.032884
#
#
# Mechanical properties :
#
#
# Convention : Reuss Voigt Hill
#
# Bulk Modulus (GPa) = 49.71796 59.62746 54.67271
# Shear Modulus (GPa) = 23.03549 32.88662 27.96106
#
# Velocity S-wave (km/s) = 3.05322 3.64812 3.36385
# Velocity P-wave (km/s) = 5.70525 6.47113 6.10022
#
# Compressibility (1/GPa) = 0.02011346
#
# Stress axis : x y z
#
# Youngs Moduli (GPa) = 57.61764 86.22806 69.36260
#
# Poissons Ratio (x) = 0.32186 0.27677
# Poissons Ratio (y) = 0.21507 0.27089
# Poissons Ratio (z) = 0.22991 0.33675
#
# Static dielectric constant tensor:
#      x y z
#    x 2.022500 0.022080 0.036740 
#    y 0.022080 1.998270 -0.018440 
#    z 0.036740 -0.018440 1.996300 
# 
# From -- ./inp_files/446206.got.cif
#   From: 2010.05.17/outbox.cif.g08.bks.cpg/sg2_224_cif.got.tgz:446206.got - 2010.06.03 11:33:40.
