data_PCOD9110409
_publ_section_title
;
Structure prediction by ZEFSAII (Michael W. Deem and Ramdas Pophale) SiO2 
 PCOD9110409
Probable space group: P -1
;
_chemical_formula_sum "Si O2"
_cell_formula_units_Z 16
_cell_length_a 14.005834
_cell_length_b 14.648884
_cell_length_c 7.341410
_cell_angle_alpha 81.139363
_cell_angle_beta 69.411428
_cell_angle_gamma 139.416428
_cell_volume 662.680911
_symmetry_space_group_name_H-M "P -1"
_symmetry_group_IT_number 2
_symmetry_cell_setting 'triclinic'
loop_
_space_group_symop_operation_xyz
x,y,z
-x,-y,-z
loop_
_atom_site_type_symbol
_atom_site_label
_atom_site_fract_x
_atom_site_fract_y
_atom_site_fract_z
Si Si1 0.393328 0.661453 0.030194
Si Si2 0.089255 0.763078 0.123873
Si Si3 0.987886 0.508217 0.716894
Si Si4 0.695379 0.611141 0.947512
Si Si5 0.636853 0.398314 0.483019
Si Si6 0.866510 0.063032 0.656556
Si Si7 0.557749 0.133114 0.543945
Si Si8 0.781172 0.837271 0.088749
O O1 0.212901 0.585908 0.101448
O O2 0.360781 0.540851 0.981039
O O3 0.365608 0.626564 0.283913
O O4 0.636576 0.889505 0.767992
O O5 0.062999 0.634394 0.132623
O O6 0.079870 0.797192 0.323675
O O7 0.871137 0.630353 0.222601
O O8 0.333505 0.976428 0.843648
O O9 0.000000 0.500000 0.500000
O O10 0.222970 0.726823 0.550698
O O11 0.712144 0.685824 0.092607
O O12 0.930976 0.805352 0.638337
O O13 0.500000 0.500000 0.000000
O O14 0.620816 0.290115 0.416182
O O15 0.425577 0.289700 0.625667
O O16 0.829616 0.953227 0.865433
O O17 0.500000 0.000000 0.500000
O O18 0.000000 0.000000 0.000000
#
# Coordination Sequence:
#
# PCOD9110409 Si02
#       8
#     2   2   2   2   2   2   2   2
#     4  11  21  38  62  96 127 158 213 267 304 371
#     4  11  20  39  68  88 125 171 202 255 326 369
#     4  11  21  38  61  98 122 152 215 261 302 371
#     4  12  22  41  70  93 125 170 220 260 312 376
#     4  10  20  42  61  88 129 166 206 254 323 374
#     4  11  21  40  70  93 122 175 214 255 327 377
#     4  11  24  40  63  87 127 172 207 251 315 388
#     4  11  24  42  66  97 132 165 212 270 319 377
#
# _framework density 24.144348999999998
#
# number of rings (size 3 to 8) (size 9 to 14) (size 15 to 20)
#    0.000    1.000    8.750    0.375    0.000    6.000 
#    0.000    3.750    0.000    0.000    0.000    0.000 
#    0.000    0.000    0.000    0.000    0.000    0.000 
#
# Total GULP energy -89337.391371 kJ/mol
# GULP energy per Si atom -5583.586961 kJ/mol
# Density = 2.408940 g / cm^3
# Si number density = 24.144349 Si / 1000 Ang^3
#
#
#
# Elastic Constant Matrix: (Units=GPa)
#
#
# Indices 1 2 3 4 5 6 
#
# 1 118.4084 75.9629 57.2942 -13.0277 -64.5380 -4.5607
# 2 75.9629 210.4819 46.3346 -24.1115 -40.1543 -2.8304
# 3 57.2942 46.3346 134.6559 -27.7717 -48.8315 18.8506
# 4 -13.0277 -24.1115 -27.7717 58.5344 8.1362 -19.0778
# 5 -64.5380 -40.1543 -48.8315 8.1362 53.1732 -6.7714
# 6 -4.5607 -2.8304 18.8506 -19.0778 -6.7714 40.3101
#
#
#
# Elastic Compliance Matrix: (Units=1/GPa)
#
#
# Indices 1 2 3 4 5 6 
#
# 1 0.031511 -0.003873 0.000478 0.004217 0.036542 0.011204
# 2 -0.003873 0.006405 -0.000467 0.001973 -0.000455 0.001087
# 3 0.000478 -0.000467 0.012310 0.003528 0.010704 -0.002268
# 4 0.004217 0.001973 0.003528 0.023080 0.007741 0.011189
# 5 0.036542 -0.000455 0.010704 0.007741 0.073382 0.015087
# 6 0.011204 0.001087 -0.002268 0.011189 0.015087 0.035042
#
#
# Mechanical properties :
#
#
# Convention : Reuss Voigt Hill
#
# Bulk Modulus (GPa) = 23.52737 91.41441 57.47089
# Shear Modulus (GPa) = 24.55543 49.33383 36.94463
#
# Velocity S-wave (km/s) = 3.19254 4.52518 3.91596
# Velocity P-wave (km/s) = 4.83274 8.07755 6.65591
#
# Compressibility (1/GPa) = 0.04250369
#
# Stress axis : x y z
#
# Youngs Moduli (GPa) = 31.73490 156.12689 81.23192
#
# Poissons Ratio (x) = 0.60461 -0.03882
# Poissons Ratio (y) = 0.12289 0.03791
# Poissons Ratio (z) = -0.01516 0.07287
#
# Static dielectric constant tensor:
#      x y z
#    x 2.034480 0.032660 0.142870 
#    y 0.032660 1.883540 0.001930 
#    z 0.142870 0.001930 2.122690 
# 
# From -- ./inp_files/313314.got.cif
#   From: 2010.05.17/outbox.cif.g08.bks.cpg/sg2_157_cif.got.tgz:313314.got - 2010.06.03 11:33:40.
