data_PCOD9110620
_publ_section_title
;
Structure prediction by ZEFSAII (Michael W. Deem and Ramdas Pophale) SiO2 
 PCOD9110620
Probable space group: P -1
;
_chemical_formula_sum "Si O2"
_cell_formula_units_Z 13
_cell_length_a 5.137370
_cell_length_b 14.136209
_cell_length_c 8.940851
_cell_angle_alpha 86.029923
_cell_angle_beta 81.665760
_cell_angle_gamma 127.532772
_cell_volume 499.094146
_symmetry_space_group_name_H-M "P -1"
_symmetry_group_IT_number 2
_symmetry_cell_setting 'triclinic'
loop_
_space_group_symop_operation_xyz
x,y,z
-x,-y,-z
loop_
_atom_site_type_symbol
_atom_site_label
_atom_site_fract_x
_atom_site_fract_y
_atom_site_fract_z
Si Si1 0.285158 0.404737 0.263789
Si Si2 0.000000 0.500000 0.500000
Si Si3 0.016806 0.801641 0.504018
Si Si4 0.574465 0.934484 0.672830
Si Si5 0.306697 0.737854 0.262715
Si Si6 0.966689 0.603455 0.029826
Si Si7 0.889173 0.005956 0.172195
O O1 0.646924 0.529679 0.176345
O O2 0.107415 0.434780 0.389758
O O3 0.306176 0.310397 0.365507
O O4 0.106845 0.358222 0.121636
O O5 0.774353 0.377479 0.637184
O O6 0.149418 0.937677 0.451385
O O7 0.042301 0.754990 0.348767
O O8 0.319965 0.833087 0.585212
O O9 0.348559 0.956190 0.789613
O O10 0.781910 0.911397 0.761719
O O11 0.662051 0.865274 0.257203
O O12 0.265897 0.712794 0.091981
O O13 0.000000 0.500000 0.000000
O O14 0.000000 0.000000 0.000000
#
# Coordination Sequence:
#
# PCOD9110620 Si02
#       7
#     2   1   2   2   2   2   2
#     4  10  23  42  67  95 136 178 231 283 348 410
#     4  10  20  42  64  96 126 174 230 278 336 408
#     4   9  22  43  68 100 128 184 224 290 340 411
#     4  10  23  46  68 101 137 175 236 282 345 411
#     4  10  23  40  66  99 133 177 230 281 345 410
#     4  11  23  43  61  98 137 180 223 285 346 418
#     4  11  25  44  69 103 138 182 224 288 348 417
#
# _framework density 26.047188999999999
#
# number of rings (size 3 to 8) (size 9 to 14) (size 15 to 20)
#    0.000    1.846    1.538    0.462    2.154   12.923 
#    2.769    0.000    0.000    0.000    0.000    0.000 
#    0.000    0.000    0.000    0.000    0.000    0.000 
#
# Total GULP energy -72523.485890 kJ/mol
# GULP energy per Si atom -5578.729684 kJ/mol
# Density = 2.598790 g / cm^3
# Si number density = 26.047189 Si / 1000 Ang^3
#
#
#
# Elastic Constant Matrix: (Units=GPa)
#
#
# Indices 1 2 3 4 5 6 
#
# 1 79.0470 8.9224 34.2631 9.7402 -11.5176 2.6389
# 2 8.9224 77.4283 14.7859 9.8173 -13.2610 -24.8460
# 3 34.2631 14.7859 141.6984 2.6192 -32.4305 -0.2613
# 4 9.7402 9.8173 2.6192 59.6689 -2.3939 7.3171
# 5 -11.5176 -13.2610 -32.4305 -2.3939 21.1812 9.9707
# 6 2.6389 -24.8460 -0.2613 7.3171 9.9707 32.0144
#
#
#
# Elastic Compliance Matrix: (Units=1/GPa)
#
#
# Indices 1 2 3 4 5 6 
#
# 1 0.014841 -0.001353 -0.002182 -0.001438 0.005441 -0.003657
# 2 -0.001353 0.019162 -0.001198 -0.004725 0.001566 0.015565
# 3 -0.002182 -0.001198 0.012438 0.001770 0.020861 -0.007550
# 4 -0.001438 -0.004725 0.001770 0.019107 0.005682 -0.009671
# 5 0.005441 0.001566 0.020861 0.005682 0.098317 -0.030982
# 6 -0.003657 0.015565 -0.007550 -0.009671 -0.030982 0.055416
#
#
# Mechanical properties :
#
#
# Convention : Reuss Voigt Hill
#
# Bulk Modulus (GPa) = 27.04583 46.01293 36.52938
# Shear Modulus (GPa) = 20.74068 38.58638 29.66353
#
# Velocity S-wave (km/s) = 2.82489 3.85308 3.37833
# Velocity P-wave (km/s) = 4.58759 6.12360 5.41038
#
# Compressibility (1/GPa) = 0.03697428
#
# Stress axis : x y z
#
# Youngs Moduli (GPa) = 67.37927 52.18684 80.40069
#
# Poissons Ratio (x) = 0.07060 0.17547
# Poissons Ratio (y) = 0.09116 0.09632
# Poissons Ratio (z) = 0.14705 0.06252
#
# Static dielectric constant tensor:
#      x y z
#    x 2.133070 0.033850 -0.007790 
#    y 0.033850 2.011340 -0.029840 
#    z -0.007790 -0.029840 2.020380 
# 
# From -- ./inp_files/23892.got.cif
#   From: 2010.05.17/outbox.cif.g08.bks.cpg/sg2_12_cif.got.tgz:23892.got - 2010.06.03 11:33:40.
