data_PCOD9110028
_publ_section_title
;
Structure prediction by ZEFSAII (Michael W. Deem and Ramdas Pophale) SiO2 
 PCOD9110028
Probable space group: P -1
;
_chemical_formula_sum "Si O2"
_cell_formula_units_Z 16
_cell_length_a 15.242872
_cell_length_b 7.530833
_cell_length_c 11.949941
_cell_angle_alpha 103.134625
_cell_angle_beta 151.207449
_cell_angle_gamma 72.888880
_cell_volume 630.047718
_symmetry_space_group_name_H-M "P -1"
_symmetry_group_IT_number 2
_symmetry_cell_setting 'triclinic'
loop_
_space_group_symop_operation_xyz
x,y,z
-x,-y,-z
loop_
_atom_site_type_symbol
_atom_site_label
_atom_site_fract_x
_atom_site_fract_y
_atom_site_fract_z
Si Si1 0.663377 0.628359 0.830053
Si Si2 0.257728 0.338007 0.416556
Si Si3 0.810730 0.996493 0.563200
Si Si4 0.871849 0.776718 0.397413
Si Si5 0.627743 0.258029 0.673251
Si Si6 0.485796 0.241434 0.095717
Si Si7 0.128764 0.143875 0.046331
Si Si8 0.799830 0.417097 0.401180
O O1 0.741745 0.420210 0.843078
O O2 0.476863 0.707447 0.558328
O O3 0.633766 0.618028 0.927560
O O4 0.790880 0.772949 0.961043
O O5 0.458483 0.318519 0.581165
O O6 0.131332 0.297453 0.166496
O O7 0.197672 0.513025 0.456979
O O8 0.263815 0.161611 0.477217
O O9 0.639731 0.123702 0.330474
O O10 0.936312 0.891390 0.587278
O O11 0.930797 0.098553 0.792166
O O12 0.821714 0.590212 0.371228
O O13 0.024921 0.735271 0.466516
O O14 0.667029 0.867871 0.136963
O O15 0.735559 0.049901 0.790608
O O16 0.609603 0.340804 0.166382
#
# Coordination Sequence:
#
# PCOD9110028 Si02
#       8
#     2   2   2   2   2   2   2   2
#     4  10  22  38  67 106 140 186 238 277 356 417
#     4  10  20  44  68  98 140 183 229 280 354 425
#     4  11  25  43  66 102 135 186 236 285 352 420
#     4  10  25  47  68  97 137 180 236 291 353 413
#     4  10  20  41  69 101 144 193 226 287 351 421
#     4  12  23  44  69  98 139 177 235 300 341 414
#     4  11  23  42  69 104 149 186 226 293 350 420
#     4  10  23  45  72 101 131 177 239 287 352 425
#
# _framework density 25.3949
#
# number of rings (size 3 to 8) (size 9 to 14) (size 15 to 20)
#    0.000    1.500    1.250    4.125    1.750    3.500 
#    6.750    1.875    0.000    0.000    0.000    0.000 
#    0.000    0.000    0.000    0.000    0.000    0.000 
#
# Total GULP energy -89538.655082 kJ/mol
# GULP energy per Si atom -5596.165943 kJ/mol
# Density = 2.533710 g / cm^3
# Si number density = 25.394900 Si / 1000 Ang^3
#
#
#
# Elastic Constant Matrix: (Units=GPa)
#
#
# Indices 1 2 3 4 5 6 
#
# 1 147.6465 35.8961 35.9862 -0.3673 12.6854 -14.2076
# 2 35.8961 54.6746 14.4628 8.1674 8.1233 5.0584
# 3 35.9862 14.4628 74.0553 3.7278 6.6774 -9.2913
# 4 -0.3673 8.1674 3.7278 32.9349 -2.8308 2.6454
# 5 12.6854 8.1233 6.6774 -2.8308 32.7399 7.2023
# 6 -14.2076 5.0584 -9.2913 2.6454 7.2023 42.3856
#
#
#
# Elastic Compliance Matrix: (Units=1/GPa)
#
#
# Indices 1 2 3 4 5 6 
#
# 1 0.009366 -0.005563 -0.002887 0.001333 -0.002310 0.003480
# 2 -0.005563 0.024172 -0.002002 -0.005738 -0.002978 -0.004324
# 3 -0.002887 -0.002002 0.016038 -0.001838 -0.002548 0.003335
# 4 0.001333 -0.005738 -0.001838 0.032567 0.004555 -0.002078
# 5 -0.002310 -0.002978 -0.002548 0.004555 0.034665 -0.007152
# 6 0.003480 -0.004324 0.003335 -0.002078 -0.007152 0.027351
#
#
# Mechanical properties :
#
#
# Convention : Reuss Voigt Hill
#
# Bulk Modulus (GPa) = 34.87891 49.89629 42.38760
# Shear Modulus (GPa) = 28.63345 34.28084 31.45714
#
# Velocity S-wave (km/s) = 3.36151 3.67810 3.52336
# Velocity P-wave (km/s) = 5.36943 6.14237 5.76886
#
# Compressibility (1/GPa) = 0.02867062
#
# Stress axis : x y z
#
# Youngs Moduli (GPa) = 106.77226 41.37023 62.35200
#
# Poissons Ratio (x) = 0.23015 0.18000
# Poissons Ratio (y) = 0.59399 0.12486
# Poissons Ratio (z) = 0.30824 0.08284
#
# Static dielectric constant tensor:
#      x y z
#    x 2.038350 -0.025060 -0.004640 
#    y -0.025060 2.040940 -0.005320 
#    z -0.004640 -0.005320 2.016420 
# 
# From -- ./inp_files/447936.got.cif
#   From: 2010.05.17/outbox.cif.g08.bks.cpg/sg2_224_cif.got.tgz:447936.got - 2010.06.03 11:33:40.
