data_PCOD9110539
_publ_section_title
;
Structure prediction by ZEFSAII (Michael W. Deem and Ramdas Pophale) SiO2 
 PCOD9110539
Probable space group: P -1
;
_chemical_formula_sum "Si O2"
_cell_formula_units_Z 16
_cell_length_a 8.283245
_cell_length_b 17.685130
_cell_length_c 13.323947
_cell_angle_alpha 37.361887
_cell_angle_beta 91.263926
_cell_angle_gamma 61.815925
_cell_volume 698.698307
_symmetry_space_group_name_H-M "P -1"
_symmetry_group_IT_number 2
_symmetry_cell_setting 'triclinic'
loop_
_space_group_symop_operation_xyz
x,y,z
-x,-y,-z
loop_
_atom_site_type_symbol
_atom_site_label
_atom_site_fract_x
_atom_site_fract_y
_atom_site_fract_z
Si Si1 0.181527 0.258841 0.716159
Si Si2 0.948338 0.429761 0.327151
Si Si3 0.383051 0.773685 0.485426
Si Si4 0.101199 0.960403 0.655551
Si Si5 0.700230 0.750565 0.654209
Si Si6 0.623687 0.814162 0.810653
Si Si7 0.008034 0.879421 0.050137
Si Si8 0.426069 0.593576 0.191836
O O1 0.000000 0.500000 0.500000
O O2 0.165243 0.292670 0.561700
O O3 0.015236 0.241216 0.771609
O O4 0.500000 0.000000 0.000000
O O5 0.713616 0.481371 0.299672
O O6 0.076378 0.320686 0.336052
O O7 0.804573 0.652668 0.074261
O O8 0.602708 0.693941 0.649065
O O9 0.531740 0.578390 0.627782
O O10 0.150447 0.856390 0.466337
O O11 0.227059 0.960066 0.208299
O O12 0.338810 0.915997 0.703520
O O13 0.243214 0.751372 0.928407
O O14 0.000000 0.000000 0.500000
O O15 0.758038 0.699485 0.825961
O O16 0.433472 0.005463 0.379475
O O17 0.284553 0.722350 0.156109
O O18 0.000000 0.000000 0.000000
#
# Coordination Sequence:
#
# PCOD9110539 Si02
#       8
#     2   2   2   2   2   2   2   2
#     4  12  31  51  79 115 154 201 254 327 394 459
#     4  11  25  44  70  97 145 185 247 301 382 445
#     4  11  23  41  69 103 140 186 244 307 367 448
#     4  10  20  42  64 100 141 189 239 301 365 444
#     4  11  23  41  66 101 143 187 241 299 379 447
#     4  10  23  42  67  98 142 190 242 301 373 452
#     4  11  27  48  77 105 147 194 259 311 388 457
#     4  10  25  44  71 105 136 191 243 311 371 452
#
# _framework density 22.899729000000001
#
# number of rings (size 3 to 8) (size 9 to 14) (size 15 to 20)
#    0.000    1.250    1.250    2.625    8.750    3.500 
#    2.250    0.000    0.000    0.000    0.000    0.000 
#    0.000    0.000    0.000    0.000    0.000    0.000 
#
# Total GULP energy -89238.077424 kJ/mol
# GULP energy per Si atom -5577.379839 kJ/mol
# Density = 2.284761 g / cm^3
# Si number density = 22.899729 Si / 1000 Ang^3
#
#
#
# Elastic Constant Matrix: (Units=GPa)
#
#
# Indices 1 2 3 4 5 6 
#
# 1 62.3493 43.1599 19.9134 -9.8869 -6.6101 -24.1143
# 2 43.1599 130.7057 41.5591 -0.4205 -2.9974 -15.1729
# 3 19.9134 41.5591 111.1416 13.3038 -3.8321 10.8765
# 4 -9.8869 -0.4205 13.3038 43.8978 -0.8720 -3.8887
# 5 -6.6101 -2.9974 -3.8321 -0.8720 36.9322 -7.6104
# 6 -24.1143 -15.1729 10.8765 -3.8887 -7.6104 31.0535
#
#
#
# Elastic Compliance Matrix: (Units=1/GPa)
#
#
# Indices 1 2 3 4 5 6 
#
# 1 0.043711 -0.005714 -0.011229 0.017116 0.015029 0.040911
# 2 -0.005714 0.010772 -0.003188 -0.000050 -0.000086 0.001915
# 3 -0.011229 -0.003188 0.014816 -0.008707 -0.004580 -0.017680
# 4 0.017116 -0.000050 -0.008707 0.031376 0.007445 0.022070
# 5 0.015029 -0.000086 -0.004580 0.007445 0.034101 0.022522
# 6 0.040911 0.001915 -0.017680 0.022070 0.022522 0.079383
#
#
# Mechanical properties :
#
#
# Convention : Reuss Voigt Hill
#
# Bulk Modulus (GPa) = 34.44144 57.05129 45.74637
# Shear Modulus (GPa) = 18.93216 35.68097 27.30657
#
# Velocity S-wave (km/s) = 2.87843 3.95161 3.45692
# Velocity P-wave (km/s) = 5.11076 6.76668 5.99616
#
# Compressibility (1/GPa) = 0.02903479
#
# Stress axis : x y z
#
# Youngs Moduli (GPa) = 22.87767 92.83587 67.49359
#
# Poissons Ratio (x) = 0.53050 0.75789
# Poissons Ratio (y) = 0.13073 0.21520
# Poissons Ratio (z) = 0.25690 0.29600
#
# Static dielectric constant tensor:
#      x y z
#    x 1.876470 -0.009060 -0.006960 
#    y -0.009060 1.849970 -0.073660 
#    z -0.006960 -0.073660 1.962600 
# 
# From -- ./inp_files/402836.got.cif
#   From: 2010.05.17/outbox.cif.g08.bks.cpg/sg2_202_cif.got.tgz:402836.got - 2010.06.03 11:33:40.
