data_PCOD9110722
_publ_section_title
;
Structure prediction by ZEFSAII (Michael W. Deem and Ramdas Pophale) SiO2 
 PCOD9110722
Probable space group: P -1
;
_chemical_formula_sum "Si O2"
_cell_formula_units_Z 12
_cell_length_a 9.030002
_cell_length_b 14.660795
_cell_length_c 7.243344
_cell_angle_alpha 139.888651
_cell_angle_beta 116.953540
_cell_angle_gamma 50.666290
_cell_volume 476.902118
_symmetry_space_group_name_H-M "P -1"
_symmetry_group_IT_number 2
_symmetry_cell_setting 'triclinic'
loop_
_space_group_symop_operation_xyz
x,y,z
-x,-y,-z
loop_
_atom_site_type_symbol
_atom_site_label
_atom_site_fract_x
_atom_site_fract_y
_atom_site_fract_z
Si Si1 0.636054 0.305867 0.258290
Si Si2 0.719721 0.681803 0.746688
Si Si3 0.740420 0.992688 0.298850
Si Si4 0.487398 0.662510 0.152180
Si Si5 0.129569 0.530833 0.867845
Si Si6 0.955119 0.149595 0.489846
O O1 0.500000 0.500000 0.500000
O O2 0.489265 0.257102 0.191371
O O3 0.838962 0.228625 0.358659
O O4 0.653932 0.279445 0.010462
O O5 0.780423 0.557726 0.414672
O O6 0.910024 0.575341 0.817324
O O7 0.719081 0.850738 0.972591
O O8 0.571795 0.178890 0.511724
O O9 0.893330 0.018709 0.309373
O O10 0.821007 0.932180 0.460496
O O11 0.704679 0.598348 0.105242
O O12 0.500000 0.500000 0.000000
O O13 0.122755 0.700114 0.175702
#
# Coordination Sequence:
#
# PCOD9110722 Si02
#       6
#     2   2   2   2   2   2
#     4  12  24  40  66 100 130 171 229 272 319 394
#     4  10  24  40  67  99 133 173 216 271 327 383
#     4  10  22  42  66  97 134 172 216 268 327 395
#     4  12  23  41  71  93 127 176 222 272 332 389
#     4  10  20  42  65  98 127 174 217 254 334 390
#     4  10  21  41  69  97 129 176 217 266 325 390
#
# _framework density 25.162400000000002
#
# number of rings (size 3 to 8) (size 9 to 14) (size 15 to 20)
#    0.000    1.333    3.333    2.000    0.000    4.667 
#    0.000    0.000    0.000    0.000    0.000    0.000 
#    0.000    0.000    0.000    0.000    0.000    0.000 
#
# Total GULP energy -66872.879003 kJ/mol
# GULP energy per Si atom -5572.739917 kJ/mol
# Density = 2.510513 g / cm^3
# Si number density = 25.162400 Si / 1000 Ang^3
#
#
#
# Elastic Constant Matrix: (Units=GPa)
#
#
# Indices 1 2 3 4 5 6 
#
# 1 48.5206 12.6159 34.2178 -4.2535 -3.6744 2.4610
# 2 12.6159 156.6719 43.1018 -18.1366 -7.1032 -9.8219
# 3 34.2178 43.1018 169.1594 4.5453 14.5700 13.0027
# 4 -4.2535 -18.1366 4.5453 48.9838 -5.6955 -8.9934
# 5 -3.6744 -7.1032 14.5700 -5.6955 33.4843 3.2289
# 6 2.4610 -9.8219 13.0027 -8.9934 3.2289 33.1638
#
#
#
# Elastic Compliance Matrix: (Units=1/GPa)
#
#
# Indices 1 2 3 4 5 6 
#
# 1 0.025432 0.000351 -0.005926 0.003764 0.005990 0.000978
# 2 0.000351 0.008094 -0.002880 0.004490 0.003349 0.004392
# 3 -0.005926 -0.002880 0.008737 -0.003807 -0.005290 -0.004356
# 4 0.003764 0.004490 -0.003807 0.025109 0.006452 0.008724
# 5 0.005990 0.003349 -0.005290 0.006452 0.034535 0.001009
# 6 0.000978 0.004392 -0.004356 0.008724 0.001009 0.035357
#
#
# Mechanical properties :
#
#
# Convention : Reuss Voigt Hill
#
# Bulk Modulus (GPa) = 39.44396 61.58029 50.51212
# Shear Modulus (GPa) = 30.74577 42.08746 36.41662
#
# Velocity S-wave (km/s) = 3.49935 4.09422 3.80842
# Velocity P-wave (km/s) = 5.66013 6.84664 6.28146
#
# Compressibility (1/GPa) = 0.02535243
#
# Stress axis : x y z
#
# Youngs Moduli (GPa) = 39.32108 123.55185 114.45714
#
# Poissons Ratio (x) = -0.04337 0.67827
# Poissons Ratio (y) = -0.01380 0.32964
# Poissons Ratio (z) = 0.23302 0.35583
#
# Static dielectric constant tensor:
#      x y z
#    x -2.377830 -0.496950 1.619770 
#    y -0.496950 2.085590 0.094210 
#    z 1.619770 0.094210 1.440940 
# 
# From -- ./inp_files/276014.got.cif
#   From: 2010.05.17/outbox.cif.g08.bks.cpg/sg2_139_cif.got.tgz:276014.got - 2010.06.03 11:33:40.
