data_PCOD9110850
_publ_section_title
;
Structure prediction by ZEFSAII (Michael W. Deem and Ramdas Pophale) SiO2 
 PCOD9110850
Probable space group: P -1
;
_chemical_formula_sum "Si O2"
_cell_formula_units_Z 12
_cell_length_a 14.955398
_cell_length_b 8.597326
_cell_length_c 6.864938
_cell_angle_alpha 69.199258
_cell_angle_beta 100.180103
_cell_angle_gamma 142.577066
_cell_volume 492.744604
_symmetry_space_group_name_H-M "P -1"
_symmetry_group_IT_number 2
_symmetry_cell_setting 'triclinic'
loop_
_space_group_symop_operation_xyz
x,y,z
-x,-y,-z
loop_
_atom_site_type_symbol
_atom_site_label
_atom_site_fract_x
_atom_site_fract_y
_atom_site_fract_z
Si Si1 0.933946 0.374409 0.744176
Si Si2 0.220408 0.307700 0.403290
Si Si3 0.983244 0.190764 0.166051
Si Si4 0.575023 0.891871 0.863245
Si Si5 0.534900 0.915939 0.287619
Si Si6 0.599367 0.722822 0.614539
O O1 0.754903 0.148674 0.785508
O O2 0.000000 0.500000 0.500000
O O3 0.011603 0.632906 0.785052
O O4 0.964107 0.238026 0.920513
O O5 0.364226 0.615308 0.396765
O O6 0.272055 0.223678 0.334396
O O7 0.131601 0.303220 0.230080
O O8 0.138562 0.109200 0.648020
O O9 0.470704 0.897243 0.765221
O O10 0.519963 0.660177 0.810274
O O11 0.562248 0.889214 0.092026
O O12 0.644733 0.969046 0.438083
O O13 0.500000 0.500000 0.500000
#
# Coordination Sequence:
#
# PCOD9110850 Si02
#       6
#     2   2   2   2   2   2
#     4  11  23  42  68 100 130 182 228 274 334 409
#     4  10  20  42  66  97 136 179 216 280 339 396
#     4  10  22  42  66  93 140 179 221 278 332 403
#     4  11  22  41  66  98 135 177 229 273 337 407
#     4  10  22  41  66  99 135 178 221 280 337 403
#     4  10  22  39  63  93 133 175 217 278 334 396
#
# _framework density 24.353389
#
# number of rings (size 3 to 8) (size 9 to 14) (size 15 to 20)
#    0.000    1.667    1.667    2.500    0.000    4.000 
#    3.000   12.500    0.000    0.000    0.000    0.000 
#    0.000    0.000    0.000    0.000    0.000    0.000 
#
# Total GULP energy -66925.489899 kJ/mol
# GULP energy per Si atom -5577.124158 kJ/mol
# Density = 2.429796 g / cm^3
# Si number density = 24.353389 Si / 1000 Ang^3
#
#
#
# Elastic Constant Matrix: (Units=GPa)
#
#
# Indices 1 2 3 4 5 6 
#
# 1 140.5035 0.3112 86.9921 -16.7406 36.0282 -13.3545
# 2 0.3112 45.1921 41.0875 6.6094 -2.6989 11.5464
# 3 86.9921 41.0875 162.3111 4.1118 28.0449 -12.2206
# 4 -16.7406 6.6094 4.1118 19.3381 -4.7530 -3.5863
# 5 36.0282 -2.6989 28.0449 -4.7530 28.4435 -5.5814
# 6 -13.3545 11.5464 -12.2206 -3.5863 -5.5814 29.3585
#
#
#
# Elastic Compliance Matrix: (Units=1/GPa)
#
#
# Indices 1 2 3 4 5 6 
#
# 1 0.016570 0.004942 -0.008669 0.012463 -0.009558 0.001691
# 2 0.004942 0.045121 -0.017032 -0.009418 0.008916 -0.022043
# 3 -0.008669 -0.017032 0.017026 -0.005514 -0.006799 0.007876
# 4 0.012463 -0.009418 -0.005514 0.070888 0.003833 0.016466
# 5 -0.009558 0.008916 -0.006799 0.003833 0.055521 0.000339
# 6 0.001691 -0.022043 0.007876 0.016466 0.000339 0.048854
#
#
# Mechanical properties :
#
#
# Convention : Reuss Voigt Hill
#
# Bulk Modulus (GPa) = 26.88265 67.19871 47.04068
# Shear Modulus (GPa) = 16.23917 30.06906 23.15412
#
# Velocity S-wave (km/s) = 2.58507 3.51764 3.08678
# Velocity P-wave (km/s) = 4.46908 6.64465 5.66234
#
# Compressibility (1/GPa) = 0.03719871
#
# Stress axis : x y z
#
# Youngs Moduli (GPa) = 60.34967 22.16286 58.73332
#
# Poissons Ratio (x) = -0.10952 0.50915
# Poissons Ratio (y) = -0.29824 1.00035
# Poissons Ratio (z) = 0.52316 0.37748
#
# Static dielectric constant tensor:
#      x y z
#    x 1.978040 -0.002410 0.043160 
#    y -0.002410 2.006630 -0.017780 
#    z 0.043160 -0.017780 2.042120 
# 
# From -- ./inp_files/74079.got.cif
#   From: 2010.05.17/outbox.cif.g08.bks.cpg/sg2_38_cif.got.tgz:74079.got - 2010.06.03 11:33:40.
