data_PCOD9110403
_publ_section_title
;
Structure prediction by ZEFSAII (Michael W. Deem and Ramdas Pophale) SiO2 
 PCOD9110403
Probable space group: P -1
;
_chemical_formula_sum "Si O2"
_cell_formula_units_Z 14
_cell_length_a 8.866339
_cell_length_b 8.536699
_cell_length_c 17.257796
_cell_angle_alpha 47.491995
_cell_angle_beta 139.745280
_cell_angle_gamma 128.512289
_cell_volume 606.330320
_symmetry_space_group_name_H-M "P -1"
_symmetry_group_IT_number 2
_symmetry_cell_setting 'triclinic'
loop_
_space_group_symop_operation_xyz
x,y,z
-x,-y,-z
loop_
_atom_site_type_symbol
_atom_site_label
_atom_site_fract_x
_atom_site_fract_y
_atom_site_fract_z
Si Si1 0.393911 0.558295 0.283549
Si Si2 0.212149 0.205261 0.441950
Si Si3 0.152228 0.735505 0.590574
Si Si4 0.283022 0.297875 0.841654
Si Si5 0.120355 0.117775 0.686020
Si Si6 0.917456 0.744952 0.052930
Si Si7 0.263214 0.471054 0.097638
O O1 0.403906 0.395505 0.412870
O O2 0.618680 0.758626 0.286255
O O3 0.350216 0.416367 0.234783
O O4 0.153077 0.644891 0.175377
O O5 0.075086 0.276639 0.437226
O O6 0.301079 0.986945 0.573909
O O7 0.998720 0.109569 0.326973
O O8 0.260090 0.533920 0.721359
O O9 0.058647 0.737380 0.465481
O O10 0.131230 0.123086 0.781349
O O11 0.217215 0.303967 0.902392
O O12 0.560440 0.301821 0.935002
O O13 0.756729 0.676225 0.936904
O O14 0.000000 0.000000 0.000000
O O15 0.000000 0.500000 0.000000
#
# Coordination Sequence:
#
# PCOD9110403 Si02
#       7
#     2   2   2   2   2   2   2
#     4  10  20  42  61  84 123 157 194 249 292 354
#     4   9  19  37  60  87 123 156 196 230 298 360
#     4   9  19  37  58  91 119 155 199 230 300 365
#     4  11  20  40  62  84 124 157 185 263 295 333
#     4   9  21  36  62  90 119 158 197 229 305 363
#     4  11  24  39  57  91 116 150 209 248 296 348
#     4   9  22  42  60  82 115 158 205 243 297 350
#
# _framework density 23.089724
#
# number of rings (size 3 to 8) (size 9 to 14) (size 15 to 20)
#    0.857    1.429    1.429    0.857    2.000    1.714 
#    5.143    5.000    0.000    0.000    0.000    0.000 
#    0.000    0.000    0.000    0.000    0.000    0.000 
#
# Total GULP energy -78011.873230 kJ/mol
# GULP energy per Si atom -5572.276659 kJ/mol
# Density = 2.303717 g / cm^3
# Si number density = 23.089724 Si / 1000 Ang^3
#
#
#
# Elastic Constant Matrix: (Units=GPa)
#
#
# Indices 1 2 3 4 5 6 
#
# 1 97.7844 15.6352 29.1860 7.7896 -30.3062 -0.6689
# 2 15.6352 65.4202 16.7829 17.0018 -10.3328 -9.4006
# 3 29.1860 16.7829 44.6845 8.5144 -15.5008 -5.4066
# 4 7.7896 17.0018 8.5144 36.0096 -9.8187 -11.9542
# 5 -30.3062 -10.3328 -15.5008 -9.8187 31.9443 8.8192
# 6 -0.6689 -9.4006 -5.4066 -11.9542 8.8192 33.1506
#
#
#
# Elastic Compliance Matrix: (Units=1/GPa)
#
#
# Indices 1 2 3 4 5 6 
#
# 1 0.016382 -0.000952 -0.006279 0.000654 0.013587 -0.004342
# 2 -0.000952 0.018851 -0.004849 -0.006825 0.000184 0.002025
# 3 -0.006279 -0.004849 0.031074 -0.001441 0.006766 0.001247
# 4 0.000654 -0.006825 -0.001441 0.035926 0.006232 0.009140
# 5 0.013587 0.000184 0.006766 0.006232 0.052277 -0.010230
# 6 -0.004342 0.002025 0.001247 0.009140 -0.010230 0.036873
#
#
# Mechanical properties :
#
#
# Convention : Reuss Voigt Hill
#
# Bulk Modulus (GPa) = 23.72651 36.78857 30.25754
# Shear Modulus (GPa) = 21.77766 29.97324 25.87545
#
# Velocity S-wave (km/s) = 3.07445 3.60685 3.35124
# Velocity P-wave (km/s) = 4.78551 5.77177 5.30162
#
# Compressibility (1/GPa) = 0.04214694
#
# Stress axis : x y z
#
# Youngs Moduli (GPa) = 61.04162 53.04679 32.18130
#
# Poissons Ratio (x) = 0.05052 0.20207
# Poissons Ratio (y) = 0.05813 0.15604
# Poissons Ratio (z) = 0.38330 0.25721
#
# Static dielectric constant tensor:
#      x y z
#    x 1.385400 0.051990 -0.036130 
#    y 0.051990 1.926210 0.082030 
#    z -0.036130 0.082030 1.967560 
# 
# From -- ./inp_files/540068.got.cif
#   From: 2010.05.17/outbox.cif.g08.bks.cpg/sg2_271_cif.got.tgz:540068.got - 2010.06.03 11:33:40.
