data_PCOD9110348
_publ_section_title
;
Structure prediction by ZEFSAII (Michael W. Deem and Ramdas Pophale) SiO2 
 PCOD9110348
Probable space group: P -1
;
_chemical_formula_sum "Si O2"
_cell_formula_units_Z 15
_cell_length_a 7.840482
_cell_length_b 12.532743
_cell_length_c 9.290243
_cell_angle_alpha 141.744890
_cell_angle_beta 103.350462
_cell_angle_gamma 90.398411
_cell_volume 522.403138
_symmetry_space_group_name_H-M "P -1"
_symmetry_group_IT_number 2
_symmetry_cell_setting 'triclinic'
loop_
_space_group_symop_operation_xyz
x,y,z
-x,-y,-z
loop_
_atom_site_type_symbol
_atom_site_label
_atom_site_fract_x
_atom_site_fract_y
_atom_site_fract_z
Si Si1 0.943811 0.846693 0.016986
Si Si2 0.788668 0.335389 0.562202
Si Si3 0.797058 0.763023 0.509506
Si Si4 0.000000 0.500000 0.500000
Si Si5 0.520583 0.810002 0.848175
Si Si6 0.420751 0.828188 0.403834
Si Si7 0.838964 0.683138 0.113602
Si Si8 0.405886 0.626044 0.918129
O O1 0.923677 0.956408 0.794410
O O2 0.731772 0.819169 0.904288
O O3 0.942590 0.835344 0.179781
O O4 0.993681 0.673639 0.783248
O O5 0.600410 0.337594 0.444014
O O6 0.712346 0.170046 0.486804
O O7 0.862459 0.503025 0.859961
O O8 0.915361 0.353826 0.467860
O O9 0.600490 0.791561 0.464486
O O10 0.726832 0.566814 0.366503
O O11 0.881679 0.729433 0.336648
O O12 0.426641 0.760667 0.932993
O O13 0.500000 0.000000 0.000000
O O14 0.500000 0.000000 0.500000
O O15 0.328372 0.676576 0.105238
O O16 0.616095 0.640763 0.011328
#
# Coordination Sequence:
#
# PCOD9110348 Si02
#       8
#     2   2   2   1   2   2   2   2
#     4  10  24  45  80 116 170 219 272 345 411 506
#     4  11  22  47  76 112 162 210 276 336 405 508
#     4  11  20  43  76 124 159 201 285 352 425 487
#     4  10  26  48  76 116 168 218 272 326 426 488
#     4  11  26  49  79 117 161 223 281 340 419 507
#     4  11  22  41  78 117 160 218 274 341 416 501
#     4   9  18  40  76 111 153 210 268 336 414 483
#     4  10  20  41  75 117 156 207 272 344 418 489
#
# _framework density 28.713456000000001
#
# number of rings (size 3 to 8) (size 9 to 14) (size 15 to 20)
#    0.000    1.600    2.667    2.000    0.000    6.933 
#    2.400    2.667    2.933    4.800    0.000    2.800 
#    0.000    0.000    0.000    0.000    0.000    0.000 
#
# Total GULP energy -83933.309548 kJ/mol
# GULP energy per Si atom -5595.553970 kJ/mol
# Density = 2.864810 g / cm^3
# Si number density = 28.713456 Si / 1000 Ang^3
#
#
#
# Elastic Constant Matrix: (Units=GPa)
#
#
# Indices 1 2 3 4 5 6 
#
# 1 120.9557 42.3151 33.3573 -9.7128 -0.0777 23.1855
# 2 42.3151 217.5349 63.6069 -13.7036 -7.9763 68.1496
# 3 33.3573 63.6069 163.1070 -11.5386 6.9436 22.0342
# 4 -9.7128 -13.7036 -11.5386 76.0498 13.8128 -7.5313
# 5 -0.0777 -7.9763 6.9436 13.8128 52.6513 -7.4234
# 6 23.1855 68.1496 22.0342 -7.5313 -7.4234 39.7645
#
#
#
# Elastic Compliance Matrix: (Units=1/GPa)
#
#
# Indices 1 2 3 4 5 6 
#
# 1 0.009603 0.000111 -0.001239 0.000681 -0.000704 -0.005105
# 2 0.000111 0.010402 -0.001750 0.000047 -0.000606 -0.017026
# 3 -0.001239 -0.001750 0.007247 0.000859 -0.001506 -0.000413
# 4 0.000681 0.000047 0.000859 0.014144 -0.003669 0.001041
# 5 -0.000704 -0.000606 -0.001506 -0.003669 0.020834 0.005478
# 6 -0.005105 -0.017026 -0.000413 0.001041 0.005478 0.058753
#
#
# Mechanical properties :
#
#
# Convention : Reuss Voigt Hill
#
# Bulk Modulus (GPa) = 46.52176 86.68402 66.60289
# Shear Modulus (GPa) = 37.33977 57.84769 47.59373
#
# Velocity S-wave (km/s) = 3.61006 4.49336 4.07571
# Velocity P-wave (km/s) = 5.79775 7.56143 6.73755
#
# Compressibility (1/GPa) = 0.02149532
#
# Stress axis : x y z
#
# Youngs Moduli (GPa) = 104.13084 96.13770 137.97960
#
# Poissons Ratio (x) = -0.01064 0.17101
# Poissons Ratio (y) = -0.01152 0.24144
# Poissons Ratio (z) = 0.12906 0.16822
#
# Static dielectric constant tensor:
#      x y z
#    x 2.400760 -0.110700 0.021970 
#    y -0.110700 2.270910 0.039300 
#    z 0.021970 0.039300 2.239460 
# 
# From -- ./inp_files/255269.got.cif
#   From: 2010.05.17/outbox.cif.g08.bks.cpg/sg2_128_cif.got.tgz:255269.got - 2010.06.03 11:33:40.
