data_PCOD9110263
_publ_section_title
;
Structure prediction by ZEFSAII (Michael W. Deem and Ramdas Pophale) SiO2 
 PCOD9110263
Probable space group: P -1
;
_chemical_formula_sum "Si O2"
_cell_formula_units_Z 16
_cell_length_a 11.923418
_cell_length_b 12.946913
_cell_length_c 8.922290
_cell_angle_alpha 122.040155
_cell_angle_beta 50.020892
_cell_angle_gamma 90.149093
_cell_volume 763.782979
_symmetry_space_group_name_H-M "P -1"
_symmetry_group_IT_number 2
_symmetry_cell_setting 'triclinic'
loop_
_space_group_symop_operation_xyz
x,y,z
-x,-y,-z
loop_
_atom_site_type_symbol
_atom_site_label
_atom_site_fract_x
_atom_site_fract_y
_atom_site_fract_z
Si Si1 0.984388 0.151495 0.114047
Si Si2 0.286789 0.634211 0.712313
Si Si3 0.133897 0.519862 0.998950
Si Si4 0.545624 0.739363 0.548456
Si Si5 0.577766 0.846466 0.897268
Si Si6 0.469902 0.385304 0.116840
Si Si7 0.642219 0.961235 0.221762
Si Si8 0.211840 0.602748 0.281793
O O1 0.872250 0.233863 0.131131
O O2 0.891378 0.261589 0.416163
O O3 0.177674 0.112644 0.907814
O O4 0.000000 0.000000 0.000000
O O5 0.210630 0.593808 0.885686
O O6 0.426527 0.678575 0.653504
O O7 0.377171 0.502690 0.417467
O O8 0.302745 0.366678 0.771873
O O9 0.087526 0.597216 0.259120
O O10 0.000000 0.500000 0.000000
O O11 0.646557 0.750612 0.614437
O O12 0.419547 0.887678 0.689703
O O13 0.478525 0.772941 0.997831
O O14 0.663472 0.861419 0.984819
O O15 0.500000 0.000000 0.000000
O O16 0.321618 0.456248 0.170631
O O17 0.637854 0.383487 0.915743
O O18 0.500000 0.000000 0.500000
#
# Coordination Sequence:
#
# PCOD9110263 Si02
#       8
#     2   2   2   2   2   2   2   2
#     4  11  25  46  66  97 135 170 228 276 331 396
#     4  11  22  44  72  98 131 179 216 280 329 396
#     4  12  26  40  65 104 139 165 222 279 339 395
#     4  11  22  45  68  94 135 179 219 267 336 406
#     4  10  23  40  63  94 134 176 218 265 329 401
#     4  10  20  41  71  99 129 173 228 267 332 404
#     4  11  27  43  70  94 132 181 225 272 332 399
#     4  10  24  39  70 102 129 173 222 284 333 389
#
# _framework density 20.948360000000001
#
# number of rings (size 3 to 8) (size 9 to 14) (size 15 to 20)
#    0.000    1.250    3.750    1.125    7.000    0.000 
#    0.000    3.125    0.000    0.000    0.000    0.000 
#    0.000    0.000    0.000    0.000    0.000    0.000 
#
# Total GULP energy -89151.350722 kJ/mol
# GULP energy per Si atom -5571.959420 kJ/mol
# Density = 2.090068 g / cm^3
# Si number density = 20.948360 Si / 1000 Ang^3
#
#
#
# Elastic Constant Matrix: (Units=GPa)
#
#
# Indices 1 2 3 4 5 6 
#
# 1 135.4510 29.3597 41.0727 5.3327 -0.5987 -9.2737
# 2 29.3597 99.9034 20.6637 5.3896 -1.2260 2.1743
# 3 41.0727 20.6637 79.9047 2.5598 -2.4051 -5.8234
# 4 5.3327 5.3896 2.5598 26.4148 -4.1851 3.3362
# 5 -0.5987 -1.2260 -2.4051 -4.1851 36.2209 2.5145
# 6 -9.2737 2.1743 -5.8234 3.3362 2.5145 26.9941
#
#
#
# Elastic Compliance Matrix: (Units=1/GPa)
#
#
# Indices 1 2 3 4 5 6 
#
# 1 0.009256 -0.001867 -0.004046 -0.001522 -0.000542 0.002696
# 2 -0.001867 0.011088 -0.001988 -0.001438 0.000171 -0.001801
# 3 -0.004046 -0.001988 0.015293 -0.000410 0.000691 0.002055
# 4 -0.001522 -0.001438 -0.000410 0.040025 0.004933 -0.005902
# 5 -0.000542 0.000171 0.000691 0.004933 0.028451 -0.003311
# 6 0.002696 -0.001801 0.002055 -0.005902 -0.003311 0.039598
#
#
# Mechanical properties :
#
#
# Convention : Reuss Voigt Hill
#
# Bulk Modulus (GPa) = 50.41495 55.27237 52.84366
# Shear Modulus (GPa) = 30.09786 32.87016 31.48401
#
# Velocity S-wave (km/s) = 3.79458 3.96549 3.88098
# Velocity P-wave (km/s) = 6.58156 6.88543 6.73521
#
# Compressibility (1/GPa) = 0.01983539
#
# Stress axis : x y z
#
# Youngs Moduli (GPa) = 108.03315 90.18494 65.39076
#
# Poissons Ratio (x) = 0.16834 0.26459
# Poissons Ratio (y) = 0.20165 0.13000
# Poissons Ratio (z) = 0.43714 0.17930
#
# Static dielectric constant tensor:
#      x y z
#    x 1.825110 -0.000280 0.029260 
#    y -0.000280 1.774900 0.032230 
#    z 0.029260 0.032230 1.766260 
# 
# From -- ./inp_files/262911.got.cif
#   From: 2010.05.17/outbox.cif.g08.bks.cpg/sg2_132_cif.got.tgz:262911.got - 2010.06.03 11:33:40.
