data_PCOD9110875
_publ_section_title
;
Structure prediction by ZEFSAII (Michael W. Deem and Ramdas Pophale) SiO2 
 PCOD9110875
Probable space group: P -1
;
_chemical_formula_sum "Si O2"
_cell_formula_units_Z 16
_cell_length_a 21.515095
_cell_length_b 18.609732
_cell_length_c 12.591226
_cell_angle_alpha 150.580796
_cell_angle_beta 39.057413
_cell_angle_gamma 161.325950
_cell_volume 753.942189
_symmetry_space_group_name_H-M "P -1"
_symmetry_group_IT_number 2
_symmetry_cell_setting 'triclinic'
loop_
_space_group_symop_operation_xyz
x,y,z
-x,-y,-z
loop_
_atom_site_type_symbol
_atom_site_label
_atom_site_fract_x
_atom_site_fract_y
_atom_site_fract_z
Si Si1 0.970529 0.806542 0.735868
Si Si2 0.856951 0.640176 0.301455
Si Si3 0.387919 0.626286 0.511166
Si Si4 0.755105 0.298719 0.799970
Si Si5 0.296358 0.305387 0.567283
Si Si6 0.440116 0.705409 0.080479
Si Si7 0.580452 0.593596 0.135053
Si Si8 0.100165 0.586977 0.590124
O O1 0.900383 0.588319 0.626329
O O2 0.803925 0.608459 0.612888
O O3 0.189467 0.050387 0.711926
O O4 0.000000 0.000000 0.000000
O O5 0.696079 0.416260 0.322397
O O6 0.797926 0.721562 0.437467
O O7 0.816559 0.476809 0.048677
O O8 0.098776 0.953858 0.414047
O O9 0.452037 0.537560 0.308181
O O10 0.570419 0.956378 0.642591
O O11 0.684146 0.309927 0.809184
O O12 0.948462 0.456276 0.710700
O O13 0.500000 0.500000 0.500000
O O14 0.373801 0.508895 0.821518
O O15 0.413583 0.566956 0.040586
O O16 0.675467 0.059289 0.230701
O O17 0.500000 0.500000 0.000000
O O18 0.000000 0.500000 0.500000
#
# Coordination Sequence:
#
# PCOD9110875 Si02
#       8
#     2   2   2   2   2   2   2   2
#     4  12  26  45  67 101 136 178 233 283 346 423
#     4  10  23  41  69 101 136 185 230 283 349 409
#     4  12  24  44  69  98 145 183 231 287 348 412
#     4  11  25  46  68 100 144 177 234 289 348 417
#     4  10  20  42  67 101 138 176 233 286 337 413
#     4  11  25  42  70 100 134 183 226 284 351 404
#     4  12  25  43  68 101 136 183 233 289 345 411
#     4  12  27  45  70 102 136 183 232 289 350 414
#
# _framework density 21.221785000000001
#
# number of rings (size 3 to 8) (size 9 to 14) (size 15 to 20)
#    0.000    0.750    3.750    3.375    1.750    2.500 
#    0.000    0.625    0.000    0.000    0.000    0.000 
#    0.000    0.000    0.000    0.000    0.000    0.000 
#
# Total GULP energy -89372.528035 kJ/mol
# GULP energy per Si atom -5585.783002 kJ/mol
# Density = 2.117348 g / cm^3
# Si number density = 21.221785 Si / 1000 Ang^3
#
#
#
# Elastic Constant Matrix: (Units=GPa)
#
#
# Indices 1 2 3 4 5 6 
#
# 1 91.2453 20.2550 35.3612 9.5732 -11.1373 -1.3640
# 2 20.2550 94.5001 49.7320 17.7954 0.7122 10.3952
# 3 35.3612 49.7320 80.3281 9.6029 -3.0083 7.8031
# 4 9.5732 17.7954 9.6029 46.6600 2.9606 4.6236
# 5 -11.1373 0.7122 -3.0083 2.9606 30.1718 5.7842
# 6 -1.3640 10.3952 7.8031 4.6236 5.7842 38.1456
#
#
#
# Elastic Compliance Matrix: (Units=1/GPa)
#
#
# Indices 1 2 3 4 5 6 
#
# 1 0.014046 0.000482 -0.006165 -0.002205 0.004543 0.001210
# 2 0.000482 0.016678 -0.009861 -0.004212 -0.000414 -0.001937
# 3 -0.006165 -0.009861 0.021388 0.000803 0.000407 -0.002067
# 4 -0.002205 -0.004212 0.000803 0.023648 -0.002656 -0.001559
# 5 0.004543 -0.000414 0.000407 -0.002656 0.036082 -0.004957
# 6 0.001210 -0.001937 -0.002067 -0.001559 -0.004957 0.028150
#
#
# Mechanical properties :
#
#
# Convention : Reuss Voigt Hill
#
# Bulk Modulus (GPa) = 47.56875 52.97445 50.27160
# Shear Modulus (GPa) = 28.07595 33.71049 30.89322
#
# Velocity S-wave (km/s) = 3.64122 3.98990 3.81954
# Velocity P-wave (km/s) = 6.33575 6.80017 6.57206
#
# Compressibility (1/GPa) = 0.02102220
#
# Stress axis : x y z
#
# Youngs Moduli (GPa) = 71.19621 59.96032 46.75468
#
# Poissons Ratio (x) = -0.02889 0.28825
# Poissons Ratio (y) = -0.03430 0.46106
# Poissons Ratio (z) = 0.43894 0.59129
#
# Static dielectric constant tensor:
#      x y z
#    x 1.782990 -0.033240 -0.030480 
#    y -0.033240 1.775790 -0.000380 
#    z -0.030480 -0.000380 1.734730 
# 
# From -- ./inp_files/273158.got.cif
#   From: 2010.05.17/outbox.cif.g08.bks.cpg/sg2_137_cif.got.tgz:273158.got - 2010.06.03 11:33:40.
