data_PCOD9110534
_publ_section_title
;
Structure prediction by ZEFSAII (Michael W. Deem and Ramdas Pophale) SiO2 
 PCOD9110534
Probable space group: P -1
;
_chemical_formula_sum "Si O2"
_cell_formula_units_Z 10
_cell_length_a 12.580848
_cell_length_b 15.185801
_cell_length_c 8.076116
_cell_angle_alpha 128.085021
_cell_angle_beta 53.806645
_cell_angle_gamma 160.585922
_cell_volume 403.446999
_symmetry_space_group_name_H-M "P -1"
_symmetry_group_IT_number 2
_symmetry_cell_setting 'triclinic'
loop_
_space_group_symop_operation_xyz
x,y,z
-x,-y,-z
loop_
_atom_site_type_symbol
_atom_site_label
_atom_site_fract_x
_atom_site_fract_y
_atom_site_fract_z
Si Si1 0.327701 0.842039 0.204272
Si Si2 0.389261 0.270042 0.683368
Si Si3 0.659073 0.280872 0.612637
Si Si4 0.636549 0.667640 0.732876
Si Si5 0.572971 0.285602 0.195730
O O1 0.377085 0.796341 0.261920
O O2 0.955954 0.572004 0.191602
O O3 0.433577 0.041303 0.412837
O O4 0.522199 0.918296 0.978761
O O5 0.606628 0.370482 0.730047
O O6 0.507677 0.487446 0.787671
O O7 0.430454 0.234523 0.429932
O O8 0.021010 0.973706 0.732580
O O9 0.000000 0.500000 0.500000
O O10 0.500000 0.500000 0.500000
O O11 0.513671 0.698131 0.855040
#
# Coordination Sequence:
#
# PCOD9110534 Si02
#       5
#     2   2   2   2   2
#     4  10  23  40  64  90 129 158 210 261 310 368
#     4  11  22  40  66  90 124 167 208 251 312 375
#     4  11  22  41  61  89 124 171 203 251 317 377
#     4  10  21  38  64  92 125 162 204 258 310 371
#     4  10  20  42  63  97 118 161 210 265 306 358
#
# _framework density 24.786404000000001
#
# number of rings (size 3 to 8) (size 9 to 14) (size 15 to 20)
#    0.000    1.600    2.000    4.800    2.800    0.800 
#   10.800    2.000    0.000    0.000    0.000    0.000 
#    0.000    0.000    0.000    0.000    0.000    0.000 
#
# Total GULP energy -55891.868093 kJ/mol
# GULP energy per Si atom -5589.186809 kJ/mol
# Density = 2.472999 g / cm^3
# Si number density = 24.786404 Si / 1000 Ang^3
#
#
#
# Elastic Constant Matrix: (Units=GPa)
#
#
# Indices 1 2 3 4 5 6 
#
# 1 221.2612 48.4753 40.8282 24.9386 -32.8430 -20.0596
# 2 48.4753 115.4633 9.1878 6.6456 -11.7275 2.6974
# 3 40.8282 9.1878 57.2107 -66.5200 -45.5284 8.4844
# 4 24.9386 6.6456 -66.5200 -97.8869 -52.8909 22.6658
# 5 -32.8430 -11.7275 -45.5284 -52.8909 22.6401 15.2456
# 6 -20.0596 2.6974 8.4844 22.6658 15.2456 37.8438
#
#
#
# Elastic Compliance Matrix: (Units=1/GPa)
#
#
# Indices 1 2 3 4 5 6 
#
# 1 0.005946 -0.002007 -0.000754 -0.000158 0.004535 0.001732
# 2 -0.002007 0.009715 0.000022 -0.000905 0.001194 -0.001700
# 3 -0.000754 0.000022 0.010134 -0.007396 0.001146 0.001295
# 4 -0.000158 -0.000905 -0.007396 0.002723 -0.012646 0.005102
# 5 0.004535 0.001194 0.001146 -0.012646 0.024203 -0.000114
# 6 0.001732 -0.001700 0.001295 0.005102 -0.000114 0.024163
#
#
# Mechanical properties :
#
#
# Convention : Reuss Voigt Hill
#
# Bulk Modulus (GPa) = 49.22040 65.65753 57.43896
# Shear Modulus (GPa) = 56.09488 12.21568 34.15528
#
# Velocity S-wave (km/s) = 4.76240 2.22240 3.71615
# Velocity P-wave (km/s) = 7.08107 5.75606 6.45267
#
# Compressibility (1/GPa) = 0.02031678
#
# Stress axis : x y z
#
# Youngs Moduli (GPa) = 168.17086 102.93543 98.68109
#
# Poissons Ratio (x) = 0.20662 0.07436
# Poissons Ratio (y) = 0.33756 -0.00215
# Poissons Ratio (z) = 0.12673 -0.00224
#
# Static dielectric constant tensor:
#      x y z
#    x 2.000150 -0.105890 0.066640 
#    y -0.105890 1.873400 -0.066040 
#    z 0.066640 -0.066040 2.005340 
# 
# From -- ./inp_files/16144.got.cif
#   From: 2010.05.17/outbox.cif.g08.bks.cpg/sg2_9_cif.got.tgz:16144.got - 2010.06.03 11:33:40.
