data_PCOD9110337
_publ_section_title
;
Structure prediction by ZEFSAII (Michael W. Deem and Ramdas Pophale) SiO2 
 PCOD9110337
Probable space group: P -1
;
_chemical_formula_sum "Si O2"
_cell_formula_units_Z 14
_cell_length_a 7.490422
_cell_length_b 6.742104
_cell_length_c 22.742373
_cell_angle_alpha 132.906320
_cell_angle_beta 44.361456
_cell_angle_gamma 117.494990
_cell_volume 587.483828
_symmetry_space_group_name_H-M "P -1"
_symmetry_group_IT_number 2
_symmetry_cell_setting 'triclinic'
loop_
_space_group_symop_operation_xyz
x,y,z
-x,-y,-z
loop_
_atom_site_type_symbol
_atom_site_label
_atom_site_fract_x
_atom_site_fract_y
_atom_site_fract_z
Si Si1 0.174541 0.020339 0.715792
Si Si2 0.678853 0.242719 0.487680
Si Si3 0.732579 0.350991 0.035987
Si Si4 0.283623 0.697374 0.187432
Si Si5 0.424845 0.577063 0.778648
Si Si6 0.983459 0.190893 0.167719
Si Si7 0.266404 0.236124 0.355788
O O1 0.358129 0.269731 0.720152
O O2 0.893547 0.147610 0.788022
O O3 0.275773 0.798513 0.600484
O O4 0.151923 0.914452 0.764609
O O5 0.605161 0.546256 0.588396
O O6 0.970040 0.208534 0.437048
O O7 0.500000 0.000000 0.500000
O O8 0.535998 0.520598 0.074314
O O9 0.608315 0.369414 0.133959
O O10 0.000000 0.500000 0.000000
O O11 0.798308 0.038450 0.944041
O O12 0.097680 0.478264 0.212572
O O13 0.359596 0.924217 0.261844
O O14 0.683909 0.637727 0.695593
O O15 0.207675 0.762087 0.832560
#
# Coordination Sequence:
#
# PCOD9110337 Si02
#       7
#     2   2   2   2   2   2   2
#     4  10  22  44  70  97 138 179 222 285 342 407
#     4  10  20  41  74 102 134 178 226 281 346 408
#     4  12  24  43  67  99 134 185 232 279 338 401
#     4  10  25  42  66  98 138 178 229 279 342 400
#     4  11  23  43  69  96 142 176 229 284 334 403
#     4  11  24  45  66 100 139 185 229 278 339 404
#     4  10  22  42  70 101 136 178 226 283 341 407
#
# _framework density 23.830442999999999
#
# number of rings (size 3 to 8) (size 9 to 14) (size 15 to 20)
#    0.000    1.429    2.857    1.714    4.000    0.571 
#    0.000    1.429    6.286    0.000    0.000    0.000 
#    0.000    0.000    0.000    0.000    0.000    0.000 
#
# Total GULP energy -78238.073412 kJ/mol
# GULP energy per Si atom -5588.433815 kJ/mol
# Density = 2.377620 g / cm^3
# Si number density = 23.830443 Si / 1000 Ang^3
#
#
#
# Elastic Constant Matrix: (Units=GPa)
#
#
# Indices 1 2 3 4 5 6 
#
# 1 88.2240 56.3418 28.4281 -4.5620 -3.7654 2.1720
# 2 56.3418 110.4637 35.9337 14.6298 0.3347 22.4720
# 3 28.4281 35.9337 99.3779 10.9766 18.4984 -2.8999
# 4 -4.5620 14.6298 10.9766 47.7488 12.2953 3.5140
# 5 -3.7654 0.3347 18.4984 12.2953 43.1149 -0.6903
# 6 2.1720 22.4720 -2.8999 3.5140 -0.6903 42.5883
#
#
#
# Elastic Compliance Matrix: (Units=1/GPa)
#
#
# Indices 1 2 3 4 5 6 
#
# 1 0.018903 -0.010323 -0.002360 0.004855 0.001422 0.003945
# 2 -0.010323 0.017970 -0.003545 -0.005530 0.001917 -0.008709
# 3 -0.002360 -0.003545 0.013241 -0.000970 -0.005537 0.002883
# 4 0.004855 -0.005530 -0.000970 0.024889 -0.006208 0.000450
# 5 0.001422 0.001917 -0.005537 -0.006208 0.027441 -0.000504
# 6 0.003945 -0.008709 0.002883 0.000450 -0.000504 0.028026
#
#
# Mechanical properties :
#
#
# Convention : Reuss Voigt Hill
#
# Bulk Modulus (GPa) = 56.63522 59.94141 58.28832
# Shear Modulus (GPa) = 29.61866 38.51454 34.06660
#
# Velocity S-wave (km/s) = 3.52929 4.02455 3.78503
# Velocity P-wave (km/s) = 6.35809 6.84134 6.60414
#
# Compressibility (1/GPa) = 0.01765686
#
# Stress axis : x y z
#
# Youngs Moduli (GPa) = 52.90257 55.64980 75.52019
#
# Poissons Ratio (x) = 0.57449 0.17826
# Poissons Ratio (y) = 0.54613 0.26770
# Poissons Ratio (z) = 0.12488 0.19726
#
# Static dielectric constant tensor:
#      x y z
#    x 2.002680 0.026640 -0.055230 
#    y 0.026640 1.868890 0.011440 
#    z -0.055230 0.011440 1.937710 
# 
# From -- ./inp_files/605916.got.cif
#   From: 2010.05.17/outbox.cif.g08.bks.cpg/sg2_303_cif.got.tgz:605916.got - 2010.06.03 11:33:40.
