data_PCOD9110322
_publ_section_title
;
Structure prediction by ZEFSAII (Michael W. Deem and Ramdas Pophale) SiO2 
 PCOD9110322
Probable space group: P -1
;
_chemical_formula_sum "Si O2"
_cell_formula_units_Z 12
_cell_length_a 5.239310
_cell_length_b 15.164373
_cell_length_c 7.879741
_cell_angle_alpha 56.395885
_cell_angle_beta 117.668298
_cell_angle_gamma 93.454841
_cell_volume 445.074794
_symmetry_space_group_name_H-M "P -1"
_symmetry_group_IT_number 2
_symmetry_cell_setting 'triclinic'
loop_
_space_group_symop_operation_xyz
x,y,z
-x,-y,-z
loop_
_atom_site_type_symbol
_atom_site_label
_atom_site_fract_x
_atom_site_fract_y
_atom_site_fract_z
Si Si1 0.329903 0.155628 0.343076
Si Si2 0.694405 0.758741 0.260346
Si Si3 0.316111 0.500040 0.175414
Si Si4 0.884183 0.325298 0.836230
Si Si5 0.284659 0.683257 0.717098
Si Si6 0.306143 0.021780 0.140175
O O1 0.609232 0.206917 0.341242
O O2 0.262476 0.079199 0.252506
O O3 0.426439 0.085209 0.617607
O O4 0.051380 0.261589 0.123232
O O5 0.391306 0.725395 0.227377
O O6 0.874459 0.701902 0.209047
O O7 0.935900 0.716742 0.527378
O O8 0.618587 0.887999 0.055133
O O9 0.232139 0.547389 0.286504
O O10 0.551564 0.387017 0.321210
O O11 0.409420 0.596012 0.997330
O O12 0.000000 0.500000 0.000000
O O13 0.000000 0.000000 0.000000
#
# Coordination Sequence:
#
# PCOD9110322 Si02
#       6
#     2   2   2   2   2   2
#     4  10  21  42  71 101 144 185 229 291 351 417
#     4  11  26  45  71 106 144 180 238 296 346 420
#     4  11  24  42  70  98 137 192 238 282 361 420
#     4  11  25  46  69 103 145 186 234 291 351 416
#     4  11  24  44  70 103 142 186 233 295 353 416
#     4  10  20  41  73 104 139 184 237 282 355 421
#
# _framework density 26.961762
#
# number of rings (size 3 to 8) (size 9 to 14) (size 15 to 20)
#    0.000    1.333    3.333    2.000    4.667    2.000 
#    0.000    5.000    0.000    0.000    0.000    0.000 
#    0.000    0.000    0.000    0.000    0.000    0.000 
#
# Total GULP energy -67241.399229 kJ/mol
# GULP energy per Si atom -5603.449936 kJ/mol
# Density = 2.690040 g / cm^3
# Si number density = 26.961762 Si / 1000 Ang^3
#
#
#
# Elastic Constant Matrix: (Units=GPa)
#
#
# Indices 1 2 3 4 5 6 
#
# 1 83.4075 23.7357 33.0067 6.7495 -0.9233 4.4247
# 2 23.7357 116.2392 29.1550 12.0301 2.4111 3.3340
# 3 33.0067 29.1550 188.0090 19.7518 17.3752 1.8184
# 4 6.7495 12.0301 19.7518 31.1495 -1.5046 17.7024
# 5 -0.9233 2.4111 17.3752 -1.5046 55.7946 6.7502
# 6 4.4247 3.3340 1.8184 17.7024 6.7502 53.2777
#
#
#
# Elastic Compliance Matrix: (Units=1/GPa)
#
#
# Indices 1 2 3 4 5 6 
#
# 1 0.013530 -0.002216 -0.002112 -0.000106 0.001098 -0.001017
# 2 -0.002216 0.009554 -0.000730 -0.003173 -0.000394 0.000715
# 3 -0.002112 -0.000730 0.006476 -0.004501 -0.002359 0.001794
# 4 -0.000106 -0.003173 -0.004501 0.045061 0.004590 -0.015193
# 5 0.001098 -0.000394 -0.002359 0.004590 0.019295 -0.003956
# 6 -0.001017 0.000715 0.001794 -0.015193 -0.003956 0.024297
#
#
# Mechanical properties :
#
#
# Convention : Reuss Voigt Hill
#
# Bulk Modulus (GPa) = 51.42552 62.16117 56.79334
# Shear Modulus (GPa) = 37.08856 48.16159 42.62507
#
# Velocity S-wave (km/s) = 3.71293 4.23104 3.98042
# Velocity P-wave (km/s) = 6.12340 6.85378 6.49886
#
# Compressibility (1/GPa) = 0.01944560
#
# Stress axis : x y z
#
# Youngs Moduli (GPa) = 73.90762 104.66322 154.40760
#
# Poissons Ratio (x) = 0.23191 0.32615
# Poissons Ratio (y) = 0.16376 0.11269
# Poissons Ratio (z) = 0.15611 0.07638
#
# Static dielectric constant tensor:
#      x y z
#    x 2.103410 -0.086180 -0.067080 
#    y -0.086180 2.177060 -0.028070 
#    z -0.067080 -0.028070 2.131310 
# 
# From -- ./inp_files/134874.got.cif
#   From: 2010.05.17/outbox.cif.g08.bks.cpg/sg2_68_cif.got.tgz:134874.got - 2010.06.03 11:33:40.
