data_PCOD9110911
_publ_section_title
;
Structure prediction by ZEFSAII (Michael W. Deem and Ramdas Pophale) SiO2 
 PCOD9110911
Probable space group: P -1
;
_chemical_formula_sum "Si O2"
_cell_formula_units_Z 12
_cell_length_a 16.138200
_cell_length_b 9.505237
_cell_length_c 8.054431
_cell_angle_alpha 70.561118
_cell_angle_beta 66.859556
_cell_angle_gamma 27.011441
_cell_volume 515.547687
_symmetry_space_group_name_H-M "P -1"
_symmetry_group_IT_number 2
_symmetry_cell_setting 'triclinic'
loop_
_space_group_symop_operation_xyz
x,y,z
-x,-y,-z
loop_
_atom_site_type_symbol
_atom_site_label
_atom_site_fract_x
_atom_site_fract_y
_atom_site_fract_z
Si Si1 0.137300 0.095537 0.666805
Si Si2 0.238583 0.264595 0.427113
Si Si3 0.403374 0.765877 0.861232
Si Si4 0.412121 0.089050 0.857385
Si Si5 0.906564 0.356393 0.310524
Si Si6 0.751352 0.270939 0.563914
O O1 0.222213 0.111161 0.486455
O O2 0.913782 0.438052 0.690694
O O3 0.209994 0.998715 0.835068
O O4 0.206661 0.852283 0.604158
O O5 0.156569 0.414114 0.616401
O O6 0.440894 0.042602 0.330772
O O7 0.540149 0.579465 0.667050
O O8 0.402186 0.926498 0.892711
O O9 0.500000 0.500000 0.000000
O O10 0.207112 0.456318 0.841769
O O11 0.500000 0.000000 0.000000
O O12 0.822631 0.336180 0.482373
O O13 0.125975 0.006222 0.293816
#
# Coordination Sequence:
#
# PCOD9110911 Si02
#       6
#     2   2   2   2   2   2
#     4  10  22  39  68  94 118 154 206 259 303 351
#     4  10  20  42  67  91 116 159 211 253 296 359
#     4  12  26  42  58  92 131 162 197 253 306 362
#     4  12  26  41  62  88 127 171 200 240 307 371
#     4  10  20  42  67  91 116 159 211 253 296 359
#     4  10  22  39  68  94 118 154 206 259 303 351
#
# _framework density 23.276218
#
# number of rings (size 3 to 8) (size 9 to 14) (size 15 to 20)
#    0.000    1.333    3.333    2.000    4.667    1.333 
#    0.000    3.333    0.000    0.000    0.000    0.000 
#    0.000    0.000    0.000    0.000    0.000    0.000 
#
# Total GULP energy -67052.075003 kJ/mol
# GULP energy per Si atom -5587.672917 kJ/mol
# Density = 2.322324 g / cm^3
# Si number density = 23.276218 Si / 1000 Ang^3
#
#
#
# Elastic Constant Matrix: (Units=GPa)
#
#
# Indices 1 2 3 4 5 6 
#
# 1 93.0553 30.1382 14.4112 -18.9644 22.1551 -6.7555
# 2 30.1382 86.0826 21.2112 -18.5337 19.7803 -11.3121
# 3 14.4112 21.2112 49.2615 -24.4973 23.5138 -9.1015
# 4 -18.9644 -18.5337 -24.4973 35.6179 -16.7005 2.0412
# 5 22.1551 19.7803 23.5138 -16.7005 42.0092 -15.6324
# 6 -6.7555 -11.3121 -9.1015 2.0412 -15.6324 32.0363
#
#
#
# Elastic Compliance Matrix: (Units=1/GPa)
#
#
# Indices 1 2 3 4 5 6 
#
# 1 0.013584 -0.003143 0.002056 0.004609 -0.005183 -0.000484
# 2 -0.003143 0.014795 -0.002500 0.003460 -0.001445 0.002925
# 3 0.002056 -0.002500 0.036407 0.019274 -0.011483 0.003063
# 4 0.004609 0.003460 0.019274 0.048664 0.007573 0.008264
# 5 -0.005183 -0.001445 -0.011483 0.007573 0.042357 0.015320
# 6 -0.000484 0.002925 0.003063 0.008264 0.015320 0.039965
#
#
# Mechanical properties :
#
#
# Convention : Reuss Voigt Hill
#
# Bulk Modulus (GPa) = 17.35767 39.99117 28.67442
# Shear Modulus (GPa) = 22.50753 32.77528 27.64140
#
# Velocity S-wave (km/s) = 3.11300 3.75654 3.44981
# Velocity P-wave (km/s) = 4.51602 6.00282 5.31170
#
# Compressibility (1/GPa) = 0.05761141
#
# Stress axis : x y z
#
# Youngs Moduli (GPa) = 73.61689 67.59250 27.46758
#
# Poissons Ratio (x) = 0.21243 -0.05646
# Poissons Ratio (y) = 0.23136 0.06866
# Poissons Ratio (z) = -0.15133 0.16896
#
# Static dielectric constant tensor:
#      x y z
#    x 1.834150 -0.056610 0.035020 
#    y -0.056610 1.909110 -0.025210 
#    z 0.035020 -0.025210 1.888900 
# 
# From -- ./inp_files/144409.got.cif
#   From: 2010.05.17/outbox.cif.g08.bks.cpg/sg2_73_cif.got.tgz:144409.got - 2010.06.03 11:33:40.
