data_PCOD9110790
_publ_section_title
;
Structure prediction by ZEFSAII (Michael W. Deem and Ramdas Pophale) SiO2 
 PCOD9110790
Probable space group: P -1
;
_chemical_formula_sum "Si O2"
_cell_formula_units_Z 12
_cell_length_a 11.237025
_cell_length_b 9.911499
_cell_length_c 9.239088
_cell_angle_alpha 47.651250
_cell_angle_beta 97.760835
_cell_angle_gamma 125.258701
_cell_volume 563.384238
_symmetry_space_group_name_H-M "P -1"
_symmetry_group_IT_number 2
_symmetry_cell_setting 'triclinic'
loop_
_space_group_symop_operation_xyz
x,y,z
-x,-y,-z
loop_
_atom_site_type_symbol
_atom_site_label
_atom_site_fract_x
_atom_site_fract_y
_atom_site_fract_z
Si Si1 0.035459 0.015625 0.825459
Si Si2 0.490816 0.997307 0.676907
Si Si3 0.850778 0.214170 0.172019
Si Si4 0.495074 0.382044 0.937440
Si Si5 0.630704 0.524903 0.408018
Si Si6 0.831009 0.882666 0.627002
O O1 0.193682 0.297414 0.622433
O O2 0.098647 0.881992 0.873304
O O3 0.880157 0.916799 0.778027
O O4 0.000000 0.000000 0.000000
O O5 0.312263 0.837310 0.831549
O O6 0.500000 0.000000 0.500000
O O7 0.580192 0.269705 0.545608
O O8 0.551940 0.870286 0.847480
O O9 0.807667 0.056526 0.425534
O O10 0.000000 0.500000 0.000000
O O11 0.379137 0.363451 0.819285
O O12 0.682022 0.603728 0.760833
O O13 0.500000 0.500000 0.000000
O O14 0.500000 0.500000 0.500000
O O15 0.000000 0.000000 0.500000
#
# Coordination Sequence:
#
# PCOD9110790 Si02
#       6
#     2   2   2   2   2   2
#     4  11  24  42  66  97 139 172 210 286 339 376
#     4  12  24  42  72  99 129 182 228 270 327 404
#     4  11  23  43  68  98 130 176 232 263 322 413
#     4  12  23  43  72  96 128 178 229 269 327 405
#     4  12  24  45  65 101 141 165 221 287 335 385
#     4  10  20  42  66  92 127 176 218 265 323 397
#
# _framework density 21.299849999999999
#
# number of rings (size 3 to 8) (size 9 to 14) (size 15 to 20)
#    0.000    0.667    5.000    4.000    2.333    0.667 
#    3.000    0.833    0.000    0.000    0.000    0.000 
#    0.000    0.000    0.000    0.000    0.000    0.000 
#
# Total GULP energy -66957.745330 kJ/mol
# GULP energy per Si atom -5579.812111 kJ/mol
# Density = 2.125137 g / cm^3
# Si number density = 21.299850 Si / 1000 Ang^3
#
#
#
# Elastic Constant Matrix: (Units=GPa)
#
#
# Indices 1 2 3 4 5 6 
#
# 1 67.7389 21.8069 22.9460 -7.0646 2.4478 -11.7050
# 2 21.8069 111.6199 39.7830 -15.7689 -2.2409 -20.4644
# 3 22.9460 39.7830 110.0527 -9.6728 10.2126 -17.5406
# 4 -7.0646 -15.7689 -9.6728 59.9098 -3.1079 -0.6625
# 5 2.4478 -2.2409 10.2126 -3.1079 51.8900 -1.9145
# 6 -11.7050 -20.4644 -17.5406 -0.6625 -1.9145 43.9012
#
#
#
# Elastic Compliance Matrix: (Units=1/GPa)
#
#
# Indices 1 2 3 4 5 6 
#
# 1 0.016711 -0.001798 -0.002278 0.001146 -0.000249 0.002713
# 2 -0.001798 0.011471 -0.003101 0.002424 0.001473 0.003730
# 3 -0.002278 -0.003101 0.011318 0.000659 -0.002127 0.002386
# 4 0.001146 0.002424 0.000659 0.017648 0.001052 0.002011
# 5 -0.000249 0.001473 -0.002127 0.001052 0.019853 0.000652
# 6 0.002713 0.003730 0.002386 0.002011 0.000652 0.026253
#
#
# Mechanical properties :
#
#
# Convention : Reuss Voigt Hill
#
# Bulk Modulus (GPa) = 39.76824 50.94260 45.35542
# Shear Modulus (GPa) = 39.68576 44.79858 42.24217
#
# Velocity S-wave (km/s) = 4.32116 4.59108 4.45816
# Velocity P-wave (km/s) = 6.60361 7.21615 6.91667
#
# Compressibility (1/GPa) = 0.02514570
#
# Stress axis : x y z
#
# Youngs Moduli (GPa) = 59.84255 87.17279 88.35459
#
# Poissons Ratio (x) = 0.15677 0.20124
# Poissons Ratio (y) = 0.10762 0.27399
# Poissons Ratio (z) = 0.13630 0.27033
#
# Static dielectric constant tensor:
#      x y z
#    x 1.875860 0.013550 0.025720 
#    y 0.013550 1.805310 0.054040 
#    z 0.025720 0.054040 1.929080 
# 
# From -- ./inp_files/149829.got.cif
#   From: 2010.05.17/outbox.cif.g08.bks.cpg/sg2_75_cif.got.tgz:149829.got - 2010.06.03 11:33:40.
