data_PCOD9110195
_publ_section_title
;
Structure prediction by ZEFSAII (Michael W. Deem and Ramdas Pophale) SiO2 
 PCOD9110195
Probable space group: P -1
;
_chemical_formula_sum "Si O2"
_cell_formula_units_Z 14
_cell_length_a 16.332920
_cell_length_b 13.365326
_cell_length_c 7.436547
_cell_angle_alpha 49.678517
_cell_angle_beta 148.988218
_cell_angle_gamma 139.445232
_cell_volume 543.750938
_symmetry_space_group_name_H-M "P -1"
_symmetry_group_IT_number 2
_symmetry_cell_setting 'triclinic'
loop_
_space_group_symop_operation_xyz
x,y,z
-x,-y,-z
loop_
_atom_site_type_symbol
_atom_site_label
_atom_site_fract_x
_atom_site_fract_y
_atom_site_fract_z
Si Si1 0.946798 0.339528 0.856909
Si Si2 0.640674 0.545791 0.545499
Si Si3 0.966363 0.922964 0.219496
Si Si4 0.009531 0.357684 0.385769
Si Si5 0.368475 0.162451 0.856674
Si Si6 0.656739 0.988964 0.673439
Si Si7 0.408391 0.763684 0.179336
O O1 0.141337 0.383796 0.077389
O O2 0.986811 0.348405 0.136780
O O3 0.889682 0.465654 0.570055
O O4 0.791176 0.170283 0.711511
O O5 0.500000 0.500000 0.500000
O O6 0.633191 0.683434 0.273060
O O7 0.590333 0.381792 0.557428
O O8 0.909730 0.747612 0.293009
O O9 0.160123 0.024185 0.573154
O O10 0.000000 0.000000 0.000000
O O11 0.804453 0.932360 0.998002
O O12 0.804232 0.281933 0.172948
O O13 0.492741 0.205757 0.861160
O O14 0.437048 0.092682 0.220021
O O15 0.480296 0.087829 0.660859
#
# Coordination Sequence:
#
# PCOD9110195 Si02
#       7
#     2   2   2   2   2   2   2
#     4  10  20  41  70  97 139 181 229 278 347 407
#     4   9  19  38  67  96 139 183 220 284 341 400
#     4  12  23  42  70 102 133 181 232 280 336 409
#     4  10  23  44  70  98 143 181 221 290 343 402
#     4  11  21  41  69  98 141 178 228 284 338 399
#     4  12  23  41  76 103 132 182 235 279 339 412
#     4  10  24  43  67 102 142 179 227 283 346 405
#
# _framework density 25.747078999999999
#
# number of rings (size 3 to 8) (size 9 to 14) (size 15 to 20)
#    0.000    1.429    4.286    1.286    0.000    1.714 
#    0.000    0.714    0.000    0.000    0.000    0.000 
#    0.000    0.000    0.000    0.000    0.000    0.000 
#
# Total GULP energy -78526.736289 kJ/mol
# GULP energy per Si atom -5609.052592 kJ/mol
# Density = 2.568848 g / cm^3
# Si number density = 25.747079 Si / 1000 Ang^3
#
#
#
# Elastic Constant Matrix: (Units=GPa)
#
#
# Indices 1 2 3 4 5 6 
#
# 1 76.0009 52.1849 -3.6462 -0.3742 2.8261 -3.9769
# 2 52.1849 191.4399 64.6903 -46.7142 22.9767 -23.1068
# 3 -3.6462 64.6903 70.0913 -34.1948 -1.2023 -18.5557
# 4 -0.3742 -46.7142 -34.1948 53.3153 8.8006 19.3993
# 5 2.8261 22.9767 -1.2023 8.8006 43.5963 -4.9777
# 6 -3.9769 -23.1068 -18.5557 19.3993 -4.9777 43.5215
#
#
#
# Elastic Compliance Matrix: (Units=1/GPa)
#
#
# Indices 1 2 3 4 5 6 
#
# 1 0.020451 -0.010103 0.008822 -0.005150 0.005648 0.003208
# 2 -0.010103 0.014333 -0.010627 0.008080 -0.009107 -0.002488
# 3 0.008822 -0.010627 0.029334 0.006839 0.005051 0.005200
# 4 -0.005150 0.008080 0.006839 0.036129 -0.012259 -0.010771
# 5 0.005648 -0.009107 0.005051 -0.012259 0.030764 0.006817
# 6 0.003208 -0.002488 0.005200 -0.010771 0.006817 0.029747
#
#
# Mechanical properties :
#
#
# Convention : Reuss Voigt Hill
#
# Bulk Modulus (GPa) = 24.81311 62.66557 43.73934
# Shear Modulus (GPa) = 25.25160 43.04015 34.14587
#
# Velocity S-wave (km/s) = 3.13510 4.09302 3.64566
# Velocity P-wave (km/s) = 4.77109 6.83585 5.89458
#
# Compressibility (1/GPa) = 0.04030128
#
# Stress axis : x y z
#
# Youngs Moduli (GPa) = 48.89825 69.76849 34.09055
#
# Poissons Ratio (x) = 0.70488 -0.30075
# Poissons Ratio (y) = 0.49403 0.36228
# Poissons Ratio (z) = -0.43138 0.74143
#
# Static dielectric constant tensor:
#      x y z
#    x 2.174110 -0.001100 0.012640 
#    y -0.001100 1.966100 -0.047730 
#    z 0.012640 -0.047730 2.070110 
# 
# From -- ./inp_files/309141.got.cif
#   From: 2010.05.17/outbox.cif.g08.bks.cpg/sg2_155_cif.got.tgz:309141.got - 2010.06.03 11:33:40.
