data_PCOD9110436
_publ_section_title
;
Structure prediction by ZEFSAII (Michael W. Deem and Ramdas Pophale) SiO2 
 PCOD9110436
Probable space group: P -1
;
_chemical_formula_sum "Si O2"
_cell_formula_units_Z 16
_cell_length_a 7.139603
_cell_length_b 9.410202
_cell_length_c 11.577455
_cell_angle_alpha 56.053064
_cell_angle_beta 109.593496
_cell_angle_gamma 116.559989
_cell_volume 573.300815
_symmetry_space_group_name_H-M "P -1"
_symmetry_group_IT_number 2
_symmetry_cell_setting 'triclinic'
loop_
_space_group_symop_operation_xyz
x,y,z
-x,-y,-z
loop_
_atom_site_type_symbol
_atom_site_label
_atom_site_fract_x
_atom_site_fract_y
_atom_site_fract_z
Si Si1 0.606154 0.371270 0.478705
Si Si2 0.171864 0.399109 0.395145
Si Si3 0.712656 0.036658 0.656000
Si Si4 0.583562 0.837937 0.226886
Si Si5 0.138128 0.782648 0.156747
Si Si6 0.031769 0.863732 0.704495
Si Si7 0.646001 0.293326 0.174309
Si Si8 0.311959 0.327825 0.905543
O O1 0.393109 0.401985 0.380276
O O2 0.788382 0.551701 0.482159
O O3 0.521802 0.280184 0.628500
O O4 0.681380 0.215145 0.509291
O O5 0.111322 0.569125 0.259057
O O6 0.016020 0.202517 0.410574
O O7 0.482117 0.900698 0.707067
O O8 0.825417 0.907211 0.680438
O O9 0.848293 0.125981 0.756471
O O10 0.375298 0.880098 0.116431
O O11 0.658417 0.744570 0.179689
O O12 0.785016 0.978645 0.265057
O O13 0.925725 0.782234 0.050497
O O14 0.128761 0.703871 0.830048
O O15 0.665845 0.460457 0.187250
O O16 0.491789 0.310099 0.033684
#
# Coordination Sequence:
#
# PCOD9110436 Si02
#       8
#     2   2   2   2   2   2   2   2
#     4   9  20  43  61  92 123 161 198 250 299 365
#     4   9  20  37  69  85 125 161 199 248 303 351
#     4  10  22  39  62  87 128 155 197 250 305 354
#     4  10  22  39  62  89 124 156 205 247 302 358
#     4  10  20  42  62  86 127 162 193 255 298 355
#     4  12  21  39  63  92 122 162 201 251 298 359
#     4  11  25  41  60  94 121 155 212 253 297 364
#     4  11  24  42  64  86 123 163 203 253 306 358
#
# _framework density 27.908557999999999
#
# number of rings (size 3 to 8) (size 9 to 14) (size 15 to 20)
#    0.000    2.000    5.000    0.000    3.500    3.000 
#    0.000    3.125    2.750    0.000    0.000    0.000 
#    0.000    0.000    0.000    0.000    0.000    0.000 
#
# Total GULP energy -89269.467378 kJ/mol
# GULP energy per Si atom -5579.341711 kJ/mol
# Density = 2.784504 g / cm^3
# Si number density = 27.908558 Si / 1000 Ang^3
#
#
#
# Elastic Constant Matrix: (Units=GPa)
#
#
# Indices 1 2 3 4 5 6 
#
# 1 137.0319 58.4788 42.5114 4.2144 23.7533 -39.3442
# 2 58.4788 234.5875 42.3331 23.0475 2.6951 -26.8041
# 3 42.5114 42.3331 71.6162 -0.6577 25.6430 -10.6579
# 4 4.2144 23.0475 -0.6577 34.2227 1.1064 13.4476
# 5 23.7533 2.6951 25.6430 1.1064 35.7530 -8.0987
# 6 -39.3442 -26.8041 -10.6579 13.4476 -8.0987 59.4097
#
#
#
# Elastic Compliance Matrix: (Units=1/GPa)
#
#
# Indices 1 2 3 4 5 6 
#
# 1 0.011631 -0.000960 -0.004306 -0.003483 -0.002898 0.006890
# 2 -0.000960 0.006072 -0.004010 -0.005411 0.003936 0.003146
# 3 -0.004306 -0.004010 0.023709 0.005623 -0.014855 -0.003705
# 4 -0.003483 -0.005411 0.005623 0.038795 -0.005518 -0.013273
# 5 -0.002898 0.003936 -0.014855 -0.005518 0.041347 0.004077
# 6 0.006890 0.003146 -0.003705 -0.013273 0.004077 0.025710
#
#
# Mechanical properties :
#
#
# Convention : Reuss Voigt Hill
#
# Bulk Modulus (GPa) = 43.74419 81.09800 62.42110
# Shear Modulus (GPa) = 28.82933 45.87124 37.35029
#
# Velocity S-wave (km/s) = 3.21751 4.05856 3.66226
# Velocity P-wave (km/s) = 5.43243 7.14732 6.34805
#
# Compressibility (1/GPa) = 0.02286018
#
# Stress axis : x y z
#
# Youngs Moduli (GPa) = 85.98032 164.70259 42.17831
#
# Poissons Ratio (x) = 0.15805 0.18160
# Poissons Ratio (y) = 0.08251 0.16915
# Poissons Ratio (z) = 0.37019 0.66050
#
# Static dielectric constant tensor:
#      x y z
#    x 2.220110 0.025400 0.057980 
#    y 0.025400 2.251530 -0.048360 
#    z 0.057980 -0.048360 2.319380 
# 
# From -- ./inp_files/492594.got.cif
#   From: 2010.05.17/outbox.cif.g08.bks.cpg/sg2_247_cif.got.tgz:492594.got - 2010.06.03 11:33:40.
