data_PCOD9110283
_publ_section_title
;
Structure prediction by ZEFSAII (Michael W. Deem and Ramdas Pophale) SiO2 
 PCOD9110283
Probable space group: P -1
;
_chemical_formula_sum "Si O2"
_cell_formula_units_Z 16
_cell_length_a 14.943109
_cell_length_b 5.691292
_cell_length_c 11.730068
_cell_angle_alpha 92.334454
_cell_angle_beta 45.471926
_cell_angle_gamma 74.160537
_cell_volume 643.802795
_symmetry_space_group_name_H-M "P -1"
_symmetry_group_IT_number 2
_symmetry_cell_setting 'triclinic'
loop_
_space_group_symop_operation_xyz
x,y,z
-x,-y,-z
loop_
_atom_site_type_symbol
_atom_site_label
_atom_site_fract_x
_atom_site_fract_y
_atom_site_fract_z
Si Si1 0.430795 0.808349 0.601269
Si Si2 0.333180 0.118391 0.912753
Si Si3 0.599874 0.629550 0.951915
Si Si4 0.204833 0.993607 0.625498
Si Si5 0.187090 0.907870 0.230329
Si Si6 0.728592 0.822907 0.650304
Si Si7 0.949903 0.490459 0.916559
Si Si8 0.917216 0.301187 0.390408
O O1 0.500000 0.500000 0.500000
O O2 0.500000 0.000000 0.500000
O O3 0.407312 0.878294 0.756896
O O4 0.282016 0.920473 0.673900
O O5 0.432315 0.217164 0.896582
O O6 0.259969 0.021934 0.074880
O O7 0.215636 0.360254 0.952227
O O8 0.618705 0.778952 0.828065
O O9 0.749618 0.398588 0.841610
O O10 0.500000 0.500000 0.000000
O O11 0.280893 0.114367 0.474266
O O12 0.042960 0.191753 0.790472
O O13 0.208009 0.744974 0.552529
O O14 0.232694 0.973864 0.312210
O O15 0.026165 0.055756 0.354059
O O16 0.861750 0.546303 0.526542
O O17 0.007837 0.643316 0.783603
O O18 0.000000 0.500000 0.000000
#
# Coordination Sequence:
#
# PCOD9110283 Si02
#       8
#     2   2   2   2   2   2   2   2
#     4  12  31  51  75 106 152 205 253 309 373 454
#     4  10  24  47  71 107 144 188 251 313 376 445
#     4  11  25  44  72 101 140 197 249 302 368 444
#     4  11  24  44  70 107 144 188 245 303 378 448
#     4  10  22  43  67 104 139 185 236 307 372 444
#     4  10  23  41  68 101 145 178 239 303 374 438
#     4  10  20  41  72 103 145 184 240 311 375 441
#     4  10  22  39  69 104 138 185 232 300 379 449
#
# _framework density 24.852329999999998
#
# number of rings (size 3 to 8) (size 9 to 14) (size 15 to 20)
#    0.000    1.500    1.250    1.875    5.250    9.500 
#    0.000    0.000    0.000    0.000    0.000    0.000 
#    0.000    0.000    0.000    0.000    0.000    0.000 
#
# Total GULP energy -89454.483274 kJ/mol
# GULP energy per Si atom -5590.905205 kJ/mol
# Density = 2.479577 g / cm^3
# Si number density = 24.852330 Si / 1000 Ang^3
#
#
#
# Elastic Constant Matrix: (Units=GPa)
#
#
# Indices 1 2 3 4 5 6 
#
# 1 98.5631 29.0303 29.6328 15.9541 23.8123 4.2147
# 2 29.0303 77.1097 21.9600 36.5125 4.9746 0.3910
# 3 29.6328 21.9600 104.2492 18.2939 27.1415 7.6346
# 4 15.9541 36.5125 18.2939 43.0669 1.4773 -8.2314
# 5 23.8123 4.9746 27.1415 1.4773 44.5564 6.0805
# 6 4.2147 0.3910 7.6346 -8.2314 6.0805 42.6578
#
#
#
# Elastic Compliance Matrix: (Units=1/GPa)
#
#
# Indices 1 2 3 4 5 6 
#
# 1 0.013211 -0.003728 -0.001238 -0.001092 -0.005795 -0.000434
# 2 -0.003728 0.023490 -0.000494 -0.019028 0.000785 -0.003542
# 3 -0.001238 -0.000494 0.012751 -0.004718 -0.006604 -0.002124
# 4 -0.001092 -0.019028 -0.004718 0.043398 0.002903 0.009087
# 5 -0.005795 0.000785 -0.006604 0.002903 0.029641 -0.001918
# 6 -0.000434 -0.003542 -0.002124 0.009087 -0.001918 0.025925
#
#
# Mechanical properties :
#
#
# Convention : Reuss Voigt Hill
#
# Bulk Modulus (GPa) = 25.95259 49.01868 37.48564
# Shear Modulus (GPa) = 29.03900 39.34281 34.19091
#
# Velocity S-wave (km/s) = 3.42199 3.98309 3.71315
# Velocity P-wave (km/s) = 5.10673 6.39688 5.78787
#
# Compressibility (1/GPa) = 0.03853180
#
# Stress axis : x y z
#
# Youngs Moduli (GPa) = 75.69260 42.57055 78.42245
#
# Poissons Ratio (x) = 0.15872 0.09708
# Poissons Ratio (y) = 0.28221 0.03877
# Poissons Ratio (z) = 0.09370 0.02105
#
# Static dielectric constant tensor:
#      x y z
#    x 1.947900 -0.004580 -0.040500 
#    y -0.004580 1.987700 0.026250 
#    z -0.040500 0.026250 1.989530 
# 
# From -- ./inp_files/442054.got.cif
#   From: 2010.05.17/outbox.cif.g08.bks.cpg/sg2_222_cif.got.tgz:442054.got - 2010.06.03 11:33:40.
