data_PCOD9110311
_publ_section_title
;
Structure prediction by ZEFSAII (Michael W. Deem and Ramdas Pophale) SiO2 
 PCOD9110311
Probable space group: P -1
;
_chemical_formula_sum "Si O2"
_cell_formula_units_Z 14
_cell_length_a 6.725409
_cell_length_b 12.085954
_cell_length_c 7.487287
_cell_angle_alpha 82.686069
_cell_angle_beta 65.341256
_cell_angle_gamma 101.198463
_cell_volume 527.538151
_symmetry_space_group_name_H-M "P -1"
_symmetry_group_IT_number 2
_symmetry_cell_setting 'triclinic'
loop_
_space_group_symop_operation_xyz
x,y,z
-x,-y,-z
loop_
_atom_site_type_symbol
_atom_site_label
_atom_site_fract_x
_atom_site_fract_y
_atom_site_fract_z
Si Si1 0.793623 0.365046 0.102472
Si Si2 0.819967 0.392918 0.685533
Si Si3 0.824816 0.830389 0.120479
Si Si4 0.882366 0.216957 0.414419
Si Si5 0.318665 0.955621 0.768772
Si Si6 0.340222 0.169257 0.226478
Si Si7 0.377886 0.432142 0.731608
O O1 0.925619 0.314019 0.217399
O O2 0.540391 0.276001 0.203805
O O3 0.762432 0.488477 0.143067
O O4 0.259431 0.299649 0.752347
O O5 0.792261 0.279875 0.595738
O O6 0.584692 0.425970 0.782593
O O7 0.000000 0.500000 0.500000
O O8 0.877905 0.368100 0.868467
O O9 0.720087 0.827133 0.960628
O O10 0.097833 0.883670 0.984999
O O11 0.721846 0.918797 0.249695
O O12 0.721247 0.107388 0.395254
O O13 0.104311 0.178671 0.398406
O O14 0.548441 0.937052 0.768254
O O15 0.500000 0.500000 0.500000
#
# Coordination Sequence:
#
# PCOD9110311 Si02
#       7
#     2   2   2   2   2   2   2
#     4  11  24  45  70 105 145 192 236 304 374 429
#     4  12  26  42  69 106 149 192 243 296 368 441
#     4  10  21  41  71 108 143 188 248 302 369 433
#     4  10  23  44  69 105 147 185 242 303 360 445
#     4   9  21  41  73 106 142 191 243 309 364 429
#     4  10  20  41  72  99 143 184 243 301 369 432
#     4  12  25  45  72 106 149 189 241 301 366 440
#
# _framework density 26.538364999999999
#
# number of rings (size 3 to 8) (size 9 to 14) (size 15 to 20)
#    0.000    1.429    2.857    1.714    4.000    4.000 
#    0.000    0.714    0.000    0.857    0.000    0.000 
#    0.000    0.000    0.000    0.000    0.000    0.000 
#
# Total GULP energy -78498.099685 kJ/mol
# GULP energy per Si atom -5607.007120 kJ/mol
# Density = 2.647796 g / cm^3
# Si number density = 26.538365 Si / 1000 Ang^3
#
#
#
# Elastic Constant Matrix: (Units=GPa)
#
#
# Indices 1 2 3 4 5 6 
#
# 1 150.9213 33.1863 33.8911 15.1724 -23.2853 -37.1432
# 2 33.1863 175.4817 70.3051 24.4982 -7.3228 -29.6598
# 3 33.8911 70.3051 144.7065 26.1713 -0.3323 -25.7358
# 4 15.1724 24.4982 26.1713 58.3099 -2.3767 -4.1649
# 5 -23.2853 -7.3228 -0.3323 -2.3767 42.8760 12.9999
# 6 -37.1432 -29.6598 -25.7358 -4.1649 12.9999 42.6649
#
#
#
# Elastic Compliance Matrix: (Units=1/GPa)
#
#
# Indices 1 2 3 4 5 6 
#
# 1 0.008927 -0.000023 -0.000686 -0.001437 0.002838 0.006337
# 2 -0.000023 0.007640 -0.002795 -0.001701 0.000147 0.003394
# 3 -0.000686 -0.002795 0.009559 -0.002765 -0.002011 0.003569
# 4 -0.001437 -0.001701 -0.002765 0.019335 0.000717 -0.002432
# 5 0.002838 0.000147 -0.002011 0.000717 0.026972 -0.006788
# 6 0.006337 0.003394 0.003569 -0.002432 -0.006788 0.035298
#
#
# Mechanical properties :
#
#
# Convention : Reuss Voigt Hill
#
# Bulk Modulus (GPa) = 52.30734 82.87493 67.59114
# Shear Modulus (GPa) = 41.28410 51.01863 46.15137
#
# Velocity S-wave (km/s) = 3.94844 4.38933 4.17471
# Velocity P-wave (km/s) = 6.36708 7.54880 6.98299
#
# Compressibility (1/GPa) = 0.01911778
#
# Stress axis : x y z
#
# Youngs Moduli (GPa) = 112.02003 130.89015 104.61125
#
# Poissons Ratio (x) = 0.00305 0.07177
# Poissons Ratio (y) = 0.00261 0.29237
# Poissons Ratio (z) = 0.07685 0.36581
#
# Static dielectric constant tensor:
#      x y z
#    x 2.191580 0.000060 -0.079250 
#    y 0.000060 2.143870 -0.059300 
#    z -0.079250 -0.059300 2.078100 
# 
# From -- ./inp_files/365762.got.cif
#   From: 2010.05.17/outbox.cif.g08.bks.cpg/sg2_183_cif.got.tgz:365762.got - 2010.06.03 11:33:40.
