data_PCOD9110335
_publ_section_title
;
Structure prediction by ZEFSAII (Michael W. Deem and Ramdas Pophale) SiO2 
 PCOD9110335
Probable space group: P -1
;
_chemical_formula_sum "Si O2"
_cell_formula_units_Z 12
_cell_length_a 16.893331
_cell_length_b 9.172098
_cell_length_c 6.765157
_cell_angle_alpha 55.887153
_cell_angle_beta 102.327144
_cell_angle_gamma 140.805924
_cell_volume 497.052211
_symmetry_space_group_name_H-M "P -1"
_symmetry_group_IT_number 2
_symmetry_cell_setting 'triclinic'
loop_
_space_group_symop_operation_xyz
x,y,z
-x,-y,-z
loop_
_atom_site_type_symbol
_atom_site_label
_atom_site_fract_x
_atom_site_fract_y
_atom_site_fract_z
Si Si1 0.886637 0.614099 0.336157
Si Si2 0.445471 0.711740 0.130107
Si Si3 0.871241 0.332199 0.195888
Si Si4 0.244850 0.278608 0.678850
Si Si5 0.275126 0.946420 0.056903
Si Si6 0.840343 0.899619 0.654011
O O1 0.610055 0.469240 0.555199
O O2 0.901689 0.553004 0.177678
O O3 0.034091 0.924942 0.271146
O O4 0.823194 0.349340 0.642319
O O5 0.305387 0.453697 0.122164
O O6 0.565483 0.816863 0.004971
O O7 0.500000 0.000000 0.000000
O O8 0.750940 0.152223 0.111163
O O9 0.829585 0.093621 0.492795
O O10 0.000000 0.500000 0.000000
O O11 0.138259 0.100319 0.570355
O O12 0.237157 0.084908 0.942083
O O13 0.216905 0.405273 0.686262
#
# Coordination Sequence:
#
# PCOD9110335 Si02
#       6
#     2   2   2   2   2   2
#     4  12  22  44  75 103 140 182 234 289 348 415
#     4  10  20  41  74 100 143 190 223 284 355 404
#     4  11  24  42  72 107 136 184 236 287 357 407
#     4   9  22  38  70 105 138 182 233 276 353 410
#     4  11  22  44  73  97 148 181 225 295 340 417
#     4   9  21  39  70 100 138 180 230 281 348 410
#
# _framework density 24.142336
#
# number of rings (size 3 to 8) (size 9 to 14) (size 15 to 20)
#    1.000    0.667    3.333    1.500    0.000    0.000 
#    0.000   10.000    3.667    0.000    0.000    0.000 
#    0.000    0.000    0.000    0.000    0.000    0.000 
#
# Total GULP energy -67100.404829 kJ/mol
# GULP energy per Si atom -5591.700402 kJ/mol
# Density = 2.408739 g / cm^3
# Si number density = 24.142336 Si / 1000 Ang^3
#
#
#
# Elastic Constant Matrix: (Units=GPa)
#
#
# Indices 1 2 3 4 5 6 
#
# 1 75.8015 50.5586 5.4460 6.2941 -3.3743 -21.8654
# 2 50.5586 120.4901 24.8498 -13.0221 -6.0685 -14.0972
# 3 5.4460 24.8498 67.6909 -10.1805 8.2135 -2.3793
# 4 6.2941 -13.0221 -10.1805 39.2102 -4.8224 -6.8390
# 5 -3.3743 -6.0685 8.2135 -4.8224 32.1913 -6.0205
# 6 -21.8654 -14.0972 -2.3793 -6.8390 -6.0205 43.2622
#
#
#
# Elastic Compliance Matrix: (Units=1/GPa)
#
#
# Indices 1 2 3 4 5 6 
#
# 1 0.021631 -0.008850 0.000932 -0.004732 0.001055 0.007499
# 2 -0.008850 0.013757 -0.003899 0.005646 0.003732 0.001207
# 3 0.000932 -0.003899 0.017048 0.002386 -0.004654 -0.000132
# 4 -0.004732 0.005646 0.002386 0.030325 0.005463 0.005134
# 5 0.001055 0.003732 -0.004654 0.005463 0.035242 0.007261
# 6 0.007499 0.001207 -0.000132 0.005134 0.007261 0.029113
#
#
# Mechanical properties :
#
#
# Convention : Reuss Voigt Hill
#
# Bulk Modulus (GPa) = 34.71879 47.29904 41.00892
# Shear Modulus (GPa) = 27.72376 35.14128 31.43252
#
# Velocity S-wave (km/s) = 3.39240 3.81936 3.61219
# Velocity P-wave (km/s) = 5.45496 6.25174 5.86689
#
# Compressibility (1/GPa) = 0.02880284
#
# Stress axis : x y z
#
# Youngs Moduli (GPa) = 46.23002 72.69283 58.65628
#
# Poissons Ratio (x) = 0.64331 -0.05469
# Poissons Ratio (y) = 0.40912 0.22872
# Poissons Ratio (z) = -0.04311 0.28345
#
# Static dielectric constant tensor:
#      x y z
#    x 1.902160 0.007640 -0.000700 
#    y 0.007640 1.961480 0.006210 
#    z -0.000700 0.006210 1.976770 
# 
# From -- ./inp_files/36594.got.cif
#   From: 2010.05.17/outbox.cif.g08.bks.cpg/sg2_19_cif.got.tgz:36594.got - 2010.06.03 11:33:40.
