data_PCOD9110572
_publ_section_title
;
Structure prediction by ZEFSAII (Michael W. Deem and Ramdas Pophale) SiO2 
 PCOD9110572
Probable space group: P -1
;
_chemical_formula_sum "Si O2"
_cell_formula_units_Z 14
_cell_length_a 17.166190
_cell_length_b 9.220466
_cell_length_c 15.059095
_cell_angle_alpha 41.982332
_cell_angle_beta 23.911646
_cell_angle_gamma 36.765145
_cell_volume 577.662668
_symmetry_space_group_name_H-M "P -1"
_symmetry_group_IT_number 2
_symmetry_cell_setting 'triclinic'
loop_
_space_group_symop_operation_xyz
x,y,z
-x,-y,-z
loop_
_atom_site_type_symbol
_atom_site_label
_atom_site_fract_x
_atom_site_fract_y
_atom_site_fract_z
Si Si1 0.020138 0.720898 0.423773
Si Si2 0.393127 0.907011 0.360789
Si Si3 0.486690 0.135102 0.557276
Si Si4 0.399754 0.791855 0.062106
Si Si5 0.942500 0.712896 0.714433
Si Si6 0.115471 0.171945 0.812193
Si Si7 0.565302 0.415632 0.700095
O O1 0.000000 0.500000 0.500000
O O2 0.258846 0.694024 0.197795
O O3 0.928901 0.746541 0.607547
O O4 0.865050 0.968649 0.422004
O O5 0.509745 0.776068 0.388098
O O6 0.463453 0.743955 0.274571
O O7 0.452531 0.129332 0.185881
O O8 0.266381 0.127909 0.762388
O O9 0.516252 0.317048 0.374712
O O10 0.704416 0.887970 0.426464
O O11 0.514864 0.619215 0.104273
O O12 0.230045 0.047712 0.167256
O O13 0.949755 0.455566 0.849911
O O14 0.178723 0.678822 0.510643
O O15 0.000000 0.000000 0.000000
#
# Coordination Sequence:
#
# PCOD9110572 Si02
#       7
#     2   2   2   2   2   2   2
#     4  11  23  40  63  93 130 165 211 272 316 365
#     4  12  23  38  64  98 128 163 209 268 321 363
#     4  10  24  41  61  97 130 161 214 263 315 382
#     4  11  23  41  68  95 124 169 223 251 313 391
#     4  10  20  42  65  90 124 172 218 256 310 387
#     4  10  23  43  66  88 127 177 212 253 321 379
#     4  10  20  42  64  89 129 170 205 262 315 374
#
# _framework density 24.235596000000001
#
# number of rings (size 3 to 8) (size 9 to 14) (size 15 to 20)
#    0.000    1.429    2.857    2.571    2.000    4.000 
#    0.000    1.429    0.000    0.000    0.000    0.000 
#    0.000    0.000    0.000    0.000    0.000    0.000 
#
# Total GULP energy -78362.324680 kJ/mol
# GULP energy per Si atom -5597.308906 kJ/mol
# Density = 2.418043 g / cm^3
# Si number density = 24.235596 Si / 1000 Ang^3
#
#
#
# Elastic Constant Matrix: (Units=GPa)
#
#
# Indices 1 2 3 4 5 6 
#
# 1 136.6652 20.3592 26.1986 -12.6511 -30.6377 -7.1085
# 2 20.3592 88.1319 18.9992 -13.4780 -14.9263 -0.6199
# 3 26.1986 18.9992 86.6668 -18.1605 -23.7094 -4.0969
# 4 -12.6511 -13.4780 -18.1605 42.5184 4.2204 -6.4166
# 5 -30.6377 -14.9263 -23.7094 4.2204 33.9475 -12.8360
# 6 -7.1085 -0.6199 -4.0969 -6.4166 -12.8360 35.5004
#
#
#
# Elastic Compliance Matrix: (Units=1/GPa)
#
#
# Indices 1 2 3 4 5 6 
#
# 1 0.010741 0.000063 0.001517 0.003724 0.013267 0.007797
# 2 0.000063 0.013085 -0.000134 0.003962 0.006463 0.003279
# 3 0.001517 -0.000134 0.017665 0.007790 0.016329 0.009652
# 4 0.003724 0.003962 0.007790 0.029789 0.011033 0.011087
# 5 0.013267 0.006463 0.016329 0.011033 0.065817 0.030446
# 6 0.007797 0.003279 0.009652 0.011087 0.030446 0.043914
#
#
# Mechanical properties :
#
#
# Convention : Reuss Voigt Hill
#
# Bulk Modulus (GPa) = 22.53080 49.17532 35.85306
# Shear Modulus (GPa) = 25.91849 38.78705 32.35277
#
# Velocity S-wave (km/s) = 3.27378 4.00486 3.65763
# Velocity P-wave (km/s) = 4.85869 6.45909 5.71519
#
# Compressibility (1/GPa) = 0.04438369
#
# Stress axis : x y z
#
# Youngs Moduli (GPa) = 93.09858 76.42499 56.60934
#
# Poissons Ratio (x) = -0.00480 -0.08590
# Poissons Ratio (y) = -0.00584 0.00758
# Poissons Ratio (z) = -0.14128 0.01023
#
# Static dielectric constant tensor:
#      x y z
#    x 1.925800 -0.013170 -0.024680 
#    y -0.013170 1.983810 0.002670 
#    z -0.024680 0.002670 1.947170 
# 
# From -- ./inp_files/257261.got.cif
#   From: 2010.05.17/outbox.cif.g08.bks.cpg/sg2_129_cif.got.tgz:257261.got - 2010.06.03 11:33:40.
