data_PCOD9110719
_publ_section_title
;
Structure prediction by ZEFSAII (Michael W. Deem and Ramdas Pophale) SiO2 
 PCOD9110719
Probable space group: P -1
;
_chemical_formula_sum "Si O2"
_cell_formula_units_Z 14
_cell_length_a 16.045893
_cell_length_b 8.324566
_cell_length_c 8.713397
_cell_angle_alpha 130.686715
_cell_angle_beta 65.242682
_cell_angle_gamma 130.734778
_cell_volume 668.707235
_symmetry_space_group_name_H-M "P -1"
_symmetry_group_IT_number 2
_symmetry_cell_setting 'triclinic'
loop_
_space_group_symop_operation_xyz
x,y,z
-x,-y,-z
loop_
_atom_site_type_symbol
_atom_site_label
_atom_site_fract_x
_atom_site_fract_y
_atom_site_fract_z
Si Si1 0.436639 0.520743 0.923306
Si Si2 0.987533 0.249350 0.285725
Si Si3 0.746322 0.055692 0.287805
Si Si4 0.579072 0.910864 0.822515
Si Si5 0.405727 0.897044 0.376268
Si Si6 0.809571 0.256099 0.024559
Si Si7 0.985596 0.791441 0.111684
O O1 0.522311 0.652919 0.801326
O O2 0.341372 0.235614 0.789699
O O3 0.500000 0.500000 0.000000
O O4 0.395703 0.685505 0.137297
O O5 0.858559 0.082053 0.250243
O O6 0.000000 0.500000 0.500000
O O7 0.037997 0.292609 0.103015
O O8 0.011530 0.076092 0.265682
O O9 0.709538 0.202280 0.514772
O O10 0.753460 0.152775 0.169908
O O11 0.567431 0.887610 0.634849
O O12 0.706981 0.103530 0.891963
O O13 0.500000 0.000000 0.000000
O O14 0.500000 0.000000 0.500000
O O15 0.879295 0.562660 0.140420
O O16 0.906306 0.199982 0.908413
#
# Coordination Sequence:
#
# PCOD9110719 Si02
#       7
#     2   2   2   2   2   2   2
#     4  11  21  42  62  92 133 175 218 260 332 397
#     4  10  23  42  65  99 126 166 229 276 332 392
#     4  11  23  40  63  94 132 169 216 276 325 390
#     4  10  22  37  66  95 131 175 221 264 329 401
#     4  11  23  40  61  92 132 171 215 273 325 389
#     4  10  20  42  65  97 133 177 222 266 332 401
#     4   9  22  42  69  89 132 179 216 271 335 389
#
# _framework density 20.935917
#
# number of rings (size 3 to 8) (size 9 to 14) (size 15 to 20)
#    0.000    1.714    2.857    0.857    6.000    2.857 
#    0.000    7.857    0.000    0.000    0.000    0.000 
#    0.000    0.000    0.000    0.000    0.000    0.000 
#
# Total GULP energy -77976.069230 kJ/mol
# GULP energy per Si atom -5569.719231 kJ/mol
# Density = 2.088827 g / cm^3
# Si number density = 20.935917 Si / 1000 Ang^3
#
#
#
# Elastic Constant Matrix: (Units=GPa)
#
#
# Indices 1 2 3 4 5 6 
#
# 1 84.3759 33.1811 16.7740 -7.7852 14.6396 -18.2303
# 2 33.1811 133.5313 36.5901 -8.9659 13.5483 -12.9862
# 3 16.7740 36.5901 78.2348 -3.5126 -7.3965 -8.7224
# 4 -7.7852 -8.9659 -3.5126 38.8643 -7.0867 -2.1485
# 5 14.6396 13.5483 -7.3965 -7.0867 28.4384 2.7414
# 6 -18.2303 -12.9862 -8.7224 -2.1485 2.7414 29.4402
#
#
#
# Elastic Compliance Matrix: (Units=1/GPa)
#
#
# Indices 1 2 3 4 5 6 
#
# 1 0.016857 -0.001452 -0.002616 0.001679 -0.009212 0.010004
# 2 -0.001452 0.009922 -0.004486 0.000792 -0.005209 0.002691
# 3 -0.002616 -0.004486 0.016330 0.001413 0.008026 0.000595
# 4 0.001679 0.000792 0.001413 0.027596 0.005686 0.003292
# 5 -0.009212 -0.005209 0.008026 0.005686 0.046814 -0.009569
# 6 0.010004 0.002691 0.000595 0.003292 -0.009569 0.042657
#
#
# Mechanical properties :
#
#
# Convention : Reuss Voigt Hill
#
# Bulk Modulus (GPa) = 38.45854 52.13692 45.29773
# Shear Modulus (GPa) = 26.88889 33.32170 30.10530
#
# Velocity S-wave (km/s) = 3.58766 3.99382 3.79618
# Velocity P-wave (km/s) = 5.96417 6.79887 6.39515
#
# Compressibility (1/GPa) = 0.02600203
#
# Stress axis : x y z
#
# Youngs Moduli (GPa) = 59.32148 100.78275 61.23856
#
# Poissons Ratio (x) = 0.14632 0.16017
# Poissons Ratio (y) = 0.08613 0.27473
# Poissons Ratio (z) = 0.15516 0.45213
#
# Static dielectric constant tensor:
#      x y z
#    x 1.889920 -0.114570 -0.047270 
#    y -0.114570 1.809030 0.016340 
#    z -0.047270 0.016340 1.789120 
# 
# From -- ./inp_files/176943.got.cif
#   From: 2010.05.17/outbox.cif.g08.bks.cpg/sg2_89_cif.got.tgz:176943.got - 2010.06.03 11:33:40.
