data_PCOD9110133
_publ_section_title
;
Structure prediction by ZEFSAII (Michael W. Deem and Ramdas Pophale) SiO2 
 PCOD9110133
Probable space group: P -1
;
_chemical_formula_sum "Si O2"
_cell_formula_units_Z 16
_cell_length_a 16.745033
_cell_length_b 9.240134
_cell_length_c 15.586431
_cell_angle_alpha 35.273048
_cell_angle_beta 28.799547
_cell_angle_gamma 39.868703
_cell_volume 659.041806
_symmetry_space_group_name_H-M "P -1"
_symmetry_group_IT_number 2
_symmetry_cell_setting 'triclinic'
loop_
_space_group_symop_operation_xyz
x,y,z
-x,-y,-z
loop_
_atom_site_type_symbol
_atom_site_label
_atom_site_fract_x
_atom_site_fract_y
_atom_site_fract_z
Si Si1 0.275681 0.802020 0.338573
Si Si2 0.470949 0.628326 0.770898
Si Si3 0.440839 0.902918 0.306499
Si Si4 0.818293 0.003653 0.918795
Si Si5 0.684546 0.525118 0.849821
Si Si6 0.929093 0.727508 0.781113
Si Si7 0.370801 0.896551 0.555735
Si Si8 0.972771 0.138243 0.049872
O O1 0.380489 0.615891 0.260690
O O2 0.100053 0.721584 0.569221
O O3 0.387937 0.788081 0.324597
O O4 0.222890 0.087723 0.213633
O O5 0.421584 0.728747 0.673642
O O6 0.538407 0.861346 0.639523
O O7 0.324121 0.557651 0.002462
O O8 0.313101 0.178369 0.301212
O O9 0.631868 0.949840 0.099995
O O10 0.417802 0.764925 0.484348
O O11 0.937771 0.863014 0.799926
O O12 0.870326 0.895686 0.016742
O O13 0.811400 0.307532 0.785846
O O14 0.500000 0.500000 0.000000
O O15 0.909196 0.439693 0.952807
O O16 0.170741 0.979230 0.710398
O O17 0.000000 0.000000 0.000000
#
# Coordination Sequence:
#
# PCOD9110133 Si02
#       8
#     2   2   2   2   2   2   2   2
#     4  11  26  45  72 101 139 184 233 290 344 409
#     4  11  23  44  72 101 141 177 238 288 338 409
#     4  11  25  43  73 107 136 182 236 283 346 414
#     4  11  24  45  71  99 141 185 224 290 348 408
#     4  10  20  41  70 101 136 175 228 284 343 401
#     4  11  27  48  66 104 144 182 230 288 351 416
#     4  11  25  43  70 105 134 181 236 284 339 416
#     4  12  27  46  70 101 143 188 230 282 356 417
#
# _framework density 24.277668999999999
#
# number of rings (size 3 to 8) (size 9 to 14) (size 15 to 20)
#    0.000    1.000    2.500    4.125    8.750    1.500 
#    0.000    1.250    0.000    0.000    0.000    0.000 
#    0.000    0.000    0.000    0.000    0.000    0.000 
#
# Total GULP energy -89603.517659 kJ/mol
# GULP energy per Si atom -5600.219854 kJ/mol
# Density = 2.422241 g / cm^3
# Si number density = 24.277669 Si / 1000 Ang^3
#
#
#
# Elastic Constant Matrix: (Units=GPa)
#
#
# Indices 1 2 3 4 5 6 
#
# 1 132.3480 25.2749 13.7421 -3.5680 25.2374 1.4545
# 2 25.2749 110.4342 0.7464 10.9677 7.0762 16.8971
# 3 13.7421 0.7464 52.6868 8.8610 15.3055 3.9848
# 4 -3.5680 10.9677 8.8610 30.6738 -0.6640 11.2421
# 5 25.2374 7.0762 15.3055 -0.6640 37.9916 9.2780
# 6 1.4545 16.8971 3.9848 11.2421 9.2780 33.4243
#
#
#
# Elastic Compliance Matrix: (Units=1/GPa)
#
#
# Indices 1 2 3 4 5 6 
#
# 1 0.009185 -0.002159 -0.001070 0.001303 -0.005727 0.001971
# 2 -0.002159 0.010489 0.001197 -0.002716 0.000037 -0.004448
# 3 -0.001070 0.001197 0.023237 -0.008236 -0.009527 0.002086
# 4 0.001303 -0.002716 -0.008236 0.041200 0.006974 -0.013495
# 5 -0.005727 0.000037 -0.009527 0.006974 0.036814 -0.011198
# 6 0.001971 -0.004448 0.002086 -0.013495 -0.011198 0.039480
#
#
# Mechanical properties :
#
#
# Convention : Reuss Voigt Hill
#
# Bulk Modulus (GPa) = 25.74128 41.66619 33.70373
# Shear Modulus (GPa) = 28.18223 37.46497 32.82360
#
# Velocity S-wave (km/s) = 3.41079 3.93260 3.68096
# Velocity P-wave (km/s) = 5.11246 6.14980 5.65497
#
# Compressibility (1/GPa) = 0.03884811
#
# Stress axis : x y z
#
# Youngs Moduli (GPa) = 108.87697 95.33674 43.03461
#
# Poissons Ratio (x) = 0.20582 0.04603
# Poissons Ratio (y) = 0.23505 -0.05151
# Poissons Ratio (z) = 0.11645 -0.11412
#
# Static dielectric constant tensor:
#      x y z
#    x 1.986800 -0.035460 0.032210 
#    y -0.035460 1.918100 0.007310 
#    z 0.032210 0.007310 1.900170 
# 
# From -- ./inp_files/393190.got.cif
#   From: 2010.05.17/outbox.cif.g08.bks.cpg/sg2_197_cif.got.tgz:393190.got - 2010.06.03 11:33:40.
