data_PCOD9110306
_publ_section_title
;
Structure prediction by ZEFSAII (Michael W. Deem and Ramdas Pophale) SiO2 
 PCOD9110306
Probable space group: P -1
;
_chemical_formula_sum "Si O2"
_cell_formula_units_Z 14
_cell_length_a 29.038437
_cell_length_b 5.035460
_cell_length_c 14.502146
_cell_angle_alpha 56.997861
_cell_angle_beta 19.020085
_cell_angle_gamma 51.045876
_cell_volume 526.981701
_symmetry_space_group_name_H-M "P -1"
_symmetry_group_IT_number 2
_symmetry_cell_setting 'triclinic'
loop_
_space_group_symop_operation_xyz
x,y,z
-x,-y,-z
loop_
_atom_site_type_symbol
_atom_site_label
_atom_site_fract_x
_atom_site_fract_y
_atom_site_fract_z
Si Si1 0.614926 0.403065 0.132189
Si Si2 0.239644 0.175452 0.296502
Si Si3 0.861997 0.867657 0.217027
Si Si4 0.583680 0.885843 0.533804
Si Si5 0.824645 0.547874 0.823694
Si Si6 0.699628 0.408619 0.570090
Si Si7 0.870160 0.457867 0.964850
O O1 0.531781 0.156304 0.314503
O O2 0.487349 0.726071 0.368223
O O3 0.669577 0.578270 0.911200
O O4 0.770261 0.275743 0.926319
O O5 0.244142 0.143725 0.181836
O O6 0.322833 0.823164 0.262772
O O7 0.054537 0.372706 0.632927
O O8 0.727528 0.727275 0.501963
O O9 0.842037 0.099440 0.302594
O O10 0.000000 0.500000 0.000000
O O11 0.855988 0.118153 0.097337
O O12 0.592706 0.609087 0.648974
O O13 0.756785 0.754707 0.191359
O O14 0.800319 0.536120 0.980036
O O15 0.000000 0.500000 0.500000
#
# Coordination Sequence:
#
# PCOD9110306 Si02
#       7
#     2   2   2   2   2   2   2
#     4  10  24  46  64 101 136 176 222 270 342 402
#     4   9  21  42  69  97 133 182 224 274 322 402
#     4  11  22  37  66 101 133 167 221 282 331 374
#     4  11  24  41  67 101 137 176 217 277 343 393
#     4   8  19  44  71  96 133 175 230 272 332 392
#     4  11  23  41  66  98 139 173 222 275 336 395
#     4  10  20  41  72  99 134 175 230 278 328 394
#
# _framework density 26.566390999999999
#
# number of rings (size 3 to 8) (size 9 to 14) (size 15 to 20)
#    0.857    1.143    1.429    2.143    2.000    3.429 
#    0.000    3.571    0.000    0.000    0.000    0.000 
#    0.000    0.000    0.000    0.000    0.000    0.000 
#
# Total GULP energy -78097.971775 kJ/mol
# GULP energy per Si atom -5578.426555 kJ/mol
# Density = 2.650592 g / cm^3
# Si number density = 26.566391 Si / 1000 Ang^3
#
#
#
# Elastic Constant Matrix: (Units=GPa)
#
#
# Indices 1 2 3 4 5 6 
#
# 1 103.1006 35.8836 14.1104 -12.1272 27.7615 -30.3664
# 2 35.8836 112.9756 29.4075 -14.4877 16.9600 2.2268
# 3 14.1104 29.4075 96.1850 0.6798 25.3239 4.4198
# 4 -12.1272 -14.4877 0.6798 31.7614 -9.8435 4.8823
# 5 27.7615 16.9600 25.3239 -9.8435 45.6489 -8.2631
# 6 -30.3664 2.2268 4.4198 4.8823 -8.2631 51.1870
#
#
#
# Elastic Compliance Matrix: (Units=1/GPa)
#
#
# Indices 1 2 3 4 5 6 
#
# 1 0.015233 -0.004025 0.000273 0.000781 -0.006285 0.008099
# 2 -0.004025 0.011454 -0.002839 0.004256 0.000137 -0.003025
# 3 0.000273 -0.002839 0.013328 -0.003559 -0.007590 -0.001751
# 4 0.000781 0.004256 -0.003559 0.036370 0.007456 -0.001680
# 5 -0.006285 0.000137 -0.007590 0.007456 0.031737 0.001333
# 6 0.008099 -0.003025 -0.001751 -0.001680 0.001333 0.024999
#
#
# Mechanical properties :
#
#
# Convention : Reuss Voigt Hill
#
# Bulk Modulus (GPa) = 37.26730 52.34047 44.80388
# Shear Modulus (GPa) = 32.20691 41.24342 36.72516
#
# Velocity S-wave (km/s) = 3.48561 3.94441 3.72209
# Velocity P-wave (km/s) = 5.50071 6.36310 5.94755
#
# Compressibility (1/GPa) = 0.02683318
#
# Stress axis : x y z
#
# Youngs Moduli (GPa) = 65.64886 87.30882 75.02827
#
# Poissons Ratio (x) = 0.35144 -0.02049
# Poissons Ratio (y) = 0.26425 0.21297
# Poissons Ratio (z) = -0.01793 0.24783
#
# Static dielectric constant tensor:
#      x y z
#    x 2.114500 -0.003390 -0.057390 
#    y -0.003390 2.153940 0.067570 
#    z -0.057390 0.067570 2.233750 
# 
# From -- ./inp_files/544638.got.cif
#   From: 2010.05.17/outbox.cif.g08.bks.cpg/sg2_273_cif.got.tgz:544638.got - 2010.06.03 11:33:40.
