data_PCOD9110355
_publ_section_title
;
Structure prediction by ZEFSAII (Michael W. Deem and Ramdas Pophale) SiO2 
 PCOD9110355
Probable space group: P -1
;
_chemical_formula_sum "Si O2"
_cell_formula_units_Z 12
_cell_length_a 5.425631
_cell_length_b 8.446983
_cell_length_c 12.696118
_cell_angle_alpha 66.405646
_cell_angle_beta 88.883825
_cell_angle_gamma 57.153671
_cell_volume 432.967178
_symmetry_space_group_name_H-M "P -1"
_symmetry_group_IT_number 2
_symmetry_cell_setting 'triclinic'
loop_
_space_group_symop_operation_xyz
x,y,z
-x,-y,-z
loop_
_atom_site_type_symbol
_atom_site_label
_atom_site_fract_x
_atom_site_fract_y
_atom_site_fract_z
Si Si1 0.734808 0.278248 0.271330
Si Si2 0.464366 0.761306 0.159239
Si Si3 0.312781 0.385140 0.402973
Si Si4 0.172288 0.081858 0.897952
Si Si5 0.962869 0.216682 0.549800
Si Si6 0.865041 0.366077 0.032427
O O1 0.677482 0.508793 0.240116
O O2 0.382564 0.372049 0.280879
O O3 0.916522 0.243021 0.172282
O O4 0.884569 0.030543 0.364964
O O5 0.627775 0.861001 0.179423
O O6 0.125196 0.861745 0.173589
O O7 0.396371 0.853765 0.013923
O O8 0.648805 0.291400 0.473481
O O9 0.118475 0.613977 0.401362
O O10 0.179047 0.251848 0.466954
O O11 0.016540 0.230143 0.962555
O O12 0.500000 0.500000 0.000000
O O13 0.000000 0.500000 0.000000
#
# Coordination Sequence:
#
# PCOD9110355 Si02
#       6
#     2   2   2   2   2   2
#     4  12  24  40  70  97 123 171 217 256 314 382
#     4  10  22  36  64  82 123 163 214 250 300 362
#     4  10  24  46  67  96 126 162 207 266 331 380
#     4  10  20  42  53  85 126 171 199 257 300 349
#     4  10  24  46  69  93 129 159 206 274 325 378
#     4  12  24  40  59  91 135 168 209 257 304 367
#
# _framework density 27.715727999999999
#
# number of rings (size 3 to 8) (size 9 to 14) (size 15 to 20)
#    0.000    1.333    3.333    1.000    2.333    5.333 
#    0.000    0.000    0.000    0.000    0.000    0.000 
#    0.000    0.000    0.000    0.000    0.000    0.000 
#
# Total GULP energy -66846.260103 kJ/mol
# GULP energy per Si atom -5570.521675 kJ/mol
# Density = 2.765265 g / cm^3
# Si number density = 27.715728 Si / 1000 Ang^3
#
#
#
# Elastic Constant Matrix: (Units=GPa)
#
#
# Indices 1 2 3 4 5 6 
#
# 1 242.5842 35.0113 82.8783 -26.3229 -40.0627 -3.3582
# 2 35.0113 151.0366 56.8327 -30.2214 -8.1548 -9.2589
# 3 82.8783 56.8327 173.0656 -50.2072 -51.6123 8.3298
# 4 -26.3229 -30.2214 -50.2072 55.9370 -1.3377 -18.5077
# 5 -40.0627 -8.1548 -51.6123 -1.3377 50.9590 -2.0375
# 6 -3.3582 -9.2589 8.3298 -18.5077 -2.0375 37.4942
#
#
#
# Elastic Compliance Matrix: (Units=1/GPa)
#
#
# Indices 1 2 3 4 5 6 
#
# 1 0.005286 -0.000110 -0.000905 0.002356 0.003363 0.001993
# 2 -0.000110 0.008472 -0.001647 0.004606 -0.000089 0.004717
# 3 -0.000905 -0.001647 0.014879 0.013620 0.014601 0.003723
# 4 0.002356 0.004606 0.013620 0.040527 0.018220 0.019317
# 5 0.003363 -0.000089 0.014601 0.018220 0.037843 0.008086
# 6 0.001993 0.004717 0.003723 0.019317 0.008086 0.037161
#
#
# Mechanical properties :
#
#
# Convention : Reuss Voigt Hill
#
# Bulk Modulus (GPa) = 42.89308 101.79233 72.34271
# Shear Modulus (GPa) = 31.79406 55.00898 43.40152
#
# Velocity S-wave (km/s) = 3.39063 4.45989 3.96150
# Velocity P-wave (km/s) = 5.55321 7.95788 6.86171
#
# Compressibility (1/GPa) = 0.02331379
#
# Stress axis : x y z
#
# Youngs Moduli (GPa) = 189.18252 118.03573 67.20998
#
# Poissons Ratio (x) = 0.01295 0.06081
# Poissons Ratio (y) = 0.02075 0.11070
# Poissons Ratio (z) = 0.17116 0.19441
#
# Static dielectric constant tensor:
#      x y z
#    x 2.227870 0.116780 0.089550 
#    y 0.116780 2.237810 0.116950 
#    z 0.089550 0.116950 2.514110 
# 
# From -- ./inp_files/478821.got.cif
#   From: 2010.05.17/outbox.cif.g08.bks.cpg/sg2_240_cif.got.tgz:478821.got - 2010.06.03 11:33:40.
