data_PCOD9110134
_publ_section_title
;
Structure prediction by ZEFSAII (Michael W. Deem and Ramdas Pophale) SiO2 
 PCOD9110134
Probable space group: P -1
;
_chemical_formula_sum "Si O2"
_cell_formula_units_Z 14
_cell_length_a 8.902173
_cell_length_b 9.630147
_cell_length_c 7.868001
_cell_angle_alpha 123.681687
_cell_angle_beta 98.744585
_cell_angle_gamma 100.795591
_cell_volume 523.636788
_symmetry_space_group_name_H-M "P -1"
_symmetry_group_IT_number 2
_symmetry_cell_setting 'triclinic'
loop_
_space_group_symop_operation_xyz
x,y,z
-x,-y,-z
loop_
_atom_site_type_symbol
_atom_site_label
_atom_site_fract_x
_atom_site_fract_y
_atom_site_fract_z
Si Si1 0.388937 0.006984 0.825359
Si Si2 0.640021 0.308393 0.938960
Si Si3 0.479597 0.552227 0.285744
Si Si4 0.800507 0.895811 0.596604
Si Si5 0.892778 0.203497 0.556822
Si Si6 0.774567 0.771195 0.862283
Si Si7 0.972832 0.420110 0.246312
O O1 0.258403 0.828507 0.619244
O O2 0.500000 0.000000 0.000000
O O3 0.519020 0.108514 0.778004
O O4 0.276743 0.128904 0.924652
O O5 0.553062 0.422586 0.109246
O O6 0.792864 0.323556 0.089180
O O7 0.821985 0.070218 0.609312
O O8 0.631764 0.733407 0.441071
O O9 0.349640 0.604773 0.184322
O O10 0.371326 0.416082 0.316006
O O11 0.805312 0.909843 0.809087
O O12 0.954439 0.840236 0.526996
O O13 0.966405 0.407962 0.745366
O O14 0.927080 0.709333 0.857223
O O15 0.000000 0.500000 0.500000
#
# Coordination Sequence:
#
# PCOD9110134 Si02
#       7
#     2   2   2   2   2   2   2
#     4  11  25  47  71 105 140 187 234 301 360 418
#     4  10  21  41  70  98 143 185 236 286 351 426
#     4  10  20  41  70 101 136 187 241 288 346 416
#     4  11  22  43  68 106 144 186 234 293 359 412
#     4  11  24  43  74 102 146 184 232 297 362 413
#     4  11  26  44  75 101 145 186 244 288 355 427
#     4  12  23  46  71 106 141 192 239 287 352 432
#
# _framework density 26.736090999999998
#
# number of rings (size 3 to 8) (size 9 to 14) (size 15 to 20)
#    0.000    1.143    4.286    1.286    0.000    4.571 
#    2.571    1.429    0.000    0.000    0.000    0.000 
#    0.000    0.000    0.000    0.000    0.000    0.000 
#
# Total GULP energy -78358.006608 kJ/mol
# GULP energy per Si atom -5597.000472 kJ/mol
# Density = 2.667524 g / cm^3
# Si number density = 26.736091 Si / 1000 Ang^3
#
#
#
# Elastic Constant Matrix: (Units=GPa)
#
#
# Indices 1 2 3 4 5 6 
#
# 1 151.2562 51.0835 42.6100 -12.6987 12.6108 0.9938
# 2 51.0835 130.8856 30.9343 25.2974 24.8127 28.4056
# 3 42.6100 30.9343 85.2146 10.4767 24.4156 3.1911
# 4 -12.6987 25.2974 10.4767 28.4091 1.0675 11.1656
# 5 12.6108 24.8127 24.4156 1.0675 45.9155 3.7950
# 6 0.9938 28.4056 3.1911 11.1656 3.7950 43.7953
#
#
#
# Elastic Compliance Matrix: (Units=1/GPa)
#
#
# Indices 1 2 3 4 5 6 
#
# 1 0.010956 -0.005942 -0.005626 0.011864 0.002857 0.000743
# 2 -0.005942 0.014680 0.001338 -0.013861 -0.006243 -0.005409
# 3 -0.005626 0.001338 0.017726 -0.010463 -0.008473 0.001370
# 4 0.011864 -0.013861 -0.010463 0.058842 0.008948 -0.006294
# 5 0.002857 -0.006243 -0.008473 0.008948 0.028679 -0.000165
# 6 0.000743 -0.005409 0.001370 -0.006294 -0.000165 0.027844
#
#
# Mechanical properties :
#
#
# Convention : Reuss Voigt Hill
#
# Bulk Modulus (GPa) = 43.66829 68.51245 56.09037
# Shear Modulus (GPa) = 26.76352 39.80588 33.28470
#
# Velocity S-wave (km/s) = 3.16733 3.86274 3.53219
# Velocity P-wave (km/s) = 5.45385 6.75096 6.13677
#
# Compressibility (1/GPa) = 0.02289991
#
# Stress axis : x y z
#
# Youngs Moduli (GPa) = 91.27324 68.12112 56.41577
#
# Poissons Ratio (x) = 0.40479 0.31741
# Poissons Ratio (y) = 0.54237 -0.07547
# Poissons Ratio (z) = 0.51352 -0.09113
#
# Static dielectric constant tensor:
#      x y z
#    x 2.108570 -0.018070 0.026820 
#    y -0.018070 2.113230 -0.054940 
#    z 0.026820 -0.054940 2.088390 
# 
# From -- ./inp_files/502347.got.cif
#   From: 2010.05.17/outbox.cif.g08.bks.cpg/sg2_252_cif.got.tgz:502347.got - 2010.06.03 11:33:40.
