data_PCOD9110264
_publ_section_title
;
Structure prediction by ZEFSAII (Michael W. Deem and Ramdas Pophale) SiO2 
 PCOD9110264
Probable space group: P -1
;
_chemical_formula_sum "Si O2"
_cell_formula_units_Z 16
_cell_length_a 12.959791
_cell_length_b 9.283061
_cell_length_c 14.345920
_cell_angle_alpha 28.982078
_cell_angle_beta 52.863970
_cell_angle_gamma 48.680940
_cell_volume 626.449422
_symmetry_space_group_name_H-M "P -1"
_symmetry_group_IT_number 2
_symmetry_cell_setting 'triclinic'
loop_
_space_group_symop_operation_xyz
x,y,z
-x,-y,-z
loop_
_atom_site_type_symbol
_atom_site_label
_atom_site_fract_x
_atom_site_fract_y
_atom_site_fract_z
Si Si1 0.104624 0.710166 0.372818
Si Si2 0.154066 0.659087 0.172464
Si Si3 0.709378 0.946671 0.336051
Si Si4 0.551242 0.185740 0.467324
Si Si5 0.035641 0.420761 0.819953
Si Si6 0.699393 0.554720 0.263820
Si Si7 0.632509 0.252835 0.881176
Si Si8 0.132548 0.687783 0.870565
O O1 0.086110 0.606031 0.336383
O O2 0.231925 0.837251 0.209271
O O3 0.820116 0.615072 0.431390
O O4 0.968588 0.998906 0.303860
O O5 0.314190 0.603371 0.138506
O O6 0.094551 0.469603 0.239926
O O7 0.099228 0.043480 0.976607
O O8 0.566795 0.957988 0.360918
O O9 0.665197 0.958424 0.463888
O O10 0.783883 0.204294 0.152720
O O11 0.613544 0.318535 0.443930
O O12 0.480256 0.487408 0.265280
O O13 0.166490 0.533854 0.692765
O O14 0.966258 0.458175 0.938629
O O15 0.761287 0.508567 0.151226
O O16 0.612235 0.928389 0.105527
#
# Coordination Sequence:
#
# PCOD9110264 Si02
#       8
#     2   2   2   2   2   2   2   2
#     4   8  15  27  44  65  87 108 140 178 212 245
#     4   7  14  26  43  64  83 109 147 174 208 242
#     4   9  17  28  42  63  86 115 147 172 209 247
#     4   9  17  28  42  63  86 115 147 172 209 247
#     4   9  15  26  42  66  90 108 137 174 221 252
#     4  10  17  25  42  66  97 111 129 173 223 265
#     4   8  15  27  44  65  87 108 140 178 212 245
#     4  10  17  25  42  66  97 111 129 173 223 265
#
# _framework density 25.540772
#
# number of rings (size 3 to 8) (size 9 to 14) (size 15 to 20)
#    0.750    2.500    1.250    1.125    0.000    0.000 
#    0.000    0.000    0.000    6.000    0.000   14.000 
#    0.000    0.250    0.000    0.000    0.000    0.000 
#
# Total GULP energy -89101.558962 kJ/mol
# GULP energy per Si atom -5568.847435 kJ/mol
# Density = 2.548264 g / cm^3
# Si number density = 25.540772 Si / 1000 Ang^3
#
#
#
# Elastic Constant Matrix: (Units=GPa)
#
#
# Indices 1 2 3 4 5 6 
#
# 1 134.7448 32.1153 37.1100 -5.4793 -48.8394 -1.6340
# 2 32.1153 58.1928 13.1013 -12.7267 1.5510 -16.1661
# 3 37.1100 13.1013 60.3324 -1.4695 -24.8135 -0.7619
# 4 -5.4793 -12.7267 -1.4695 22.3214 -0.1362 -4.0769
# 5 -48.8394 1.5510 -24.8135 -0.1362 41.6231 6.2088
# 6 -1.6340 -16.1661 -0.7619 -4.0769 6.2088 37.3859
#
#
#
# Elastic Compliance Matrix: (Units=1/GPa)
#
#
# Indices 1 2 3 4 5 6 
#
# 1 0.020756 -0.017562 0.002312 -0.006796 0.028164 -0.012058
# 2 -0.017562 0.042320 -0.010779 0.023521 -0.032298 0.025241
# 3 0.002312 -0.010779 0.025199 -0.005230 0.019287 -0.007820
# 4 -0.006796 0.023521 -0.005230 0.059520 -0.014560 0.018676
# 5 0.028164 -0.032298 0.019287 -0.014560 0.073627 -0.026157
# 6 -0.012058 0.025241 -0.007820 0.018676 -0.026157 0.043357
#
#
# Mechanical properties :
#
#
# Convention : Reuss Voigt Hill
#
# Bulk Modulus (GPa) = 27.61146 46.43590 37.02368
# Shear Modulus (GPa) = 15.20169 31.66233 23.43201
#
# Velocity S-wave (km/s) = 2.44230 3.52473 3.03221
# Velocity P-wave (km/s) = 4.33444 5.89792 5.17556
#
# Compressibility (1/GPa) = 0.03621685
#
# Stress axis : x y z
#
# Youngs Moduli (GPa) = 48.17884 23.62942 39.68335
#
# Poissons Ratio (x) = 0.41498 -0.09175
# Poissons Ratio (y) = 0.84612 0.42776
# Poissons Ratio (z) = -0.11139 0.25471
#
# Static dielectric constant tensor:
#      x y z
#    x 2.158440 -0.007000 -0.020430 
#    y -0.007000 1.983530 0.015240 
#    z -0.020430 0.015240 2.094660 
# 
# From -- ./inp_files/594646.got.cif
#   From: 2010.05.17/outbox.cif.g08.bks.cpg/sg2_298_cif.got.tgz:594646.got - 2010.06.03 11:33:40.
