data_PCOD9110647
_publ_section_title
;
Structure prediction by ZEFSAII (Michael W. Deem and Ramdas Pophale) SiO2 
 PCOD9110647
Probable space group: P -1
;
_chemical_formula_sum "Si O2"
_cell_formula_units_Z 12
_cell_length_a 16.661399
_cell_length_b 7.749424
_cell_length_c 8.256757
_cell_angle_alpha 92.419117
_cell_angle_beta 44.380248
_cell_angle_gamma 62.680648
_cell_volume 532.055968
_symmetry_space_group_name_H-M "P -1"
_symmetry_group_IT_number 2
_symmetry_cell_setting 'triclinic'
loop_
_space_group_symop_operation_xyz
x,y,z
-x,-y,-z
loop_
_atom_site_type_symbol
_atom_site_label
_atom_site_fract_x
_atom_site_fract_y
_atom_site_fract_z
Si Si1 0.660366 0.279475 0.661858
Si Si2 0.788977 0.243137 0.142132
Si Si3 0.131136 0.483981 0.886074
Si Si4 0.059032 0.819545 0.557444
Si Si5 0.582593 0.975864 0.718277
Si Si6 0.267723 0.407817 0.007031
O O1 0.669916 0.322142 0.460858
O O2 0.805008 0.221103 0.542507
O O3 0.671632 0.060958 0.633493
O O4 0.500000 0.500000 0.000000
O O5 0.906558 0.272531 0.041494
O O6 0.710094 0.431024 0.113000
O O7 0.900914 0.972188 0.903151
O O8 0.291947 0.292476 0.541985
O O9 0.180191 0.386785 0.995726
O O10 0.000000 0.500000 0.000000
O O11 0.148964 0.563524 0.335912
O O12 0.000000 0.000000 0.500000
O O13 0.439133 0.161333 0.806309
O O14 0.500000 0.000000 0.000000
#
# Coordination Sequence:
#
# PCOD9110647 Si02
#       6
#     2   2   2   2   2   2
#     4  12  23  41  68  98 127 175 222 268 324 379
#     4   9  22  41  72  93 132 169 220 270 320 383
#     4  10  22  43  67  94 131 170 215 265 331 387
#     4  10  20  42  65 100 131 163 218 275 319 384
#     4  12  25  44  65  94 139 172 216 267 329 396
#     4   9  22  42  69  95 133 171 219 268 324 388
#
# _framework density 22.554019
#
# number of rings (size 3 to 8) (size 9 to 14) (size 15 to 20)
#    1.000    0.667    1.667    3.000    0.000    0.667 
#    0.000    2.500    0.000    0.000    0.000    0.000 
#    0.000    0.000    0.000    0.000    0.000    0.000 
#
# Total GULP energy -67014.056511 kJ/mol
# GULP energy per Si atom -5584.504709 kJ/mol
# Density = 2.250269 g / cm^3
# Si number density = 22.554019 Si / 1000 Ang^3
#
#
#
# Elastic Constant Matrix: (Units=GPa)
#
#
# Indices 1 2 3 4 5 6 
#
# 1 106.4725 10.6001 36.4467 -1.0406 7.9434 -11.0409
# 2 10.6001 35.6403 28.0000 -15.6322 4.4896 -11.5186
# 3 36.4467 28.0000 157.2078 9.7156 33.2064 -12.6010
# 4 -1.0406 -15.6322 9.7156 28.7295 0.6785 0.5851
# 5 7.9434 4.4896 33.2064 0.6785 36.2899 6.8652
# 6 -11.0409 -11.5186 -12.6010 0.5851 6.8652 36.7340
#
#
#
# Elastic Compliance Matrix: (Units=1/GPa)
#
#
# Indices 1 2 3 4 5 6 
#
# 1 0.010452 -0.000113 -0.002076 0.000988 -0.000874 0.002542
# 2 -0.000113 0.055736 -0.010937 0.033753 0.000018 0.013151
# 3 -0.002076 -0.010937 0.011360 -0.009695 -0.008714 0.001627
# 4 0.000988 0.033753 -0.009695 0.056308 0.002246 0.006238
# 5 -0.000874 0.000018 -0.008714 0.002246 0.037628 -0.010314
# 6 0.002542 0.013151 0.001627 0.006238 -0.010314 0.034497
#
#
# Mechanical properties :
#
#
# Convention : Reuss Voigt Hill
#
# Bulk Modulus (GPa) = 19.49395 49.93493 34.71444
# Shear Modulus (GPa) = 20.05366 35.30227 27.67796
#
# Velocity S-wave (km/s) = 2.98508 3.96059 3.50692
# Velocity P-wave (km/s) = 4.53243 6.56531 5.64120
#
# Compressibility (1/GPa) = 0.05129797
#
# Stress axis : x y z
#
# Youngs Moduli (GPa) = 95.67230 17.94168 88.02510
#
# Poissons Ratio (x) = 0.00203 0.18273
# Poissons Ratio (y) = 0.01081 0.96269
# Poissons Ratio (z) = 0.19861 0.19622
#
# Static dielectric constant tensor:
#      x y z
#    x 1.837800 -0.012620 0.028750 
#    y -0.012620 1.850770 -0.010470 
#    z 0.028750 -0.010470 1.842190 
# 
# From -- ./inp_files/324592.got.cif
#   From: 2010.05.17/outbox.cif.g08.bks.cpg/sg2_163_cif.got.tgz:324592.got - 2010.06.03 11:33:40.
