data_PCOD9110217
_publ_section_title
;
Structure prediction by ZEFSAII (Michael W. Deem and Ramdas Pophale) SiO2 
 PCOD9110217
Probable space group: P -1
;
_chemical_formula_sum "Si O2"
_cell_formula_units_Z 14
_cell_length_a 17.625926
_cell_length_b 12.411244
_cell_length_c 19.110742
_cell_angle_alpha 159.653092
_cell_angle_beta 28.529944
_cell_angle_gamma 152.424938
_cell_volume 642.969310
_symmetry_space_group_name_H-M "P -1"
_symmetry_group_IT_number 2
_symmetry_cell_setting 'triclinic'
loop_
_space_group_symop_operation_xyz
x,y,z
-x,-y,-z
loop_
_atom_site_type_symbol
_atom_site_label
_atom_site_fract_x
_atom_site_fract_y
_atom_site_fract_z
Si Si1 0.670300 0.203075 0.193153
Si Si2 0.538126 0.118792 0.962836
Si Si3 0.109266 0.229642 0.214668
Si Si4 0.564367 0.287665 0.567352
Si Si5 0.955712 0.581096 0.465750
Si Si6 0.847424 0.982812 0.559404
Si Si7 0.561168 0.192409 0.750409
O O1 0.750019 0.595974 0.380151
O O2 0.621957 0.097899 0.088403
O O3 0.485514 0.011649 0.263909
O O4 0.799692 0.038072 0.019933
O O5 0.711134 0.093431 0.778669
O O6 0.543179 0.490219 0.190609
O O7 0.500000 0.000000 0.000000
O O8 0.034915 0.227762 0.351337
O O9 0.255809 0.598437 0.304632
O O10 0.981609 0.239895 0.261985
O O11 0.764550 0.497597 0.542403
O O12 0.500000 0.000000 0.500000
O O13 0.535270 0.103145 0.404781
O O14 0.079299 0.789002 0.430242
O O15 0.000000 0.000000 0.500000
O O16 0.500000 0.500000 0.000000
#
# Coordination Sequence:
#
# PCOD9110217 Si02
#       7
#     2   2   2   2   2   2   2
#     4  11  23  46  72 102 139 191 239 289 350 426
#     4  12  26  47  70 103 138 189 241 287 352 422
#     4  10  22  42  72 105 139 179 231 295 352 409
#     4  12  23  45  72 103 138 182 234 289 345 423
#     4  11  23  44  68 107 145 177 233 292 357 414
#     4  12  28  48  70 104 148 189 236 294 356 423
#     4  10  20  41  71 101 135 180 233 282 343 417
#
# _framework density 21.773979000000001
#
# number of rings (size 3 to 8) (size 9 to 14) (size 15 to 20)
#    0.000    0.857    2.857    4.714    0.000    4.000 
#    0.000    4.286    0.000    0.000    0.000    0.000 
#    0.000    0.000    0.000    0.000    0.000    0.000 
#
# Total GULP energy -78138.040897 kJ/mol
# GULP energy per Si atom -5581.288636 kJ/mol
# Density = 2.172442 g / cm^3
# Si number density = 21.773979 Si / 1000 Ang^3
#
#
#
# Elastic Constant Matrix: (Units=GPa)
#
#
# Indices 1 2 3 4 5 6 
#
# 1 90.0858 24.1446 67.2500 -2.8851 3.8535 -27.0353
# 2 24.1446 115.2817 67.7918 -14.9624 -1.6616 -31.9129
# 3 67.2500 67.7918 178.3036 -5.8429 -13.9531 -4.6162
# 4 -2.8851 -14.9624 -5.8429 39.2776 1.9138 -0.3631
# 5 3.8535 -1.6616 -13.9531 1.9138 39.6032 -4.2606
# 6 -27.0353 -31.9129 -4.6162 -0.3631 -4.2606 38.6007
#
#
#
# Elastic Compliance Matrix: (Units=1/GPa)
#
#
# Indices 1 2 3 4 5 6 
#
# 1 0.025355 0.008942 -0.012565 0.003819 -0.004206 0.023220
# 2 0.008942 0.019428 -0.010124 0.006828 -0.001694 0.020991
# 3 -0.012565 -0.010124 0.014042 -0.003038 0.004273 -0.015049
# 4 0.003819 0.006828 -0.003038 0.028044 -0.001646 0.008039
# 5 -0.004206 -0.001694 0.004273 -0.001646 0.027081 -0.000861
# 6 0.023220 0.020991 -0.015049 0.008039 -0.000861 0.057704
#
#
# Mechanical properties :
#
#
# Convention : Reuss Voigt Hill
#
# Bulk Modulus (GPa) = 31.91966 78.00487 54.96226
# Shear Modulus (GPa) = 23.85568 38.46195 31.15882
#
# Velocity S-wave (km/s) = 3.31358 4.20744 3.78698
# Velocity P-wave (km/s) = 5.41582 7.71401 6.66472
#
# Compressibility (1/GPa) = 0.03132866
#
# Stress axis : x y z
#
# Youngs Moduli (GPa) = 39.44036 51.47176 71.21359
#
# Poissons Ratio (x) = -0.46024 0.89483
# Poissons Ratio (y) = -0.35266 0.72100
# Poissons Ratio (z) = 0.49558 0.52112
#
# Static dielectric constant tensor:
#      x y z
#    x 1.902310 0.044140 -0.043930 
#    y 0.044140 1.798240 -0.049820 
#    z -0.043930 -0.049820 1.774510 
# 
# From -- ./inp_files/576025.got.cif
#   From: 2010.05.17/outbox.cif.g08.bks.cpg/sg2_289_cif.got.tgz:576025.got - 2010.06.03 11:33:40.
