data_PCOD9110276
_publ_section_title
;
Structure prediction by ZEFSAII (Michael W. Deem and Ramdas Pophale) SiO2 
 PCOD9110276
Probable space group: P -1
;
_chemical_formula_sum "Si O2"
_cell_formula_units_Z 15
_cell_length_a 14.603403
_cell_length_b 9.358677
_cell_length_c 8.179118
_cell_angle_alpha 67.581866
_cell_angle_beta 105.641331
_cell_angle_gamma 137.753278
_cell_volume 694.600673
_symmetry_space_group_name_H-M "P -1"
_symmetry_group_IT_number 2
_symmetry_cell_setting 'triclinic'
loop_
_space_group_symop_operation_xyz
x,y,z
-x,-y,-z
loop_
_atom_site_type_symbol
_atom_site_label
_atom_site_fract_x
_atom_site_fract_y
_atom_site_fract_z
Si Si1 0.520337 0.362933 0.219402
Si Si2 0.364169 0.807878 0.127948
Si Si3 0.990496 0.129039 0.807675
Si Si4 0.425649 0.086903 0.593221
Si Si5 0.000000 0.000000 0.500000
Si Si6 0.284772 0.199379 0.669651
Si Si7 0.737349 0.401441 0.154731
Si Si8 0.740478 0.977236 0.926202
O O1 0.452624 0.148385 0.390769
O O2 0.594957 0.557236 0.301609
O O3 0.632022 0.415127 0.136079
O O4 0.393393 0.270626 0.091292
O O5 0.427606 0.773948 0.312009
O O6 0.302314 0.894474 0.127407
O O7 0.258304 0.613090 0.033113
O O8 0.500000 0.000000 0.000000
O O9 0.859009 0.077088 0.814136
O O10 0.988145 0.060682 0.654177
O O11 0.121620 0.388443 0.788828
O O12 0.000000 0.000000 0.000000
O O13 0.353615 0.151883 0.608689
O O14 0.327576 0.828639 0.698676
O O15 0.163615 0.150285 0.547774
O O16 0.221815 0.039235 0.868102
#
# Coordination Sequence:
#
# PCOD9110276 Si02
#       8
#     2   2   2   2   1   2   2   2
#     4  12  23  41  73 106 140 189 242 299 366 419
#     4  10  20  41  72 100 142 180 235 299 357 417
#     4  12  27  48  72 103 148 195 239 294 365 435
#     4  11  23  43  70 109 143 182 243 308 356 429
#     4  12  26  50  68 106 152 190 242 294 360 432
#     4  12  24  45  72 102 148 190 241 305 354 430
#     4  11  22  45  70  99 144 193 233 295 363 428
#     4  12  23  45  73 108 141 190 245 297 362 433
#
# _framework density 21.595144000000001
#
# number of rings (size 3 to 8) (size 9 to 14) (size 15 to 20)
#    0.000    0.533    8.000    2.000    0.000    2.667 
#    0.000    2.667    0.000    0.000    0.000    0.000 
#    0.000    0.000    0.000    0.000    0.000    0.000 
#
# Total GULP energy -83625.497989 kJ/mol
# GULP energy per Si atom -5575.033199 kJ/mol
# Density = 2.154599 g / cm^3
# Si number density = 21.595144 Si / 1000 Ang^3
#
#
#
# Elastic Constant Matrix: (Units=GPa)
#
#
# Indices 1 2 3 4 5 6 
#
# 1 187.1635 67.6848 28.5296 17.6045 -17.6494 -1.3951
# 2 67.6848 111.3714 32.9089 37.6995 -5.6846 9.1765
# 3 28.5296 32.9089 59.7773 32.5976 -14.1056 -1.1363
# 4 17.6045 37.6995 32.5976 38.0071 -6.0491 4.2183
# 5 -17.6494 -5.6846 -14.1056 -6.0491 31.0002 9.5446
# 6 -1.3951 9.1765 -1.1363 4.2183 9.5446 28.6361
#
#
#
# Elastic Compliance Matrix: (Units=1/GPa)
#
#
# Indices 1 2 3 4 5 6 
#
# 1 0.007419 -0.005055 -0.002159 0.003864 0.002964 0.000339
# 2 -0.005055 0.017149 0.000995 -0.015410 -0.001372 -0.002975
# 3 -0.002159 0.000995 0.035066 -0.028972 0.008518 0.002396
# 4 0.003864 -0.015410 -0.028972 0.065437 0.000784 -0.005924
# 5 0.002964 -0.001372 0.008518 0.000784 0.041760 -0.013112
# 6 0.000339 -0.002975 0.002396 -0.005924 -0.013112 0.041229
#
#
# Mechanical properties :
#
#
# Convention : Reuss Voigt Hill
#
# Bulk Modulus (GPa) = 21.18867 68.50654 44.84760
# Shear Modulus (GPa) = 21.16591 34.80794 27.98692
#
# Velocity S-wave (km/s) = 3.13409 4.01913 3.60388
# Velocity P-wave (km/s) = 4.78850 7.30273 6.17493
#
# Compressibility (1/GPa) = 0.04719504
#
# Stress axis : x y z
#
# Youngs Moduli (GPa) = 134.79314 58.31368 28.51776
#
# Poissons Ratio (x) = 0.29479 0.06156
# Poissons Ratio (y) = 0.68142 -0.02837
# Poissons Ratio (z) = 0.29099 -0.05802
#
# Static dielectric constant tensor:
#      x y z
#    x 1.773390 -0.029270 0.040110 
#    y -0.029270 1.833470 -0.022790 
#    z 0.040110 -0.022790 1.847800 
# 
# From -- ./inp_files/297973.got.cif
#   From: 2010.05.17/outbox.cif.g08.bks.cpg/sg2_149_cif.got.tgz:297973.got - 2010.06.03 11:33:40.
