data_PCOD9110561
_publ_section_title
;
Structure prediction by ZEFSAII (Michael W. Deem and Ramdas Pophale) SiO2 
 PCOD9110561
Probable space group: P -1
;
_chemical_formula_sum "Si O2"
_cell_formula_units_Z 15
_cell_length_a 9.878698
_cell_length_b 11.998091
_cell_length_c 10.050919
_cell_angle_alpha 48.409680
_cell_angle_beta 128.963776
_cell_angle_gamma 135.553144
_cell_volume 595.976171
_symmetry_space_group_name_H-M "P -1"
_symmetry_group_IT_number 2
_symmetry_cell_setting 'triclinic'
loop_
_space_group_symop_operation_xyz
x,y,z
-x,-y,-z
loop_
_atom_site_type_symbol
_atom_site_label
_atom_site_fract_x
_atom_site_fract_y
_atom_site_fract_z
Si Si1 0.179194 0.197402 0.872058
Si Si2 0.832820 0.486744 0.809069
Si Si3 0.332054 0.730550 0.670583
Si Si4 0.500000 0.500000 0.000000
Si Si5 0.272251 0.219962 0.456917
Si Si6 0.783391 0.006486 0.634348
Si Si7 0.420935 0.131308 0.874102
Si Si8 0.749802 0.458780 0.493493
O O1 0.290330 0.316537 0.973704
O O2 0.298291 0.110338 0.949414
O O3 0.213579 0.353827 0.668064
O O4 0.940350 0.068582 0.804122
O O5 0.817351 0.657846 0.669553
O O6 0.616925 0.323300 0.844982
O O7 0.863196 0.457147 0.696653
O O8 0.000000 0.500000 0.000000
O O9 0.366075 0.592584 0.879659
O O10 0.227254 0.835799 0.568469
O O11 0.219916 0.631621 0.543701
O O12 0.558490 0.876784 0.650776
O O13 0.285443 0.124849 0.671019
O O14 0.508176 0.346100 0.461270
O O15 0.169855 0.092792 0.371202
O O16 0.500000 0.000000 0.000000
#
# Coordination Sequence:
#
# PCOD9110561 Si02
#       8
#     2   2   2   1   2   2   2   2
#     4  11  22  42  62  94 127 166 207 262 315 371
#     4  11  22  40  64  95 121 170 215 255 313 384
#     4   9  21  45  63  92 120 168 211 261 317 371
#     4  10  24  40  68  88 128 162 216 264 302 376
#     4  10  20  42  64  88 129 171 201 260 318 380
#     4  10  23  39  67  90 125 164 210 257 323 373
#     4  11  24  40  64  93 132 166 208 261 319 373
#     4   9  18  41  64  82 125 168 203 254 313 374
#
# _framework density 25.168793000000001
#
# number of rings (size 3 to 8) (size 9 to 14) (size 15 to 20)
#    0.000    1.867    2.667    0.800    3.733    4.267 
#    2.400    0.000    0.000    0.000    0.000    0.000 
#    0.000    0.000    0.000    0.000    0.000    0.000 
#
# Total GULP energy -83685.414726 kJ/mol
# GULP energy per Si atom -5579.027648 kJ/mol
# Density = 2.511151 g / cm^3
# Si number density = 25.168793 Si / 1000 Ang^3
#
#
#
# Elastic Constant Matrix: (Units=GPa)
#
#
# Indices 1 2 3 4 5 6 
#
# 1 67.1708 51.6918 9.4182 -1.7481 5.3279 -6.0570
# 2 51.6918 136.9490 48.7956 19.0984 20.8756 -19.2076
# 3 9.4182 48.7956 132.6688 7.4538 16.4803 -18.4519
# 4 -1.7481 19.0984 7.4538 52.4868 -10.0877 16.6290
# 5 5.3279 20.8756 16.4803 -10.0877 29.0113 2.9180
# 6 -6.0570 -19.2076 -18.4519 16.6290 2.9180 42.0945
#
#
#
# Elastic Compliance Matrix: (Units=1/GPa)
#
#
# Indices 1 2 3 4 5 6 
#
# 1 0.023222 -0.012116 0.000587 0.008392 0.007619 -0.005773
# 2 -0.012116 0.018772 -0.001309 -0.014453 -0.016886 0.013129
# 3 0.000587 -0.001309 0.009868 -0.004076 -0.006782 0.005893
# 4 0.008392 -0.014453 -0.004076 0.037924 0.026776 -0.024012
# 5 0.007619 -0.016886 -0.006782 0.026776 0.060836 -0.024376
# 6 -0.005773 0.013129 0.005893 -0.024012 -0.024376 0.042675
#
#
# Mechanical properties :
#
#
# Convention : Reuss Voigt Hill
#
# Bulk Modulus (GPa) = 38.18585 61.84440 50.01512
# Shear Modulus (GPa) = 21.95854 39.84407 30.90130
#
# Velocity S-wave (km/s) = 2.95693 3.98310 3.50775
# Velocity P-wave (km/s) = 5.18293 6.76599 6.02667
#
# Compressibility (1/GPa) = 0.02618771
#
# Stress axis : x y z
#
# Youngs Moduli (GPa) = 43.06177 53.26991 101.33278
#
# Poissons Ratio (x) = 0.64541 -0.05946
# Poissons Ratio (y) = 0.52173 0.13262
# Poissons Ratio (z) = -0.02527 0.06972
#
# Static dielectric constant tensor:
#      x y z
#    x 2.413070 0.140400 -0.289670 
#    y 0.140400 2.009410 -0.045750 
#    z -0.289670 -0.045750 2.155680 
# 
# From -- ./inp_files/425361.got.cif
#   From: 2010.05.17/outbox.cif.g08.bks.cpg/sg2_213_cif.got.tgz:425361.got - 2010.06.03 11:33:40.
