data_PCOD9110931
_publ_section_title
;
Structure prediction by ZEFSAII (Michael W. Deem and Ramdas Pophale) SiO2 
 PCOD9110931
Probable space group: P -1
;
_chemical_formula_sum "Si O2"
_cell_formula_units_Z 16
_cell_length_a 6.940038
_cell_length_b 14.360758
_cell_length_c 15.767195
_cell_angle_alpha 42.540282
_cell_angle_beta 100.002630
_cell_angle_gamma 125.094794
_cell_volume 775.533226
_symmetry_space_group_name_H-M "P -1"
_symmetry_group_IT_number 2
_symmetry_cell_setting 'triclinic'
loop_
_space_group_symop_operation_xyz
x,y,z
-x,-y,-z
loop_
_atom_site_type_symbol
_atom_site_label
_atom_site_fract_x
_atom_site_fract_y
_atom_site_fract_z
Si Si1 0.167879 0.171486 0.497928
Si Si2 0.442931 0.411882 0.748947
Si Si3 0.164670 0.129616 0.178674
Si Si4 0.285404 0.959037 0.574822
Si Si5 0.970060 0.074518 0.860371
Si Si6 0.575186 0.156238 0.966512
Si Si7 0.737373 0.325625 0.143707
Si Si8 0.824587 0.595973 0.094804
O O1 0.335918 0.378091 0.405798
O O2 0.985388 0.144485 0.427243
O O3 0.355835 0.140274 0.497319
O O4 0.977419 0.005076 0.661511
O O5 0.193134 0.292523 0.746456
O O6 0.547867 0.303678 0.835771
O O7 0.340585 0.416115 0.831279
O O8 0.469533 0.227925 0.138336
O O9 0.178495 0.299582 0.054261
O O10 0.999756 0.001833 0.169465
O O11 0.244694 0.826281 0.732374
O O12 0.500000 0.000000 0.500000
O O13 0.000000 0.000000 0.000000
O O14 0.667557 0.978314 0.896859
O O15 0.872153 0.277265 0.938778
O O16 0.500000 0.000000 0.000000
O O17 0.719553 0.403162 0.178588
O O18 0.000000 0.500000 0.000000
#
# Coordination Sequence:
#
# PCOD9110931 Si02
#       8
#     2   2   2   2   2   2   2   2
#     4  11  26  41  69  96 137 182 214 270 336 404
#     4  11  23  42  68 101 125 175 233 264 329 406
#     4  12  24  44  64 100 140 173 220 279 337 392
#     4  11  23  48  66  93 139 184 217 260 342 405
#     4  10  20  42  67  93 130 170 219 279 326 388
#     4  11  20  40  70  99 125 171 224 275 333 385
#     4  12  26  41  69 103 132 173 228 282 331 395
#     4  12  23  40  69  97 134 170 224 282 326 394
#
# _framework density 20.630966000000001
#
# number of rings (size 3 to 8) (size 9 to 14) (size 15 to 20)
#    0.000    0.750    5.000    4.125    3.500    0.500 
#    0.000    0.000    0.000    2.250    0.000    0.000 
#    0.000    0.000    0.000    0.000    0.000    0.000 
#
# Total GULP energy -89331.147646 kJ/mol
# GULP energy per Si atom -5583.196728 kJ/mol
# Density = 2.058401 g / cm^3
# Si number density = 20.630966 Si / 1000 Ang^3
#
#
#
# Elastic Constant Matrix: (Units=GPa)
#
#
# Indices 1 2 3 4 5 6 
#
# 1 108.3063 24.3858 41.8165 -2.8885 13.6956 -0.2711
# 2 24.3858 98.9619 6.3563 -15.5422 12.4836 2.5151
# 3 41.8165 6.3563 83.2912 -17.1115 8.9912 14.7158
# 4 -2.8885 -15.5422 -17.1115 32.5072 -4.1396 5.9978
# 5 13.6956 12.4836 8.9912 -4.1396 32.3907 -3.7049
# 6 -0.2711 2.5151 14.7158 5.9978 -3.7049 33.6776
#
#
#
# Elastic Compliance Matrix: (Units=1/GPa)
#
#
# Indices 1 2 3 4 5 6 
#
# 1 0.013368 -0.003558 -0.008301 -0.006055 -0.002197 0.004837
# 2 -0.003558 0.012593 0.003652 0.007949 -0.003851 -0.004404
# 3 -0.008301 0.003652 0.021403 0.014157 -0.003470 -0.012595
# 4 -0.006055 0.007949 0.014157 0.044136 -0.000479 -0.014742
# 5 -0.002197 -0.003851 -0.003470 -0.000479 0.034841 0.005704
# 6 0.004837 -0.004404 -0.012595 -0.014742 0.005704 0.038818
#
#
# Mechanical properties :
#
#
# Convention : Reuss Voigt Hill
#
# Bulk Modulus (GPa) = 32.30939 48.40851 40.35895
# Shear Modulus (GPa) = 26.05676 34.24849 30.15262
#
# Velocity S-wave (km/s) = 3.55772 4.07879 3.82713
# Velocity P-wave (km/s) = 5.70711 6.75996 6.25572
#
# Compressibility (1/GPa) = 0.03095076
#
# Stress axis : x y z
#
# Youngs Moduli (GPa) = 74.80793 79.40833 46.72184
#
# Poissons Ratio (x) = 0.28250 0.38784
# Poissons Ratio (y) = 0.26613 -0.17063
# Poissons Ratio (z) = 0.62099 -0.29000
#
# Static dielectric constant tensor:
#      x y z
#    x 1.795060 -0.052580 -0.031120 
#    y -0.052580 1.782070 0.016450 
#    z -0.031120 0.016450 1.759680 
# 
# From -- ./inp_files/549939.got.cif
#   From: 2010.05.17/outbox.cif.g08.bks.cpg/sg2_275_cif.got.tgz:549939.got - 2010.06.03 11:33:40.
