data_PCOD9110624
_publ_section_title
;
Structure prediction by ZEFSAII (Michael W. Deem and Ramdas Pophale) SiO2 
 PCOD9110624
Probable space group: P -1
;
_chemical_formula_sum "Si O2"
_cell_formula_units_Z 15
_cell_length_a 17.752291
_cell_length_b 7.017981
_cell_length_c 20.818380
_cell_angle_alpha 137.323818
_cell_angle_beta 19.384517
_cell_angle_gamma 132.541347
_cell_volume 581.785338
_symmetry_space_group_name_H-M "P -1"
_symmetry_group_IT_number 2
_symmetry_cell_setting 'triclinic'
loop_
_space_group_symop_operation_xyz
x,y,z
-x,-y,-z
loop_
_atom_site_type_symbol
_atom_site_label
_atom_site_fract_x
_atom_site_fract_y
_atom_site_fract_z
Si Si1 0.787122 0.846978 0.110907
Si Si2 0.302020 0.008119 0.995238
Si Si3 0.923261 0.415907 0.659947
Si Si4 0.500000 0.000000 0.500000
Si Si5 0.635874 0.911716 0.804690
Si Si6 0.902458 0.475956 0.309457
Si Si7 0.185688 0.036771 0.671553
Si Si8 0.433865 0.026870 0.346888
O O1 0.633522 0.811708 0.287073
O O2 0.658252 0.050434 0.213202
O O3 0.892502 0.582088 0.919165
O O4 0.000000 0.000000 0.000000
O O5 0.200033 0.283782 0.184279
O O6 0.079635 0.888387 0.110747
O O7 0.459592 0.817917 0.869512
O O8 0.465507 0.115441 0.834121
O O9 0.747657 0.176780 0.747532
O O10 0.009707 0.448760 0.672417
O O11 0.144908 0.306053 0.414210
O O12 0.370253 0.222231 0.599964
O O13 0.500000 0.000000 0.000000
O O14 0.787704 0.180716 0.341473
O O15 0.719756 0.703531 0.485717
O O16 0.277504 0.900023 0.496591
#
# Coordination Sequence:
#
# PCOD9110624 Si02
#       8
#     2   2   2   1   2   2   2   2
#     4  11  21  43  65  94 138 167 219 280 322 386
#     4  11  22  44  65  94 132 173 215 269 329 391
#     4  10  23  43  63  95 131 164 216 272 319 391
#     4  10  20  42  64  96 134 172 210 278 328 372
#     4  11  25  41  67  98 130 166 217 271 327 397
#     4  11  22  44  67  97 130 174 222 271 322 399
#     4  10  23  41  65  98 134 169 223 268 324 394
#     4  11  23  41  68  95 128 178 213 274 328 385
#
# _framework density 25.782703000000001
#
# number of rings (size 3 to 8) (size 9 to 14) (size 15 to 20)
#    0.000    1.333    5.333    0.400    1.867    3.200 
#    4.800    2.667    0.000    0.000    0.000    0.000 
#    0.000    0.000    0.000    0.000    0.000    0.000 
#
# Total GULP energy -83566.756709 kJ/mol
# GULP energy per Si atom -5571.117114 kJ/mol
# Density = 2.572402 g / cm^3
# Si number density = 25.782703 Si / 1000 Ang^3
#
#
#
# Elastic Constant Matrix: (Units=GPa)
#
#
# Indices 1 2 3 4 5 6 
#
# 1 102.2764 5.7281 63.4983 -7.5331 7.3775 2.8865
# 2 5.7281 34.9959 16.3587 -4.4091 -7.3939 -0.8651
# 3 63.4983 16.3587 208.5729 -15.0906 22.7445 -9.9608
# 4 -7.5331 -4.4091 -15.0906 33.2506 -11.6836 -4.9857
# 5 7.3775 -7.3939 22.7445 -11.6836 69.3830 -2.0275
# 6 2.8865 -0.8651 -9.9608 -4.9857 -2.0275 22.6885
#
#
#
# Elastic Compliance Matrix: (Units=1/GPa)
#
#
# Indices 1 2 3 4 5 6 
#
# 1 0.012302 -0.000255 -0.003829 0.000513 -0.000086 -0.003151
# 2 -0.000255 0.031545 -0.002508 0.005036 0.005109 0.001697
# 3 -0.003829 -0.002508 0.006632 0.001768 -0.001633 0.003546
# 4 0.000513 0.005036 0.001768 0.035179 0.006095 0.009178
# 5 -0.000086 0.005109 -0.001633 0.006095 0.016595 0.002311
# 6 -0.003151 0.001697 0.003546 0.009178 0.002311 0.048321
#
#
# Mechanical properties :
#
#
# Convention : Reuss Voigt Hill
#
# Bulk Modulus (GPa) = 26.81375 57.44614 42.12995
# Shear Modulus (GPa) = 28.37846 42.41510 35.39678
#
# Velocity S-wave (km/s) = 3.32125 4.06038 3.70927
# Velocity P-wave (km/s) = 5.01299 6.65669 5.89243
#
# Compressibility (1/GPa) = 0.03729430
#
# Stress axis : x y z
#
# Youngs Moduli (GPa) = 81.28768 31.70104 150.77728
#
# Poissons Ratio (x) = 0.00808 0.57737
# Poissons Ratio (y) = 0.02073 0.37816
# Poissons Ratio (z) = 0.31127 0.07951
#
# Static dielectric constant tensor:
#      x y z
#    x 2.070420 -0.088280 -0.104310 
#    y -0.088280 1.525300 0.088880 
#    z -0.104310 0.088880 2.181530 
# 
# From -- ./inp_files/348026.got.cif
#   From: 2010.05.17/outbox.cif.g08.bks.cpg/sg2_175_cif.got.tgz:348026.got - 2010.06.03 11:33:40.
