data_PCOD9110793
_publ_section_title
;
Structure prediction by ZEFSAII (Michael W. Deem and Ramdas Pophale) SiO2 
 PCOD9110793
Probable space group: P -1
;
_chemical_formula_sum "Si O2"
_cell_formula_units_Z 15
_cell_length_a 21.540168
_cell_length_b 5.513027
_cell_length_c 17.777058
_cell_angle_alpha 107.919003
_cell_angle_beta 161.102466
_cell_angle_gamma 71.804417
_cell_volume 649.017818
_symmetry_space_group_name_H-M "P -1"
_symmetry_group_IT_number 2
_symmetry_cell_setting 'triclinic'
loop_
_space_group_symop_operation_xyz
x,y,z
-x,-y,-z
loop_
_atom_site_type_symbol
_atom_site_label
_atom_site_fract_x
_atom_site_fract_y
_atom_site_fract_z
Si Si1 0.921698 0.726791 0.038302
Si Si2 0.171829 0.793627 0.200660
Si Si3 0.500000 0.000000 0.500000
Si Si4 0.622690 0.073751 0.927952
Si Si5 0.993740 0.623046 0.586436
Si Si6 0.115968 0.387140 0.848346
Si Si7 0.633372 0.182858 0.786411
Si Si8 0.432258 0.210238 0.879864
O O1 0.953341 0.730427 0.164791
O O2 0.118786 0.773313 0.225963
O O3 0.864236 0.462962 0.911386
O O4 0.731411 0.930275 0.827813
O O5 0.369526 0.898040 0.412332
O O6 0.000000 0.000000 0.000000
O O7 0.494987 0.716783 0.419391
O O8 0.819516 0.218317 0.176508
O O9 0.691527 0.777421 0.971230
O O10 0.545270 0.154360 0.764581
O O11 0.502912 0.132720 0.870264
O O12 0.796309 0.787922 0.381132
O O13 0.000000 0.500000 0.500000
O O14 0.992191 0.422040 0.634615
O O15 0.180743 0.661584 0.972709
O O16 0.500000 0.500000 0.000000
O O17 0.500000 0.000000 0.000000
#
# Coordination Sequence:
#
# PCOD9110793 Si02
#       8
#     2   2   1   2   2   2   2   2
#     4  10  20  42  66  92 130 180 222 294 352 406
#     4  11  22  40  65  92 132 170 231 284 349 420
#     4  12  22  42  68  92 132 178 228 284 352 414
#     4  10  24  45  68  98 143 184 232 294 350 422
#     4  11  23  43  75 101 134 191 229 279 363 425
#     4  10  21  43  71  93 142 183 236 290 357 421
#     4  10  22  43  66  95 135 179 230 293 350 413
#     4  12  27  46  74 110 146 178 240 298 356 436
#
# _framework density 23.111847999999998
#
# number of rings (size 3 to 8) (size 9 to 14) (size 15 to 20)
#    0.000    1.333    4.000    0.800    3.733    1.600 
#    9.600    0.000    0.000    0.000    0.000    0.000 
#    0.000    0.000    0.000    0.000    0.000    0.000 
#
# Total GULP energy -83542.857616 kJ/mol
# GULP energy per Si atom -5569.523841 kJ/mol
# Density = 2.305924 g / cm^3
# Si number density = 23.111848 Si / 1000 Ang^3
#
#
#
# Elastic Constant Matrix: (Units=GPa)
#
#
# Indices 1 2 3 4 5 6 
#
# 1 265.7938 41.7351 77.0965 -9.8480 2.8397 -15.8404
# 2 41.7351 76.0254 -0.3994 -2.3715 5.6110 -15.0893
# 3 77.0965 -0.3994 68.7244 0.5158 9.6472 -4.2913
# 4 -9.8480 -2.3715 0.5158 24.6046 -0.8755 -3.6954
# 5 2.8397 5.6110 9.6472 -0.8755 57.6350 -1.8608
# 6 -15.8404 -15.0893 -4.2913 -3.6954 -1.8608 41.0823
#
#
#
# Elastic Compliance Matrix: (Units=1/GPa)
#
#
# Indices 1 2 3 4 5 6 
#
# 1 0.006680 -0.003575 -0.007679 0.002653 0.001369 0.000761
# 2 -0.003575 0.016322 0.004701 0.000735 -0.002024 0.005082
# 3 -0.007679 0.004701 0.023840 -0.003148 -0.004092 0.000787
# 4 0.002653 0.000735 -0.003148 0.042610 0.001128 0.004848
# 5 0.001369 -0.002024 -0.004092 0.001128 0.018191 0.000282
# 6 0.000761 0.005082 0.000787 0.004848 0.000282 0.027033
#
#
# Mechanical properties :
#
#
# Convention : Reuss Voigt Hill
#
# Bulk Modulus (GPa) = 29.64191 71.93421 50.78806
# Shear Modulus (GPa) = 31.44122 44.13848 37.78985
#
# Velocity S-wave (km/s) = 3.69235 4.37484 4.04801
# Velocity P-wave (km/s) = 5.57057 7.53067 6.62352
#
# Compressibility (1/GPa) = 0.03373602
#
# Stress axis : x y z
#
# Youngs Moduli (GPa) = 149.69830 61.26861 41.94607
#
# Poissons Ratio (x) = 0.21901 0.32211
# Poissons Ratio (y) = 0.53512 -0.19719
# Poissons Ratio (z) = 1.14957 -0.28802
#
# Static dielectric constant tensor:
#      x y z
#    x 1.714150 -0.085250 0.483340 
#    y -0.085250 1.961690 0.384680 
#    z 0.483340 0.384680 0.525370 
# 
# From -- ./inp_files/112460.got.cif
#   From: 2010.05.17/outbox.cif.g08.bks.cpg/sg2_57_cif.got.tgz:112460.got - 2010.06.03 11:33:40.
