data_PCOD9110543
_publ_section_title
;
Structure prediction by ZEFSAII (Michael W. Deem and Ramdas Pophale) SiO2 
 PCOD9110543
Probable space group: P -1
;
_chemical_formula_sum "Si O2"
_cell_formula_units_Z 13
_cell_length_a 15.905150
_cell_length_b 9.651611
_cell_length_c 22.130544
_cell_angle_alpha 37.185030
_cell_angle_beta 164.652239
_cell_angle_gamma 138.306354
_cell_volume 538.495119
_symmetry_space_group_name_H-M "P -1"
_symmetry_group_IT_number 2
_symmetry_cell_setting 'triclinic'
loop_
_space_group_symop_operation_xyz
x,y,z
-x,-y,-z
loop_
_atom_site_type_symbol
_atom_site_label
_atom_site_fract_x
_atom_site_fract_y
_atom_site_fract_z
Si Si1 0.072663 0.847755 0.735457
Si Si2 0.052361 0.540736 0.361149
Si Si3 0.614535 0.994323 0.684775
Si Si4 0.177666 0.275924 0.735162
Si Si5 0.258525 0.286300 0.240891
Si Si6 0.000000 0.000000 0.500000
Si Si7 0.070187 0.355038 0.895934
O O1 0.907610 0.939849 0.527063
O O2 0.966826 0.605660 0.766056
O O3 0.060397 0.044627 0.708192
O O4 0.444447 0.768200 0.002032
O O5 0.407460 0.616162 0.576877
O O6 0.872898 0.677467 0.245070
O O7 0.887479 0.608608 0.158834
O O8 0.060756 0.266156 0.470470
O O9 0.318755 0.118511 0.398432
O O10 0.789597 0.196590 0.763425
O O11 0.827060 0.864470 0.822720
O O12 0.621330 0.789533 0.808859
O O13 0.000000 0.500000 0.500000
O O14 0.000000 0.500000 0.000000
#
# Coordination Sequence:
#
# PCOD9110543 Si02
#       7
#     2   2   2   2   2   1   2
#     4  10  23  42  67  97 136 175 229 272 336 401
#     4  10  22  43  69  96 139 176 225 275 341 393
#     4   9  20  44  66  94 134 167 230 271 340 392
#     4  11  23  43  65  99 134 182 223 275 329 414
#     4  10  22  44  71 100 129 177 224 278 331 409
#     4  10  20  42  64 104 134 172 226 274 336 404
#     4   9  20  42  67  94 134 174 216 285 332 393
#
# _framework density 24.141351
#
# number of rings (size 3 to 8) (size 9 to 14) (size 15 to 20)
#    0.000    2.154    1.538    0.000    2.154    2.462 
#   19.385    6.923    0.000    0.000    0.000    0.000 
#    0.000    0.000    0.000    0.000    0.000    0.000 
#
# Total GULP energy -72477.312017 kJ/mol
# GULP energy per Si atom -5575.177847 kJ/mol
# Density = 2.408640 g / cm^3
# Si number density = 24.141351 Si / 1000 Ang^3
#
#
#
# Elastic Constant Matrix: (Units=GPa)
#
#
# Indices 1 2 3 4 5 6 
#
# 1 92.8839 47.3192 44.7053 -17.3256 -1.4167 -15.3358
# 2 47.3192 192.5292 25.9409 -46.1667 -1.1302 -17.7646
# 3 44.7053 25.9409 79.5075 -21.9489 5.9282 -3.3144
# 4 -17.3256 -46.1667 -21.9489 35.7315 1.5086 -2.9057
# 5 -1.4167 -1.1302 5.9282 1.5086 36.3029 -8.3651
# 6 -15.3358 -17.7646 -3.3144 -2.9057 -8.3651 46.4858
#
#
#
# Elastic Compliance Matrix: (Units=1/GPa)
#
#
# Indices 1 2 3 4 5 6 
#
# 1 0.017140 -0.002663 -0.008912 -0.000366 0.003102 0.004537
# 2 -0.002663 0.008589 0.001927 0.011250 0.000135 0.003269
# 3 -0.008912 0.001927 0.020187 0.010677 -0.004225 -0.000857
# 4 -0.000366 0.011250 0.010677 0.049603 -0.001686 0.007737
# 5 0.003102 0.000135 -0.004225 -0.001686 0.029822 0.006034
# 6 0.004537 0.003269 -0.000857 0.007737 0.006034 0.025766
#
#
# Mechanical properties :
#
#
# Convention : Reuss Voigt Hill
#
# Bulk Modulus (GPa) = 37.56621 66.76127 52.16374
# Shear Modulus (GPa) = 27.89005 40.16772 34.02889
#
# Velocity S-wave (km/s) = 3.40263 4.08346 3.75850
# Velocity P-wave (km/s) = 5.57063 7.06734 6.36314
#
# Compressibility (1/GPa) = 0.02661967
#
# Stress axis : x y z
#
# Youngs Moduli (GPa) = 58.34267 116.43083 49.53800
#
# Poissons Ratio (x) = 0.31003 0.44148
# Poissons Ratio (y) = 0.15535 -0.09545
# Poissons Ratio (z) = 0.51994 -0.22434
#
# Static dielectric constant tensor:
#      x y z
#    x 1.936550 0.041540 -0.002990 
#    y 0.041540 1.973590 0.053400 
#    z -0.002990 0.053400 1.961010 
# 
# From -- ./inp_files/297123.got.cif
#   From: 2010.05.17/outbox.cif.g08.bks.cpg/sg2_149_cif.got.tgz:297123.got - 2010.06.03 11:33:40.
