data_PCOD9110033
_publ_section_title
;
Structure prediction by ZEFSAII (Michael W. Deem and Ramdas Pophale) SiO2 
 PCOD9110033
Probable space group: P -1
;
_chemical_formula_sum "Si O2"
_cell_formula_units_Z 16
_cell_length_a 11.218288
_cell_length_b 7.770258
_cell_length_c 18.374871
_cell_angle_alpha 49.639100
_cell_angle_beta 145.673438
_cell_angle_gamma 125.384879
_cell_volume 684.578912
_symmetry_space_group_name_H-M "P -1"
_symmetry_group_IT_number 2
_symmetry_cell_setting 'triclinic'
loop_
_space_group_symop_operation_xyz
x,y,z
-x,-y,-z
loop_
_atom_site_type_symbol
_atom_site_label
_atom_site_fract_x
_atom_site_fract_y
_atom_site_fract_z
Si Si1 0.427330 0.127817 0.342515
Si Si2 0.152548 0.015590 0.359487
Si Si3 0.371993 0.417697 0.095303
Si Si4 0.180228 0.195709 0.565134
Si Si5 0.703022 0.400289 0.595710
Si Si6 0.931186 0.398225 0.201064
Si Si7 0.718873 0.797601 0.221107
Si Si8 0.450474 0.874199 0.847430
O O1 0.283656 0.185289 0.322402
O O2 0.362876 0.256985 0.204191
O O3 0.680453 0.145642 0.479477
O O4 0.365711 0.858290 0.385735
O O5 0.071058 0.185949 0.330448
O O6 0.926308 0.889901 0.253806
O O7 0.579485 0.594536 0.166916
O O8 0.378946 0.264114 0.067676
O O9 0.177461 0.563144 0.941316
O O10 0.211269 0.425997 0.472405
O O11 0.174334 0.257652 0.631446
O O12 0.390126 0.059318 0.707305
O O13 0.000000 0.000000 0.500000
O O14 0.500000 0.500000 0.500000
O O15 0.902585 0.395802 0.750813
O O16 0.743870 0.320323 0.183857
O O17 0.561442 0.983472 0.121455
#
# Coordination Sequence:
#
# PCOD9110033 Si02
#       8
#     2   2   2   2   2   2   2   2
#     4  11  27  42  64 103 137 177 229 278 332 412
#     4  10  23  45  64  99 138 169 235 283 329 401
#     4  12  26  45  68 102 141 179 229 274 340 416
#     4  10  20  41  69 103 131 173 230 282 338 388
#     4  12  23  41  71  97 136 180 219 283 345 392
#     4  11  24  45  70  98 136 181 220 283 342 401
#     4   9  24  41  72  99 135 182 218 288 347 382
#     4   9  22  41  68 103 133 168 229 281 328 402
#
# _framework density 23.372032000000001
#
# number of rings (size 3 to 8) (size 9 to 14) (size 15 to 20)
#    0.750    0.750    2.500    1.125    7.000    3.500 
#    2.250    0.000    0.000    0.000    0.000    0.000 
#    0.000    0.000    0.000    0.000    0.000    0.000 
#
# Total GULP energy -89135.890735 kJ/mol
# GULP energy per Si atom -5570.993171 kJ/mol
# Density = 2.331884 g / cm^3
# Si number density = 23.372032 Si / 1000 Ang^3
#
#
#
# Elastic Constant Matrix: (Units=GPa)
#
#
# Indices 1 2 3 4 5 6 
#
# 1 77.5164 7.2090 35.3963 -8.0965 -4.7828 8.3758
# 2 7.2090 103.7534 33.0409 5.7534 -11.6818 6.2875
# 3 35.3963 33.0409 95.6829 -1.2046 -14.6369 12.5394
# 4 -8.0965 5.7534 -1.2046 28.2725 5.3805 -6.4701
# 5 -4.7828 -11.6818 -14.6369 5.3805 17.8732 -0.4565
# 6 8.3758 6.2875 12.5394 -6.4701 -0.4565 26.2871
#
#
#
# Elastic Compliance Matrix: (Units=1/GPa)
#
#
# Indices 1 2 3 4 5 6 
#
# 1 0.016164 0.000491 -0.006195 0.004305 -0.001756 -0.001283
# 2 0.000491 0.011655 -0.002938 -0.004161 0.006533 -0.002453
# 3 -0.006195 -0.002938 0.016085 -0.003825 0.010599 -0.005753
# 4 0.004305 -0.004161 -0.003825 0.043306 -0.017435 0.011804
# 5 -0.001756 0.006533 0.010599 -0.017435 0.073446 -0.009075
# 6 -0.001283 -0.002453 -0.005753 0.011804 -0.009075 0.044529
#
#
# Mechanical properties :
#
#
# Convention : Reuss Voigt Hill
#
# Bulk Modulus (GPa) = 37.56685 47.58276 42.57481
# Shear Modulus (GPa) = 21.61304 27.90699 24.76001
#
# Velocity S-wave (km/s) = 3.04425 3.45923 3.25835
# Velocity P-wave (km/s) = 5.33525 6.02976 5.69311
#
# Compressibility (1/GPa) = 0.02661921
#
# Stress axis : x y z
#
# Youngs Moduli (GPa) = 61.86653 85.80287 62.17093
#
# Poissons Ratio (x) = -0.04214 0.38517
# Poissons Ratio (y) = -0.03039 0.18264
# Poissons Ratio (z) = 0.38329 0.25206
#
# Static dielectric constant tensor:
#      x y z
#    x 2.053280 -0.019830 0.040160 
#    y -0.019830 1.925530 0.015070 
#    z 0.040160 0.015070 1.939000 
# 
# From -- ./inp_files/594062.got.cif
#   From: 2010.05.17/outbox.cif.g08.bks.cpg/sg2_298_cif.got.tgz:594062.got - 2010.06.03 11:33:40.
