data_PCOD9110222
_publ_section_title
;
Structure prediction by ZEFSAII (Michael W. Deem and Ramdas Pophale) SiO2 
 PCOD9110222
Probable space group: P -1
;
_chemical_formula_sum "Si O2"
_cell_formula_units_Z 12
_cell_length_a 15.215521
_cell_length_b 11.730478
_cell_length_c 9.174926
_cell_angle_alpha 132.720390
_cell_angle_beta 142.169789
_cell_angle_gamma 28.348021
_cell_volume 476.117962
_symmetry_space_group_name_H-M "P -1"
_symmetry_group_IT_number 2
_symmetry_cell_setting 'triclinic'
loop_
_space_group_symop_operation_xyz
x,y,z
-x,-y,-z
loop_
_atom_site_type_symbol
_atom_site_label
_atom_site_fract_x
_atom_site_fract_y
_atom_site_fract_z
Si Si1 0.957630 0.886968 0.743208
Si Si2 0.586224 0.080566 0.878475
Si Si3 0.535787 0.626473 0.565430
Si Si4 0.822489 0.672057 0.045893
Si Si5 0.797705 0.230113 0.331523
Si Si6 0.143275 0.309557 0.367245
O O1 0.982694 0.712142 0.719383
O O2 0.105263 0.790302 0.710262
O O3 0.699875 0.106686 0.549883
O O4 0.000000 0.000000 0.000000
O O5 0.343089 0.227537 0.641380
O O6 0.663882 0.936609 0.006539
O O7 0.742956 0.882492 0.782711
O O8 0.632289 0.223957 0.078875
O O9 0.500000 0.500000 0.500000
O O10 0.684831 0.628278 0.844031
O O11 0.667954 0.469686 0.456833
O O12 0.000000 0.500000 0.000000
O O13 0.968038 0.571863 0.292761
O O14 0.000000 0.000000 0.500000
#
# Coordination Sequence:
#
# PCOD9110222 Si02
#       6
#     2   2   2   2   2   2
#     4  12  24  45  72 108 152 186 241 307 361 431
#     4  10  21  42  71 104 144 192 241 296 363 435
#     4  12  25  46  73 107 142 193 245 296 367 432
#     4  10  21  41  74 101 140 197 237 292 371 427
#     4  12  25  46  75 110 143 195 247 296 367 441
#     4  10  20  41  71 102 146 194 235 300 366 424
#
# _framework density 25.203835999999999
#
# number of rings (size 3 to 8) (size 9 to 14) (size 15 to 20)
#    0.000    1.000    5.000    3.000    0.000    0.667 
#    0.000    5.000    0.000   11.000    0.000    0.000 
#    0.000    0.000    0.000    0.000    0.000    0.000 
#
# Total GULP energy -67398.653682 kJ/mol
# GULP energy per Si atom -5616.554474 kJ/mol
# Density = 2.514647 g / cm^3
# Si number density = 25.203836 Si / 1000 Ang^3
#
#
#
# Elastic Constant Matrix: (Units=GPa)
#
#
# Indices 1 2 3 4 5 6 
#
# 1 201.8139 54.4806 65.8817 -1.2607 -4.8991 11.2379
# 2 54.4806 89.2894 32.7456 -4.8766 -14.5784 0.8274
# 3 65.8817 32.7456 140.5920 -8.8012 14.5507 18.2528
# 4 -1.2607 -4.8766 -8.8012 40.0672 4.4716 -16.2851
# 5 -4.8991 -14.5784 14.5507 4.4716 47.4697 7.0416
# 6 11.2379 0.8274 18.2528 -16.2851 7.0416 46.7605
#
#
#
# Elastic Compliance Matrix: (Units=1/GPa)
#
#
# Indices 1 2 3 4 5 6 
#
# 1 0.006654 -0.003115 -0.002399 -0.001251 0.000755 -0.001157
# 2 -0.003115 0.014872 -0.002579 0.001082 0.004764 0.001152
# 3 -0.002399 -0.002579 0.009583 0.001284 -0.003786 -0.002101
# 4 -0.001251 0.001082 0.001284 0.030350 -0.004689 0.011056
# 5 0.000755 0.004764 -0.003786 -0.004689 0.024826 -0.004160
# 6 -0.001157 0.001152 -0.002101 0.011056 -0.004160 0.026940
#
#
# Mechanical properties :
#
#
# Convention : Reuss Voigt Hill
#
# Bulk Modulus (GPa) = 67.00910 81.99013 74.49962
# Shear Modulus (GPa) = 37.20675 45.43197 41.31936
#
# Velocity S-wave (km/s) = 3.84635 4.25029 4.05335
# Velocity P-wave (km/s) = 6.80958 7.52915 7.17839
#
# Compressibility (1/GPa) = 0.01492335
#
# Stress axis : x y z
#
# Youngs Moduli (GPa) = 150.28811 67.24057 104.35528
#
# Poissons Ratio (x) = 0.20942 0.25033
# Poissons Ratio (y) = 0.46807 0.26915
# Poissons Ratio (z) = 0.36052 0.17343
#
# Static dielectric constant tensor:
#      x y z
#    x 1.963330 -0.008660 -0.032290 
#    y -0.008660 1.963880 -0.025630 
#    z -0.032290 -0.025630 1.917420 
# 
# From -- ./inp_files/269171.got.cif
#   From: 2010.05.17/outbox.cif.g08.bks.cpg/sg2_135_cif.got.tgz:269171.got - 2010.06.03 11:33:40.
