data_PCOD9110970
_publ_section_title
;
Structure prediction by ZEFSAII (Michael W. Deem and Ramdas Pophale) SiO2 
 PCOD9110970
Probable space group: P -1
;
_chemical_formula_sum "Si O2"
_cell_formula_units_Z 13
_cell_length_a 11.929587
_cell_length_b 18.018587
_cell_length_c 10.731978
_cell_angle_alpha 153.845951
_cell_angle_beta 144.222684
_cell_angle_gamma 28.087414
_cell_volume 476.652760
_symmetry_space_group_name_H-M "P -1"
_symmetry_group_IT_number 2
_symmetry_cell_setting 'triclinic'
loop_
_space_group_symop_operation_xyz
x,y,z
-x,-y,-z
loop_
_atom_site_type_symbol
_atom_site_label
_atom_site_fract_x
_atom_site_fract_y
_atom_site_fract_z
Si Si1 0.347369 0.859390 0.419135
Si Si2 0.000000 0.000000 0.000000
Si Si3 0.650209 0.594406 0.682700
Si Si4 0.881429 0.216347 0.468827
Si Si5 0.207170 0.171528 0.262376
Si Si6 0.018201 0.372552 0.135806
Si Si7 0.498370 0.497285 0.176084
O O1 0.514741 0.925232 0.630865
O O2 0.478419 0.696642 0.406666
O O3 0.368300 0.696723 0.090811
O O4 0.081718 0.057382 0.508614
O O5 0.855824 0.944207 0.876606
O O6 0.963373 0.899434 0.690173
O O7 0.783616 0.456391 0.717092
O O8 0.366461 0.755659 0.691674
O O9 0.786504 0.674155 0.859948
O O10 0.647119 0.433536 0.340490
O O11 0.117879 0.210456 0.096679
O O12 0.069942 0.406236 0.548280
O O13 0.772088 0.423826 0.938581
#
# Coordination Sequence:
#
# PCOD9110970 Si02
#       7
#     2   1   2   2   2   2   2
#     4  10  21  41  66 104 123 174 221 275 318 399
#     4  12  22  42  62  98 126 176 210 280 318 396
#     4  11  23  46  62  95 135 179 210 278 324 398
#     4  11  25  41  65  93 137 171 220 269 337 382
#     4  10  21  38  70  96 133 164 227 272 326 380
#     4  10  20  42  68 100 123 178 218 269 322 405
#     4  10  21  40  74  93 131 168 225 268 333 379
#
# _framework density 27.273520999999999
#
# number of rings (size 3 to 8) (size 9 to 14) (size 15 to 20)
#    0.000    1.538    3.077    1.846    2.154    1.231 
#    5.538    3.077    0.000    0.000    0.000    0.000 
#    0.000    0.000    0.000    0.000    0.000    0.000 
#
# Total GULP energy -72573.793859 kJ/mol
# GULP energy per Si atom -5582.599528 kJ/mol
# Density = 2.721145 g / cm^3
# Si number density = 27.273521 Si / 1000 Ang^3
#
#
#
# Elastic Constant Matrix: (Units=GPa)
#
#
# Indices 1 2 3 4 5 6 
#
# 1 165.1567 35.5509 31.7470 4.9212 53.9768 -24.6773
# 2 35.5509 151.2590 22.5558 15.6163 28.1975 -28.7919
# 3 31.7470 22.5558 66.0457 -8.9015 32.5605 0.4445
# 4 4.9212 15.6163 -8.9015 31.5507 -1.3366 -0.8669
# 5 53.9768 28.1975 32.5605 -1.3366 66.6942 -3.9658
# 6 -24.6773 -28.7919 0.4445 -0.8669 -3.9658 43.2594
#
#
#
# Elastic Compliance Matrix: (Units=1/GPa)
#
#
# Indices 1 2 3 4 5 6 
#
# 1 0.009248 0.000498 -0.001699 -0.002312 -0.006617 0.004972
# 2 0.000498 0.009098 -0.002809 -0.005319 -0.002627 0.006021
# 3 -0.001699 -0.002809 0.022009 0.007414 -0.008253 -0.003673
# 4 -0.002312 -0.005319 0.007414 0.036709 0.000992 -0.004109
# 5 -0.006617 -0.002627 -0.008253 0.000992 0.025324 -0.003097
# 6 0.004972 0.006021 -0.003673 -0.004109 -0.003097 0.029631
#
#
# Mechanical properties :
#
#
# Convention : Reuss Voigt Hill
#
# Bulk Modulus (GPa) = 30.92424 62.46321 46.69373
# Shear Modulus (GPa) = 33.15237 47.80804 40.48021
#
# Velocity S-wave (km/s) = 3.49026 4.19132 3.85675
# Velocity P-wave (km/s) = 5.25411 6.80993 6.08197
#
# Compressibility (1/GPa) = 0.03233709
#
# Stress axis : x y z
#
# Youngs Moduli (GPa) = 108.12567 109.91556 45.43514
#
# Poissons Ratio (x) = -0.05477 0.07718
# Poissons Ratio (y) = -0.05387 0.12762
# Poissons Ratio (z) = 0.18367 0.30875
#
# Static dielectric constant tensor:
#      x y z
#    x 2.165830 0.197120 -0.054510 
#    y 0.197120 2.774320 0.261000 
#    z -0.054510 0.261000 2.348370 
# 
# From -- ./inp_files/233630.got.cif
#   From: 2010.05.17/outbox.cif.g08.bks.cpg/sg2_117_cif.got.tgz:233630.got - 2010.06.03 11:33:40.
