data_PCOD9110113
_publ_section_title
;
Structure prediction by ZEFSAII (Michael W. Deem and Ramdas Pophale) SiO2 
 PCOD9110113
Probable space group: P -1
;
_chemical_formula_sum "Si O2"
_cell_formula_units_Z 16
_cell_length_a 12.232020
_cell_length_b 12.044836
_cell_length_c 9.871721
_cell_angle_alpha 43.846813
_cell_angle_beta 62.336266
_cell_angle_gamma 46.838718
_cell_volume 733.707100
_symmetry_space_group_name_H-M "P -1"
_symmetry_group_IT_number 2
_symmetry_cell_setting 'triclinic'
loop_
_space_group_symop_operation_xyz
x,y,z
-x,-y,-z
loop_
_atom_site_type_symbol
_atom_site_label
_atom_site_fract_x
_atom_site_fract_y
_atom_site_fract_z
Si Si1 0.104817 0.543147 0.315899
Si Si2 0.572709 0.321616 0.512068
Si Si3 0.872397 0.153296 0.092579
Si Si4 0.160646 0.965582 0.226738
Si Si5 0.050626 0.413570 0.896434
Si Si6 0.661456 0.095898 0.083709
Si Si7 0.409460 0.499504 0.925973
Si Si8 0.693468 0.699465 0.355943
O O1 0.252657 0.432081 0.422382
O O2 0.000000 0.500000 0.500000
O O3 0.082831 0.486343 0.227537
O O4 0.063213 0.762712 0.126788
O O5 0.500000 0.500000 0.500000
O O6 0.560315 0.409031 0.297007
O O7 0.468985 0.241352 0.647660
O O8 0.746117 0.163170 0.586704
O O9 0.766906 0.097722 0.135979
O O10 0.763009 0.348240 0.071908
O O11 0.009701 0.987734 0.248047
O O12 0.110403 0.187006 0.074684
O O13 0.279107 0.870376 0.119265
O O14 0.187286 0.404283 0.746184
O O15 0.000000 0.500000 0.000000
O O16 0.686753 0.889508 0.235777
O O17 0.487982 0.271681 0.051649
O O18 0.500000 0.500000 0.000000
#
# Coordination Sequence:
#
# PCOD9110113 Si02
#       8
#     2   2   2   2   2   2   2   2
#     4   9  19  39  67  96 125 168 222 263 323 406
#     4  12  25  44  65  95 133 179 228 273 325 404
#     4  10  21  41  70  95 133 171 219 278 339 388
#     4  10  22  40  65  96 129 173 228 262 330 406
#     4   9  20  41  64  99 136 167 207 283 348 379
#     4  10  20  41  69  98 128 174 223 275 332 398
#     4  10  22  43  66  95 132 177 218 271 343 389
#     4  10  22  41  67  97 127 176 232 268 320 408
#
# _framework density 21.807067
#
# number of rings (size 3 to 8) (size 9 to 14) (size 15 to 20)
#    0.000    2.000    1.250    2.625    0.000    4.500 
#   11.250    3.125    0.000    0.000    0.000    0.000 
#    0.000    0.000    0.000    0.000    0.000    0.000 
#
# Total GULP energy -89233.118290 kJ/mol
# GULP energy per Si atom -5577.069893 kJ/mol
# Density = 2.175743 g / cm^3
# Si number density = 21.807067 Si / 1000 Ang^3
#
#
#
# Elastic Constant Matrix: (Units=GPa)
#
#
# Indices 1 2 3 4 5 6 
#
# 1 113.3389 34.6257 47.7476 -1.3641 5.5314 -0.5543
# 2 34.6257 115.4347 32.1787 9.5995 17.9571 -3.7080
# 3 47.7476 32.1787 97.8939 8.8139 27.2306 2.2669
# 4 -1.3641 9.5995 8.8139 31.5855 1.4035 8.6673
# 5 5.5314 17.9571 27.2306 1.4035 36.8473 -0.4998
# 6 -0.5543 -3.7080 2.2669 8.6673 -0.4998 27.3468
#
#
#
# Elastic Compliance Matrix: (Units=1/GPa)
#
#
# Indices 1 2 3 4 5 6 
#
# 1 0.012241 -0.002793 -0.006490 0.003143 0.004193 -0.000512
# 2 -0.002793 0.010736 -0.000760 -0.003692 -0.004076 0.002558
# 3 -0.006490 -0.000760 0.017123 -0.004186 -0.011157 -0.000531
# 4 0.003143 -0.003692 -0.004186 0.037206 0.002843 -0.011830
# 5 0.004193 -0.004076 -0.011157 0.002843 0.036636 0.000226
# 6 -0.000512 0.002558 -0.000531 -0.011830 0.000226 0.040701
#
#
# Mechanical properties :
#
#
# Convention : Reuss Voigt Hill
#
# Bulk Modulus (GPa) = 49.96295 61.75237 55.85766
# Shear Modulus (GPa) = 27.56340 33.29695 30.43018
#
# Velocity S-wave (km/s) = 3.55909 3.91178 3.73959
# Velocity P-wave (km/s) = 6.31273 6.98440 6.65704
#
# Compressibility (1/GPa) = 0.02001483
#
# Stress axis : x y z
#
# Youngs Moduli (GPa) = 81.69212 93.14761 58.40039
#
# Poissons Ratio (x) = 0.26013 0.37902
# Poissons Ratio (y) = 0.22814 0.04438
# Poissons Ratio (z) = 0.53018 0.07078
#
# Static dielectric constant tensor:
#      x y z
#    x 1.913960 -0.102190 -0.041290 
#    y -0.102190 1.911480 0.057970 
#    z -0.041290 0.057970 1.925600 
# 
# From -- ./inp_files/261559.got.cif
#   From: 2010.05.17/outbox.cif.g08.bks.cpg/sg2_131_cif.got.tgz:261559.got - 2010.06.03 11:33:40.
