data_PCOD9110102
_publ_section_title
;
Structure prediction by ZEFSAII (Michael W. Deem and Ramdas Pophale) SiO2 
 PCOD9110102
Probable space group: P -1
;
_chemical_formula_sum "Si O2"
_cell_formula_units_Z 16
_cell_length_a 6.272212
_cell_length_b 13.583239
_cell_length_c 20.476772
_cell_angle_alpha 157.464246
_cell_angle_beta 81.000119
_cell_angle_gamma 89.375902
_cell_volume 602.190656
_symmetry_space_group_name_H-M "P -1"
_symmetry_group_IT_number 2
_symmetry_cell_setting 'triclinic'
loop_
_space_group_symop_operation_xyz
x,y,z
-x,-y,-z
loop_
_atom_site_type_symbol
_atom_site_label
_atom_site_fract_x
_atom_site_fract_y
_atom_site_fract_z
Si Si1 0.050407 0.182373 0.221958
Si Si2 0.784625 0.990431 0.550209
Si Si3 0.049096 0.887490 0.246034
Si Si4 0.382375 0.670100 0.505964
Si Si5 0.742707 0.607476 0.155079
Si Si6 0.991877 0.615944 0.867069
Si Si7 0.331004 0.319109 0.187108
Si Si8 0.652289 0.737245 0.642208
O O1 0.107744 0.326873 0.244499
O O2 0.256490 0.076904 0.203067
O O3 0.854466 0.449299 0.429638
O O4 0.004723 0.914000 0.038509
O O5 0.486323 0.783179 0.306996
O O6 0.810145 0.672047 0.347548
O O7 0.000000 0.000000 0.500000
O O8 0.847994 0.031355 0.645870
O O9 0.836195 0.806036 0.231651
O O10 0.899836 0.149978 0.368607
O O11 0.246212 0.634629 0.043331
O O12 0.419267 0.541087 0.351748
O O13 0.495196 0.846290 0.651413
O O14 0.461664 0.384982 0.370408
O O15 0.956499 0.450865 0.100000
O O16 0.752896 0.631632 0.853293
O O17 0.500000 0.000000 0.000000
#
# Coordination Sequence:
#
# PCOD9110102 Si02
#       8
#     2   2   2   2   2   2   2   2
#     4  10  22  40  62  99 135 182 232 287 351 431
#     4  12  26  49  74 105 148 191 247 311 369 433
#     4  11  24  48  73 107 143 187 250 300 368 437
#     4  10  20  41  69  96 134 184 229 293 357 427
#     4  11  27  47  73 105 145 191 247 307 364 439
#     4  12  24  44  70  99 143 190 241 298 368 435
#     4  11  24  39  64 101 141 183 231 289 358 437
#     4   9  20  41  66  97 140 176 232 291 354 426
#
# _framework density 26.569659999999999
#
# number of rings (size 3 to 8) (size 9 to 14) (size 15 to 20)
#    0.000    1.250    2.500    2.625    0.000    5.000 
#    9.000    0.000    0.000    0.000    0.000    0.000 
#    0.000    0.000    0.000    0.000    0.000    0.000 
#
# Total GULP energy -89339.343669 kJ/mol
# GULP energy per Si atom -5583.708979 kJ/mol
# Density = 2.650919 g / cm^3
# Si number density = 26.569660 Si / 1000 Ang^3
#
#
#
# Elastic Constant Matrix: (Units=GPa)
#
#
# Indices 1 2 3 4 5 6 
#
# 1 73.4148 46.9986 38.1976 -6.9164 -7.5641 -7.5778
# 2 46.9986 118.1535 19.3437 -10.5624 -0.2032 -29.0425
# 3 38.1976 19.3437 158.8771 -17.9823 -0.1366 -16.0252
# 4 -6.9164 -10.5624 -17.9823 42.6729 -12.4672 15.8934
# 5 -7.5641 -0.2032 -0.1366 -12.4672 45.0695 -4.4485
# 6 -7.5778 -29.0425 -16.0252 15.8934 -4.4485 62.5055
#
#
#
# Elastic Compliance Matrix: (Units=1/GPa)
#
#
# Indices 1 2 3 4 5 6 
#
# 1 0.021390 -0.008277 -0.004193 0.001675 0.003758 -0.002486
# 2 -0.008277 0.012871 0.000952 0.000100 -0.000793 0.005139
# 3 -0.004193 0.000952 0.007577 0.002289 0.000085 0.001300
# 4 0.001675 0.000100 0.002289 0.029216 0.007774 -0.006039
# 5 0.003758 -0.000793 0.000085 0.007774 0.024957 -0.000092
# 6 -0.002486 0.005139 0.001300 -0.006039 -0.000092 0.019947
#
#
# Mechanical properties :
#
#
# Convention : Reuss Voigt Hill
#
# Bulk Modulus (GPa) = 53.18654 62.16949 57.67801
# Shear Modulus (GPa) = 34.42116 46.44328 40.43222
#
# Velocity S-wave (km/s) = 3.60322 4.18542 3.90519
# Velocity P-wave (km/s) = 6.11328 6.84153 6.48763
#
# Compressibility (1/GPa) = 0.01880175
#
# Stress axis : x y z
#
# Youngs Moduli (GPa) = 46.75148 77.69553 131.98384
#
# Poissons Ratio (x) = 0.64306 0.55338
# Poissons Ratio (y) = 0.38695 -0.12562
# Poissons Ratio (z) = 0.19602 -0.07395
#
# Static dielectric constant tensor:
#      x y z
#    x 2.239920 0.008270 -0.006140 
#    y 0.008270 2.152640 0.020830 
#    z -0.006140 0.020830 2.096530 
# 
# From -- ./inp_files/608274.got.cif
#   From: 2010.05.17/outbox.cif.g08.bks.cpg/sg2_305_cif.got.tgz:608274.got - 2010.06.03 11:33:40.
