data_PCOD9110131
_publ_section_title
;
Structure prediction by ZEFSAII (Michael W. Deem and Ramdas Pophale) SiO2 
 PCOD9110131
Probable space group: P -1
;
_chemical_formula_sum "Si O2"
_cell_formula_units_Z 15
_cell_length_a 7.841131
_cell_length_b 9.281186
_cell_length_c 14.599776
_cell_angle_alpha 60.670048
_cell_angle_beta 82.652576
_cell_angle_gamma 125.878288
_cell_volume 607.397198
_symmetry_space_group_name_H-M "P -1"
_symmetry_group_IT_number 2
_symmetry_cell_setting 'triclinic'
loop_
_space_group_symop_operation_xyz
x,y,z
-x,-y,-z
loop_
_atom_site_type_symbol
_atom_site_label
_atom_site_fract_x
_atom_site_fract_y
_atom_site_fract_z
Si Si1 0.334178 0.019063 0.114112
Si Si2 0.431644 0.940709 0.416622
Si Si3 0.619492 0.544150 0.613604
Si Si4 0.835043 0.582334 0.405328
Si Si5 0.009508 0.201593 0.956417
Si Si6 0.305944 0.976345 0.804670
Si Si7 0.607368 0.713567 0.735792
Si Si8 0.500000 0.500000 0.000000
O O1 0.218350 0.887573 0.063060
O O2 0.541728 0.054082 0.140101
O O3 0.078386 0.813801 0.258378
O O4 0.447410 0.284365 0.017707
O O5 0.203895 0.641835 0.514535
O O6 0.659361 0.043331 0.298411
O O7 0.500000 0.000000 0.500000
O O8 0.352918 0.065414 0.351820
O O9 0.813025 0.650258 0.484473
O O10 0.422197 0.541246 0.591901
O O11 0.451988 0.255385 0.725297
O O12 0.730086 0.688215 0.656583
O O13 0.291654 0.467343 0.827253
O O14 0.969657 0.206677 0.066407
O O15 0.000000 0.000000 0.000000
O O16 0.660833 0.689488 0.840735
#
# Coordination Sequence:
#
# PCOD9110131 Si02
#       8
#     2   2   2   2   2   2   2   1
#     4  12  23  45  68 104 141 182 228 288 347 407
#     4  11  22  42  67 102 141 172 229 293 340 399
#     4  10  20  41  70 101 127 182 242 275 334 420
#     4  10  22  41  74  98 131 186 232 279 344 419
#     4  12  22  42  74  94 134 190 238 267 347 424
#     4  11  24  39  69 104 135 182 235 286 336 416
#     4  12  23  45  69 102 141 180 225 296 339 407
#     4  12  26  42  68 100 150 176 220 294 352 394
#
# _framework density 24.695536000000001
#
# number of rings (size 3 to 8) (size 9 to 14) (size 15 to 20)
#    0.000    0.800    6.667    0.400    0.000    2.667 
#    0.000    0.667    5.867    0.000    0.000    0.000 
#    0.000    0.000    0.000    0.000    0.000    0.000 
#
# Total GULP energy -83769.735030 kJ/mol
# GULP energy per Si atom -5584.649002 kJ/mol
# Density = 2.463933 g / cm^3
# Si number density = 24.695536 Si / 1000 Ang^3
#
#
#
# Elastic Constant Matrix: (Units=GPa)
#
#
# Indices 1 2 3 4 5 6 
#
# 1 57.7420 23.7638 33.8943 -4.0913 15.5040 -3.3006
# 2 23.7638 112.6719 58.6012 28.1319 3.4133 -16.8725
# 3 33.8943 58.6012 160.1216 15.5399 7.5711 -21.2360
# 4 -4.0913 28.1319 15.5399 78.0643 -8.9775 4.2572
# 5 15.5040 3.4133 7.5711 -8.9775 38.5518 1.6455
# 6 -3.3006 -16.8725 -21.2360 4.2572 1.6455 30.6885
#
#
#
# Elastic Compliance Matrix: (Units=1/GPa)
#
#
# Indices 1 2 3 4 5 6 
#
# 1 0.023085 -0.003638 -0.003709 0.002500 -0.007565 -0.002025
# 2 -0.003638 0.013135 -0.002818 -0.004722 -0.000483 0.005561
# 3 -0.003709 -0.002818 0.008773 -0.001212 -0.000448 0.004314
# 4 0.002500 -0.004722 -0.001212 0.015589 0.003516 -0.005517
# 5 -0.007565 -0.000483 -0.000448 0.003516 0.030080 -0.003490
# 6 -0.002025 0.005561 0.004314 -0.005517 -0.003490 0.039363
#
#
# Mechanical properties :
#
#
# Convention : Reuss Voigt Hill
#
# Bulk Modulus (GPa) = 40.54737 62.56155 51.55446
# Shear Modulus (GPa) = 31.53059 43.74600 37.63830
#
# Velocity S-wave (km/s) = 3.57707 4.21338 3.90820
# Velocity P-wave (km/s) = 5.78923 7.00416 6.42547
#
# Compressibility (1/GPa) = 0.02466251
#
# Stress axis : x y z
#
# Youngs Moduli (GPa) = 43.31770 76.13345 113.98961
#
# Poissons Ratio (x) = 0.27699 0.42274
# Poissons Ratio (y) = 0.15760 0.32126
# Poissons Ratio (z) = 0.16065 0.21457
#
# Static dielectric constant tensor:
#      x y z
#    x 2.030950 0.116870 -0.044170 
#    y 0.116870 2.156850 -0.053220 
#    z -0.044170 -0.053220 1.968680 
# 
# From -- ./inp_files/237049.got.cif
#   From: 2010.05.17/outbox.cif.g08.bks.cpg/sg2_119_cif.got.tgz:237049.got - 2010.06.03 11:33:40.
