data_PCOD9110198
_publ_section_title
;
Structure prediction by ZEFSAII (Michael W. Deem and Ramdas Pophale) SiO2 
 PCOD9110198
Probable space group: P -1
;
_chemical_formula_sum "Si O2"
_cell_formula_units_Z 15
_cell_length_a 11.913458
_cell_length_b 21.630724
_cell_length_c 14.621086
_cell_angle_alpha 21.842734
_cell_angle_beta 28.924235
_cell_angle_gamma 30.605617
_cell_volume 653.162285
_symmetry_space_group_name_H-M "P -1"
_symmetry_group_IT_number 2
_symmetry_cell_setting 'triclinic'
loop_
_space_group_symop_operation_xyz
x,y,z
-x,-y,-z
loop_
_atom_site_type_symbol
_atom_site_label
_atom_site_fract_x
_atom_site_fract_y
_atom_site_fract_z
Si Si1 0.500000 0.500000 0.500000
Si Si2 0.111019 0.170973 0.289921
Si Si3 0.484631 0.859348 0.380705
Si Si4 0.821901 0.032593 0.214928
Si Si5 0.272254 0.552863 0.911157
Si Si6 0.470387 0.706839 0.070629
Si Si7 0.591432 0.775670 0.627111
Si Si8 0.268182 0.881004 0.218928
O O1 0.381145 0.595902 0.360946
O O2 0.435516 0.693484 0.332669
O O3 0.992554 0.332608 0.086509
O O4 0.902152 0.146524 0.539509
O O5 0.228891 0.995159 0.395941
O O6 0.333244 0.209938 0.134902
O O7 0.437186 0.683816 0.621701
O O8 0.605876 0.819583 0.449973
O O9 0.605803 0.963208 0.080338
O O10 0.681108 0.138793 0.257535
O O11 0.726462 0.873474 0.466492
O O12 0.745751 0.164350 0.004905
O O13 0.091569 0.951659 0.162464
O O14 0.369342 0.421855 0.939926
O O15 0.309833 0.427807 0.143927
#
# Coordination Sequence:
#
# PCOD9110198 Si02
#       8
#     1   2   2   2   2   2   2   2
#     4  12  24  40  66 108 130 164 230 286 314 396
#     4  12  23  47  69  95 135 178 224 277 334 385
#     4  12  25  45  65 103 136 177 225 264 335 418
#     4  10  20  41  70  98 129 177 220 279 333 379
#     4  11  25  40  71  97 137 180 214 278 342 388
#     4  11  23  44  69 102 133 169 235 278 324 399
#     4  10  20  41  70  98 131 173 230 271 324 402
#     4  12  25  41  72  97 137 174 221 282 328 388
#
# _framework density 22.965198000000001
#
# number of rings (size 3 to 8) (size 9 to 14) (size 15 to 20)
#    0.000    0.800    5.333    2.800    1.867    2.667 
#    0.000    2.667    0.000    0.000    0.000    0.000 
#    0.000    0.000    0.000    0.000    0.000    0.000 
#
# Total GULP energy -83557.593694 kJ/mol
# GULP energy per Si atom -5570.506246 kJ/mol
# Density = 2.291293 g / cm^3
# Si number density = 22.965198 Si / 1000 Ang^3
#
#
#
# Elastic Constant Matrix: (Units=GPa)
#
#
# Indices 1 2 3 4 5 6 
#
# 1 68.4662 -1.5213 49.3081 7.9860 24.3005 -22.3342
# 2 -1.5213 10.3985 56.4630 10.6254 32.1037 -28.1697
# 3 49.3081 56.4630 115.3585 -41.9013 22.4324 -20.9206
# 4 7.9860 10.6254 -41.9013 14.9491 -14.9654 18.5634
# 5 24.3005 32.1037 22.4324 -14.9654 32.1612 -5.0495
# 6 -22.3342 -28.1697 -20.9206 18.5634 -5.0495 23.4504
#
#
#
# Elastic Compliance Matrix: (Units=1/GPa)
#
#
# Indices 1 2 3 4 5 6 
#
# 1 0.013025 -0.009851 -0.000151 0.003291 0.001333 -0.001881
# 2 -0.009851 0.012008 0.005132 0.024211 0.001702 -0.009177
# 3 -0.000151 0.005132 0.010893 0.001136 -0.010089 0.012667
# 4 0.003291 0.024211 0.001136 0.029069 -0.012746 0.007475
# 5 0.001333 0.001702 -0.010089 -0.012746 0.031241 0.011130
# 6 -0.001881 -0.009177 0.012667 0.007475 0.011130 0.037607
#
#
# Mechanical properties :
#
#
# Convention : Reuss Voigt Hill
#
# Bulk Modulus (GPa) = 38.18687 44.74698 41.46693
# Shear Modulus (GPa) = 32.82738 20.11036 26.46887
#
# Velocity S-wave (km/s) = 3.78490 2.96241 3.39863
# Velocity P-wave (km/s) = 5.98037 5.58822 5.78762
#
# Compressibility (1/GPa) = 0.02618701
#
# Stress axis : x y z
#
# Youngs Moduli (GPa) = 76.77687 83.27616 91.80103
#
# Poissons Ratio (x) = 0.82031 0.01383
# Poissons Ratio (y) = 0.75629 -0.47108
# Poissons Ratio (z) = 0.01156 -0.42734
#
# Static dielectric constant tensor:
#      x y z
#    x 1.861820 0.012450 0.019760 
#    y 0.012450 1.846880 0.073890 
#    z 0.019760 0.073890 1.943880 
# 
# From -- ./inp_files/523998.got.cif
#   From: 2010.05.17/outbox.cif.g08.bks.cpg/sg2_262_cif.got.tgz:523998.got - 2010.06.03 11:33:40.
