data_PCOD9110673
_publ_section_title
;
Structure prediction by ZEFSAII (Michael W. Deem and Ramdas Pophale) SiO2 
 PCOD9110673
Probable space group: P -1
;
_chemical_formula_sum "Si O2"
_cell_formula_units_Z 16
_cell_length_a 7.234945
_cell_length_b 8.235785
_cell_length_c 18.400884
_cell_angle_alpha 135.490450
_cell_angle_beta 63.568054
_cell_angle_gamma 102.628747
_cell_volume 679.696104
_symmetry_space_group_name_H-M "P -1"
_symmetry_group_IT_number 2
_symmetry_cell_setting 'triclinic'
loop_
_space_group_symop_operation_xyz
x,y,z
-x,-y,-z
loop_
_atom_site_type_symbol
_atom_site_label
_atom_site_fract_x
_atom_site_fract_y
_atom_site_fract_z
Si Si1 0.940776 0.815520 0.816584
Si Si2 0.810501 0.355572 0.973752
Si Si3 0.123705 0.487728 0.549220
Si Si4 0.749059 0.122215 0.423847
Si Si5 0.412362 0.462772 0.179908
Si Si6 0.898021 0.269843 0.775303
Si Si7 0.279865 0.515747 0.740155
Si Si8 0.681166 0.908467 0.515470
O O1 0.734497 0.738432 0.864647
O O2 0.989708 0.636346 0.682886
O O3 0.155602 0.756259 0.805876
O O4 0.892568 0.085922 0.893344
O O5 0.764820 0.356936 0.896338
O O6 0.605972 0.438862 0.083411
O O7 0.000000 0.500000 0.000000
O O8 0.296483 0.638912 0.538151
O O9 0.194123 0.225411 0.482762
O O10 0.000000 0.500000 0.500000
O O11 0.556925 0.991160 0.391351
O O12 0.757593 0.083722 0.498523
O O13 0.973851 0.987153 0.317624
O O14 0.244563 0.690720 0.259142
O O15 0.522872 0.457613 0.237012
O O16 0.088374 0.419381 0.783314
O O17 0.337633 0.323819 0.605376
#
# Coordination Sequence:
#
# PCOD9110673 Si02
#       8
#     2   2   2   2   2   2   2   2
#     4  10  24  45  64  94 136 168 221 276 320 404
#     4  12  23  44  68  96 131 172 220 277 336 391
#     4  11  23  41  65  98 137 172 215 272 335 397
#     4  10  20  42  65  88 134 172 213 272 332 381
#     4  11  23  42  69  91 129 178 217 273 338 390
#     4  10  21  43  63  94 131 167 221 280 318 396
#     4   9  20  42  66  94 128 174 219 263 333 395
#     4   9  21  40  66  96 131 174 221 271 323 405
#
# _framework density 23.539930999999999
#
# number of rings (size 3 to 8) (size 9 to 14) (size 15 to 20)
#    0.000    1.750    2.500    1.875    1.750    1.000 
#   11.250    0.000    0.000    0.000    0.000    0.000 
#    0.000    0.000    0.000    0.000    0.000    0.000 
#
# Total GULP energy -89238.129219 kJ/mol
# GULP energy per Si atom -5577.383076 kJ/mol
# Density = 2.348635 g / cm^3
# Si number density = 23.539931 Si / 1000 Ang^3
#
#
#
# Elastic Constant Matrix: (Units=GPa)
#
#
# Indices 1 2 3 4 5 6 
#
# 1 150.2449 36.2866 25.0489 5.8657 -10.6479 -23.2072
# 2 36.2866 87.1077 19.2209 0.7644 -21.4805 -0.9256
# 3 25.0489 19.2209 57.5555 -6.2041 -21.3373 1.3664
# 4 5.8657 0.7644 -6.2041 42.4249 -4.5822 -7.4320
# 5 -10.6479 -21.4805 -21.3373 -4.5822 27.2633 -1.3005
# 6 -23.2072 -0.9256 1.3664 -7.4320 -1.3005 47.7036
#
#
#
# Elastic Compliance Matrix: (Units=1/GPa)
#
#
# Indices 1 2 3 4 5 6 
#
# 1 0.008549 -0.003212 -0.003625 -0.001180 -0.002038 0.003961
# 2 -0.003212 0.015536 0.000743 0.001414 0.011770 -0.000741
# 3 -0.003625 0.000743 0.027531 0.006711 0.021802 -0.000898
# 4 -0.001180 0.001414 0.006711 0.026471 0.010530 0.003672
# 5 -0.002038 0.011770 0.021802 0.010530 0.064085 0.002000
# 6 0.003961 -0.000741 -0.000898 0.003672 0.002000 0.023528
#
#
# Mechanical properties :
#
#
# Convention : Reuss Voigt Hill
#
# Bulk Modulus (GPa) = 25.36178 50.66899 38.01538
# Shear Modulus (GPa) = 26.17370 37.76847 31.97108
#
# Velocity S-wave (km/s) = 3.33811 4.00989 3.68933
# Velocity P-wave (km/s) = 5.06504 6.55823 5.85940
#
# Compressibility (1/GPa) = 0.03942942
#
# Stress axis : x y z
#
# Youngs Moduli (GPa) = 116.96790 64.36571 36.32224
#
# Poissons Ratio (x) = 0.20672 0.13167
# Poissons Ratio (y) = 0.37566 -0.02699
# Poissons Ratio (z) = 0.42402 -0.04782
#
# Static dielectric constant tensor:
#      x y z
#    x 2.218140 0.561920 0.329510 
#    y 0.561920 3.115930 0.652360 
#    z 0.329510 0.652360 2.323270 
# 
# From -- ./inp_files/582062.got.cif
#   From: 2010.05.17/outbox.cif.g08.bks.cpg/sg2_292_cif.got.tgz:582062.got - 2010.06.03 11:33:40.
