data_PCOD9110305
_publ_section_title
;
Structure prediction by ZEFSAII (Michael W. Deem and Ramdas Pophale) SiO2 
 PCOD9110305
Probable space group: P -1
;
_chemical_formula_sum "Si O2"
_cell_formula_units_Z 16
_cell_length_a 11.322857
_cell_length_b 13.793087
_cell_length_c 9.655713
_cell_angle_alpha 38.074764
_cell_angle_beta 107.959749
_cell_angle_gamma 125.662520
_cell_volume 720.627659
_symmetry_space_group_name_H-M "P -1"
_symmetry_group_IT_number 2
_symmetry_cell_setting 'triclinic'
loop_
_space_group_symop_operation_xyz
x,y,z
-x,-y,-z
loop_
_atom_site_type_symbol
_atom_site_label
_atom_site_fract_x
_atom_site_fract_y
_atom_site_fract_z
Si Si1 0.400238 0.296954 0.078708
Si Si2 0.465978 0.861140 0.515051
Si Si3 0.587401 0.479907 0.679484
Si Si4 0.070026 0.222153 0.448424
Si Si5 0.194816 0.870887 0.350356
Si Si6 0.925895 0.301691 0.778150
Si Si7 0.383830 0.866180 0.987824
Si Si8 0.100066 0.235061 0.133143
O O1 0.500866 0.283377 0.246196
O O2 0.271562 0.304798 0.095589
O O3 0.303101 0.090661 0.194416
O O4 0.501092 0.451581 0.823660
O O5 0.297356 0.788089 0.487153
O O6 0.500000 0.000000 0.500000
O O7 0.581706 0.992726 0.286489
O O8 0.500000 0.500000 0.500000
O O9 0.763856 0.657237 0.558468
O O10 0.585152 0.289725 0.871187
O O11 0.079926 0.289566 0.218124
O O12 0.950641 0.233372 0.484038
O O13 0.005444 0.997723 0.662267
O O14 0.140251 0.856825 0.189772
O O15 0.785489 0.245844 0.887834
O O16 0.000000 0.500000 0.500000
O O17 0.050103 0.312391 0.906582
O O18 0.500000 0.000000 0.000000
#
# Coordination Sequence:
#
# PCOD9110305 Si02
#       8
#     2   2   2   2   2   2   2   2
#     4  10  23  43  72  98 139 183 238 287 360 416
#     4  10  20  41  72  99 131 180 239 281 344 425
#     4  12  27  43  71 109 144 186 237 298 353 422
#     4  10  25  45  71 100 139 184 244 282 356 420
#     4  10  21  44  69  97 133 185 225 290 350 417
#     4  12  27  43  66 103 140 177 239 292 352 413
#     4  12  25  46  72 103 141 189 237 290 356 419
#     4  10  26  46  70 100 138 194 230 287 359 426
#
# _framework density 22.202867000000001
#
# number of rings (size 3 to 8) (size 9 to 14) (size 15 to 20)
#    0.000    1.250    3.750    0.750   14.000    2.500 
#    0.000    1.875    0.000    0.000    0.000    0.000 
#    0.000    0.000    0.000    0.000    0.000    0.000 
#
# Total GULP energy -89558.076301 kJ/mol
# GULP energy per Si atom -5597.379769 kJ/mol
# Density = 2.215233 g / cm^3
# Si number density = 22.202867 Si / 1000 Ang^3
#
#
#
# Elastic Constant Matrix: (Units=GPa)
#
#
# Indices 1 2 3 4 5 6 
#
# 1 122.2389 29.4329 62.6541 18.8365 -32.0481 21.9616
# 2 29.4329 108.4872 42.1528 2.7605 -2.8890 9.3721
# 3 62.6541 42.1528 145.2487 30.3333 -15.2718 16.8859
# 4 18.8365 2.7605 30.3333 45.0675 5.4500 -5.3275
# 5 -32.0481 -2.8890 -15.2718 5.4500 42.0639 7.3022
# 6 21.9616 9.3721 16.8859 -5.3275 7.3022 36.3986
#
#
#
# Elastic Compliance Matrix: (Units=1/GPa)
#
#
# Indices 1 2 3 4 5 6 
#
# 1 0.018167 -0.002359 -0.001559 -0.010166 0.016951 -0.014519
# 2 -0.002359 0.010841 -0.003149 0.002901 -0.002758 0.001070
# 3 -0.001559 -0.003149 0.011281 -0.007977 0.004696 -0.005592
# 4 -0.010166 0.002901 -0.007977 0.035962 -0.018227 0.018008
# 5 0.016951 -0.002758 0.004696 -0.018227 0.044612 -0.023314
# 6 -0.014519 0.001070 -0.005592 0.018008 -0.023314 0.045865
#
#
# Mechanical properties :
#
#
# Convention : Reuss Voigt Hill
#
# Bulk Modulus (GPa) = 38.23245 71.60603 54.91924
# Shear Modulus (GPa) = 26.37406 40.82168 33.59787
#
# Velocity S-wave (km/s) = 3.45028 4.29251 3.89424
# Velocity P-wave (km/s) = 5.75583 7.54244 6.70887
#
# Compressibility (1/GPa) = 0.02615579
#
# Stress axis : x y z
#
# Youngs Moduli (GPa) = 55.04610 92.23841 88.64642
#
# Poissons Ratio (x) = 0.21756 0.13817
# Poissons Ratio (y) = 0.12984 0.27916
# Poissons Ratio (z) = 0.08580 0.29047
#
# Static dielectric constant tensor:
#      x y z
#    x 1.820470 -0.006310 -0.007350 
#    y -0.006310 1.841640 -0.052120 
#    z -0.007350 -0.052120 1.820620 
# 
# From -- ./inp_files/271598.got.cif
#   From: 2010.05.17/outbox.cif.g08.bks.cpg/sg2_136_cif.got.tgz:271598.got - 2010.06.03 11:33:40.
