data_PCOD9110756
_publ_section_title
;
Structure prediction by ZEFSAII (Michael W. Deem and Ramdas Pophale) SiO2 
 PCOD9110756
Probable space group: P -1
;
_chemical_formula_sum "Si O2"
_cell_formula_units_Z 16
_cell_length_a 13.847223
_cell_length_b 11.895211
_cell_length_c 9.282918
_cell_angle_alpha 104.371019
_cell_angle_beta 31.428468
_cell_angle_gamma 111.660261
_cell_volume 733.932861
_symmetry_space_group_name_H-M "P -1"
_symmetry_group_IT_number 2
_symmetry_cell_setting 'triclinic'
loop_
_space_group_symop_operation_xyz
x,y,z
-x,-y,-z
loop_
_atom_site_type_symbol
_atom_site_label
_atom_site_fract_x
_atom_site_fract_y
_atom_site_fract_z
Si Si1 0.731564 0.849014 0.732363
Si Si2 0.887843 0.742112 0.243668
Si Si3 0.875980 0.149868 0.274726
Si Si4 0.340814 0.530226 0.611310
Si Si5 0.519501 0.258936 0.727794
Si Si6 0.857308 0.125769 0.629780
Si Si7 0.623069 0.916713 0.379298
Si Si8 0.739034 0.258453 0.063609
O O1 0.756668 0.800676 0.526145
O O2 0.935434 0.860764 0.556362
O O3 0.718841 0.986462 0.788858
O O4 0.563194 0.755352 0.010267
O O5 0.799859 0.596783 0.308411
O O6 0.100959 0.781478 0.059819
O O7 0.927858 0.784259 0.041532
O O8 0.715137 0.218542 0.467104
O O9 0.888218 0.146515 0.428502
O O10 0.796444 0.012704 0.270817
O O11 0.500000 0.500000 0.500000
O O12 0.430535 0.616901 0.387875
O O13 0.239048 0.605260 0.869006
O O14 0.353748 0.159121 0.814012
O O15 0.773766 0.223625 0.846014
O O16 0.500000 0.000000 0.500000
O O17 0.476360 0.820071 0.639240
#
# Coordination Sequence:
#
# PCOD9110756 Si02
#       8
#     2   2   2   2   2   2   2   2
#     4  10  24  41  62  95 139 162 199 265 325 375
#     4  11  23  42  65  94 127 174 212 256 315 376
#     4  11  22  37  67  96 125 170 215 254 309 392
#     4  11  25  42  67  92 126 167 220 269 312 366
#     4  10  22  40  64  89 125 170 212 266 310 374
#     4  10  23  39  63  98 133 164 205 259 323 379
#     4   9  16  32  60  91 120 155 207 248 314 361
#     4  10  20  42  66  88 126 172 211 261 311 380
#
# _framework density 21.800360000000001
#
# number of rings (size 3 to 8) (size 9 to 14) (size 15 to 20)
#    0.000    1.750    3.750    1.875    5.250    6.000 
#    0.000    0.625    0.000    0.000    0.000    0.000 
#    0.000    0.000    0.000    0.000    0.000    0.000 
#
# Total GULP energy -89419.354067 kJ/mol
# GULP energy per Si atom -5588.709629 kJ/mol
# Density = 2.175074 g / cm^3
# Si number density = 21.800360 Si / 1000 Ang^3
#
#
#
# Elastic Constant Matrix: (Units=GPa)
#
#
# Indices 1 2 3 4 5 6 
#
# 1 90.6801 15.1218 33.0769 0.4871 22.7005 -7.9509
# 2 15.1218 74.1664 30.1851 -11.4529 8.6449 12.1349
# 3 33.0769 30.1851 117.5727 0.2434 27.1640 5.1000
# 4 0.4871 -11.4529 0.2434 33.4929 -2.3176 3.7517
# 5 22.7005 8.6449 27.1640 -2.3176 38.7346 5.1885
# 6 -7.9509 12.1349 5.1000 3.7517 5.1885 31.5081
#
#
#
# Elastic Compliance Matrix: (Units=1/GPa)
#
#
# Indices 1 2 3 4 5 6 
#
# 1 0.014717 -0.002781 -0.001935 -0.002428 -0.007684 0.006652
# 2 -0.002781 0.017861 -0.003905 0.007218 0.001902 -0.008121
# 3 -0.001935 -0.003905 0.011472 -0.001865 -0.006206 0.000403
# 4 -0.002428 0.007218 -0.001865 0.033533 0.004167 -0.007770
# 5 -0.007684 0.001902 -0.006206 0.004167 0.035571 -0.008021
# 6 0.006652 -0.008121 0.000403 -0.007770 -0.008021 0.038725
#
#
# Mechanical properties :
#
#
# Convention : Reuss Voigt Hill
#
# Bulk Modulus (GPa) = 37.30107 48.79854 43.04980
# Shear Modulus (GPa) = 28.08072 34.34947 31.21510
#
# Velocity S-wave (km/s) = 3.59288 3.97374 3.78810
# Velocity P-wave (km/s) = 5.86167 6.59447 6.23884
#
# Compressibility (1/GPa) = 0.02680888
#
# Stress axis : x y z
#
# Youngs Moduli (GPa) = 67.94804 55.98686 87.16550
#
# Poissons Ratio (x) = 0.15570 0.16863
# Poissons Ratio (y) = 0.18896 0.34041
# Poissons Ratio (z) = 0.13145 0.21865
#
# Static dielectric constant tensor:
#      x y z
#    x 1.850120 -0.011750 -0.024280 
#    y -0.011750 1.784950 0.023850 
#    z -0.024280 0.023850 1.811500 
# 
# From -- ./inp_files/176736.got.cif
#   From: 2010.05.17/outbox.cif.g08.bks.cpg/sg2_89_cif.got.tgz:176736.got - 2010.06.03 11:33:40.
