data_PCOD9110968
_publ_section_title
;
Structure prediction by ZEFSAII (Michael W. Deem and Ramdas Pophale) SiO2 
 PCOD9110968
Probable space group: P -1
;
_chemical_formula_sum "Si O2"
_cell_formula_units_Z 16
_cell_length_a 22.003008
_cell_length_b 12.226012
_cell_length_c 9.971798
_cell_angle_alpha 49.076834
_cell_angle_beta 148.319850
_cell_angle_gamma 149.157145
_cell_volume 693.212922
_symmetry_space_group_name_H-M "P -1"
_symmetry_group_IT_number 2
_symmetry_cell_setting 'triclinic'
loop_
_space_group_symop_operation_xyz
x,y,z
-x,-y,-z
loop_
_atom_site_type_symbol
_atom_site_label
_atom_site_fract_x
_atom_site_fract_y
_atom_site_fract_z
Si Si1 0.314572 0.125170 0.570050
Si Si2 0.016950 0.594797 0.815860
Si Si3 0.593954 0.981413 0.911597
Si Si4 0.479023 0.328008 0.179034
Si Si5 0.618348 0.282005 0.867171
Si Si6 0.794754 0.664386 0.713651
Si Si7 0.155647 0.688113 0.539381
Si Si8 0.059759 0.924146 0.762812
O O1 0.488399 0.282736 0.676853
O O2 0.233891 0.205517 0.378230
O O3 0.188399 0.889135 0.451351
O O4 0.362634 0.091696 0.828651
O O5 0.891813 0.410322 0.617071
O O6 0.977350 0.719270 0.682501
O O7 0.000000 0.500000 0.000000
O O8 0.217098 0.790415 0.978767
O O9 0.526462 0.072267 0.768346
O O10 0.492130 0.787655 0.766592
O O11 0.623855 0.473736 0.450269
O O12 0.500000 0.500000 0.000000
O O13 0.274363 0.121579 0.011177
O O14 0.778609 0.516858 0.905557
O O15 0.684736 0.252445 0.142514
O O16 0.967025 0.831847 0.807655
O O17 0.000000 0.500000 0.500000
O O18 0.000000 0.000000 0.500000
#
# Coordination Sequence:
#
# PCOD9110968 Si02
#       8
#     2   2   2   2   2   2   2   2
#     4  11  23  44  67  95 141 188 242 282 351 432
#     4  11  23  42  69 104 141 174 233 301 347 418
#     4  10  20  42  67  99 135 179 240 288 344 436
#     4  11  22  42  70 102 137 188 226 288 368 407
#     4  11  25  43  67 100 136 185 241 293 353 419
#     4  12  25  46  67 103 151 181 241 305 342 427
#     4  11  23  44  74  95 137 192 229 288 365 419
#     4  11  24  41  70 105 141 185 237 292 356 426
#
# _framework density 23.080929999999999
#
# number of rings (size 3 to 8) (size 9 to 14) (size 15 to 20)
#    0.000    1.000    5.000    3.375    0.000    5.500 
#    0.000    1.875    0.000    0.000    0.000    0.000 
#    0.000    0.000    0.000    0.000    0.000    0.000 
#
# Total GULP energy -89504.932843 kJ/mol
# GULP energy per Si atom -5594.058303 kJ/mol
# Density = 2.302840 g / cm^3
# Si number density = 23.080930 Si / 1000 Ang^3
#
#
#
# Elastic Constant Matrix: (Units=GPa)
#
#
# Indices 1 2 3 4 5 6 
#
# 1 163.5047 79.2435 35.0962 -8.1237 0.3509 -20.3245
# 2 79.2435 147.4357 41.8563 -7.7059 -11.3043 -13.7718
# 3 35.0962 41.8563 65.0988 -0.9071 -16.1097 -12.5246
# 4 -8.1237 -7.7059 -0.9071 31.8720 7.7563 -0.7281
# 5 0.3509 -11.3043 -16.1097 7.7563 24.0177 1.5148
# 6 -20.3245 -13.7718 -12.5246 -0.7281 1.5148 67.5275
#
#
#
# Elastic Compliance Matrix: (Units=1/GPa)
#
#
# Indices 1 2 3 4 5 6 
#
# 1 0.009118 -0.004111 -0.003231 0.002523 -0.005141 0.001449
# 2 -0.004111 0.010301 -0.003871 0.000840 0.002034 0.000109
# 3 -0.003231 -0.003871 0.023825 -0.004832 0.015624 0.002254
# 4 0.002523 0.000840 -0.004832 0.035613 -0.014430 0.000742
# 5 -0.005141 0.002034 0.015624 -0.014430 0.057788 0.000313
# 6 0.001449 0.000109 0.002254 0.000742 0.000313 0.015686
#
#
# Mechanical properties :
#
#
# Convention : Reuss Voigt Hill
#
# Bulk Modulus (GPa) = 48.03425 76.49236 62.26330
# Shear Modulus (GPa) = 27.51831 39.33966 33.42899
#
# Velocity S-wave (km/s) = 3.45665 4.13294 3.80983
# Velocity P-wave (km/s) = 6.06528 7.48250 6.81085
#
# Compressibility (1/GPa) = 0.02081848
#
# Stress axis : x y z
#
# Youngs Moduli (GPa) = 109.66882 97.07817 41.97254
#
# Poissons Ratio (x) = 0.39904 0.13563
# Poissons Ratio (y) = 0.45080 0.16248
# Poissons Ratio (z) = 0.35437 0.37580
#
# Static dielectric constant tensor:
#      x y z
#    x 1.869680 -0.008120 -0.002080 
#    y -0.008120 1.900550 0.043330 
#    z -0.002080 0.043330 1.847070 
# 
# From -- ./inp_files/345984.got.cif
#   From: 2010.05.17/outbox.cif.g08.bks.cpg/sg2_173_cif.got.tgz:345984.got - 2010.06.03 11:33:40.
