data_PCOD9110046
_publ_section_title
;
Structure prediction by ZEFSAII (Michael W. Deem and Ramdas Pophale) SiO2 
 PCOD9110046
Probable space group: P -1
;
_chemical_formula_sum "Si O2"
_cell_formula_units_Z 14
_cell_length_a 8.819861
_cell_length_b 21.050707
_cell_length_c 5.142296
_cell_angle_alpha 64.545994
_cell_angle_beta 115.310107
_cell_angle_gamma 126.863805
_cell_volume 670.410800
_symmetry_space_group_name_H-M "P -1"
_symmetry_group_IT_number 2
_symmetry_cell_setting 'triclinic'
loop_
_space_group_symop_operation_xyz
x,y,z
-x,-y,-z
loop_
_atom_site_type_symbol
_atom_site_label
_atom_site_fract_x
_atom_site_fract_y
_atom_site_fract_z
Si Si1 0.949970 0.606307 0.374548
Si Si2 0.564929 0.827259 0.894309
Si Si3 0.590283 0.273203 0.523478
Si Si4 0.395174 0.007240 0.158325
Si Si5 0.722169 0.529661 0.853991
Si Si6 0.369639 0.366240 0.056771
Si Si7 0.984407 0.945962 0.838893
O O1 0.181506 0.658314 0.434690
O O2 0.859798 0.558050 0.658191
O O3 0.144277 0.457672 0.818711
O O4 0.844346 0.661090 0.166565
O O5 0.479813 0.759870 0.177628
O O6 0.435497 0.793376 0.597969
O O7 0.583210 0.905114 0.923840
O O8 0.781673 0.862546 0.871836
O O9 0.449322 0.306075 0.267170
O O10 0.500000 0.000000 0.500000
O O11 0.500000 0.000000 0.000000
O O12 0.173269 0.939812 0.042563
O O13 0.640680 0.590262 0.760094
O O14 0.534486 0.440110 0.874461
O O15 0.000000 0.000000 0.500000
O O16 0.000000 0.000000 0.000000
#
# Coordination Sequence:
#
# PCOD9110046 Si02
#       7
#     2   2   2   2   2   2   2
#     4  10  21  40  59  91 122 167 214 269 302 370
#     4  11  25  44  59  95 128 161 204 245 316 389
#     4  12  25  40  62  89 138 168 198 255 322 394
#     4  11  22  42  69  96 119 155 210 265 302 357
#     4   9  20  40  64  87 123 157 228 277 289 363
#     4   9  23  39  64  89 123 168 216 260 321 358
#     4  10  20  41  69  86 122 160 204 254 297 368
#
# _framework density 20.882718000000001
#
# number of rings (size 3 to 8) (size 9 to 14) (size 15 to 20)
#    0.857    0.857    0.000    5.571    2.000    1.143 
#    7.714    0.000    0.000    0.000    0.000    0.000 
#    0.000    0.000    0.000    0.000    0.000    0.000 
#
# Total GULP energy -77941.682575 kJ/mol
# GULP energy per Si atom -5567.263041 kJ/mol
# Density = 2.083519 g / cm^3
# Si number density = 20.882718 Si / 1000 Ang^3
#
#
#
# Elastic Constant Matrix: (Units=GPa)
#
#
# Indices 1 2 3 4 5 6 
#
# 1 104.5175 29.0920 64.8703 -1.9132 -25.3603 30.3642
# 2 29.0920 60.0117 22.6270 12.0725 -8.0812 16.7461
# 3 64.8703 22.6270 100.3695 15.8099 -32.5061 10.8923
# 4 -1.9132 12.0725 15.8099 29.8042 -4.4611 -1.0702
# 5 -25.3603 -8.0812 -32.5061 -4.4611 48.3491 -0.1731
# 6 30.3642 16.7461 10.8923 -1.0702 -0.1731 28.7034
#
#
#
# Elastic Compliance Matrix: (Units=1/GPa)
#
#
# Indices 1 2 3 4 5 6 
#
# 1 0.026762 -0.003333 -0.014516 0.010729 0.004637 -0.020429
# 2 -0.003333 0.023348 -0.000043 -0.009847 0.001179 -0.010439
# 3 -0.014516 -0.000043 0.022618 -0.011705 0.006528 0.006401
# 4 0.010729 -0.009847 -0.011705 0.044489 0.000219 0.000497
# 5 0.004637 0.001179 0.006528 0.000219 0.027693 -0.007896
# 6 -0.020429 -0.010439 0.006401 0.000497 -0.007896 0.060082
#
#
# Mechanical properties :
#
#
# Convention : Reuss Voigt Hill
#
# Bulk Modulus (GPa) = 27.06911 55.34192 41.20552
# Shear Modulus (GPa) = 19.75550 31.25865 25.50707
#
# Velocity S-wave (km/s) = 3.07908 3.87313 3.49871
# Velocity P-wave (km/s) = 5.06276 6.82352 6.00799
#
# Compressibility (1/GPa) = 0.03694248
#
# Stress axis : x y z
#
# Youngs Moduli (GPa) = 37.36645 42.82962 44.21161
#
# Poissons Ratio (x) = 0.14277 0.64179
# Poissons Ratio (y) = 0.12456 0.00192
# Poissons Ratio (z) = 0.54242 0.00186
#
# Static dielectric constant tensor:
#      x y z
#    x 1.548980 -0.088250 -0.120990 
#    y -0.088250 1.769060 -0.060160 
#    z -0.120990 -0.060160 1.674640 
# 
# From -- ./inp_files/54634.got.cif
#   From: 2010.05.17/outbox.cif.g08.bks.cpg/sg2_28_cif.got.tgz:54634.got - 2010.06.03 11:33:40.
