data_PCOD9110176
_publ_section_title
;
Structure prediction by ZEFSAII (Michael W. Deem and Ramdas Pophale) SiO2 
 PCOD9110176
Probable space group: P -1
;
_chemical_formula_sum "Si O2"
_cell_formula_units_Z 16
_cell_length_a 13.820466
_cell_length_b 17.568538
_cell_length_c 8.591485
_cell_angle_alpha 136.762813
_cell_angle_beta 148.612302
_cell_angle_gamma 44.851663
_cell_volume 721.778727
_symmetry_space_group_name_H-M "P -1"
_symmetry_group_IT_number 2
_symmetry_cell_setting 'triclinic'
loop_
_space_group_symop_operation_xyz
x,y,z
-x,-y,-z
loop_
_atom_site_type_symbol
_atom_site_label
_atom_site_fract_x
_atom_site_fract_y
_atom_site_fract_z
Si Si1 0.490879 0.268993 0.274292
Si Si2 0.430532 0.666389 0.858283
Si Si3 0.123671 0.033492 0.858898
Si Si4 0.806214 0.516244 0.666909
Si Si5 0.700546 0.498870 0.178052
Si Si6 0.143416 0.763068 0.069889
Si Si7 0.456931 0.033517 0.810649
Si Si8 0.227913 0.887740 0.081440
O O1 0.572972 0.314852 0.301699
O O2 0.349019 0.373776 0.319633
O O3 0.667181 0.215481 0.551563
O O4 0.391106 0.171059 0.932629
O O5 0.273365 0.596533 0.582022
O O6 0.631098 0.587041 0.075583
O O7 0.387206 0.786914 0.067547
O O8 0.038374 0.166785 0.980356
O O9 0.000000 0.000000 0.500000
O O10 0.342575 0.002511 0.060140
O O11 0.110338 0.959190 0.884878
O O12 0.828520 0.533390 0.539286
O O13 0.000000 0.500000 0.000000
O O14 0.500000 0.500000 0.000000
O O15 0.804790 0.373405 0.075723
O O16 0.125889 0.818675 0.957357
O O17 0.316497 0.972184 0.434904
O O18 0.500000 0.000000 0.000000
#
# Coordination Sequence:
#
# PCOD9110176 Si02
#       8
#     2   2   2   2   2   2   2   2
#     4  12  23  45  69  98 140 185 231 281 351 412
#     4  11  22  43  75  93 135 190 227 274 350 417
#     4  12  25  44  66 105 138 180 240 284 340 415
#     4  11  24  44  68 104 133 171 237 290 343 408
#     4  10  20  41  70  95 131 184 225 270 348 417
#     4  12  22  43  72  99 138 185 232 284 344 417
#     4  12  26  45  69 100 141 186 229 287 347 408
#     4  12  23  45  70 100 141 186 227 285 349 412
#
# _framework density 22.167459000000001
#
# number of rings (size 3 to 8) (size 9 to 14) (size 15 to 20)
#    0.000    0.500    8.750    1.125    0.000    1.000 
#    6.750    0.625    0.000    0.000    0.000    0.000 
#    0.000    0.000    0.000    0.000    0.000    0.000 
#
# Total GULP energy -89478.448622 kJ/mol
# GULP energy per Si atom -5592.403039 kJ/mol
# Density = 2.211700 g / cm^3
# Si number density = 22.167459 Si / 1000 Ang^3
#
#
#
# Elastic Constant Matrix: (Units=GPa)
#
#
# Indices 1 2 3 4 5 6 
#
# 1 67.8686 35.9837 16.6634 -1.0350 -28.3617 -0.5741
# 2 35.9837 122.3245 30.7882 16.1244 -23.2457 -8.3609
# 3 16.6634 30.7882 99.5801 0.1029 -31.2396 8.4026
# 4 -1.0350 16.1244 0.1029 38.5944 0.8676 -23.7578
# 5 -28.3617 -23.2457 -31.2396 0.8676 28.7914 1.8628
# 6 -0.5741 -8.3609 8.4026 -23.7578 1.8628 39.8822
#
#
#
# Elastic Compliance Matrix: (Units=1/GPa)
#
#
# Indices 1 2 3 4 5 6 
#
# 1 0.029110 -0.004223 0.007247 -0.000652 0.033404 -0.003941
# 2 -0.004223 0.011083 -0.001663 -0.005201 0.003181 -0.000634
# 3 0.007247 -0.001663 0.018296 -0.004787 0.026322 -0.008180
# 4 -0.000652 -0.005201 -0.004787 0.045314 -0.013180 0.027518
# 5 0.033404 0.003181 0.026322 -0.013180 0.100259 -0.016932
# 6 -0.003941 -0.000634 -0.008180 0.027518 -0.016932 0.043791
#
#
# Mechanical properties :
#
#
# Convention : Reuss Voigt Hill
#
# Bulk Modulus (GPa) = 16.33697 50.73821 33.53759
# Shear Modulus (GPa) = 18.82995 35.20945 27.01970
#
# Velocity S-wave (km/s) = 2.91768 3.98972 3.49505
# Velocity P-wave (km/s) = 4.32854 6.64546 5.60796
#
# Compressibility (1/GPa) = 0.06121088
#
# Stress axis : x y z
#
# Youngs Moduli (GPa) = 34.35262 90.23210 54.65601
#
# Poissons Ratio (x) = 0.38103 -0.39609
# Poissons Ratio (y) = 0.14506 0.09089
# Poissons Ratio (z) = -0.24895 0.15005
#
# Static dielectric constant tensor:
#      x y z
#    x 1.835730 0.015040 0.000880 
#    y 0.015040 1.817490 0.000900 
#    z 0.000880 0.000900 1.836030 
# 
# From -- ./inp_files/274350.got.cif
#   From: 2010.05.17/outbox.cif.g08.bks.cpg/sg2_138_cif.got.tgz:274350.got - 2010.06.03 11:33:40.
