data_PCOD9110819
_publ_section_title
;
Structure prediction by ZEFSAII (Michael W. Deem and Ramdas Pophale) SiO2 
 PCOD9110819
Probable space group: P -1
;
_chemical_formula_sum "Si O2"
_cell_formula_units_Z 14
_cell_length_a 16.133044
_cell_length_b 7.042727
_cell_length_c 8.588257
_cell_angle_alpha 93.268316
_cell_angle_beta 93.444321
_cell_angle_gamma 38.142749
_cell_volume 601.514237
_symmetry_space_group_name_H-M "P -1"
_symmetry_group_IT_number 2
_symmetry_cell_setting 'triclinic'
loop_
_space_group_symop_operation_xyz
x,y,z
-x,-y,-z
loop_
_atom_site_type_symbol
_atom_site_label
_atom_site_fract_x
_atom_site_fract_y
_atom_site_fract_z
Si Si1 0.076028 0.076591 0.623313
Si Si2 0.389875 0.242782 0.868881
Si Si3 0.620523 0.511316 0.409547
Si Si4 0.280301 0.763818 0.078684
Si Si5 0.121647 0.320401 0.886936
Si Si6 0.025224 0.117975 0.272801
Si Si7 0.464234 0.745791 0.707059
O O1 0.222531 0.720244 0.589051
O O2 0.990378 0.079151 0.712776
O O3 0.098151 0.223729 0.733314
O O4 0.014986 0.217124 0.452225
O O5 0.446675 0.264770 0.733556
O O6 0.365545 0.080718 0.781711
O O7 0.284907 0.572875 0.955206
O O8 0.500000 0.000000 0.000000
O O9 0.547856 0.684819 0.570424
O O10 0.609439 0.305474 0.370222
O O11 0.423737 0.518455 0.167423
O O12 0.165232 0.930289 0.201373
O O13 0.246985 0.010231 0.983888
O O14 0.090489 0.587764 0.835831
O O15 0.000000 0.500000 0.000000
#
# Coordination Sequence:
#
# PCOD9110819 Si02
#       7
#     2   2   2   2   2   2   2
#     4  11  22  43  66  93 126 165 215 261 312 378
#     4  10  22  41  63  95 128 164 208 258 317 376
#     4  11  22  43  66  93 126 165 215 261 312 378
#     4  10  20  42  66  94 132 164 206 264 312 380
#     4  10  22  41  63  95 128 164 208 258 317 376
#     4  10  23  42  68  91 127 168 211 264 309 374
#     4  10  23  42  68  91 127 168 211 264 309 374
#
# _framework density 23.274594
#
# number of rings (size 3 to 8) (size 9 to 14) (size 15 to 20)
#    0.000    1.714    2.857    0.857    0.000    5.714 
#    5.143    4.286    0.000    0.000    0.000    0.000 
#    0.000    0.000    0.000    0.000    0.000    0.000 
#
# Total GULP energy -78238.921328 kJ/mol
# GULP energy per Si atom -5588.494381 kJ/mol
# Density = 2.322162 g / cm^3
# Si number density = 23.274594 Si / 1000 Ang^3
#
#
#
# Elastic Constant Matrix: (Units=GPa)
#
#
# Indices 1 2 3 4 5 6 
#
# 1 37.5531 -3.3293 0.3449 1.6896 -12.4963 -4.0025
# 2 -3.3293 78.9450 33.9790 -5.1592 -18.4813 -4.8665
# 3 0.3449 33.9790 107.6666 -17.6718 -16.3077 6.1789
# 4 1.6896 -5.1592 -17.6718 43.1995 11.5263 -0.5375
# 5 -12.4963 -18.4813 -16.3077 11.5263 29.6140 -4.3260
# 6 -4.0025 -4.8665 6.1789 -0.5375 -4.3260 32.2464
#
#
#
# Elastic Compliance Matrix: (Units=1/GPa)
#
#
# Indices 1 2 3 4 5 6 
#
# 1 0.036425 0.007389 -0.000507 -0.006963 0.023698 0.008797
# 2 0.007389 0.018546 -0.004668 -0.003783 0.014543 0.006498
# 3 -0.000507 -0.004668 0.011774 0.003857 0.001452 -0.002764
# 4 -0.006963 -0.003783 0.003857 0.028446 -0.014785 -0.003684
# 5 0.023698 0.014543 0.001452 -0.014785 0.061272 0.012832
# 6 0.008797 0.006498 -0.002764 -0.003684 0.012832 0.035274
#
#
# Mechanical properties :
#
#
# Convention : Reuss Voigt Hill
#
# Bulk Modulus (GPa) = 14.04996 31.79488 22.92242
# Shear Modulus (GPa) = 23.69304 33.88998 28.79151
#
# Velocity S-wave (km/s) = 3.19404 3.82002 3.52097
# Velocity P-wave (km/s) = 4.43308 5.75736 5.13806
#
# Compressibility (1/GPa) = 0.07117460
#
# Stress axis : x y z
#
# Youngs Moduli (GPa) = 27.45341 53.92092 84.93084
#
# Poissons Ratio (x) = -0.39844 0.04306
# Poissons Ratio (y) = -0.20286 0.39643
# Poissons Ratio (z) = 0.01392 0.25168
#
# Static dielectric constant tensor:
#      x y z
#    x 1.946240 -0.016760 -0.006050 
#    y -0.016760 1.883360 -0.004800 
#    z -0.006050 -0.004800 1.862290 
# 
# From -- ./inp_files/100593.got.cif
#   From: 2010.05.17/outbox.cif.g08.bks.cpg/sg2_51_cif.got.tgz:100593.got - 2010.06.03 11:33:40.
