data_PCOD9110612
_publ_section_title
;
Structure prediction by ZEFSAII (Michael W. Deem and Ramdas Pophale) SiO2 
 PCOD9110612
Probable space group: P -1
;
_chemical_formula_sum "Si O2"
_cell_formula_units_Z 15
_cell_length_a 17.735741
_cell_length_b 14.541859
_cell_length_c 11.925912
_cell_angle_alpha 29.986042
_cell_angle_beta 52.916333
_cell_angle_gamma 32.843703
_cell_volume 740.241940
_symmetry_space_group_name_H-M "P -1"
_symmetry_group_IT_number 2
_symmetry_cell_setting 'triclinic'
loop_
_space_group_symop_operation_xyz
x,y,z
-x,-y,-z
loop_
_atom_site_type_symbol
_atom_site_label
_atom_site_fract_x
_atom_site_fract_y
_atom_site_fract_z
Si Si1 0.738369 0.479506 0.036050
Si Si2 0.522066 0.347254 0.029729
Si Si3 0.357445 0.323791 0.847249
Si Si4 0.926387 0.174511 0.581226
Si Si5 0.782084 0.700124 0.565018
Si Si6 0.967974 0.404486 0.493803
Si Si7 0.254696 0.909429 0.094022
Si Si8 0.500000 0.500000 0.500000
O O1 0.655864 0.700684 0.983635
O O2 0.633409 0.479362 0.077758
O O3 0.767611 0.581735 0.804090
O O4 0.905553 0.143410 0.282806
O O5 0.616342 0.015205 0.328967
O O6 0.500000 0.500000 0.000000
O O7 0.630906 0.287942 0.907038
O O8 0.194735 0.545826 0.692588
O O9 0.393160 0.483975 0.637646
O O10 0.500000 0.000000 0.000000
O O11 0.961537 0.257907 0.562918
O O12 0.843588 0.120925 0.761523
O O13 0.896288 0.450161 0.628359
O O14 0.862762 0.766848 0.460017
O O15 0.859321 0.743655 0.194831
O O16 0.366764 0.779672 0.234347
#
# Coordination Sequence:
#
# PCOD9110612 Si02
#       8
#     2   2   2   2   2   2   2   1
#     4  12  24  45  65 102 137 166 227 283 322 394
#     4  11  24  40  63  96 137 176 221 269 331 393
#     4  11  25  45  70  98 130 178 221 270 340 395
#     4  11  24  40  73  97 130 173 221 273 335 390
#     4  10  23  40  65  93 134 177 220 270 323 393
#     4  10  21  43  64  95 133 173 220 266 328 390
#     4  10  21  41  65  95 129 174 221 267 323 400
#     4  10  20  42  64  94 124 170 216 270 318 394
#
# _framework density 20.263646999999999
#
# number of rings (size 3 to 8) (size 9 to 14) (size 15 to 20)
#    0.000    1.333    2.667    2.400    3.733    2.667 
#    2.400    0.667    0.000    0.000    0.000    0.000 
#    0.000    0.000    0.000    0.000    0.000    0.000 
#
# Total GULP energy -83553.832543 kJ/mol
# GULP energy per Si atom -5570.255503 kJ/mol
# Density = 2.021753 g / cm^3
# Si number density = 20.263647 Si / 1000 Ang^3
#
#
#
# Elastic Constant Matrix: (Units=GPa)
#
#
# Indices 1 2 3 4 5 6 
#
# 1 88.4900 36.0434 -3.8484 -8.3209 14.1778 -1.5835
# 2 36.0434 89.2924 21.6411 -3.5837 3.1543 5.5852
# 3 -3.8484 21.6411 52.6577 0.4847 24.4519 3.1709
# 4 -8.3209 -3.5837 0.4847 26.4996 -7.8907 8.6701
# 5 14.1778 3.1543 24.4519 -7.8907 31.6365 -6.7194
# 6 -1.5835 5.5852 3.1709 8.6701 -6.7194 29.0909
#
#
#
# Elastic Compliance Matrix: (Units=1/GPa)
#
#
# Indices 1 2 3 4 5 6 
#
# 1 0.019549 -0.010783 0.015620 -0.000721 -0.020599 -0.003111
# 2 -0.010783 0.019133 -0.016510 0.004484 0.016822 0.000088
# 3 0.015620 -0.016510 0.050152 -0.009490 -0.048573 -0.009838
# 4 -0.000721 0.004484 -0.009490 0.046493 0.016713 -0.009862
# 5 -0.020599 0.016822 -0.048573 0.016713 0.084144 0.015398
# 6 -0.003111 0.000088 -0.009838 -0.009862 0.015398 0.041757
#
#
# Mechanical properties :
#
#
# Convention : Reuss Voigt Hill
#
# Bulk Modulus (GPa) = 15.27004 37.56802 26.41903
# Shear Modulus (GPa) = 16.31831 29.21899 22.76865
#
# Velocity S-wave (km/s) = 2.84086 3.80141 3.35568
# Velocity P-wave (km/s) = 4.27933 6.15203 5.29906
#
# Compressibility (1/GPa) = 0.06548771
#
# Stress axis : x y z
#
# Youngs Moduli (GPa) = 51.15327 52.26456 19.93938
#
# Poissons Ratio (x) = 0.56359 -0.31145
# Poissons Ratio (y) = 0.55161 0.32919
# Poissons Ratio (z) = -0.79899 0.86287
#
# Static dielectric constant tensor:
#      x y z
#    x 1.744970 -0.009950 0.054880 
#    y -0.009950 1.735270 -0.017450 
#    z 0.054880 -0.017450 1.730200 
# 
# From -- ./inp_files/180831.got.cif
#   From: 2010.05.17/outbox.cif.g08.bks.cpg/sg2_91_cif.got.tgz:180831.got - 2010.06.03 11:33:40.
