data_PCOD9110030
_publ_section_title
;
Structure prediction by ZEFSAII (Michael W. Deem and Ramdas Pophale) SiO2 
 PCOD9110030
Probable space group: P -1
;
_chemical_formula_sum "Si O2"
_cell_formula_units_Z 16
_cell_length_a 8.161591
_cell_length_b 10.788930
_cell_length_c 17.914990
_cell_angle_alpha 48.772523
_cell_angle_beta 81.486292
_cell_angle_gamma 44.210652
_cell_volume 650.100042
_symmetry_space_group_name_H-M "P -1"
_symmetry_group_IT_number 2
_symmetry_cell_setting 'triclinic'
loop_
_space_group_symop_operation_xyz
x,y,z
-x,-y,-z
loop_
_atom_site_type_symbol
_atom_site_label
_atom_site_fract_x
_atom_site_fract_y
_atom_site_fract_z
Si Si1 0.763257 0.886621 0.438071
Si Si2 0.324745 0.663248 0.303438
Si Si3 0.653412 0.724518 0.303407
Si Si4 0.812141 0.579497 0.184457
Si Si5 0.314867 0.953135 0.454187
Si Si6 0.805972 0.615681 0.895603
Si Si7 0.655367 0.266996 0.893652
Si Si8 0.655597 0.236390 0.176089
O O1 0.516727 0.948480 0.433853
O O2 0.082212 0.533937 0.555318
O O3 0.772516 0.976075 0.480759
O O4 0.695566 0.067534 0.305602
O O5 0.473434 0.707167 0.305744
O O6 0.493514 0.368473 0.446624
O O7 0.369535 0.618388 0.229241
O O8 0.971904 0.970208 0.219760
O O9 0.782748 0.672024 0.234082
O O10 0.441855 0.036873 0.226656
O O11 0.489580 0.791363 0.091328
O O12 0.990412 0.542771 0.128736
O O13 0.014334 0.244307 0.313386
O O14 0.625035 0.595495 0.920085
O O15 0.000000 0.500000 0.000000
O O16 0.448617 0.514674 0.873409
O O17 0.000000 0.000000 0.000000
#
# Coordination Sequence:
#
# PCOD9110030 Si02
#       8
#     2   2   2   2   2   2   2   2
#     4  10  21  40  68 101 141 168 218 275 337 402
#     4  11  25  42  72 101 136 177 219 273 339 401
#     4  10  25  44  66 101 137 178 218 274 336 397
#     4  10  24  46  70  97 136 176 219 281 332 391
#     4  10  20  41  69 102 138 170 218 274 338 403
#     4  12  28  45  67  98 136 177 231 273 328 398
#     4  11  27  47  69  95 136 181 229 272 328 393
#     4  12  26  43  71 103 131 177 224 276 336 393
#
# _framework density 24.611595999999999
#
# number of rings (size 3 to 8) (size 9 to 14) (size 15 to 20)
#    0.000    1.250    2.500    1.500    8.750    5.000 
#    0.000    0.000    0.000    0.000    0.000    0.000 
#    0.000    0.000    0.000    0.000    0.000    0.000 
#
# Total GULP energy -89682.703333 kJ/mol
# GULP energy per Si atom -5605.168958 kJ/mol
# Density = 2.455558 g / cm^3
# Si number density = 24.611596 Si / 1000 Ang^3
#
#
#
# Elastic Constant Matrix: (Units=GPa)
#
#
# Indices 1 2 3 4 5 6 
#
# 1 52.7254 31.6857 15.9310 2.1574 25.3658 -4.4841
# 2 31.6857 133.6178 29.6986 -5.8932 -5.3513 -11.2246
# 3 15.9310 29.6986 74.8930 -9.3298 16.3192 1.4682
# 4 2.1574 -5.8932 -9.3298 42.1510 2.5556 -2.3545
# 5 25.3658 -5.3513 16.3192 2.5556 39.2837 -5.5066
# 6 -4.4841 -11.2246 1.4682 -2.3545 -5.5066 42.9768
#
#
#
# Elastic Compliance Matrix: (Units=1/GPa)
#
#
# Indices 1 2 3 4 5 6 
#
# 1 0.037493 -0.010662 0.001934 -0.001499 -0.026710 -0.002443
# 2 -0.010662 0.011850 -0.004804 0.000675 0.010953 0.003587
# 3 0.001934 -0.004804 0.017469 0.003537 -0.009770 -0.002708
# 4 -0.001499 0.000675 0.003537 0.024849 -0.001883 0.001019
# 5 -0.026710 0.010953 -0.009770 -0.001883 0.049304 0.006622
# 6 -0.002443 0.003587 -0.002708 0.001019 0.006622 0.024947
#
#
# Mechanical properties :
#
#
# Convention : Reuss Voigt Hill
#
# Bulk Modulus (GPa) = 25.15886 46.20742 35.68314
# Shear Modulus (GPa) = 24.24542 37.14369 30.69455
#
# Velocity S-wave (km/s) = 3.14207 3.88905 3.53534
# Velocity P-wave (km/s) = 4.83818 6.24353 5.58524
#
# Compressibility (1/GPa) = 0.03974743
#
# Stress axis : x y z
#
# Youngs Moduli (GPa) = 26.67182 84.38898 57.24590
#
# Poissons Ratio (x) = 0.89974 -0.11071
# Poissons Ratio (y) = 0.28437 0.27501
# Poissons Ratio (z) = -0.05158 0.40540
#
# Static dielectric constant tensor:
#      x y z
#    x 1.930980 -0.006260 -0.006480 
#    y -0.006260 1.942320 0.001780 
#    z -0.006480 0.001780 1.999500 
# 
# From -- ./inp_files/238708.got.cif
#   From: 2010.05.17/outbox.cif.g08.bks.cpg/sg2_120_cif.got.tgz:238708.got - 2010.06.03 11:33:40.
