data_PCOD9110108
_publ_section_title
;
Structure prediction by ZEFSAII (Michael W. Deem and Ramdas Pophale) SiO2 
 PCOD9110108
Probable space group: P -1
;
_chemical_formula_sum "Si O2"
_cell_formula_units_Z 14
_cell_length_a 12.789917
_cell_length_b 8.964151
_cell_length_c 9.425411
_cell_angle_alpha 123.271471
_cell_angle_beta 44.088993
_cell_angle_gamma 129.502617
_cell_volume 571.615821
_symmetry_space_group_name_H-M "P -1"
_symmetry_group_IT_number 2
_symmetry_cell_setting 'triclinic'
loop_
_space_group_symop_operation_xyz
x,y,z
-x,-y,-z
loop_
_atom_site_type_symbol
_atom_site_label
_atom_site_fract_x
_atom_site_fract_y
_atom_site_fract_z
Si Si1 0.411656 0.628013 0.091232
Si Si2 0.992171 0.522614 0.188850
Si Si3 0.112226 0.917371 0.435569
Si Si4 0.359863 0.712651 0.600330
Si Si5 0.907781 0.707317 0.799445
Si Si6 0.356221 0.116392 0.790343
Si Si7 0.512284 0.820230 0.810051
O O1 0.220347 0.505841 0.247446
O O2 0.512922 0.830609 0.178262
O O3 0.500000 0.500000 0.000000
O O4 0.448616 0.652529 0.902932
O O5 0.800299 0.481910 0.381402
O O6 0.108730 0.736070 0.247872
O O7 0.030352 0.360503 0.154412
O O8 0.000000 0.500000 0.000000
O O9 0.036309 0.826274 0.614850
O O10 0.293383 0.090404 0.368276
O O11 0.000000 0.000000 0.500000
O O12 0.529384 0.752159 0.377297
O O13 0.400059 0.737849 0.739770
O O14 0.312922 0.890369 0.688856
O O15 0.796704 0.828531 0.003334
O O16 0.500000 0.000000 0.000000
#
# Coordination Sequence:
#
# PCOD9110108 Si02
#       7
#     2   2   2   2   2   2   2
#     4  10  20  41  69  97 134 185 235 285 346 428
#     4  12  28  47  72 107 153 187 238 307 365 425
#     4  12  28  48  75 113 144 190 245 303 360 433
#     4  11  25  43  70 105 146 186 240 294 368 426
#     4  11  25  46  76 102 146 192 246 294 368 425
#     4  10  23  42  71 103 140 186 241 298 353 435
#     4  12  24  44  74 101 141 190 241 288 356 433
#
# _framework density 24.491975
#
# number of rings (size 3 to 8) (size 9 to 14) (size 15 to 20)
#    0.000    0.857    1.429    5.571    6.000    2.857 
#    0.000    4.286    0.000    0.000    0.000    0.000 
#    0.000    0.000    0.000    0.000    0.000    0.000 
#
# Total GULP energy -78337.994712 kJ/mol
# GULP energy per Si atom -5595.571051 kJ/mol
# Density = 2.443623 g / cm^3
# Si number density = 24.491975 Si / 1000 Ang^3
#
#
#
# Elastic Constant Matrix: (Units=GPa)
#
#
# Indices 1 2 3 4 5 6 
#
# 1 107.3165 17.9686 38.8654 -20.8126 11.2669 -15.2506
# 2 17.9686 71.7719 15.3593 -13.1537 -2.4914 -7.2186
# 3 38.8654 15.3593 113.9797 -20.0423 18.3842 -19.5101
# 4 -20.8126 -13.1537 -20.0423 48.1614 -4.5055 -2.4812
# 5 11.2669 -2.4914 18.3842 -4.5055 44.4503 -15.6607
# 6 -15.2506 -7.2186 -19.5101 -2.4812 -15.6607 53.1766
#
#
#
# Elastic Compliance Matrix: (Units=1/GPa)
#
#
# Indices 1 2 3 4 5 6 
#
# 1 0.011594 -0.001513 -0.002639 0.003526 -0.000847 0.002067
# 2 -0.001513 0.015509 -0.001015 0.003544 0.002843 0.002301
# 3 -0.002639 -0.001015 0.011253 0.003132 -0.002827 0.002547
# 4 0.003526 0.003544 0.003132 0.024983 0.002101 0.004426
# 5 -0.000847 0.002843 -0.002827 0.002101 0.026748 0.007081
# 6 0.002067 0.002301 0.002547 0.004426 0.007081 0.022937
#
#
# Mechanical properties :
#
#
# Convention : Reuss Voigt Hill
#
# Bulk Modulus (GPa) = 35.68857 48.60607 42.14732
# Shear Modulus (GPa) = 37.67934 43.88265 40.78099
#
# Velocity S-wave (km/s) = 3.92655 4.23746 4.08496
# Velocity P-wave (km/s) = 5.92960 6.62044 6.28452
#
# Compressibility (1/GPa) = 0.02802018
#
# Stress axis : x y z
#
# Youngs Moduli (GPa) = 86.25378 64.47971 88.86531
#
# Poissons Ratio (x) = 0.09757 0.23453
# Poissons Ratio (y) = 0.13051 0.09023
# Poissons Ratio (z) = 0.22763 0.06547
#
# Static dielectric constant tensor:
#      x y z
#    x 1.884880 0.092180 -0.059460 
#    y 0.092180 1.976960 0.055200 
#    z -0.059460 0.055200 1.936390 
# 
# From -- ./inp_files/244852.got.cif
#   From: 2010.05.17/outbox.cif.g08.bks.cpg/sg2_123_cif.got.tgz:244852.got - 2010.06.03 11:33:40.
