data_PCOD9110654
_publ_section_title
;
Structure prediction by ZEFSAII (Michael W. Deem and Ramdas Pophale) SiO2 
 PCOD9110654
Probable space group: P -1
;
_chemical_formula_sum "Si O2"
_cell_formula_units_Z 16
_cell_length_a 21.859972
_cell_length_b 27.665264
_cell_length_c 6.667009
_cell_angle_alpha 96.753321
_cell_angle_beta 81.238236
_cell_angle_gamma 169.213252
_cell_volume 734.517130
_symmetry_space_group_name_H-M "P -1"
_symmetry_group_IT_number 2
_symmetry_cell_setting 'triclinic'
loop_
_space_group_symop_operation_xyz
x,y,z
-x,-y,-z
loop_
_atom_site_type_symbol
_atom_site_label
_atom_site_fract_x
_atom_site_fract_y
_atom_site_fract_z
Si Si1 0.331783 0.886491 0.325624
Si Si2 0.189446 0.968697 0.656619
Si Si3 0.290182 0.553549 0.381982
Si Si4 0.763764 0.615050 0.379845
Si Si5 0.011023 0.747162 0.953098
Si Si6 0.314403 0.332249 0.195711
Si Si7 0.216951 0.144510 0.638220
Si Si8 0.296371 0.767153 0.016970
O O1 0.210250 0.744278 0.202057
O O2 0.026489 0.684944 0.437129
O O3 0.500000 0.000000 0.500000
O O4 0.598984 0.122817 0.180234
O O5 0.098288 0.860898 0.824630
O O6 0.131812 0.901882 0.432119
O O7 0.931788 0.814567 0.695201
O O8 0.548929 0.270096 0.660810
O O9 0.570347 0.739644 0.450513
O O10 0.194208 0.449311 0.179445
O O11 0.590187 0.526433 0.310778
O O12 0.530306 0.423496 0.599711
O O13 0.797420 0.601175 0.178421
O O14 0.361211 0.993683 0.962023
O O15 0.500000 0.500000 0.000000
O O16 0.059996 0.088927 0.177454
O O17 0.000000 0.000000 0.500000
O O18 0.000000 0.500000 0.000000
#
# Coordination Sequence:
#
# PCOD9110654 Si02
#       8
#     2   2   2   2   2   2   2   2
#     4  11  25  49  71 101 143 182 224 289 348 414
#     4  11  25  43  69 101 137 184 231 283 343 407
#     4  11  24  46  68 100 142 182 229 281 348 407
#     4  11  22  43  68  97 140 183 235 282 340 410
#     4  12  25  44  70 103 138 179 232 287 342 414
#     4  10  20  42  65 102 141 179 231 288 338 405
#     4   9  20  40  68  97 136 185 226 277 341 400
#     4  11  28  45  73 107 136 177 233 282 349 418
#
# _framework density 21.783017999999998
#
# number of rings (size 3 to 8) (size 9 to 14) (size 15 to 20)
#    0.000    1.250    3.750    1.125    3.500    0.500 
#    4.500   12.500    0.000    0.000    0.000    0.000 
#    0.000    0.000    0.000    0.000    0.000    0.000 
#
# Total GULP energy -89117.083295 kJ/mol
# GULP energy per Si atom -5569.817706 kJ/mol
# Density = 2.173344 g / cm^3
# Si number density = 21.783018 Si / 1000 Ang^3
#
#
#
# Elastic Constant Matrix: (Units=GPa)
#
#
# Indices 1 2 3 4 5 6 
#
# 1 85.5366 42.3302 49.1466 8.9374 15.5955 -8.7053
# 2 42.3302 95.8607 51.1336 -4.3055 -0.2265 -31.5238
# 3 49.1466 51.1336 107.2681 -2.1826 6.9142 -24.0980
# 4 8.9374 -4.3055 -2.1826 16.1853 -2.8458 3.1511
# 5 15.5955 -0.2265 6.9142 -2.8458 47.4059 -3.6076
# 6 -8.7053 -31.5238 -24.0980 3.1511 -3.6076 61.2899
#
#
#
# Elastic Compliance Matrix: (Units=1/GPa)
#
#
# Indices 1 2 3 4 5 6 
#
# 1 0.022428 -0.007970 -0.007058 -0.016151 -0.007608 -0.003306
# 2 -0.007970 0.018579 -0.003794 0.008267 0.004275 0.006759
# 3 -0.007058 -0.003794 0.015038 0.004482 0.000590 0.002763
# 4 -0.016151 0.008267 0.004482 0.075051 0.009235 0.000405
# 5 -0.007608 0.004275 0.000590 0.009235 0.024261 0.002303
# 6 -0.003306 0.006759 0.002763 0.000405 0.002303 0.020524
#
#
# Mechanical properties :
#
#
# Convention : Reuss Voigt Hill
#
# Bulk Modulus (GPa) = 54.33877 63.76515 59.05196
# Shear Modulus (GPa) = 22.76258 34.71324 28.73791
#
# Velocity S-wave (km/s) = 3.23611 3.99631 3.63613
# Velocity P-wave (km/s) = 6.24202 7.11551 6.69303
#
# Compressibility (1/GPa) = 0.01840307
#
# Stress axis : x y z
#
# Youngs Moduli (GPa) = 44.58647 53.82484 66.49608
#
# Poissons Ratio (x) = 0.42897 0.46931
# Poissons Ratio (y) = 0.35534 0.25227
# Poissons Ratio (z) = 0.31468 0.20420
#
# Static dielectric constant tensor:
#      x y z
#    x 1.852160 -0.067380 -0.045070 
#    y -0.067380 1.904420 0.021200 
#    z -0.045070 0.021200 1.856780 
# 
# From -- ./inp_files/125352.got.cif
#   From: 2010.05.17/outbox.cif.g08.bks.cpg/sg2_63_cif.got.tgz:125352.got - 2010.06.03 11:33:40.
