data_PCOD9110494
_publ_section_title
;
Structure prediction by ZEFSAII (Michael W. Deem and Ramdas Pophale) SiO2 
 PCOD9110494
Probable space group: P -1
;
_chemical_formula_sum "Si O2"
_cell_formula_units_Z 16
_cell_length_a 9.777270
_cell_length_b 7.086780
_cell_length_c 16.446696
_cell_angle_alpha 141.590269
_cell_angle_beta 78.099238
_cell_angle_gamma 86.450544
_cell_volume 644.265073
_symmetry_space_group_name_H-M "P -1"
_symmetry_group_IT_number 2
_symmetry_cell_setting 'triclinic'
loop_
_space_group_symop_operation_xyz
x,y,z
-x,-y,-z
loop_
_atom_site_type_symbol
_atom_site_label
_atom_site_fract_x
_atom_site_fract_y
_atom_site_fract_z
Si Si1 0.253201 0.352824 0.394690
Si Si2 0.989789 0.907079 0.080798
Si Si3 0.369715 0.158028 0.153934
Si Si4 0.570021 0.250966 0.275608
Si Si5 0.074509 0.326516 0.675229
Si Si6 0.780339 0.155713 0.652878
Si Si7 0.740857 0.181209 0.084865
Si Si8 0.836323 0.017445 0.293898
O O1 0.232875 0.270691 0.275713
O O2 0.407228 0.432523 0.397246
O O3 0.141512 0.665241 0.561213
O O4 0.267473 0.035361 0.335857
O O5 0.957893 0.297498 0.212395
O O6 0.860985 0.895142 0.029784
O O7 0.967510 0.833133 0.151496
O O8 0.150803 0.730284 0.961497
O O9 0.515748 0.007185 0.143327
O O10 0.353370 0.512897 0.242729
O O11 0.351643 0.947019 0.011009
O O12 0.640879 0.399487 0.244548
O O13 0.691828 0.125490 0.288552
O O14 0.920785 0.264578 0.690347
O O15 0.162007 0.097690 0.513778
O O16 0.171460 0.187442 0.696524
#
# Coordination Sequence:
#
# PCOD9110494 Si02
#       8
#     2   2   2   2   2   2   2   2
#     4  10  22  37  63  92 121 158 194 248 307 356
#     4  10  22  39  65  88 123 160 196 251 294 366
#     4  10  21  40  63  85 124 159 197 253 287 356
#     4   9  22  40  63  84 120 165 200 249 286 357
#     4  11  22  37  62  92 128 150 194 258 298 365
#     4  11  22  37  60  97 121 154 199 243 315 356
#     4  10  20  42  63  86 119 167 206 232 303 348
#     4  11  21  40  61  95 122 153 198 247 317 347
#
# _framework density 24.834499999999998
#
# number of rings (size 3 to 8) (size 9 to 14) (size 15 to 20)
#    0.750    1.000    3.750    0.750    1.750    0.500 
#    4.500   10.000    0.000    0.000    0.000    0.000 
#    0.000    0.000    0.000    0.000    0.000    0.000 
#
# Total GULP energy -89200.304434 kJ/mol
# GULP energy per Si atom -5575.019027 kJ/mol
# Density = 2.477798 g / cm^3
# Si number density = 24.834500 Si / 1000 Ang^3
#
#
#
# Elastic Constant Matrix: (Units=GPa)
#
#
# Indices 1 2 3 4 5 6 
#
# 1 88.2938 27.8936 25.1177 -10.3831 5.8106 -10.6547
# 2 27.8936 113.1698 44.2626 -21.8595 6.5458 6.0471
# 3 25.1177 44.2626 122.1237 -19.6434 12.1857 2.1852
# 4 -10.3831 -21.8595 -19.6434 44.9550 1.4214 -1.4344
# 5 5.8106 6.5458 12.1857 1.4214 35.7895 -16.2377
# 6 -10.6547 6.0471 2.1852 -1.4344 -16.2377 34.4964
#
#
#
# Elastic Compliance Matrix: (Units=1/GPa)
#
#
# Indices 1 2 3 4 5 6 
#
# 1 0.013405 -0.002751 -0.001817 0.001095 0.001363 0.005425
# 2 -0.002751 0.011671 -0.002719 0.003813 -0.002641 -0.003808
# 3 -0.001817 -0.002719 0.010457 0.002874 -0.004027 -0.002523
# 4 0.001095 0.003813 0.002874 0.025681 -0.003334 -0.001014
# 5 0.001363 -0.002641 -0.004027 -0.003334 0.038350 0.019052
# 6 0.005425 -0.003808 -0.002523 -0.001014 0.019052 0.040417
#
#
# Mechanical properties :
#
#
# Convention : Reuss Voigt Hill
#
# Bulk Modulus (GPa) = 47.71223 57.57057 52.64140
# Shear Modulus (GPa) = 30.95180 38.13574 34.54377
#
# Velocity S-wave (km/s) = 3.53416 3.92292 3.73360
# Velocity P-wave (km/s) = 5.99229 6.61446 6.31104
#
# Compressibility (1/GPa) = 0.02095899
#
# Stress axis : x y z
#
# Youngs Moduli (GPa) = 74.59668 85.68574 95.63014
#
# Poissons Ratio (x) = 0.23569 0.17378
# Poissons Ratio (y) = 0.20519 0.26003
# Poissons Ratio (z) = 0.13556 0.23299
#
# Static dielectric constant tensor:
#      x y z
#    x 2.167080 0.042010 -0.024990 
#    y 0.042010 1.941940 -0.027140 
#    z -0.024990 -0.027140 1.986890 
# 
# From -- ./inp_files/477008.got.cif
#   From: 2010.05.17/outbox.cif.g08.bks.cpg/sg2_239_cif.got.tgz:477008.got - 2010.06.03 11:33:40.
