data_PCOD9110947
_publ_section_title
;
Structure prediction by ZEFSAII (Michael W. Deem and Ramdas Pophale) SiO2 
 PCOD9110947
Probable space group: P -1
;
_chemical_formula_sum "Si O2"
_cell_formula_units_Z 16
_cell_length_a 22.269545
_cell_length_b 18.573756
_cell_length_c 8.104128
_cell_angle_alpha 131.337681
_cell_angle_beta 36.167837
_cell_angle_gamma 157.670799
_cell_volume 693.742055
_symmetry_space_group_name_H-M "P -1"
_symmetry_group_IT_number 2
_symmetry_cell_setting 'triclinic'
loop_
_space_group_symop_operation_xyz
x,y,z
-x,-y,-z
loop_
_atom_site_type_symbol
_atom_site_label
_atom_site_fract_x
_atom_site_fract_y
_atom_site_fract_z
Si Si1 0.935545 0.572471 0.596002
Si Si2 0.413738 0.106422 0.780332
Si Si3 0.774550 0.860107 0.240844
Si Si4 0.842992 0.110081 0.655933
Si Si5 0.169416 0.726079 0.656683
Si Si6 0.196991 0.468364 0.630663
Si Si7 0.305871 0.466872 0.739465
Si Si8 0.084628 0.986765 0.176303
O O1 0.100014 0.747073 0.356063
O O2 0.815242 0.374755 0.512683
O O3 0.073407 0.666220 0.597315
O O4 0.771962 0.521119 0.933888
O O5 0.627791 0.333324 0.573440
O O6 0.376214 0.967297 0.586258
O O7 0.354645 0.052325 0.022801
O O8 0.218114 0.011717 0.001347
O O9 0.551637 0.637476 0.477312
O O10 0.795114 0.987174 0.446130
O O11 0.000000 0.000000 0.000000
O O12 0.761792 0.842213 0.045793
O O13 0.064715 0.280529 0.529995
O O14 0.990216 0.614808 0.016468
O O15 0.293854 0.507107 0.644728
O O16 0.125733 0.234780 0.779418
O O17 0.000000 0.000000 0.500000
#
# Coordination Sequence:
#
# PCOD9110947 Si02
#       8
#     2   2   2   2   2   2   2   2
#     4  10  20  42  67  95 134 172 213 278 320 377
#     4  11  21  41  63  97 133 177 216 264 323 392
#     4  12  27  43  67 100 129 168 222 275 324 383
#     4  11  23  41  64  96 138 164 217 281 318 374
#     4   9  20  42  66  94 132 176 223 260 321 390
#     4  10  22  40  68  93 133 178 215 260 327 385
#     4  11  23  46  68  93 131 175 214 266 330 391
#     4  12  24  44  69  95 130 173 218 264 328 397
#
# _framework density 23.063327000000001
#
# number of rings (size 3 to 8) (size 9 to 14) (size 15 to 20)
#    0.000    1.250    6.250    0.750    1.750    4.000 
#    2.250    3.125    0.000    0.000    0.000    0.000 
#    0.000    0.000    0.000    0.000    0.000    0.000 
#
# Total GULP energy -89470.468880 kJ/mol
# GULP energy per Si atom -5591.904305 kJ/mol
# Density = 2.301083 g / cm^3
# Si number density = 23.063327 Si / 1000 Ang^3
#
#
#
# Elastic Constant Matrix: (Units=GPa)
#
#
# Indices 1 2 3 4 5 6 
#
# 1 64.1161 -6.9196 24.1257 -13.4570 15.9077 -13.8880
# 2 -6.9196 95.8513 25.4353 -16.7995 0.3909 -5.4152
# 3 24.1257 25.4353 68.2788 -11.2163 13.0467 -1.3986
# 4 -13.4570 -16.7995 -11.2163 53.1440 -2.1191 5.6820
# 5 15.9077 0.3909 13.0467 -2.1191 40.5649 -8.8620
# 6 -13.8880 -5.4152 -1.3986 5.6820 -8.8620 29.5062
#
#
#
# Elastic Compliance Matrix: (Units=1/GPa)
#
#
# Indices 1 2 3 4 5 6 
#
# 1 0.023430 0.005311 -0.008499 0.004641 -0.004200 0.009445
# 2 0.005311 0.013402 -0.006334 0.003833 0.000944 0.004205
# 3 -0.008499 -0.006334 0.020867 0.000675 -0.004519 -0.005661
# 4 0.004641 0.003833 0.000675 0.021466 -0.001303 -0.001605
# 5 -0.004200 0.000944 -0.004519 -0.001303 0.029205 0.007005
# 6 0.009445 0.004205 -0.005661 -0.001605 0.007005 0.041253
#
#
# Mechanical properties :
#
#
# Convention : Reuss Voigt Hill
#
# Bulk Modulus (GPa) = 25.86991 34.83656 30.35323
# Shear Modulus (GPa) = 27.54048 37.01667 32.27857
#
# Velocity S-wave (km/s) = 3.45936 4.01059 3.74513
# Velocity P-wave (km/s) = 5.21512 6.04847 5.64719
#
# Compressibility (1/GPa) = 0.03865495
#
# Stress axis : x y z
#
# Youngs Moduli (GPa) = 42.68116 74.61350 47.92343
#
# Poissons Ratio (x) = -0.39625 0.40728
# Poissons Ratio (y) = -0.22666 0.30354
# Poissons Ratio (z) = 0.36273 0.47259
#
# Static dielectric constant tensor:
#      x y z
#    x 1.943950 0.036810 -0.014280 
#    y 0.036810 1.856170 -0.005040 
#    z -0.014280 -0.005040 1.821590 
# 
# From -- ./inp_files/329585.got.cif
#   From: 2010.05.17/outbox.cif.g08.bks.cpg/sg2_165_cif.got.tgz:329585.got - 2010.06.03 11:33:40.
