data_PCOD9110220
_publ_section_title
;
Structure prediction by ZEFSAII (Michael W. Deem and Ramdas Pophale) SiO2 
 PCOD9110220
Probable space group: P -1
;
_chemical_formula_sum "Si O2"
_cell_formula_units_Z 16
_cell_length_a 11.305383
_cell_length_b 9.604353
_cell_length_c 21.441509
_cell_angle_alpha 34.128347
_cell_angle_beta 148.377565
_cell_angle_gamma 132.500565
_cell_volume 681.464835
_symmetry_space_group_name_H-M "P -1"
_symmetry_group_IT_number 2
_symmetry_cell_setting 'triclinic'
loop_
_space_group_symop_operation_xyz
x,y,z
-x,-y,-z
loop_
_atom_site_type_symbol
_atom_site_label
_atom_site_fract_x
_atom_site_fract_y
_atom_site_fract_z
Si Si1 0.340610 0.348522 0.309975
Si Si2 0.331305 0.544622 0.850193
Si Si3 0.192293 0.863000 0.092436
Si Si4 0.864408 0.492018 0.620362
Si Si5 0.355782 0.994405 0.340181
Si Si6 0.202293 0.364900 0.600533
Si Si7 0.487985 0.059082 0.045231
Si Si8 0.434334 0.048551 0.672304
O O1 0.169017 0.572784 0.175896
O O2 0.422938 0.137568 0.475622
O O3 0.575854 0.477154 0.354083
O O4 0.258207 0.207885 0.264464
O O5 0.081378 0.460015 0.773186
O O6 0.287258 0.835782 0.708050
O O7 0.500000 0.500000 0.000000
O O8 0.455705 0.357264 0.925271
O O9 0.410485 0.879890 0.228036
O O10 0.276547 0.968219 0.024677
O O11 0.000000 0.000000 0.000000
O O12 0.791610 0.228450 0.662861
O O13 0.887571 0.630373 0.512716
O O14 0.684011 0.687017 0.501385
O O15 0.424266 0.088540 0.269179
O O16 0.000000 0.500000 0.500000
O O17 0.292165 0.091949 0.767986
O O18 0.500000 0.000000 0.000000
#
# Coordination Sequence:
#
# PCOD9110220 Si02
#       8
#     2   2   2   2   2   2   2   2
#     4   9  21  44  65 104 145 178 249 304 360 443
#     4  12  26  45  67 104 143 192 247 302 374 445
#     4  11  24  45  72 102 152 197 239 308 369 440
#     4  11  23  44  71 100 142 187 246 308 367 432
#     4  10  22  40  73 102 136 185 239 308 365 428
#     4  10  20  41  71 102 139 188 240 302 371 426
#     4  11  24  45  71 103 151 193 242 304 372 440
#     4  12  24  43  68 104 143 191 250 301 367 443
#
# _framework density 23.478833000000002
#
# number of rings (size 3 to 8) (size 9 to 14) (size 15 to 20)
#    0.000    1.250    5.000    1.500    7.000    0.000 
#    0.000    4.375    0.000    0.000    0.000    0.000 
#    0.000    0.000    0.000    0.000    0.000    0.000 
#
# Total GULP energy -89291.308694 kJ/mol
# GULP energy per Si atom -5580.706793 kJ/mol
# Density = 2.342539 g / cm^3
# Si number density = 23.478833 Si / 1000 Ang^3
#
#
#
# Elastic Constant Matrix: (Units=GPa)
#
#
# Indices 1 2 3 4 5 6 
#
# 1 109.1080 35.6586 29.7940 -4.9661 1.5865 -40.2357
# 2 35.6586 135.3831 26.0250 -13.3615 8.5923 -33.2725
# 3 29.7940 26.0250 65.5669 -5.7052 17.4770 0.8278
# 4 -4.9661 -13.3615 -5.7052 45.1639 -13.6813 1.5133
# 5 1.5865 8.5923 17.4770 -13.6813 35.5815 -6.8783
# 6 -40.2357 -33.2725 0.8278 1.5133 -6.8783 38.3045
#
#
#
# Elastic Compliance Matrix: (Units=1/GPa)
#
#
# Indices 1 2 3 4 5 6 
#
# 1 0.023645 0.004071 -0.015972 0.004892 0.013678 0.030981
# 2 0.004071 0.011627 -0.007726 0.004007 0.005311 0.015339
# 3 -0.015972 -0.007726 0.030763 -0.005253 -0.019871 -0.027513
# 4 0.004892 0.004007 -0.005253 0.027025 0.013745 0.010133
# 5 0.013678 0.005311 -0.019871 0.013745 0.046519 0.027221
# 6 0.030981 0.015339 -0.027513 0.010133 0.027221 0.077056
#
#
# Mechanical properties :
#
#
# Convention : Reuss Voigt Hill
#
# Bulk Modulus (GPa) = 37.33803 54.77923 46.05863
# Shear Modulus (GPa) = 18.88108 38.38201 28.63155
#
# Velocity S-wave (km/s) = 2.83887 4.04759 3.49587
# Velocity P-wave (km/s) = 5.16556 6.72502 5.99620
#
# Compressibility (1/GPa) = 0.02678235
#
# Stress axis : x y z
#
# Youngs Moduli (GPa) = 42.29277 86.00380 32.50691
#
# Poissons Ratio (x) = -0.35015 0.51919
# Poissons Ratio (y) = -0.17219 0.25115
# Poissons Ratio (z) = 0.67548 0.66446
#
# Static dielectric constant tensor:
#      x y z
#    x 1.941190 0.009470 0.023130 
#    y 0.009470 1.835650 -0.086680 
#    z 0.023130 -0.086680 1.956630 
# 
# From -- ./inp_files/593997.got.cif
#   From: 2010.05.17/outbox.cif.g08.bks.cpg/sg2_297_cif.got.tgz:593997.got - 2010.06.03 11:33:40.
