data_PCOD9110759
_publ_section_title
;
Structure prediction by ZEFSAII (Michael W. Deem and Ramdas Pophale) SiO2 
 PCOD9110759
Probable space group: P -1
;
_chemical_formula_sum "Si O2"
_cell_formula_units_Z 14
_cell_length_a 8.947583
_cell_length_b 11.738103
_cell_length_c 11.170250
_cell_angle_alpha 141.163530
_cell_angle_beta 92.783686
_cell_angle_gamma 71.850302
_cell_volume 660.983965
_symmetry_space_group_name_H-M "P -1"
_symmetry_group_IT_number 2
_symmetry_cell_setting 'triclinic'
loop_
_space_group_symop_operation_xyz
x,y,z
-x,-y,-z
loop_
_atom_site_type_symbol
_atom_site_label
_atom_site_fract_x
_atom_site_fract_y
_atom_site_fract_z
Si Si1 0.097388 0.133582 0.140974
Si Si2 0.648666 0.839793 0.251449
Si Si3 0.947344 0.626628 0.905637
Si Si4 0.011180 0.775714 0.537884
Si Si5 0.660912 0.099100 0.852031
Si Si6 0.193902 0.870914 0.439718
Si Si7 0.709317 0.430895 0.018874
O O1 0.103164 0.248457 0.116866
O O2 0.992635 0.275116 0.363657
O O3 0.278500 0.990610 0.087220
O O4 0.000000 0.000000 0.000000
O O5 0.484158 0.938622 0.244764
O O6 0.702518 0.998048 0.445237
O O7 0.801058 0.711012 0.064256
O O8 0.633424 0.671265 0.197890
O O9 0.993262 0.397045 0.686782
O O10 0.107245 0.637374 0.976823
O O11 0.835373 0.974688 0.686584
O O12 0.165037 0.812757 0.527096
O O13 0.620949 0.332685 0.022553
O O14 0.274107 0.678189 0.198095
O O15 0.000000 0.000000 0.500000
#
# Coordination Sequence:
#
# PCOD9110759 Si02
#       7
#     2   2   2   2   2   2   2
#     4  10  20  42  66  89 122 165 216 252 306 377
#     4  12  25  39  64  96 131 164 202 265 317 363
#     4  12  21  40  70  92 121 168 215 257 301 378
#     4  10  22  40  64  94 120 165 217 249 308 375
#     4  10  24  42  60  95 130 164 200 264 320 358
#     4  12  20  41  63  91 127 165 213 250 305 377
#     4  12  23  41  64  95 127 169 209 250 312 386
#
# _framework density 21.180543
#
# number of rings (size 3 to 8) (size 9 to 14) (size 15 to 20)
#    0.857    0.000    5.714    3.000    0.000    1.143 
#    2.571    0.000    0.000    1.714    0.000    0.000 
#    0.000    0.000    0.000    0.000    0.000    0.000 
#
# Total GULP energy -78184.232555 kJ/mol
# GULP energy per Si atom -5584.588040 kJ/mol
# Density = 2.113234 g / cm^3
# Si number density = 21.180543 Si / 1000 Ang^3
#
#
#
# Elastic Constant Matrix: (Units=GPa)
#
#
# Indices 1 2 3 4 5 6 
#
# 1 69.0434 29.6790 29.1604 2.6243 27.7594 -20.6420
# 2 29.6790 110.0239 19.7473 2.5623 16.7924 -10.1054
# 3 29.1604 19.7473 118.5689 9.0388 21.7781 0.2263
# 4 2.6243 2.5623 9.0388 32.2460 7.8972 5.4289
# 5 27.7594 16.7924 21.7781 7.8972 36.2468 -4.9302
# 6 -20.6420 -10.1054 0.2263 5.4289 -4.9302 30.2181
#
#
#
# Elastic Compliance Matrix: (Units=1/GPa)
#
#
# Indices 1 2 3 4 5 6 
#
# 1 0.028567 -0.003149 -0.003579 0.000226 -0.016168 0.015809
# 2 -0.003149 0.010436 -0.000610 -0.000118 -0.001887 0.001056
# 3 -0.003579 -0.000610 0.010100 -0.001198 -0.003196 -0.003031
# 4 0.000226 -0.000118 -0.001198 0.034519 -0.007922 -0.007370
# 5 -0.016168 -0.001887 -0.003196 -0.007922 0.044078 -0.003036
# 6 0.015809 0.001056 -0.003031 -0.007370 -0.003036 0.045097
#
#
# Mechanical properties :
#
#
# Convention : Reuss Voigt Hill
#
# Bulk Modulus (GPa) = 29.04766 50.53439 39.79102
# Shear Modulus (GPa) = 25.13208 34.34550 29.73879
#
# Velocity S-wave (km/s) = 3.44839 4.03123 3.75115
# Velocity P-wave (km/s) = 5.44052 6.75118 6.13097
#
# Compressibility (1/GPa) = 0.03442619
#
# Stress axis : x y z
#
# Youngs Moduli (GPa) = 35.00505 95.82488 99.01139
#
# Poissons Ratio (x) = 0.30178 0.35437
# Poissons Ratio (y) = 0.11024 0.06039
# Poissons Ratio (z) = 0.12529 0.05845
#
# Static dielectric constant tensor:
#      x y z
#    x 1.750530 0.012990 -0.000280 
#    y 0.012990 1.842950 -0.002300 
#    z -0.000280 -0.002300 1.761830 
# 
# From -- ./inp_files/388612.got.cif
#   From: 2010.05.17/outbox.cif.g08.bks.cpg/sg2_195_cif.got.tgz:388612.got - 2010.06.03 11:33:40.
