data_PCOD9110516
_publ_section_title
;
Structure prediction by ZEFSAII (Michael W. Deem and Ramdas Pophale) SiO2 
 PCOD9110516
Probable space group: P -1
;
_chemical_formula_sum "Si O2"
_cell_formula_units_Z 16
_cell_length_a 26.772931
_cell_length_b 11.877865
_cell_length_c 8.340728
_cell_angle_alpha 54.732102
_cell_angle_beta 52.813900
_cell_angle_gamma 21.775574
_cell_volume 782.734092
_symmetry_space_group_name_H-M "P -1"
_symmetry_group_IT_number 2
_symmetry_cell_setting 'triclinic'
loop_
_space_group_symop_operation_xyz
x,y,z
-x,-y,-z
loop_
_atom_site_type_symbol
_atom_site_label
_atom_site_fract_x
_atom_site_fract_y
_atom_site_fract_z
Si Si1 0.360131 0.706015 0.662783
Si Si2 0.089604 0.445143 0.958639
Si Si3 0.648183 0.260046 0.969160
Si Si4 0.380810 0.370654 0.752040
Si Si5 0.065210 0.384148 0.637244
Si Si6 0.956151 0.275885 0.457380
Si Si7 0.267940 0.606596 0.422135
Si Si8 0.679737 0.671052 0.766406
O O1 0.500000 0.500000 0.500000
O O2 0.361747 0.682059 0.871053
O O3 0.339772 0.605134 0.688690
O O4 0.229109 0.058789 0.594508
O O5 0.086988 0.591606 0.747191
O O6 0.239707 0.082961 0.984652
O O7 0.000000 0.500000 0.000000
O O8 0.998572 0.625901 0.144441
O O9 0.500000 0.500000 0.000000
O O10 0.697117 0.299518 0.746197
O O11 0.323628 0.451189 0.617342
O O12 0.547538 0.029963 0.708401
O O13 0.332433 0.373361 0.996564
O O14 0.020091 0.621157 0.594561
O O15 0.000000 0.500000 0.500000
O O16 0.827607 0.453943 0.641711
O O17 0.102027 0.913469 0.480274
O O18 0.328839 0.413053 0.303863
#
# Coordination Sequence:
#
# PCOD9110516 Si02
#       8
#     2   2   2   2   2   2   2   2
#     4  12  23  40  65  96 133 170 210 275 333 382
#     4  10  20  42  63  91 133 167 205 265 332 378
#     4  12  24  40  68 101 131 172 217 270 335 400
#     4  11  26  45  66  92 135 170 222 276 319 390
#     4  11  22  39  64  97 133 166 207 270 332 388
#     4  11  22  43  68  94 130 170 219 264 323 399
#     4  12  23  46  69  94 128 173 224 270 325 391
#     4  11  26  47  65  91 132 179 220 270 325 378
#
# _framework density 20.44117
#
# number of rings (size 3 to 8) (size 9 to 14) (size 15 to 20)
#    0.000    0.750    6.250    3.000    3.500    0.500 
#    2.250    0.000    0.000    0.000    0.000    0.000 
#    0.000    0.000    0.000    0.000    0.000    0.000 
#
# Total GULP energy -89278.186362 kJ/mol
# GULP energy per Si atom -5579.886648 kJ/mol
# Density = 2.039464 g / cm^3
# Si number density = 20.441170 Si / 1000 Ang^3
#
#
#
# Elastic Constant Matrix: (Units=GPa)
#
#
# Indices 1 2 3 4 5 6 
#
# 1 53.2200 7.9377 20.9432 -2.2701 19.6448 -7.1442
# 2 7.9377 108.6969 23.4246 13.7063 11.5796 -16.0560
# 3 20.9432 23.4246 109.3102 12.7870 23.0159 -19.3414
# 4 -2.2701 13.7063 12.7870 32.2752 -7.3253 -4.9628
# 5 19.6448 11.5796 23.0159 -7.3253 33.0948 -1.7064
# 6 -7.1442 -16.0560 -19.3414 -4.9628 -1.7064 35.2377
#
#
#
# Elastic Compliance Matrix: (Units=1/GPa)
#
#
# Indices 1 2 3 4 5 6 
#
# 1 0.024857 0.000594 -0.001154 -0.000647 -0.014102 0.003903
# 2 0.000594 0.010961 -0.000075 -0.005098 -0.005052 0.004111
# 3 -0.001154 -0.000075 0.013166 -0.006593 -0.009617 0.005564
# 4 -0.000647 -0.005098 -0.006593 0.039253 0.015452 0.000204
# 5 -0.014102 -0.005052 -0.009617 0.015452 0.050162 -0.005834
# 6 0.003903 0.004111 0.005564 0.000204 -0.005834 0.033843
#
#
# Mechanical properties :
#
#
# Convention : Reuss Voigt Hill
#
# Bulk Modulus (GPa) = 20.95855 41.75978 31.35917
# Shear Modulus (GPa) = 26.39650 34.71632 30.55641
#
# Velocity S-wave (km/s) = 3.59742 4.12558 3.87052
# Velocity P-wave (km/s) = 5.24696 6.57020 5.94551
#
# Compressibility (1/GPa) = 0.04771323
#
# Stress axis : x y z
#
# Youngs Moduli (GPa) = 40.22968 91.23309 75.95152
#
# Poissons Ratio (x) = -0.05419 0.08767
# Poissons Ratio (y) = -0.02389 0.00572
# Poissons Ratio (z) = 0.04644 0.00687
#
# Static dielectric constant tensor:
#      x y z
#    x 1.731180 0.027640 0.031140 
#    y 0.027640 1.702290 0.011120 
#    z 0.031140 0.011120 1.742560 
# 
# From -- ./inp_files/282799.got.cif
#   From: 2010.05.17/outbox.cif.g08.bks.cpg/sg2_142_cif.got.tgz:282799.got - 2010.06.03 11:33:40.
