data_PCOD9110559
_publ_section_title
;
Structure prediction by ZEFSAII (Michael W. Deem and Ramdas Pophale) SiO2 
 PCOD9110559
Probable space group: P -1
;
_chemical_formula_sum "Si O2"
_cell_formula_units_Z 14
_cell_length_a 12.269288
_cell_length_b 12.703971
_cell_length_c 8.455434
_cell_angle_alpha 127.932779
_cell_angle_beta 62.638311
_cell_angle_gamma 140.465693
_cell_volume 661.407259
_symmetry_space_group_name_H-M "P -1"
_symmetry_group_IT_number 2
_symmetry_cell_setting 'triclinic'
loop_
_space_group_symop_operation_xyz
x,y,z
-x,-y,-z
loop_
_atom_site_type_symbol
_atom_site_label
_atom_site_fract_x
_atom_site_fract_y
_atom_site_fract_z
Si Si1 0.067493 0.575626 0.741317
Si Si2 0.253007 0.323834 0.088561
Si Si3 0.328678 0.644890 0.171444
Si Si4 0.516786 0.394893 0.517944
Si Si5 0.946231 0.237289 0.341655
Si Si6 0.620090 0.216759 0.080152
Si Si7 0.655488 0.864571 0.337215
O O1 0.134484 0.738319 0.724592
O O2 0.182177 0.669239 0.906534
O O3 0.863919 0.445494 0.770022
O O4 0.076277 0.438328 0.525227
O O5 0.300557 0.464623 0.047333
O O6 0.363531 0.453083 0.284496
O O7 0.057863 0.204129 0.159313
O O8 0.301227 0.215006 0.896422
O O9 0.470050 0.785308 0.341276
O O10 0.399521 0.748378 0.053380
O O11 0.500000 0.500000 0.500000
O O12 0.579583 0.311207 0.307223
O O13 0.355530 0.217037 0.562659
O O14 0.805931 0.083889 0.417913
O O15 0.500000 0.000000 0.000000
#
# Coordination Sequence:
#
# PCOD9110559 Si02
#       7
#     2   2   2   2   2   2   2
#     4  10  22  40  61  87 128 166 196 256 318 359
#     4  10  20  42  64  88 121 167 202 253 315 368
#     4  10  22  39  63  88 124 162 204 251 311 368
#     4  11  23  41  63  89 128 165 204 257 316 366
#     4  10  21  38  63  92 124 158 208 254 306 368
#     4  12  24  40  62  95 126 164 211 257 306 372
#     4  11  22  38  67  94 118 162 217 249 301 378
#
# _framework density 21.166989000000001
#
# number of rings (size 3 to 8) (size 9 to 14) (size 15 to 20)
#    0.000    1.429    1.429    5.143    4.000    0.571 
#    0.000    0.714    0.000    0.000    0.000    0.000 
#    0.000    0.000    0.000    0.000    0.000    0.000 
#
# Total GULP energy -78151.289603 kJ/mol
# GULP energy per Si atom -5582.234972 kJ/mol
# Density = 2.111881 g / cm^3
# Si number density = 21.166989 Si / 1000 Ang^3
#
#
#
# Elastic Constant Matrix: (Units=GPa)
#
#
# Indices 1 2 3 4 5 6 
#
# 1 96.0870 55.6411 35.3442 2.6204 4.9020 -12.2794
# 2 55.6411 137.7123 17.6426 -15.4827 10.9278 -20.3661
# 3 35.3442 17.6426 55.6560 -3.1859 -3.9647 -17.4525
# 4 2.6204 -15.4827 -3.1859 24.2098 -8.0350 1.8152
# 5 4.9020 10.9278 -3.9647 -8.0350 30.9861 -13.4806
# 6 -12.2794 -20.3661 -17.4525 1.8152 -13.4806 36.7415
#
#
#
# Elastic Compliance Matrix: (Units=1/GPa)
#
#
# Indices 1 2 3 4 5 6 
#
# 1 0.019630 -0.007795 -0.013108 -0.010878 -0.007562 -0.006224
# 2 -0.007795 0.011657 0.003957 0.009267 0.002770 0.006294
# 3 -0.013108 0.003957 0.032754 0.012226 0.016176 0.018702
# 4 -0.010878 0.009267 0.012226 0.055625 0.019545 0.011731
# 5 -0.007562 0.002770 0.016176 0.019545 0.050122 0.024116
# 6 -0.006224 0.006294 0.018702 0.011731 0.024116 0.045778
#
#
# Mechanical properties :
#
#
# Convention : Reuss Voigt Hill
#
# Bulk Modulus (GPa) = 33.16988 56.30123 44.73555
# Shear Modulus (GPa) = 19.26717 30.44264 24.85490
#
# Velocity S-wave (km/s) = 3.02030 3.79649 3.43042
# Velocity P-wave (km/s) = 5.27897 6.77305 6.07214
#
# Compressibility (1/GPa) = 0.03014784
#
# Stress axis : x y z
#
# Youngs Moduli (GPa) = 50.94275 85.78435 30.53056
#
# Poissons Ratio (x) = 0.66872 0.40019
# Poissons Ratio (y) = 0.39712 -0.12080
# Poissons Ratio (z) = 0.66775 -0.33942
#
# Static dielectric constant tensor:
#      x y z
#    x 1.785190 0.021550 -0.025660 
#    y 0.021550 1.789390 -0.021720 
#    z -0.025660 -0.021720 1.760690 
# 
# From -- ./inp_files/154181.got.cif
#   From: 2010.05.17/outbox.cif.g08.bks.cpg/sg2_78_cif.got.tgz:154181.got - 2010.06.03 11:33:40.
