data_PCOD9110665
_publ_section_title
;
Structure prediction by ZEFSAII (Michael W. Deem and Ramdas Pophale) SiO2 
 PCOD9110665
Probable space group: P -1
;
_chemical_formula_sum "Si O2"
_cell_formula_units_Z 15
_cell_length_a 8.788912
_cell_length_b 5.628135
_cell_length_c 18.703808
_cell_angle_alpha 52.674574
_cell_angle_beta 126.662197
_cell_angle_gamma 125.005615
_cell_volume 556.746349
_symmetry_space_group_name_H-M "P -1"
_symmetry_group_IT_number 2
_symmetry_cell_setting 'triclinic'
loop_
_space_group_symop_operation_xyz
x,y,z
-x,-y,-z
loop_
_atom_site_type_symbol
_atom_site_label
_atom_site_fract_x
_atom_site_fract_y
_atom_site_fract_z
Si Si1 0.793937 0.794470 0.659017
Si Si2 0.500000 0.500000 0.500000
Si Si3 0.959218 0.834924 0.116312
Si Si4 0.937309 0.296717 0.127593
Si Si5 0.594341 0.861263 0.828478
Si Si6 0.509111 0.876209 0.104706
Si Si7 0.886793 0.481106 0.546638
Si Si8 0.169520 0.732606 0.706336
O O1 0.627309 0.578186 0.598365
O O2 0.861894 0.693962 0.773771
O O3 0.007472 0.880723 0.662494
O O4 0.748965 0.120361 0.594426
O O5 0.722578 0.646778 0.490513
O O6 0.912432 0.640890 0.064926
O O7 0.845993 0.561051 0.190408
O O8 0.924825 0.154928 0.071097
O O9 0.194624 0.919310 0.181304
O O10 0.746057 0.039152 0.158899
O O11 0.564757 0.502397 0.858712
O O12 0.400839 0.930634 0.732133
O O13 0.593225 0.959877 0.894716
O O14 0.500000 0.000000 0.000000
O O15 0.000000 0.500000 0.500000
O O16 0.074304 0.582501 0.633729
#
# Coordination Sequence:
#
# PCOD9110665 Si02
#       8
#     2   1   2   2   2   2   2   2
#     4  10  20  42  65  87 132 174 226 277 358 405
#     4  10  24  38  62  92 126 174 226 292 336 424
#     4  11  22  41  72 102 134 179 242 285 344 412
#     4  11  21  45  69  94 141 185 221 293 351 404
#     4  12  24  44  72 107 135 188 244 275 352 432
#     4  12  24  45  73 105 145 184 225 291 357 420
#     4  11  23  43  63  96 136 182 228 292 366 422
#     4  10  22  43  68  95 138 180 232 297 344 415
#
# _framework density 26.942252
#
# number of rings (size 3 to 8) (size 9 to 14) (size 15 to 20)
#    0.000    1.067    5.333    1.600    0.000    3.200 
#   14.400    4.000    0.000    0.000    0.000    0.000 
#    0.000    0.000    0.000    0.000    0.000    0.000 
#
# Total GULP energy -83503.922023 kJ/mol
# GULP energy per Si atom -5566.928135 kJ/mol
# Density = 2.688093 g / cm^3
# Si number density = 26.942252 Si / 1000 Ang^3
#
#
#
# Elastic Constant Matrix: (Units=GPa)
#
#
# Indices 1 2 3 4 5 6 
#
# 1 114.0994 46.2984 19.0106 17.9795 -17.3506 -8.4825
# 2 46.2984 180.1088 42.9533 18.4023 -1.1402 -36.3814
# 3 19.0106 42.9533 89.1637 30.7806 -6.9571 -16.6537
# 4 17.9795 18.4023 30.7806 57.7291 -3.9029 5.8862
# 5 -17.3506 -1.1402 -6.9571 -3.9029 40.0255 18.8422
# 6 -8.4825 -36.3814 -16.6537 5.8862 18.8422 66.6934
#
#
#
# Elastic Compliance Matrix: (Units=1/GPa)
#
#
# Indices 1 2 3 4 5 6 
#
# 1 0.010915 -0.002836 -0.000182 -0.001899 0.005134 -0.001487
# 2 -0.002836 0.007802 -0.002215 -0.001121 -0.003600 0.004458
# 3 -0.000182 -0.002215 0.015697 -0.007928 0.000252 0.003317
# 4 -0.001899 -0.001121 -0.007928 0.023256 0.002692 -0.005646
# 5 0.005134 -0.003600 0.000252 0.002692 0.032425 -0.010646
# 6 -0.001487 0.004458 0.003317 -0.005646 -0.010646 0.021571
#
#
# Mechanical properties :
#
#
# Convention : Reuss Voigt Hill
#
# Bulk Modulus (GPa) = 41.75961 66.65518 54.20740
# Shear Modulus (GPa) = 38.42750 51.23025 44.82888
#
# Velocity S-wave (km/s) = 3.78072 4.36533 4.08350
# Velocity P-wave (km/s) = 5.88148 7.08533 6.51129
#
# Compressibility (1/GPa) = 0.02394658
#
# Stress axis : x y z
#
# Youngs Moduli (GPa) = 91.61770 128.17697 63.70537
#
# Poissons Ratio (x) = 0.36352 0.01162
# Poissons Ratio (y) = 0.25984 0.14111
# Poissons Ratio (z) = 0.01671 0.28392
#
# Static dielectric constant tensor:
#      x y z
#    x 2.233770 -0.127760 0.042750 
#    y -0.127760 2.188270 -0.090380 
#    z 0.042750 -0.090380 2.148270 
# 
# From -- ./inp_files/585559.got.cif
#   From: 2010.05.17/outbox.cif.g08.bks.cpg/sg2_293_cif.got.tgz:585559.got - 2010.06.03 11:33:40.
