data_PCOD9110560
_publ_section_title
;
Structure prediction by ZEFSAII (Michael W. Deem and Ramdas Pophale) SiO2 
 PCOD9110560
Probable space group: P -1
;
_chemical_formula_sum "Si O2"
_cell_formula_units_Z 15
_cell_length_a 12.975092
_cell_length_b 24.606905
_cell_length_c 10.100381
_cell_angle_alpha 34.699811
_cell_angle_beta 145.940729
_cell_angle_gamma 160.037271
_cell_volume 600.461892
_symmetry_space_group_name_H-M "P -1"
_symmetry_group_IT_number 2
_symmetry_cell_setting 'triclinic'
loop_
_space_group_symop_operation_xyz
x,y,z
-x,-y,-z
loop_
_atom_site_type_symbol
_atom_site_label
_atom_site_fract_x
_atom_site_fract_y
_atom_site_fract_z
Si Si1 0.663759 0.141980 0.788900
Si Si2 0.756102 0.602204 0.921626
Si Si3 0.500000 0.500000 0.500000
Si Si4 0.173085 0.187507 0.862802
Si Si5 0.762596 0.121351 0.347514
Si Si6 0.250350 0.617840 0.646603
Si Si7 0.301942 0.557959 0.407716
Si Si8 0.587423 0.855237 0.986455
O O1 0.550859 0.205349 0.538935
O O2 0.543134 0.049836 0.705866
O O3 0.021510 0.293550 0.920513
O O4 0.500000 0.000000 0.000000
O O5 0.495405 0.574236 0.684683
O O6 0.992870 0.726942 0.799711
O O7 0.632005 0.441267 0.100203
O O8 0.364575 0.363538 0.731170
O O9 0.342585 0.520071 0.387392
O O10 0.379729 0.188180 0.027799
O O11 0.956387 0.127246 0.626049
O O12 0.930670 0.046147 0.995339
O O13 0.654528 0.160552 0.248633
O O14 0.000000 0.500000 0.500000
O O15 0.044942 0.565193 0.660491
O O16 0.473029 0.732194 0.220413
#
# Coordination Sequence:
#
# PCOD9110560 Si02
#       8
#     2   2   1   2   2   2   2   2
#     4   9  22  39  63  92 123 154 214 258 306 382
#     4  10  20  42  64  88 124 166 206 261 317 370
#     4  10  22  40  60  90 126 164 208 258 300 372
#     4  10  22  41  59  89 128 161 214 256 312 370
#     4  11  19  40  62  89 122 169 200 263 314 365
#     4  10  22  42  66  93 124 164 213 262 311 374
#     4  11  22  42  65  90 132 167 204 265 314 367
#     4  10  21  38  63  88 124 168 205 256 311 376
#
# _framework density 24.98077
#
# number of rings (size 3 to 8) (size 9 to 14) (size 15 to 20)
#    0.000    1.867    4.000    0.400    1.867    2.133 
#    7.200    6.667    0.000    0.000    0.000    0.000 
#    0.000    0.000    0.000    0.000    0.000    0.000 
#
# Total GULP energy -83502.237997 kJ/mol
# GULP energy per Si atom -5566.815866 kJ/mol
# Density = 2.492391 g / cm^3
# Si number density = 24.980770 Si / 1000 Ang^3
#
#
#
# Elastic Constant Matrix: (Units=GPa)
#
#
# Indices 1 2 3 4 5 6 
#
# 1 79.2411 26.7255 22.3367 -0.3949 9.7763 7.8258
# 2 26.7255 78.4121 70.5462 -26.1898 -5.0818 -5.1511
# 3 22.3367 70.5462 136.2338 -24.1027 -4.0554 -15.8956
# 4 -0.3949 -26.1898 -24.1027 63.2020 -3.5968 -6.0574
# 5 9.7763 -5.0818 -4.0554 -3.5968 36.0654 -7.9179
# 6 7.8258 -5.1511 -15.8956 -6.0574 -7.9179 24.8686
#
#
#
# Elastic Compliance Matrix: (Units=1/GPa)
#
#
# Indices 1 2 3 4 5 6 
#
# 1 0.018256 -0.008200 -0.001539 -0.005656 -0.009670 -0.012883
# 2 -0.008200 0.029829 -0.011648 0.008835 0.007266 0.005779
# 3 -0.001539 -0.011648 0.015102 0.001940 0.002652 0.009041
# 4 -0.005656 0.008835 0.001940 0.021859 0.007967 0.012711
# 5 -0.009670 0.007266 0.002652 0.007967 0.036837 0.019912
# 6 -0.012883 0.005779 0.009041 0.012711 0.019912 0.060678
#
#
# Mechanical properties :
#
#
# Convention : Reuss Voigt Hill
#
# Bulk Modulus (GPa) = 48.98919 59.23375 54.11147
# Shear Modulus (GPa) = 21.53875 36.44575 28.99225
#
# Velocity S-wave (km/s) = 2.93953 3.82377 3.41043
# Velocity P-wave (km/s) = 5.58341 6.57709 6.10052
#
# Compressibility (1/GPa) = 0.02041267
#
# Stress axis : x y z
#
# Youngs Moduli (GPa) = 54.77572 33.52412 66.21788
#
# Poissons Ratio (x) = 0.27490 0.10189
# Poissons Ratio (y) = 0.44917 0.77134
# Poissons Ratio (z) = 0.08428 0.39050
#
# Static dielectric constant tensor:
#      x y z
#    x 1.998680 -0.017800 -0.070060 
#    y -0.017800 2.116200 0.037340 
#    z -0.070060 0.037340 2.003460 
# 
# From -- ./inp_files/458272.got.cif
#   From: 2010.05.17/outbox.cif.g08.bks.cpg/sg2_230_cif.got.tgz:458272.got - 2010.06.03 11:33:40.
