data_PCOD9110374
_publ_section_title
;
Structure prediction by ZEFSAII (Michael W. Deem and Ramdas Pophale) SiO2 
 PCOD9110374
Probable space group: P -1
;
_chemical_formula_sum "Si O2"
_cell_formula_units_Z 16
_cell_length_a 6.538632
_cell_length_b 23.429370
_cell_length_c 18.486567
_cell_angle_alpha 20.984599
_cell_angle_beta 55.461833
_cell_angle_gamma 70.028082
_cell_volume 644.305015
_symmetry_space_group_name_H-M "P -1"
_symmetry_group_IT_number 2
_symmetry_cell_setting 'triclinic'
loop_
_space_group_symop_operation_xyz
x,y,z
-x,-y,-z
loop_
_atom_site_type_symbol
_atom_site_label
_atom_site_fract_x
_atom_site_fract_y
_atom_site_fract_z
Si Si1 0.401577 0.251396 0.978281
Si Si2 0.383271 0.570154 0.553404
Si Si3 0.204507 0.246397 0.173578
Si Si4 0.509464 0.900089 0.045704
Si Si5 0.125686 0.788571 0.118613
Si Si6 0.819810 0.427034 0.248780
Si Si7 0.150568 0.235987 0.356470
Si Si8 0.742135 0.865399 0.402824
O O1 0.254020 0.337278 0.860087
O O2 0.737860 0.328812 0.789038
O O3 0.445596 0.327381 0.961844
O O4 0.152191 0.004628 0.313364
O O5 0.334708 0.662860 0.384275
O O6 0.265708 0.603320 0.612615
O O7 0.766350 0.690312 0.328381
O O8 0.325464 0.312090 0.153581
O O9 0.022090 0.337271 0.083368
O O10 0.000000 0.000000 0.500000
O O11 0.333494 0.913801 0.999625
O O12 0.500000 0.000000 0.000000
O O13 0.884907 0.032210 0.798292
O O14 0.239526 0.940365 0.847860
O O15 0.013976 0.350601 0.274569
O O16 0.490879 0.295325 0.422787
O O17 0.352603 0.236433 0.379083
#
# Coordination Sequence:
#
# PCOD9110374 Si02
#       8
#     2   2   2   2   2   2   2   2
#     4  10  20  42  60  86 122 162 198 248 297 351
#     4  10  23  36  60  89 123 159 203 242 293 357
#     4   9  22  41  69  87 117 157 200 246 305 353
#     4  11  21  36  57  88 123 160 202 242 294 352
#     4  11  21  39  59  88 123 166 195 243 295 351
#     4  11  21  40  65  91 120 155 195 251 299 352
#     4  11  21  41  65  88 118 159 198 251 302 350
#     4  11  21  35  61  89 122 152 203 242 297 350
#
# _framework density 24.832958000000001
#
# number of rings (size 3 to 8) (size 9 to 14) (size 15 to 20)
#    0.000    1.500    2.500    3.000    0.000    3.000 
#    2.250    0.625    8.250    0.000    0.000    0.000 
#    0.000    0.000    0.000    0.000    0.000    0.000 
#
# Total GULP energy -89411.922967 kJ/mol
# GULP energy per Si atom -5588.245185 kJ/mol
# Density = 2.477644 g / cm^3
# Si number density = 24.832958 Si / 1000 Ang^3
#
#
#
# Elastic Constant Matrix: (Units=GPa)
#
#
# Indices 1 2 3 4 5 6 
#
# 1 66.5023 38.4395 23.5212 0.5192 15.6834 27.9691
# 2 38.4395 159.0457 35.2931 3.5321 16.7242 9.2202
# 3 23.5212 35.2931 107.5490 -0.9859 26.4994 1.8291
# 4 0.5192 3.5321 -0.9859 28.9670 -1.5415 15.9886
# 5 15.6834 16.7242 26.4994 -1.5415 42.0077 2.9944
# 6 27.9691 9.2202 1.8291 15.9886 2.9944 28.6289
#
#
#
# Elastic Compliance Matrix: (Units=1/GPa)
#
#
# Indices 1 2 3 4 5 6 
#
# 1 0.049553 -0.007116 -0.005534 0.035211 -0.006267 -0.064775
# 2 -0.007116 0.007997 -0.001107 -0.004913 -0.000526 0.007246
# 3 -0.005534 -0.001107 0.012146 -0.003982 -0.005859 0.007823
# 4 0.035211 -0.004913 -0.003982 0.075554 -0.000581 -0.074697
# 5 -0.006267 -0.000526 -0.005859 -0.000581 0.029752 0.003879
# 6 -0.064775 0.007246 0.007823 -0.074697 0.003879 0.136690
#
#
# Mechanical properties :
#
#
# Convention : Reuss Voigt Hill
#
# Bulk Modulus (GPa) = 23.70624 58.62274 41.16449
# Shear Modulus (GPa) = 14.15362 35.64359 24.89860
#
# Velocity S-wave (km/s) = 2.38996 3.79269 3.16989
# Velocity P-wave (km/s) = 4.14522 6.54503 5.47815
#
# Compressibility (1/GPa) = 0.04218298
#
# Stress axis : x y z
#
# Youngs Moduli (GPa) = 20.18024 125.04132 82.33490
#
# Poissons Ratio (x) = 0.88984 0.45560
# Poissons Ratio (y) = 0.14361 0.09113
# Poissons Ratio (z) = 0.11167 0.13839
#
# Static dielectric constant tensor:
#      x y z
#    x 1.919340 0.004840 0.026380 
#    y 0.004840 1.974630 0.013130 
#    z 0.026380 0.013130 2.146000 
# 
# From -- ./inp_files/551176.got.cif
#   From: 2010.05.17/outbox.cif.g08.bks.cpg/sg2_276_cif.got.tgz:551176.got - 2010.06.03 11:33:40.
