data_PCOD9110475
_publ_section_title
;
Structure prediction by ZEFSAII (Michael W. Deem and Ramdas Pophale) SiO2 
 PCOD9110475
Probable space group: P -1
;
_chemical_formula_sum "Si O2"
_cell_formula_units_Z 16
_cell_length_a 11.520064
_cell_length_b 14.419466
_cell_length_c 8.435767
_cell_angle_alpha 69.658162
_cell_angle_beta 81.829277
_cell_angle_gamma 34.815452
_cell_volume 722.787215
_symmetry_space_group_name_H-M "P -1"
_symmetry_group_IT_number 2
_symmetry_cell_setting 'triclinic'
loop_
_space_group_symop_operation_xyz
x,y,z
-x,-y,-z
loop_
_atom_site_type_symbol
_atom_site_label
_atom_site_fract_x
_atom_site_fract_y
_atom_site_fract_z
Si Si1 0.984210 0.123007 0.493063
Si Si2 0.191365 0.312148 0.478373
Si Si3 0.181916 0.818731 0.169361
Si Si4 0.571462 0.182299 0.985709
Si Si5 0.535597 0.442273 0.342312
Si Si6 0.447190 0.792424 0.645789
Si Si7 0.102890 0.442855 0.848478
Si Si8 0.291640 0.124890 0.862762
O O1 0.921474 0.153901 0.670873
O O2 0.774129 0.313168 0.336792
O O3 0.220942 0.997410 0.515177
O O4 0.000000 0.000000 0.500000
O O5 0.363066 0.269181 0.406354
O O6 0.304494 0.153247 0.661925
O O7 0.000000 0.500000 0.500000
O O8 0.050333 0.374768 0.322934
O O9 0.336956 0.628144 0.178202
O O10 0.346446 0.793620 0.166788
O O11 0.000000 0.000000 0.000000
O O12 0.557937 0.219549 0.153921
O O13 0.728559 0.978109 0.068275
O O14 0.339809 0.314506 0.893885
O O15 0.500000 0.500000 0.500000
O O16 0.531912 0.328118 0.374630
O O17 0.116636 0.320867 0.849746
O O18 0.000000 0.500000 0.000000
O O19 0.500000 0.000000 0.000000
#
# Coordination Sequence:
#
# PCOD9110475 Si02
#       8
#     2   2   2   2   2   2   2   2
#     4   9  20  41  62  90 129 165 219 277 320 404
#     4  10  22  40  69  96 129 177 225 277 346 403
#     4  11  22  41  64  95 131 174 218 273 340 400
#     4  11  23  41  63  92 136 177 220 275 338 400
#     4   9  22  41  65  93 133 171 219 278 339 404
#     4  11  21  41  69  96 131 173 228 282 341 410
#     4  10  20  42  62  93 133 168 226 286 324 401
#     4   9  22  41  62  91 132 176 218 275 335 396
#
# _framework density 22.136527999999998
#
# number of rings (size 3 to 8) (size 9 to 14) (size 15 to 20)
#    0.000    2.000    2.500    0.000    0.000   12.000 
#    2.250    0.000    0.000    0.000    0.000    0.000 
#    0.000    0.000    0.000    0.000    0.000    0.000 
#
# Total GULP energy -89094.120336 kJ/mol
# GULP energy per Si atom -5568.382521 kJ/mol
# Density = 2.208614 g / cm^3
# Si number density = 22.136528 Si / 1000 Ang^3
#
#
#
# Elastic Constant Matrix: (Units=GPa)
#
#
# Indices 1 2 3 4 5 6 
#
# 1 62.0882 35.3352 -4.4399 -2.4751 1.6114 -9.2239
# 2 35.3352 114.0019 23.7029 -28.6669 3.2821 -15.8462
# 3 -4.4399 23.7029 76.5256 -25.2017 7.9286 1.6855
# 4 -2.4751 -28.6669 -25.2017 37.7176 -3.0966 9.8535
# 5 1.6114 3.2821 7.9286 -3.0966 27.6716 -2.8980
# 6 -9.2239 -15.8462 1.6855 9.8535 -2.8980 46.5601
#
#
#
# Elastic Compliance Matrix: (Units=1/GPa)
#
#
# Indices 1 2 3 4 5 6 
#
# 1 0.020735 -0.007444 0.002510 -0.003266 -0.001189 0.002101
# 2 -0.007444 0.013786 -0.002077 0.008228 0.000480 0.001581
# 3 0.002510 -0.002077 0.018065 0.011227 -0.004186 -0.003500
# 4 -0.003266 0.008228 0.011227 0.041911 -0.000059 -0.007126
# 5 -0.001189 0.000480 -0.004186 -0.000059 0.037598 0.002432
# 6 0.002101 0.001581 -0.003500 -0.007126 0.002432 0.024218
#
#
# Mechanical properties :
#
#
# Convention : Reuss Voigt Hill
#
# Bulk Modulus (GPa) = 25.93099 40.20133 33.06616
# Shear Modulus (GPa) = 27.29446 35.59102 31.44274
#
# Velocity S-wave (km/s) = 3.51523 4.01408 3.77291
# Velocity P-wave (km/s) = 5.31181 6.29951 5.82663
#
# Compressibility (1/GPa) = 0.03856390
#
# Stress axis : x y z
#
# Youngs Moduli (GPa) = 48.22837 72.53879 55.35712
#
# Poissons Ratio (x) = 0.53996 -0.13894
# Poissons Ratio (y) = 0.35900 0.11496
# Poissons Ratio (z) = -0.12105 0.15064
#
# Static dielectric constant tensor:
#      x y z
#    x 1.856030 0.006670 0.036080 
#    y 0.006670 1.855270 -0.024150 
#    z 0.036080 -0.024150 1.926380 
# 
# From -- ./inp_files/272500.got.cif
#   From: 2010.05.17/outbox.cif.g08.bks.cpg/sg2_137_cif.got.tgz:272500.got - 2010.06.03 11:33:40.
