data_PCOD9110286
_publ_section_title
;
Structure prediction by ZEFSAII (Michael W. Deem and Ramdas Pophale) SiO2 
 PCOD9110286
Probable space group: P -1
;
_chemical_formula_sum "Si O2"
_cell_formula_units_Z 16
_cell_length_a 10.079222
_cell_length_b 8.083315
_cell_length_c 11.764504
_cell_angle_alpha 50.083280
_cell_angle_beta 98.812558
_cell_angle_gamma 98.908703
_cell_volume 724.441246
_symmetry_space_group_name_H-M "P -1"
_symmetry_group_IT_number 2
_symmetry_cell_setting 'triclinic'
loop_
_space_group_symop_operation_xyz
x,y,z
-x,-y,-z
loop_
_atom_site_type_symbol
_atom_site_label
_atom_site_fract_x
_atom_site_fract_y
_atom_site_fract_z
Si Si1 0.047028 0.376238 0.675758
Si Si2 0.378400 0.465180 0.413970
Si Si3 0.224136 0.080357 0.686918
Si Si4 0.217679 0.827642 0.152088
Si Si5 0.590867 0.152677 0.028647
Si Si6 0.487662 0.221365 0.332156
Si Si7 0.211659 0.649548 0.767007
Si Si8 0.339055 0.276431 0.058537
O O1 0.138409 0.192704 0.721084
O O2 0.128133 0.540560 0.700027
O O3 0.000000 0.500000 0.500000
O O4 0.929991 0.258166 0.790275
O O5 0.500000 0.500000 0.500000
O O6 0.272592 0.269115 0.523008
O O7 0.309673 0.687363 0.304366
O O8 0.438286 0.402015 0.329961
O O9 0.357275 0.994157 0.799256
O O10 0.153709 0.866138 0.713560
O O11 0.253946 0.077683 0.073763
O O12 0.274094 0.776288 0.056190
O O13 0.484072 0.309882 0.996568
O O14 0.500000 0.000000 0.000000
O O15 0.639626 0.281519 0.288712
O O16 0.383436 0.207516 0.219824
O O17 0.500000 0.000000 0.500000
O O18 0.246952 0.476876 0.944907
#
# Coordination Sequence:
#
# PCOD9110286 Si02
#       8
#     2   2   2   2   2   2   2   2
#     4  12  28  51  73 101 148 204 254 304 358 435
#     4  12  23  41  69 110 139 184 242 300 372 437
#     4  12  25  46  72 101 149 192 245 303 361 434
#     4  11  25  45  73 100 142 193 247 295 364 436
#     4  10  20  41  72 104 142 182 230 297 372 439
#     4  12  23  41  74 110 148 182 239 306 377 440
#     4  12  27  47  73 108 151 193 246 304 373 439
#     4  11  24  46  74 113 149 185 230 315 383 437
#
# _framework density 22.085985000000001
#
# number of rings (size 3 to 8) (size 9 to 14) (size 15 to 20)
#    0.000    0.500    3.750    5.625    3.500    2.500 
#    2.250    1.250    0.000    0.000    0.000    0.000 
#    0.000    0.000    0.000    0.000    0.000    0.000 
#
# Total GULP energy -89453.114828 kJ/mol
# GULP energy per Si atom -5590.819677 kJ/mol
# Density = 2.203572 g / cm^3
# Si number density = 22.085985 Si / 1000 Ang^3
#
#
#
# Elastic Constant Matrix: (Units=GPa)
#
#
# Indices 1 2 3 4 5 6 
#
# 1 53.7709 35.3954 4.5679 2.2664 -10.6005 -2.2917
# 2 35.3954 146.6693 24.8666 7.2412 1.4525 -5.8496
# 3 4.5679 24.8666 91.9538 -1.9905 -3.6033 11.1749
# 4 2.2664 7.2412 -1.9905 45.8909 -1.1745 3.5098
# 5 -10.6005 1.4525 -3.6033 -1.1745 33.1225 3.4999
# 6 -2.2917 -5.8496 11.1749 3.5098 3.4999 30.1289
#
#
#
# Elastic Compliance Matrix: (Units=1/GPa)
#
#
# Indices 1 2 3 4 5 6 
#
# 1 0.024093 -0.006064 0.000837 0.000058 0.008134 -0.000607
# 2 -0.006064 0.008936 -0.002599 -0.001510 -0.002960 0.002757
# 3 0.000837 -0.002599 0.012320 0.001380 0.002346 -0.005444
# 4 0.000058 -0.001510 0.001380 0.022395 0.001406 -0.003573
# 5 0.008134 -0.002960 0.002346 0.001406 0.033748 -0.004910
# 6 -0.000607 0.002757 -0.005444 -0.003573 -0.004910 0.036686
#
#
# Mechanical properties :
#
#
# Convention : Reuss Voigt Hill
#
# Bulk Modulus (GPa) = 33.67423 46.89486 40.28454
# Shear Modulus (GPa) = 30.53833 36.99938 33.76886
#
# Velocity S-wave (km/s) = 3.72250 4.09741 3.91445
# Velocity P-wave (km/s) = 5.80999 6.60787 6.22174
#
# Compressibility (1/GPa) = 0.02969630
#
# Stress axis : x y z
#
# Youngs Moduli (GPa) = 41.50561 111.90808 81.17107
#
# Poissons Ratio (x) = 0.67859 -0.06791
# Poissons Ratio (y) = 0.25168 0.21097
# Poissons Ratio (z) = -0.03473 0.29085
#
# Static dielectric constant tensor:
#      x y z
#    x 1.822940 -0.033660 -0.013030 
#    y -0.033660 1.842430 -0.011910 
#    z -0.013030 -0.011910 1.857590 
# 
# From -- ./inp_files/381082.got.cif
#   From: 2010.05.17/outbox.cif.g08.bks.cpg/sg2_191_cif.got.tgz:381082.got - 2010.06.03 11:33:40.
