data_PCOD9110138
_publ_section_title
;
Structure prediction by ZEFSAII (Michael W. Deem and Ramdas Pophale) SiO2 
 PCOD9110138
Probable space group: P -1
;
_chemical_formula_sum "Si O2"
_cell_formula_units_Z 15
_cell_length_a 11.728098
_cell_length_b 17.870024
_cell_length_c 8.218867
_cell_angle_alpha 124.589086
_cell_angle_beta 32.412984
_cell_angle_gamma 136.909205
_cell_volume 625.130934
_symmetry_space_group_name_H-M "P -1"
_symmetry_group_IT_number 2
_symmetry_cell_setting 'triclinic'
loop_
_space_group_symop_operation_xyz
x,y,z
-x,-y,-z
loop_
_atom_site_type_symbol
_atom_site_label
_atom_site_fract_x
_atom_site_fract_y
_atom_site_fract_z
Si Si1 0.638128 0.547828 0.068466
Si Si2 0.000000 0.000000 0.500000
Si Si3 0.674723 0.892975 0.444350
Si Si4 0.702353 0.361282 0.862181
Si Si5 0.108722 0.430997 0.719204
Si Si6 0.799950 0.246511 0.340733
Si Si7 0.867745 0.768446 0.503273
Si Si8 0.071987 0.873444 0.737909
O O1 0.407363 0.520772 0.430452
O O2 0.500000 0.500000 0.000000
O O3 0.737392 0.474905 0.921775
O O4 0.890551 0.670867 0.928682
O O5 0.226540 0.068490 0.445983
O O6 0.004216 0.115757 0.601970
O O7 0.370680 0.804944 0.677661
O O8 0.759490 0.001964 0.374914
O O9 0.846853 0.856901 0.106076
O O10 0.687048 0.306699 0.642431
O O11 0.944239 0.379510 0.688587
O O12 0.440714 0.287573 0.188947
O O13 0.092194 0.329294 0.704856
O O14 0.000000 0.500000 0.000000
O O15 0.750781 0.151288 0.404525
O O16 0.952474 0.799587 0.629359
#
# Coordination Sequence:
#
# PCOD9110138 Si02
#       8
#     2   1   2   2   2   2   2   2
#     4  11  24  41  70 108 143 182 250 310 352 433
#     4  10  24  50  70 104 156 184 240 310 372 446
#     4  10  23  41  70 104 142 191 236 307 367 435
#     4  11  22  42  70 101 142 192 240 300 368 431
#     4  11  25  47  72 102 148 202 240 299 381 444
#     4  12  21  39  74 108 135 187 248 304 359 425
#     4  10  21  45  75 102 144 194 245 302 366 445
#     4  10  20  41  70 102 138 184 250 297 358 437
#
# _framework density 23.994976000000001
#
# number of rings (size 3 to 8) (size 9 to 14) (size 15 to 20)
#    0.000    1.333    4.000    1.600    0.000    2.133 
#    7.200    1.333    0.000    0.000    0.000    0.000 
#    0.000    0.000    0.000    0.000    0.000    0.000 
#
# Total GULP energy -83601.889329 kJ/mol
# GULP energy per Si atom -5573.459289 kJ/mol
# Density = 2.394036 g / cm^3
# Si number density = 23.994976 Si / 1000 Ang^3
#
#
#
# Elastic Constant Matrix: (Units=GPa)
#
#
# Indices 1 2 3 4 5 6 
#
# 1 123.3524 54.5858 20.8671 -12.5058 -26.1348 22.5627
# 2 54.5858 136.0174 67.0642 15.6894 -16.6234 -1.6461
# 3 20.8671 67.0642 90.5903 0.8828 -18.6112 -6.7770
# 4 -12.5058 15.6894 0.8828 28.7996 2.7567 -17.5806
# 5 -26.1348 -16.6234 -18.6112 2.7567 24.2099 -1.6103
# 6 22.5627 -1.6461 -6.7770 -17.5806 -1.6103 48.9695
#
#
#
# Elastic Compliance Matrix: (Units=1/GPa)
#
#
# Indices 1 2 3 4 5 6 
#
# 1 0.014739 -0.007286 0.004394 0.006796 0.013276 -0.003551
# 2 -0.007286 0.017192 -0.011911 -0.013416 -0.003867 -0.002657
# 3 0.004394 -0.011911 0.021628 0.009145 0.012434 0.004260
# 4 0.006796 -0.013416 0.009145 0.055437 0.000011 0.017586
# 5 0.013276 -0.003867 0.012434 0.000011 0.062375 -0.002471
# 6 -0.003551 -0.002657 0.004260 0.017586 -0.002471 0.028790
#
#
# Mechanical properties :
#
#
# Convention : Reuss Voigt Hill
#
# Bulk Modulus (GPa) = 41.74737 70.55493 56.15115
# Shear Modulus (GPa) = 21.03040 34.22534 27.62787
#
# Velocity S-wave (km/s) = 2.96370 3.78081 3.39691
# Velocity P-wave (km/s) = 5.39884 6.96615 6.23196
#
# Compressibility (1/GPa) = 0.02395361
#
# Stress axis : x y z
#
# Youngs Moduli (GPa) = 67.84634 58.16732 46.23549
#
# Poissons Ratio (x) = 0.42381 -0.20318
# Poissons Ratio (y) = 0.49434 0.55072
# Poissons Ratio (z) = -0.29815 0.69284
#
# Static dielectric constant tensor:
#      x y z
#    x 1.934640 0.021430 0.080610 
#    y 0.021430 1.895080 0.017160 
#    z 0.080610 0.017160 1.953480 
# 
# From -- ./inp_files/279756.got.cif
#   From: 2010.05.17/outbox.cif.g08.bks.cpg/sg2_140_cif.got.tgz:279756.got - 2010.06.03 11:33:40.
