data_PCOD9110718
_publ_section_title
;
Structure prediction by ZEFSAII (Michael W. Deem and Ramdas Pophale) SiO2 
 PCOD9110718
Probable space group: P -1
;
_chemical_formula_sum "Si O2"
_cell_formula_units_Z 16
_cell_length_a 11.737894
_cell_length_b 10.285758
_cell_length_c 11.545474
_cell_angle_alpha 132.231716
_cell_angle_beta 51.281225
_cell_angle_gamma 137.296048
_cell_volume 675.531147
_symmetry_space_group_name_H-M "P -1"
_symmetry_group_IT_number 2
_symmetry_cell_setting 'triclinic'
loop_
_space_group_symop_operation_xyz
x,y,z
-x,-y,-z
loop_
_atom_site_type_symbol
_atom_site_label
_atom_site_fract_x
_atom_site_fract_y
_atom_site_fract_z
Si Si1 0.776699 0.797980 0.785486
Si Si2 0.805668 0.173540 0.127381
Si Si3 0.643930 0.235902 0.456305
Si Si4 0.107844 0.248739 0.096649
Si Si5 0.387118 0.572778 0.971479
Si Si6 0.925506 0.698243 0.450053
Si Si7 0.164415 0.502625 0.848468
Si Si8 0.678691 0.145709 0.643595
O O1 0.877695 0.725620 0.760508
O O2 0.574125 0.639916 0.844671
O O3 0.855332 0.831860 0.629907
O O4 0.808169 0.008645 0.945839
O O5 0.707803 0.099227 0.267488
O O6 0.731919 0.281970 0.162176
O O7 0.002843 0.327996 0.141159
O O8 0.779643 0.468524 0.461130
O O9 0.661348 0.229814 0.579097
O O10 0.447407 0.106109 0.452340
O O11 0.297787 0.373631 0.994696
O O12 0.000000 0.000000 0.000000
O O13 0.271940 0.505671 0.888962
O O14 0.380336 0.753872 0.157063
O O15 0.899825 0.672161 0.313392
O O16 0.122959 0.781871 0.411335
O O17 0.000000 0.500000 0.000000
#
# Coordination Sequence:
#
# PCOD9110718 Si02
#       8
#     2   2   2   2   2   2   2   2
#     4  11  24  40  63 100 137 167 210 271 350 387
#     4  10  20  42  65  97 130 171 218 270 323 395
#     4  10  21  38  64 100 128 168 228 268 320 394
#     4  10  21  37  64  95 134 169 206 269 340 395
#     4  12  22  42  68  97 129 178 223 270 324 395
#     4  11  23  43  63  94 134 175 213 280 330 382
#     4  11  22  42  73  91 124 179 236 265 313 394
#     4  11  21  38  69  94 129 173 228 270 318 391
#
# _framework density 23.685067
#
# number of rings (size 3 to 8) (size 9 to 14) (size 15 to 20)
#    0.000    1.250    3.750    3.000    0.000    1.000 
#    6.750    0.625    0.000    0.000    0.000    0.000 
#    0.000    0.000    0.000    0.000    0.000    0.000 
#
# Total GULP energy -89223.830266 kJ/mol
# GULP energy per Si atom -5576.489392 kJ/mol
# Density = 2.363116 g / cm^3
# Si number density = 23.685067 Si / 1000 Ang^3
#
#
#
# Elastic Constant Matrix: (Units=GPa)
#
#
# Indices 1 2 3 4 5 6 
#
# 1 66.1401 19.0983 38.3376 1.1922 30.0127 19.6739
# 2 19.0983 74.5947 17.0422 7.9986 4.9295 23.8828
# 3 38.3376 17.0422 172.9473 -12.5578 30.8406 13.9489
# 4 1.1922 7.9986 -12.5578 35.4196 1.2675 2.0536
# 5 30.0127 4.9295 30.8406 1.2675 37.5987 0.9449
# 6 19.6739 23.8828 13.9489 2.0536 0.9449 38.3167
#
#
#
# Elastic Compliance Matrix: (Units=1/GPa)
#
#
# Indices 1 2 3 4 5 6 
#
# 1 0.030966 -0.001722 -0.001457 0.000449 -0.022967 -0.013753
# 2 -0.001722 0.017465 -0.000866 -0.003648 0.000157 -0.009495
# 3 -0.001457 -0.000866 0.007402 0.003127 -0.004864 -0.001454
# 4 0.000449 -0.003648 0.003127 0.030311 -0.003452 -0.000635
# 5 -0.022967 0.000157 -0.004864 -0.003452 0.048702 0.012449
# 6 -0.013753 -0.009495 -0.001454 -0.000635 0.012449 0.039334
#
#
# Mechanical properties :
#
#
# Convention : Reuss Voigt Hill
#
# Bulk Modulus (GPa) = 20.94601 51.40425 36.17513
# Shear Modulus (GPa) = 25.22873 38.21394 31.72134
#
# Velocity S-wave (km/s) = 3.26724 4.02110 3.66361
# Velocity P-wave (km/s) = 4.80582 6.58098 5.76217
#
# Compressibility (1/GPa) = 0.04774180
#
# Stress axis : x y z
#
# Youngs Moduli (GPa) = 32.29343 57.25599 135.09486
#
# Poissons Ratio (x) = 0.09861 0.19686
# Poissons Ratio (y) = 0.05562 0.11705
# Poissons Ratio (z) = 0.04706 0.04961
#
# Static dielectric constant tensor:
#      x y z
#    x 1.939620 0.005810 -0.047730 
#    y 0.005810 2.087100 0.034730 
#    z -0.047730 0.034730 2.034770 
# 
# From -- ./inp_files/428897.got.cif
#   From: 2010.05.17/outbox.cif.g08.bks.cpg/sg2_215_cif.got.tgz:428897.got - 2010.06.03 11:33:40.
