data_PCOD9110025
_publ_section_title
;
Structure prediction by ZEFSAII (Michael W. Deem and Ramdas Pophale) SiO2 
 PCOD9110025
Probable space group: P -1
;
_chemical_formula_sum "Si O2"
_cell_formula_units_Z 16
_cell_length_a 13.341602
_cell_length_b 9.160655
_cell_length_c 9.229674
_cell_angle_alpha 86.927890
_cell_angle_beta 141.938473
_cell_angle_gamma 108.705124
_cell_volume 619.315018
_symmetry_space_group_name_H-M "P -1"
_symmetry_group_IT_number 2
_symmetry_cell_setting 'triclinic'
loop_
_space_group_symop_operation_xyz
x,y,z
-x,-y,-z
loop_
_atom_site_type_symbol
_atom_site_label
_atom_site_fract_x
_atom_site_fract_y
_atom_site_fract_z
Si Si1 0.926396 0.026113 0.098581
Si Si2 0.692692 0.908749 0.126187
Si Si3 0.928298 0.685645 0.087930
Si Si4 0.649098 0.472946 0.568297
Si Si5 0.728407 0.203026 0.345831
Si Si6 0.715998 0.363326 0.035321
Si Si7 0.681003 0.165976 0.720019
Si Si8 0.309758 0.290953 0.626663
O O1 0.135368 0.154256 0.354684
O O2 0.822280 0.990051 0.135717
O O3 0.898014 0.845792 0.036979
O O4 0.834251 0.102900 0.879510
O O5 0.715911 0.757396 0.231216
O O6 0.740447 0.045806 0.298447
O O7 0.481979 0.853904 0.852553
O O8 0.131902 0.732021 0.367297
O O9 0.847621 0.584115 0.856467
O O10 0.806162 0.551258 0.077772
O O11 0.500000 0.500000 0.500000
O O12 0.627818 0.293425 0.570548
O O13 0.655479 0.534597 0.408609
O O14 0.780379 0.331733 0.265665
O O15 0.740340 0.256320 0.940057
O O16 0.497969 0.288063 0.802091
O O17 0.500000 0.000000 0.500000
#
# Coordination Sequence:
#
# PCOD9110025 Si02
#       8
#     2   2   2   2   2   2   2   2
#     4  12  25  41  68 105 139 180 235 290 345 403
#     4  10  22  42  69 102 143 183 231 297 332 406
#     4  11  23  40  72 105 137 184 232 283 349 421
#     4  11  23  47  74  97 143 186 229 288 347 420
#     4  10  20  41  69 101 137 187 238 272 353 413
#     4  10  22  44  71  96 142 183 228 289 343 415
#     4  11  24  43  72  99 136 185 230 291 350 407
#     4  11  23  43  71  98 139 190 228 278 353 415
#
# _framework density 25.834994999999999
#
# number of rings (size 3 to 8) (size 9 to 14) (size 15 to 20)
#    0.000    1.250    5.000    1.500    0.000    1.000 
#    2.250    5.000    0.000    0.000    0.000    0.000 
#    0.000    0.000    0.000    0.000    0.000    0.000 
#
# Total GULP energy -89593.931937 kJ/mol
# GULP energy per Si atom -5599.620746 kJ/mol
# Density = 2.577619 g / cm^3
# Si number density = 25.834995 Si / 1000 Ang^3
#
#
#
# Elastic Constant Matrix: (Units=GPa)
#
#
# Indices 1 2 3 4 5 6 
#
# 1 80.7284 56.3613 33.3305 -9.8539 -2.1594 10.8069
# 2 56.3613 225.5429 51.0963 -28.7488 7.4514 13.4443
# 3 33.3305 51.0963 123.2862 -11.4352 12.1941 0.3940
# 4 -9.8539 -28.7488 -11.4352 56.2563 13.7141 -12.1388
# 5 -2.1594 7.4514 12.1941 13.7141 32.1165 -1.7646
# 6 10.8069 13.4443 0.3940 -12.1388 -1.7646 37.9226
#
#
#
# Elastic Compliance Matrix: (Units=1/GPa)
#
#
# Indices 1 2 3 4 5 6 
#
# 1 0.016684 -0.003417 -0.003550 -0.001223 0.003580 -0.003731
# 2 -0.003417 0.005980 -0.001060 0.002750 -0.002409 -0.000367
# 3 -0.003550 -0.001060 0.010213 0.002490 -0.004832 0.001854
# 4 -0.001223 0.002750 0.002490 0.023630 -0.011406 0.006381
# 5 0.003580 -0.002409 -0.004832 -0.011406 0.038533 -0.001974
# 6 -0.003731 -0.000367 0.001854 0.006381 -0.001974 0.029494
#
#
# Mechanical properties :
#
#
# Convention : Reuss Voigt Hill
#
# Bulk Modulus (GPa) = 59.44054 79.01486 69.22770
# Shear Modulus (GPa) = 34.20046 44.51038 39.35542
#
# Velocity S-wave (km/s) = 3.64236 4.15525 3.90723
# Velocity P-wave (km/s) = 6.38332 7.32614 6.87092
#
# Compressibility (1/GPa) = 0.01682353
#
# Stress axis : x y z
#
# Youngs Moduli (GPa) = 59.93632 167.23220 97.91101
#
# Poissons Ratio (x) = 0.57139 0.34760
# Poissons Ratio (y) = 0.20479 0.10379
# Poissons Ratio (z) = 0.21278 0.17728
#
# Static dielectric constant tensor:
#      x y z
#    x 2.118800 0.064600 -0.011530 
#    y 0.064600 2.048940 -0.049280 
#    z -0.011530 -0.049280 1.974520 
# 
# From -- ./inp_files/462173.got.cif
#   From: 2010.05.17/outbox.cif.g08.bks.cpg/sg2_232_cif.got.tgz:462173.got - 2010.06.03 11:33:40.
