data_PCOD9110688
_publ_section_title
;
Structure prediction by ZEFSAII (Michael W. Deem and Ramdas Pophale) SiO2 
 PCOD9110688
Probable space group: P -1
;
_chemical_formula_sum "Si O2"
_cell_formula_units_Z 15
_cell_length_a 9.886360
_cell_length_b 10.674656
_cell_length_c 9.741733
_cell_angle_alpha 92.628499
_cell_angle_beta 140.969158
_cell_angle_gamma 80.077580
_cell_volume 631.287845
_symmetry_space_group_name_H-M "P -1"
_symmetry_group_IT_number 2
_symmetry_cell_setting 'triclinic'
loop_
_space_group_symop_operation_xyz
x,y,z
-x,-y,-z
loop_
_atom_site_type_symbol
_atom_site_label
_atom_site_fract_x
_atom_site_fract_y
_atom_site_fract_z
Si Si1 0.500000 0.500000 0.000000
Si Si2 0.065550 0.580946 0.181960
Si Si3 0.213672 0.906963 0.501591
Si Si4 0.003457 0.612732 0.681389
Si Si5 0.875431 0.225435 0.960404
Si Si6 0.808029 0.836811 0.335746
Si Si7 0.264365 0.995422 0.259046
Si Si8 0.598624 0.730987 0.926568
O O1 0.776382 0.472770 0.214308
O O2 0.490867 0.618502 0.892572
O O3 0.135717 0.478065 0.354013
O O4 0.841969 0.671693 0.063425
O O5 0.201968 0.673584 0.219543
O O6 0.000000 0.500000 0.000000
O O7 0.149219 0.945566 0.298109
O O8 0.027738 0.849883 0.427436
O O9 0.243893 0.035964 0.607510
O O10 0.443623 0.807107 0.692170
O O11 0.101292 0.695592 0.879798
O O12 0.862907 0.712583 0.470670
O O13 0.116877 0.134536 0.118356
O O14 0.727822 0.118856 0.849612
O O15 0.624181 0.821689 0.080299
O O16 0.500000 0.000000 0.500000
#
# Coordination Sequence:
#
# PCOD9110688 Si02
#       8
#     1   2   2   2   2   2   2   2
#     4  10  22  38  62  90 122 166 202 252 300 370
#     4   9  20  38  67  86 119 171 206 252 306 360
#     4  11  23  41  62  97 127 156 211 258 307 378
#     4  10  20  42  65  91 127 164 208 253 310 372
#     4  10  21  42  63  90 127 162 205 257 312 357
#     4  11  23  40  66  93 125 167 202 255 318 370
#     4  11  23  38  65  94 124 164 204 255 310 372
#     4  11  22  40  64  90 128 162 205 257 308 365
#
# _framework density 23.760953000000001
#
# number of rings (size 3 to 8) (size 9 to 14) (size 15 to 20)
#    0.000    1.600    2.667    2.000    0.000    4.267 
#    2.400    0.000    2.933    5.600    0.000    0.000 
#    0.000    0.000    0.000    0.000    0.000    0.000 
#
# Total GULP energy -83595.289245 kJ/mol
# GULP energy per Si atom -5573.019283 kJ/mol
# Density = 2.370687 g / cm^3
# Si number density = 23.760953 Si / 1000 Ang^3
#
#
#
# Elastic Constant Matrix: (Units=GPa)
#
#
# Indices 1 2 3 4 5 6 
#
# 1 30.7777 10.3772 2.4903 -3.3930 -18.5796 13.9332
# 2 10.3772 87.2270 21.1464 -11.4057 -16.3267 13.1000
# 3 2.4903 21.1464 64.1504 -7.2704 -10.3436 11.5537
# 4 -3.3930 -11.4057 -7.2704 41.3337 6.0616 -15.8804
# 5 -18.5796 -16.3267 -10.3436 6.0616 30.6499 -6.2367
# 6 13.9332 13.1000 11.5537 -15.8804 -6.2367 28.9522
#
#
#
# Elastic Compliance Matrix: (Units=1/GPa)
#
#
# Indices 1 2 3 4 5 6 
#
# 1 0.072017 0.001039 0.008814 -0.012414 0.042241 -0.036355
# 2 0.001039 0.013871 -0.002835 0.001085 0.006086 -0.003738
# 3 0.008814 -0.002835 0.019123 -0.001668 0.008654 -0.009641
# 4 -0.012414 0.001085 -0.001668 0.033134 -0.009531 0.022270
# 5 0.042241 0.006086 0.008654 -0.009531 0.062559 -0.018288
# 6 -0.036355 -0.003738 -0.009641 0.022270 -0.018288 0.065850
#
#
# Mechanical properties :
#
#
# Convention : Reuss Voigt Hill
#
# Bulk Modulus (GPa) = 8.40011 27.79810 18.09910
# Shear Modulus (GPa) = 17.11146 30.06321 23.58734
#
# Velocity S-wave (km/s) = 2.68647 3.56087 3.15412
# Velocity P-wave (km/s) = 3.62847 5.35079 4.57147
#
# Compressibility (1/GPa) = 0.11904611
#
# Stress axis : x y z
#
# Youngs Moduli (GPa) = 13.88559 72.09501 52.29171
#
# Poissons Ratio (x) = -0.07489 -0.46088
# Poissons Ratio (y) = -0.01442 0.14825
# Poissons Ratio (z) = -0.12238 0.20439
#
# Static dielectric constant tensor:
#      x y z
#    x 1.946110 0.023530 -0.031330 
#    y 0.023530 1.997300 0.067400 
#    z -0.031330 0.067400 1.883810 
# 
# From -- ./inp_files/80927.got.cif
#   From: 2010.05.17/outbox.cif.g08.bks.cpg/sg2_41_cif.got.tgz:80927.got - 2010.06.03 11:33:40.
