data_PCOD9110172
_publ_section_title
;
Structure prediction by ZEFSAII (Michael W. Deem and Ramdas Pophale) SiO2 
 PCOD9110172
Probable space group: P -1
;
_chemical_formula_sum "Si O2"
_cell_formula_units_Z 16
_cell_length_a 15.392798
_cell_length_b 14.640664
_cell_length_c 14.856198
_cell_angle_alpha 151.205200
_cell_angle_beta 149.615124
_cell_angle_gamma 31.978783
_cell_volume 754.935386
_symmetry_space_group_name_H-M "P -1"
_symmetry_group_IT_number 2
_symmetry_cell_setting 'triclinic'
loop_
_space_group_symop_operation_xyz
x,y,z
-x,-y,-z
loop_
_atom_site_type_symbol
_atom_site_label
_atom_site_fract_x
_atom_site_fract_y
_atom_site_fract_z
Si Si1 0.998760 0.615329 0.191917
Si Si2 0.465461 0.289461 0.770684
Si Si3 0.401534 0.050142 0.859655
Si Si4 0.833062 0.357282 0.914105
Si Si5 0.800946 0.876675 0.691382
Si Si6 0.497182 0.712302 0.000417
Si Si7 0.324906 0.666597 0.441827
Si Si8 0.082701 0.957972 0.888990
O O1 0.809140 0.805914 0.189539
O O2 0.164812 0.695187 0.397672
O O3 0.980267 0.471133 0.132337
O O4 0.000000 0.500000 0.000000
O O5 0.295239 0.284258 0.554434
O O6 0.439811 0.222913 0.792338
O O7 0.645933 0.106605 0.735670
O O8 0.500000 0.500000 0.000000
O O9 0.487937 0.159308 0.961434
O O10 0.392178 0.847329 0.636170
O O11 0.500000 0.000000 0.000000
O O12 0.743703 0.382677 0.757114
O O13 0.947533 0.121516 0.839142
O O14 0.654389 0.484504 0.926365
O O15 0.866014 0.895281 0.866906
O O16 0.968206 0.851958 0.752169
O O17 0.274468 0.782154 0.874545
O O18 0.500000 0.500000 0.500000
#
# Coordination Sequence:
#
# PCOD9110172 Si02
#       8
#     2   2   2   2   2   2   2   2
#     4   9  20  39  59  88 119 161 213 263 318 381
#     4  10  20  41  70  94 136 171 218 274 336 396
#     4  11  23  40  63  86 130 170 212 270 323 383
#     4  10  22  41  63  90 131 162 218 273 323 389
#     4   9  21  41  65  99 130 173 217 270 337 405
#     4  10  23  40  61  97 125 171 218 265 327 399
#     4  11  23  39  61  90 123 173 217 268 329 384
#     4  10  21  41  69  92 134 169 216 274 335 390
#
# _framework density 21.193867000000001
#
# number of rings (size 3 to 8) (size 9 to 14) (size 15 to 20)
#    0.000    2.000    0.000    3.375    7.000    0.000 
#    4.500   11.250    0.000    0.000    0.000    0.000 
#    0.000    0.000    0.000    0.000    0.000    0.000 
#
# Total GULP energy -89142.632819 kJ/mol
# GULP energy per Si atom -5571.414551 kJ/mol
# Density = 2.114563 g / cm^3
# Si number density = 21.193867 Si / 1000 Ang^3
#
#
#
# Elastic Constant Matrix: (Units=GPa)
#
#
# Indices 1 2 3 4 5 6 
#
# 1 82.9730 29.8313 9.2632 -20.4413 2.7879 -18.3238
# 2 29.8313 66.5085 4.3344 -5.4703 6.9186 -9.9763
# 3 9.2632 4.3344 80.5380 -6.8877 5.1531 0.3680
# 4 -20.4413 -5.4703 -6.8877 28.4688 -1.3293 2.8713
# 5 2.7879 6.9186 5.1531 -1.3293 17.1150 -7.2968
# 6 -18.3238 -9.9763 0.3680 2.8713 -7.2968 39.9904
#
#
#
# Elastic Compliance Matrix: (Units=1/GPa)
#
#
# Indices 1 2 3 4 5 6 
#
# 1 0.018809 -0.006800 -0.001095 0.011425 0.003804 0.006806
# 2 -0.006800 0.018687 0.000043 -0.001630 -0.006373 0.000500
# 3 -0.001095 0.000043 0.013018 0.002330 -0.004239 -0.001552
# 4 0.011425 -0.001630 0.002330 0.043478 0.002376 0.002119
# 5 0.003804 -0.006373 -0.004239 0.002376 0.067072 0.012260
# 6 0.006806 0.000500 -0.001552 0.002119 0.012260 0.030348
#
#
# Mechanical properties :
#
#
# Convention : Reuss Voigt Hill
#
# Bulk Modulus (GPa) = 28.72844 35.20859 31.96851
# Shear Modulus (GPa) = 22.86030 29.55420 26.20725
#
# Velocity S-wave (km/s) = 3.28781 3.73831 3.52027
# Velocity P-wave (km/s) = 5.29126 5.93986 5.62492
#
# Compressibility (1/GPa) = 0.03480871
#
# Stress axis : x y z
#
# Youngs Moduli (GPa) = 53.16572 53.51357 76.81846
#
# Poissons Ratio (x) = 0.36391 0.08410
# Poissons Ratio (y) = 0.36154 -0.00327
# Poissons Ratio (z) = 0.05820 -0.00228
#
# Static dielectric constant tensor:
#      x y z
#    x 1.790020 0.000280 0.045620 
#    y 0.000280 1.775990 0.040230 
#    z 0.045620 0.040230 1.791510 
# 
# From -- ./inp_files/534624.got.cif
#   From: 2010.05.17/outbox.cif.g08.bks.cpg/sg2_268_cif.got.tgz:534624.got - 2010.06.03 11:33:40.
