data_PCOD9110227
_publ_section_title
;
Structure prediction by ZEFSAII (Michael W. Deem and Ramdas Pophale) SiO2 
 PCOD9110227
Probable space group: P -1
;
_chemical_formula_sum "Si O2"
_cell_formula_units_Z 16
_cell_length_a 9.628364
_cell_length_b 26.666481
_cell_length_c 14.445302
_cell_angle_alpha 160.817117
_cell_angle_beta 46.931023
_cell_angle_gamma 142.543856
_cell_volume 698.428613
_symmetry_space_group_name_H-M "P -1"
_symmetry_group_IT_number 2
_symmetry_cell_setting 'triclinic'
loop_
_space_group_symop_operation_xyz
x,y,z
-x,-y,-z
loop_
_atom_site_type_symbol
_atom_site_label
_atom_site_fract_x
_atom_site_fract_y
_atom_site_fract_z
Si Si1 0.190065 0.667624 0.921206
Si Si2 0.719287 0.836934 0.320615
Si Si3 0.544535 0.024033 0.246671
Si Si4 0.161866 0.290882 0.256461
Si Si5 0.310201 0.100444 0.205825
Si Si6 0.100611 0.262419 0.452030
Si Si7 0.354026 0.507737 0.161412
Si Si8 0.542749 0.298955 0.975795
O O1 0.171785 0.478278 0.575535
O O2 0.322755 0.749494 0.102083
O O3 0.917928 0.591165 0.917009
O O4 0.349089 0.830715 0.056466
O O5 0.553124 0.852427 0.492606
O O6 0.666526 0.631312 0.992072
O O7 0.634510 0.851620 0.284236
O O8 0.000000 0.000000 0.500000
O O9 0.570819 0.962095 0.026524
O O10 0.811903 0.145294 0.382258
O O11 0.156732 0.246342 0.290832
O O12 0.382741 0.326134 0.163466
O O13 0.915339 0.097998 0.990793
O O14 0.196004 0.180322 0.334095
O O15 0.504745 0.275875 0.488303
O O16 0.248241 0.492059 0.800466
O O17 0.500000 0.500000 0.000000
#
# Coordination Sequence:
#
# PCOD9110227 Si02
#       8
#     2   2   2   2   2   2   2   2
#     4  11  24  45  68 108 138 183 228 289 334 412
#     4  12  28  50  68 102 139 187 225 287 344 414
#     4  11  24  43  73 101 144 176 239 277 340 414
#     4  10  22  39  73 105 141 173 235 288 333 409
#     4  11  23  44  71 103 134 191 224 284 348 400
#     4  10  20  41  71 106 136 178 234 284 337 405
#     4  12  30  48  69  99 147 177 233 286 347 409
#     4  11  23  43  74 101 140 182 229 279 353 398
#
# _framework density 22.908569
#
# number of rings (size 3 to 8) (size 9 to 14) (size 15 to 20)
#    0.000    1.000    2.500    5.250    7.000    4.000 
#    0.000    0.000    0.000    0.000    0.000    0.000 
#    0.000    0.000    0.000    0.000    0.000    0.000 
#
# Total GULP energy -89611.570535 kJ/mol
# GULP energy per Si atom -5600.723158 kJ/mol
# Density = 2.285643 g / cm^3
# Si number density = 22.908569 Si / 1000 Ang^3
#
#
#
# Elastic Constant Matrix: (Units=GPa)
#
#
# Indices 1 2 3 4 5 6 
#
# 1 109.1599 52.2495 47.3194 -4.8018 14.4164 31.1557
# 2 52.2495 120.5020 35.5643 10.3666 14.7567 45.0759
# 3 47.3194 35.5643 86.5182 16.2371 15.8560 14.9634
# 4 -4.8018 10.3666 16.2371 40.7163 5.2056 -5.7724
# 5 14.4164 14.7567 15.8560 5.2056 40.2448 10.0135
# 6 31.1557 45.0759 14.9634 -5.7724 10.0135 33.2247
#
#
#
# Elastic Compliance Matrix: (Units=1/GPa)
#
#
# Indices 1 2 3 4 5 6 
#
# 1 0.015716 -0.002100 -0.007045 0.004183 -0.000689 -0.007781
# 2 -0.002100 0.020213 -0.001103 -0.008997 0.001662 -0.027021
# 3 -0.007045 -0.001103 0.017851 -0.007313 -0.003091 -0.000276
# 4 0.004183 -0.008997 -0.007313 0.033459 -0.004295 0.018686
# 5 -0.000689 0.001662 -0.003091 -0.004295 0.028646 -0.009597
# 6 -0.007781 -0.027021 -0.000276 0.018686 -0.009597 0.080317
#
#
# Mechanical properties :
#
#
# Convention : Reuss Voigt Hill
#
# Bulk Modulus (GPa) = 30.04463 65.16072 47.60267
# Shear Modulus (GPa) = 21.94978 34.90697 28.42838
#
# Velocity S-wave (km/s) = 3.09875 3.90776 3.52653
# Velocity P-wave (km/s) = 5.09377 6.99045 6.11608
#
# Compressibility (1/GPa) = 0.03328382
#
# Stress axis : x y z
#
# Youngs Moduli (GPa) = 63.63057 49.47359 56.01798
#
# Poissons Ratio (x) = 0.10389 0.39466
# Poissons Ratio (y) = 0.13362 0.06179
# Poissons Ratio (z) = 0.44829 0.05457
#
# Static dielectric constant tensor:
#      x y z
#    x 1.887240 -0.002960 -0.007320 
#    y -0.002960 1.841930 -0.010180 
#    z -0.007320 -0.010180 1.884940 
# 
# From -- ./inp_files/509007.got.cif
#   From: 2010.05.17/outbox.cif.g08.bks.cpg/sg2_255_cif.got.tgz:509007.got - 2010.06.03 11:33:40.
