data_PCOD9110491
_publ_section_title
;
Structure prediction by ZEFSAII (Michael W. Deem and Ramdas Pophale) SiO2 
 PCOD9110491
Probable space group: P -1
;
_chemical_formula_sum "Si O2"
_cell_formula_units_Z 16
_cell_length_a 12.532765
_cell_length_b 20.590757
_cell_length_c 9.223264
_cell_angle_alpha 53.496339
_cell_angle_beta 64.428087
_cell_angle_gamma 21.906391
_cell_volume 653.878201
_symmetry_space_group_name_H-M "P -1"
_symmetry_group_IT_number 2
_symmetry_cell_setting 'triclinic'
loop_
_space_group_symop_operation_xyz
x,y,z
-x,-y,-z
loop_
_atom_site_type_symbol
_atom_site_label
_atom_site_fract_x
_atom_site_fract_y
_atom_site_fract_z
Si Si1 0.723699 0.195279 0.290589
Si Si2 0.330616 0.575760 0.752278
Si Si3 0.583985 0.121823 0.925333
Si Si4 0.665195 0.003315 0.512543
Si Si5 0.850276 0.302279 0.985335
Si Si6 0.662031 0.675913 0.492204
Si Si7 0.462121 0.725521 0.018257
Si Si8 0.795064 0.731638 0.828862
O O1 0.798251 0.240119 0.141826
O O2 0.403645 0.365850 0.329335
O O3 0.695881 0.168413 0.187388
O O4 0.000000 0.000000 0.500000
O O5 0.188721 0.634408 0.916195
O O6 0.583367 0.481086 0.781739
O O7 0.506594 0.390715 0.817579
O O8 0.029092 0.796171 0.550628
O O9 0.479181 0.241647 0.693456
O O10 0.701923 0.111460 0.988883
O O11 0.303802 0.249054 0.991505
O O12 0.824596 0.903461 0.013351
O O13 0.534081 0.135042 0.550825
O O14 0.421357 0.168058 0.305833
O O15 0.694204 0.889164 0.677960
O O16 0.000000 0.500000 0.500000
O O17 0.835010 0.511004 0.087679
#
# Coordination Sequence:
#
# PCOD9110491 Si02
#       8
#     2   2   2   2   2   2   2   2
#     4  11  21  41  63  89 125 176 201 249 322 381
#     4   9  19  40  63  82 120 173 208 244 315 381
#     4  12  22  38  61  99 125 158 214 272 304 366
#     4  10  20  42  63  85 123 174 206 252 320 388
#     4  10  21  39  63  90 123 164 215 256 309 380
#     4  12  24  39  63  96 128 159 217 267 307 369
#     4  10  22  38  65  90 127 167 204 258 322 372
#     4  10  22  39  64  89 128 167 209 256 328 372
#
# _framework density 24.469387999999999
#
# number of rings (size 3 to 8) (size 9 to 14) (size 15 to 20)
#    0.000    1.500    2.500    2.625    0.000    2.500 
#    6.750    0.625    0.000    0.000    0.000    0.000 
#    0.000    0.000    0.000    0.000    0.000    0.000 
#
# Total GULP energy -89310.826373 kJ/mol
# GULP energy per Si atom -5581.926648 kJ/mol
# Density = 2.441369 g / cm^3
# Si number density = 24.469388 Si / 1000 Ang^3
#
#
#
# Elastic Constant Matrix: (Units=GPa)
#
#
# Indices 1 2 3 4 5 6 
#
# 1 76.4981 0.8222 28.6881 -1.5034 9.4577 2.1031
# 2 0.8222 63.2205 -4.4619 -4.2884 -3.2389 -3.0758
# 3 28.6881 -4.4619 100.5644 -2.6388 21.0146 -1.8659
# 4 -1.5034 -4.2884 -2.6388 35.8077 -2.3022 3.3996
# 5 9.4577 -3.2389 21.0146 -2.3022 48.9019 -3.7437
# 6 2.1031 -3.0758 -1.8659 3.3996 -3.7437 36.8471
#
#
#
# Elastic Compliance Matrix: (Units=1/GPa)
#
#
# Indices 1 2 3 4 5 6 
#
# 1 0.014771 -0.000579 -0.003991 0.000294 -0.001262 -0.001249
# 2 -0.000579 0.016126 0.000735 0.001901 0.001057 0.001348
# 3 -0.003991 0.000735 0.012033 0.000491 -0.004295 0.000417
# 4 0.000294 0.001901 0.000491 0.028493 0.001019 -0.002359
# 5 -0.001262 0.001057 -0.004295 0.001019 0.022823 0.002168
# 6 -0.001249 0.001348 0.000417 -0.002359 0.002168 0.027782
#
#
# Mechanical properties :
#
#
# Convention : Reuss Voigt Hill
#
# Bulk Modulus (GPa) = 28.36178 32.26441 30.31309
# Shear Modulus (GPa) = 35.34756 38.66033 37.00395
#
# Velocity S-wave (km/s) = 3.80486 3.97917 3.89299
# Velocity P-wave (km/s) = 5.56044 5.85883 5.71159
#
# Compressibility (1/GPa) = 0.03525872
#
# Stress axis : x y z
#
# Youngs Moduli (GPa) = 67.69853 62.01266 83.10264
#
# Poissons Ratio (x) = 0.03592 0.33169
# Poissons Ratio (y) = 0.03921 -0.06106
# Poissons Ratio (z) = 0.27021 -0.04556
#
# Static dielectric constant tensor:
#      x y z
#    x 2.044150 0.039440 -0.037500 
#    y 0.039440 2.064370 -0.103090 
#    z -0.037500 -0.103090 2.015510 
# 
# From -- ./inp_files/320297.got.cif
#   From: 2010.05.17/outbox.cif.g08.bks.cpg/sg2_161_cif.got.tgz:320297.got - 2010.06.03 11:33:40.
