data_PCOD9110132
_publ_section_title
;
Structure prediction by ZEFSAII (Michael W. Deem and Ramdas Pophale) SiO2 
 PCOD9110132
Probable space group: P -1
;
_chemical_formula_sum "Si O2"
_cell_formula_units_Z 16
_cell_length_a 9.134053
_cell_length_b 21.363308
_cell_length_c 4.897170
_cell_angle_alpha 94.664454
_cell_angle_beta 84.833953
_cell_angle_gamma 126.984605
_cell_volume 759.788901
_symmetry_space_group_name_H-M "P -1"
_symmetry_group_IT_number 2
_symmetry_cell_setting 'triclinic'
loop_
_space_group_symop_operation_xyz
x,y,z
-x,-y,-z
loop_
_atom_site_type_symbol
_atom_site_label
_atom_site_fract_x
_atom_site_fract_y
_atom_site_fract_z
Si Si1 0.832747 0.694274 0.717997
Si Si2 0.750043 0.808904 0.003639
Si Si3 0.787042 0.259883 0.131991
Si Si4 0.657918 0.590149 0.205769
Si Si5 0.276039 0.516473 0.514482
Si Si6 0.835879 0.909323 0.494350
Si Si7 0.082170 0.573732 0.814247
Si Si8 0.544320 0.196059 0.679293
O O1 0.786691 0.666776 0.403637
O O2 0.041284 0.734064 0.778116
O O3 0.780059 0.749849 0.843933
O O4 0.708679 0.615853 0.895326
O O5 0.871928 0.860231 0.263030
O O6 0.544817 0.765914 0.142077
O O7 0.790789 0.870355 0.784421
O O8 0.861359 0.345816 0.039793
O O9 0.654107 0.238427 0.402542
O O10 0.676283 0.199700 0.883327
O O11 0.450571 0.555462 0.302854
O O12 0.695982 0.528936 0.274188
O O13 0.253038 0.581337 0.651450
O O14 0.080179 0.453396 0.382498
O O15 0.643506 0.887727 0.400796
O O16 0.000000 0.000000 0.500000
O O17 0.000000 0.500000 0.000000
#
# Coordination Sequence:
#
# PCOD9110132 Si02
#       8
#     2   2   2   2   2   2   2   2
#     4  12  25  41  63  89 128 164 206 257 323 362
#     4  10  22  39  64 101 122 159 210 241 303 369
#     4  12  24  41  63  87 132 164 208 266 317 368
#     4  11  25  42  61  83 117 169 211 269 322 366
#     4  10  25  40  57  84 115 155 226 267 318 383
#     4  10  20  41  70 101 130 157 202 253 297 368
#     4  11  25  40  59  86 118 169 216 270 325 364
#     4  10  23  40  64  97 118 165 210 244 314 367
#
# _framework density 21.058478999999998
#
# number of rings (size 3 to 8) (size 9 to 14) (size 15 to 20)
#    0.750    0.500    2.500    2.625    8.750    1.000 
#    0.000    0.000    0.000    4.500    0.000    0.000 
#    0.000    0.000    0.000    0.000    0.000    0.000 
#
# Total GULP energy -89412.717302 kJ/mol
# GULP energy per Si atom -5588.294831 kJ/mol
# Density = 2.101055 g / cm^3
# Si number density = 21.058479 Si / 1000 Ang^3
#
#
#
# Elastic Constant Matrix: (Units=GPa)
#
#
# Indices 1 2 3 4 5 6 
#
# 1 95.4790 23.9481 5.9138 -3.7325 2.2090 14.6092
# 2 23.9481 44.6550 15.4924 3.2539 6.5087 19.5179
# 3 5.9138 15.4924 91.4496 -5.0385 -3.9815 11.0489
# 4 -3.7325 3.2539 -5.0385 27.5905 5.6043 0.5942
# 5 2.2090 6.5087 -3.9815 5.6043 16.7603 3.5301
# 6 14.6092 19.5179 11.0489 0.5942 3.5301 24.0887
#
#
#
# Elastic Compliance Matrix: (Units=1/GPa)
#
#
# Indices 1 2 3 4 5 6 
#
# 1 0.012466 -0.005720 0.000739 0.002436 0.000660 -0.003422
# 2 -0.005720 0.039433 -0.003845 -0.003778 -0.008876 -0.025324
# 3 0.000739 -0.003845 0.012283 0.001977 0.004424 -0.003664
# 4 0.002436 -0.003778 0.001977 0.039785 -0.011994 0.001454
# 5 0.000660 -0.008876 0.004424 -0.011994 0.069156 -0.005077
# 6 -0.003422 -0.025324 -0.003664 0.001454 -0.005077 0.066496
#
#
# Mechanical properties :
#
#
# Convention : Reuss Voigt Hill
#
# Bulk Modulus (GPa) = 21.49176 35.81022 28.65099
# Shear Modulus (GPa) = 18.32974 26.10317 22.21646
#
# Velocity S-wave (km/s) = 2.95349 3.52455 3.25158
# Velocity P-wave (km/s) = 4.67533 5.79701 5.26612
#
# Compressibility (1/GPa) = 0.04652947
#
# Stress axis : x y z
#
# Youngs Moduli (GPa) = 80.21897 25.35931 81.41470
#
# Poissons Ratio (x) = 0.14506 -0.06018
# Poissons Ratio (y) = 0.45885 0.31307
# Poissons Ratio (z) = -0.05930 0.09752
#
# Static dielectric constant tensor:
#      x y z
#    x 1.793020 0.005970 -0.005550 
#    y 0.005970 1.755450 0.033580 
#    z -0.005550 0.033580 1.793950 
# 
# From -- ./inp_files/51364.got.cif
#   From: 2010.05.17/outbox.cif.g08.bks.cpg/sg2_26_cif.got.tgz:51364.got - 2010.06.03 11:33:40.
