data_PCOD9110535
_publ_section_title
;
Structure prediction by ZEFSAII (Michael W. Deem and Ramdas Pophale) SiO2 
 PCOD9110535
Probable space group: P -1
;
_chemical_formula_sum "Si O2"
_cell_formula_units_Z 14
_cell_length_a 15.817563
_cell_length_b 11.760350
_cell_length_c 12.363913
_cell_angle_alpha 36.857511
_cell_angle_beta 139.213662
_cell_angle_gamma 151.791765
_cell_volume 641.006857
_symmetry_space_group_name_H-M "P -1"
_symmetry_group_IT_number 2
_symmetry_cell_setting 'triclinic'
loop_
_space_group_symop_operation_xyz
x,y,z
-x,-y,-z
loop_
_atom_site_type_symbol
_atom_site_label
_atom_site_fract_x
_atom_site_fract_y
_atom_site_fract_z
Si Si1 0.516224 0.889535 0.952307
Si Si2 0.124268 0.342165 0.416107
Si Si3 0.893327 0.804530 0.712618
Si Si4 0.811231 0.308430 0.076651
Si Si5 0.633597 0.473787 0.105977
Si Si6 0.350207 0.335466 0.234361
Si Si7 0.615450 0.286013 0.444711
O O1 0.484807 0.647933 0.157539
O O2 0.704688 0.161042 0.972984
O O3 0.349299 0.839618 0.877082
O O4 0.481483 0.806723 0.856107
O O5 0.208984 0.347121 0.384085
O O6 0.245103 0.601205 0.409827
O O7 0.948036 0.281003 0.256471
O O8 0.067609 0.101475 0.616185
O O9 0.785088 0.823609 0.677040
O O10 0.909492 0.614699 0.929122
O O11 0.719492 0.480939 0.292128
O O12 0.500000 0.500000 0.000000
O O13 0.742974 0.679798 0.955282
O O14 0.470238 0.282905 0.356868
O O15 0.500000 0.000000 0.500000
#
# Coordination Sequence:
#
# PCOD9110535 Si02
#       7
#     2   2   2   2   2   2   2
#     4   8  18  36  70  92 121 165 218 257 305 385
#     4  11  26  40  63  98 136 162 206 277 318 383
#     4  10  23  43  64  96 129 167 205 270 335 363
#     4  10  20  42  63  98 128 165 210 263 327 373
#     4   8  17  37  63  85 116 163 216 252 290 373
#     4   8  19  42  66  89 121 170 218 258 312 378
#     4  11  24  42  62  96 127 170 217 256 319 381
#
# _framework density 21.84064
#
# number of rings (size 3 to 8) (size 9 to 14) (size 15 to 20)
#    0.857    1.714    0.000    0.429    6.000    1.714 
#   10.286    3.571    0.000    0.000    0.000    0.000 
#    0.000    0.000    0.000    0.000    0.000    0.000 
#
# Total GULP energy -77981.831466 kJ/mol
# GULP energy per Si atom -5570.130819 kJ/mol
# Density = 2.179093 g / cm^3
# Si number density = 21.840640 Si / 1000 Ang^3
#
#
#
# Elastic Constant Matrix: (Units=GPa)
#
#
# Indices 1 2 3 4 5 6 
#
# 1 134.4352 38.1870 33.6365 18.7648 -15.5469 -20.0234
# 2 38.1870 61.8895 18.3129 17.2589 -5.6659 -23.1599
# 3 33.6365 18.3129 54.9513 7.2040 -12.0376 4.7262
# 4 18.7648 17.2589 7.2040 33.6600 -9.4010 -7.6622
# 5 -15.5469 -5.6659 -12.0376 -9.4010 36.4022 2.2731
# 6 -20.0234 -23.1599 4.7262 -7.6622 2.2731 25.0843
#
#
#
# Elastic Compliance Matrix: (Units=1/GPa)
#
#
# Indices 1 2 3 4 5 6 
#
# 1 0.011064 -0.001098 -0.006574 -0.001917 0.001364 0.008347
# 2 -0.001098 0.034297 -0.013146 -0.008053 -0.003501 0.031124
# 3 -0.006574 -0.013146 0.030019 0.000495 0.006668 -0.023494
# 4 -0.001917 -0.008053 0.000495 0.037304 0.007623 0.001646
# 5 0.001364 -0.003501 0.006668 0.007623 0.031930 -0.003965
# 6 0.008347 0.031124 -0.023494 0.001646 -0.003965 0.080553
#
#
# Mechanical properties :
#
#
# Convention : Reuss Voigt Hill
#
# Bulk Modulus (GPa) = 29.63450 47.94987 38.79218
# Shear Modulus (GPa) = 17.98221 29.77195 23.87708
#
# Velocity S-wave (km/s) = 2.87250 3.69608 3.31001
# Velocity P-wave (km/s) = 4.95980 6.34167 5.69282
#
# Compressibility (1/GPa) = 0.03374445
#
# Stress axis : x y z
#
# Youngs Moduli (GPa) = 90.38308 29.15674 33.31168
#
# Poissons Ratio (x) = 0.03202 0.21900
# Poissons Ratio (y) = 0.09927 0.43790
# Poissons Ratio (z) = 0.59420 0.38328
#
# Static dielectric constant tensor:
#      x y z
#    x 1.803560 -0.013690 -0.046230 
#    y -0.013690 1.832320 -0.019880 
#    z -0.046230 -0.019880 1.889080 
# 
# From -- ./inp_files/463506.got.cif
#   From: 2010.05.17/outbox.cif.g08.bks.cpg/sg2_232_cif.got.tgz:463506.got - 2010.06.03 11:33:40.
