data_PCOD9110803
_publ_section_title
;
Structure prediction by ZEFSAII (Michael W. Deem and Ramdas Pophale) SiO2 
 PCOD9110803
Probable space group: P -1
;
_chemical_formula_sum "Si O2"
_cell_formula_units_Z 13
_cell_length_a 9.456903
_cell_length_b 13.020341
_cell_length_c 7.933769
_cell_angle_alpha 90.886379
_cell_angle_beta 81.261426
_cell_angle_gamma 147.988570
_cell_volume 499.710337
_symmetry_space_group_name_H-M "P -1"
_symmetry_group_IT_number 2
_symmetry_cell_setting 'triclinic'
loop_
_space_group_symop_operation_xyz
x,y,z
-x,-y,-z
loop_
_atom_site_type_symbol
_atom_site_label
_atom_site_fract_x
_atom_site_fract_y
_atom_site_fract_z
Si Si1 0.000000 0.500000 0.500000
Si Si2 0.486214 0.050866 0.327279
Si Si3 0.481415 0.243436 0.176689
Si Si4 0.111750 0.340796 0.484281
Si Si5 0.505708 0.857475 0.186939
Si Si6 0.114539 0.086689 0.794068
Si Si7 0.447483 0.503441 0.740684
O O1 0.064776 0.422686 0.418421
O O2 0.205784 0.674380 0.320919
O O3 0.604035 0.239144 0.294386
O O4 0.500000 0.000000 0.500000
O O5 0.604100 0.036721 0.180702
O O6 0.155392 0.862139 0.371583
O O7 0.606086 0.433079 0.126744
O O8 0.495866 0.185913 0.002709
O O9 0.160862 0.072331 0.271533
O O10 0.357527 0.500531 0.580560
O O11 0.236027 0.339020 0.325284
O O12 0.688249 0.890417 0.267050
O O13 0.276691 0.294045 0.781698
O O14 0.000000 0.000000 0.000000
#
# Coordination Sequence:
#
# PCOD9110803 Si02
#       7
#     1   2   2   2   2   2   2
#     4  10  20  42  66  92 134 184 228 282 354 402
#     4  11  25  43  70 103 144 192 236 284 356 422
#     4  11  25  44  72 104 142 188 236 292 355 416
#     4  10  23  41  67  98 147 180 231 298 337 423
#     4  10  23  44  70  96 146 182 237 295 351 418
#     4  10  22  44  68  99 140 179 227 296 345 415
#     4  11  23  43  70 104 139 181 239 284 358 411
#
# _framework density 26.015072
#
# number of rings (size 3 to 8) (size 9 to 14) (size 15 to 20)
#    0.000    1.538    3.077    0.462    6.462    3.077 
#    0.000    4.615    0.000    0.000    0.000    0.000 
#    0.000    0.000    0.000    0.000    0.000    0.000 
#
# Total GULP energy -72386.177105 kJ/mol
# GULP energy per Si atom -5568.167470 kJ/mol
# Density = 2.595586 g / cm^3
# Si number density = 26.015072 Si / 1000 Ang^3
#
#
#
# Elastic Constant Matrix: (Units=GPa)
#
#
# Indices 1 2 3 4 5 6 
#
# 1 171.1161 51.8740 20.3752 1.3297 -4.4708 -37.9002
# 2 51.8740 91.8647 -2.9048 -7.1855 -18.4845 -38.6838
# 3 20.3752 -2.9048 57.8524 1.2941 -19.0305 -10.2966
# 4 1.3297 -7.1855 1.2941 24.9326 -5.2022 -5.7438
# 5 -4.4708 -18.4845 -19.0305 -5.2022 37.7018 7.5180
# 6 -37.9002 -38.6838 -10.2966 -5.7438 7.5180 58.1202
#
#
#
# Elastic Compliance Matrix: (Units=1/GPa)
#
#
# Indices 1 2 3 4 5 6 
#
# 1 0.008140 -0.005159 -0.004231 -0.002264 -0.004303 0.001457
# 2 -0.005159 0.024028 0.010243 0.013047 0.015399 0.013740
# 3 -0.004231 0.010243 0.026072 0.007066 0.017230 0.007146
# 4 -0.002264 0.013047 0.007066 0.049231 0.014197 0.011488
# 5 -0.004303 0.015399 0.017230 0.014197 0.042955 0.006342
# 6 0.001457 0.013740 0.007146 0.011488 0.006342 0.028882
#
#
# Mechanical properties :
#
#
# Convention : Reuss Voigt Hill
#
# Bulk Modulus (GPa) = 16.68255 51.05799 33.87027
# Shear Modulus (GPa) = 25.30568 40.91685 33.11126
#
# Velocity S-wave (km/s) = 3.12225 3.97017 3.57146
# Velocity P-wave (km/s) = 4.40732 6.37850 5.48223
#
# Compressibility (1/GPa) = 0.05994286
#
# Stress axis : x y z
#
# Youngs Moduli (GPa) = 122.85247 41.61858 38.35596
#
# Poissons Ratio (x) = 0.21473 0.16230
# Poissons Ratio (y) = 0.63385 -0.39287
# Poissons Ratio (z) = 0.51983 -0.42629
#
# Static dielectric constant tensor:
#      x y z
#    x 2.187830 0.114420 -0.020510 
#    y 0.114420 2.121810 0.223940 
#    z -0.020510 0.223940 1.909710 
# 
# From -- ./inp_files/180156.got.cif
#   From: 2010.05.17/outbox.cif.g08.bks.cpg/sg2_91_cif.got.tgz:180156.got - 2010.06.03 11:33:40.
