data_PCOD9110795
_publ_section_title
;
Structure prediction by ZEFSAII (Michael W. Deem and Ramdas Pophale) SiO2 
 PCOD9110795
Probable space group: P -1
;
_chemical_formula_sum "Si O2"
_cell_formula_units_Z 16
_cell_length_a 13.494135
_cell_length_b 8.740645
_cell_length_c 13.772308
_cell_angle_alpha 71.920093
_cell_angle_beta 147.313051
_cell_angle_gamma 86.596371
_cell_volume 651.387475
_symmetry_space_group_name_H-M "P -1"
_symmetry_group_IT_number 2
_symmetry_cell_setting 'triclinic'
loop_
_space_group_symop_operation_xyz
x,y,z
-x,-y,-z
loop_
_atom_site_type_symbol
_atom_site_label
_atom_site_fract_x
_atom_site_fract_y
_atom_site_fract_z
Si Si1 0.345276 0.273532 0.746921
Si Si2 0.786492 0.027627 0.035989
Si Si3 0.011971 0.846062 0.964966
Si Si4 0.787620 0.293149 0.439313
Si Si5 0.083614 0.335471 0.927401
Si Si6 0.053348 0.260354 0.369857
Si Si7 0.736764 0.197572 0.212513
Si Si8 0.621093 0.101853 0.445462
O O1 0.217353 0.514193 0.594644
O O2 0.150422 0.249551 0.560823
O O3 0.521460 0.161228 0.823630
O O4 0.528575 0.192120 0.004589
O O5 0.826509 0.173220 0.984193
O O6 0.877327 0.831033 0.083919
O O7 0.947467 0.916875 0.285748
O O8 0.761307 0.968050 0.681576
O O9 0.064962 0.657148 0.106965
O O10 0.000000 0.000000 0.000000
O O11 0.663744 0.311671 0.233654
O O12 0.660450 0.270084 0.426848
O O13 0.987750 0.548969 0.757169
O O14 0.348481 0.220922 0.202676
O O15 0.809199 0.296531 0.174900
O O16 0.243485 0.055448 0.503855
O O17 0.000000 0.000000 0.500000
#
# Coordination Sequence:
#
# PCOD9110795 Si02
#       8
#     2   2   2   2   2   2   2   2
#     4  12  24  43  70  96 133 178 223 267 337 388
#     4  10  20  42  66  92 132 173 214 271 324 388
#     4   9  21  40  68  96 131 173 216 267 330 391
#     4  11  23  44  66  94 135 175 217 273 330 392
#     4  11  22  42  64  98 133 165 221 272 322 393
#     4  12  26  43  69 100 132 175 222 272 329 392
#     4  12  24  45  66  97 137 172 220 279 327 392
#     4  11  22  41  70  94 134 176 211 273 336 382
#
# _framework density 24.562951000000002
#
# number of rings (size 3 to 8) (size 9 to 14) (size 15 to 20)
#    0.000    1.000    5.000    2.250    0.000    1.500 
#    2.250    3.125    0.000    0.000    0.000    0.000 
#    0.000    0.000    0.000    0.000    0.000    0.000 
#
# Total GULP energy -89362.423023 kJ/mol
# GULP energy per Si atom -5585.151439 kJ/mol
# Density = 2.450704 g / cm^3
# Si number density = 24.562951 Si / 1000 Ang^3
#
#
#
# Elastic Constant Matrix: (Units=GPa)
#
#
# Indices 1 2 3 4 5 6 
#
# 1 59.1903 8.0824 15.5779 -17.1100 -16.6503 9.0391
# 2 8.0824 82.8261 35.1070 8.6672 -7.5412 3.8571
# 3 15.5779 35.1070 77.3969 17.5785 -9.2811 0.3666
# 4 -17.1100 8.6672 17.5785 49.9436 -1.8973 -12.1283
# 5 -16.6503 -7.5412 -9.2811 -1.8973 34.1501 -5.4779
# 6 9.0391 3.8571 0.3666 -12.1283 -5.4779 32.2006
#
#
#
# Elastic Compliance Matrix: (Units=1/GPa)
#
#
# Indices 1 2 3 4 5 6 
#
# 1 0.024874 0.000107 -0.006210 0.010866 0.010911 -0.000976
# 2 0.000107 0.015116 -0.006565 -0.000664 0.001280 -0.001798
# 3 -0.006210 -0.006565 0.018938 -0.007793 0.000141 -0.000598
# 4 0.010866 -0.000664 -0.007793 0.029044 0.006106 0.009096
# 5 0.010911 0.001280 0.000141 0.006106 0.036100 0.005223
# 6 -0.000976 -0.001798 -0.000598 0.009096 0.005223 0.035866
#
#
# Mechanical properties :
#
#
# Convention : Reuss Voigt Hill
#
# Bulk Modulus (GPa) = 29.77002 37.43864 33.60433
# Shear Modulus (GPa) = 25.44913 33.96858 29.70885
#
# Velocity S-wave (km/s) = 3.22231 3.72280 3.48156
# Velocity P-wave (km/s) = 5.09809 5.80982 5.46555
#
# Compressibility (1/GPa) = 0.03359085
#
# Stress axis : x y z
#
# Youngs Moduli (GPa) = 40.20333 66.15719 52.80435
#
# Poissons Ratio (x) = -0.00705 0.32790
# Poissons Ratio (y) = -0.00429 0.34666
# Poissons Ratio (z) = 0.24965 0.43432
#
# Static dielectric constant tensor:
#      x y z
#    x 1.985150 -0.011490 -0.031680 
#    y -0.011490 2.033410 0.050500 
#    z -0.031680 0.050500 1.994310 
# 
# From -- ./inp_files/214835.got.cif
#   From: 2010.05.17/outbox.cif.g08.bks.cpg/sg2_108_cif.got.tgz:214835.got - 2010.06.03 11:33:40.
