data_PCOD9110019
_publ_section_title
;
Structure prediction by ZEFSAII (Michael W. Deem and Ramdas Pophale) SiO2 
 PCOD9110019
Probable space group: P -1
;
_chemical_formula_sum "Si O2"
_cell_formula_units_Z 16
_cell_length_a 7.958862
_cell_length_b 18.301526
_cell_length_c 14.248958
_cell_angle_alpha 152.937988
_cell_angle_beta 119.496272
_cell_angle_gamma 77.234504
_cell_volume 686.796807
_symmetry_space_group_name_H-M "P -1"
_symmetry_group_IT_number 2
_symmetry_cell_setting 'triclinic'
loop_
_space_group_symop_operation_xyz
x,y,z
-x,-y,-z
loop_
_atom_site_type_symbol
_atom_site_label
_atom_site_fract_x
_atom_site_fract_y
_atom_site_fract_z
Si Si1 0.547484 0.240813 0.882640
Si Si2 0.398150 0.689581 0.593922
Si Si3 0.981693 0.598682 0.700750
Si Si4 0.637925 0.398166 0.901077
Si Si5 0.056816 0.052942 0.966879
Si Si6 0.306402 0.472137 0.128807
Si Si7 0.870086 0.093968 0.527045
Si Si8 0.935653 0.211894 0.469672
O O1 0.807561 0.349929 0.114510
O O2 0.538773 0.227099 0.751949
O O3 0.442898 0.368378 0.027332
O O4 0.387167 0.037649 0.656509
O O5 0.366952 0.558606 0.346564
O O6 0.274723 0.797584 0.651357
O O7 0.257960 0.552058 0.485310
O O8 0.668938 0.833801 0.847778
O O9 0.000000 0.500000 0.500000
O O10 0.007681 0.797028 0.908864
O O11 0.891477 0.567934 0.199571
O O12 0.500000 0.500000 0.000000
O O13 0.631538 0.372698 0.758756
O O14 0.950493 0.864343 0.656896
O O15 0.000000 0.000000 0.000000
O O16 0.034105 0.311286 0.856801
O O17 0.872359 0.096023 0.417345
O O18 0.000000 0.000000 0.500000
#
# Coordination Sequence:
#
# PCOD9110019 Si02
#       8
#     2   2   2   2   2   2   2   2
#     4  10  20  41  69 100 136 180 225 280 332 401
#     4  12  26  47  71 101 134 183 229 287 335 415
#     4  12  27  46  72 100 135 181 232 281 345 407
#     4   9  19  39  69  99 137 185 216 276 332 411
#     4  12  30  47  70 102 133 179 230 291 345 400
#     4   9  21  41  70  99 138 180 228 265 349 393
#     4   9  21  39  69 100 140 177 218 277 334 398
#     4  11  24  45  69  98 141 177 227 274 348 398
#
# _framework density 23.296555999999999
#
# number of rings (size 3 to 8) (size 9 to 14) (size 15 to 20)
#    0.000    1.500    1.250    3.000   10.500    2.000 
#    0.000    1.875    0.000    0.000    0.000    0.000 
#    0.000    0.000    0.000    0.000    0.000    0.000 
#
# Total GULP energy -89554.637371 kJ/mol
# GULP energy per Si atom -5597.164836 kJ/mol
# Density = 2.324353 g / cm^3
# Si number density = 23.296556 Si / 1000 Ang^3
#
#
#
# Elastic Constant Matrix: (Units=GPa)
#
#
# Indices 1 2 3 4 5 6 
#
# 1 92.1153 39.7577 34.4091 13.2459 -13.8312 12.9044
# 2 39.7577 129.9180 9.7873 25.1492 -10.0848 23.2808
# 3 34.4091 9.7873 43.1083 3.6624 -3.8774 9.7928
# 4 13.2459 25.1492 3.6624 28.0840 3.0374 5.9930
# 5 -13.8312 -10.0848 -3.8774 3.0374 56.6960 -0.9416
# 6 12.9044 23.2808 9.7928 5.9930 -0.9416 58.8464
#
#
#
# Elastic Compliance Matrix: (Units=1/GPa)
#
#
# Indices 1 2 3 4 5 6 
#
# 1 0.018426 -0.003615 -0.013270 -0.004078 0.003164 0.000064
# 2 -0.003615 0.010817 0.001907 -0.007758 0.001538 -0.002989
# 3 -0.013270 0.001907 0.034036 0.000959 -0.000682 -0.003617
# 4 -0.004078 -0.007758 0.000959 0.045049 -0.004737 -0.000859
# 5 0.003164 0.001538 -0.000682 -0.004737 0.018884 -0.000404
# 6 0.000064 -0.002989 -0.003617 -0.000859 -0.000404 0.018845
#
#
# Mechanical properties :
#
#
# Convention : Reuss Voigt Hill
#
# Bulk Modulus (GPa) = 30.01190 48.11665 39.06428
# Shear Modulus (GPa) = 26.72058 40.80445 33.76251
#
# Velocity S-wave (km/s) = 3.39038 4.18966 3.81103
# Velocity P-wave (km/s) = 5.31382 6.64102 6.01414
#
# Compressibility (1/GPa) = 0.03332012
#
# Stress axis : x y z
#
# Youngs Moduli (GPa) = 54.27112 92.44844 29.38094
#
# Poissons Ratio (x) = 0.33424 0.38989
# Poissons Ratio (y) = 0.19621 -0.05602
# Poissons Ratio (z) = 0.72019 -0.17625
#
# Static dielectric constant tensor:
#      x y z
#    x 1.929840 -0.024010 0.015190 
#    y -0.024010 1.845610 0.035530 
#    z 0.015190 0.035530 1.916450 
# 
# From -- ./inp_files/507349.got.cif
#   From: 2010.05.17/outbox.cif.g08.bks.cpg/sg2_254_cif.got.tgz:507349.got - 2010.06.03 11:33:40.
