data_PCOD9110636
_publ_section_title
;
Structure prediction by ZEFSAII (Michael W. Deem and Ramdas Pophale) SiO2 
 PCOD9110636
Probable space group: P -1
;
_chemical_formula_sum "Si O2"
_cell_formula_units_Z 15
_cell_length_a 18.327440
_cell_length_b 7.114379
_cell_length_c 5.458231
_cell_angle_alpha 76.343863
_cell_angle_beta 56.876479
_cell_angle_gamma 68.595720
_cell_volume 554.312707
_symmetry_space_group_name_H-M "P -1"
_symmetry_group_IT_number 2
_symmetry_cell_setting 'triclinic'
loop_
_space_group_symop_operation_xyz
x,y,z
-x,-y,-z
loop_
_atom_site_type_symbol
_atom_site_label
_atom_site_fract_x
_atom_site_fract_y
_atom_site_fract_z
Si Si1 0.500000 0.500000 0.500000
Si Si2 0.577660 0.219148 0.111160
Si Si3 0.315692 0.495939 0.624167
Si Si4 0.740087 0.944149 0.662374
Si Si5 0.213518 0.527867 0.282895
Si Si6 0.933534 0.859032 0.181319
Si Si7 0.995552 0.237124 0.416493
Si Si8 0.418622 0.070520 0.402049
O O1 0.563606 0.445484 0.149750
O O2 0.407165 0.559756 0.471141
O O3 0.500896 0.150786 0.120885
O O4 0.542949 0.143010 0.460993
O O5 0.681897 0.095621 0.923813
O O6 0.265885 0.536080 0.440402
O O7 0.359515 0.251251 0.630865
O O8 0.250899 0.590364 0.940271
O O9 0.775357 0.707306 0.721372
O O10 0.829940 0.988745 0.383183
O O11 0.658877 0.960262 0.618485
O O12 0.108596 0.645609 0.473595
O O13 0.968616 0.719524 0.397177
O O14 0.943132 0.747300 0.936221
O O15 0.000000 0.000000 0.000000
O O16 0.000000 0.000000 0.500000
#
# Coordination Sequence:
#
# PCOD9110636 Si02
#       8
#     1   2   2   2   2   2   2   2
#     4  10  24  42  62 102 144 186 220 284 346 420
#     4  10  20  42  64  97 137 180 227 279 341 408
#     4  10  22  43  66 103 138 182 231 285 342 409
#     4  11  23  39  71  99 130 184 240 283 347 415
#     4  11  23  42  72  97 133 182 242 288 339 417
#     4  10  24  43  67  95 138 178 226 289 357 413
#     4  10  23  45  64  93 134 179 220 291 356 406
#     4   9  20  40  67  94 138 175 228 280 337 403
#
# _framework density 27.06054
#
# number of rings (size 3 to 8) (size 9 to 14) (size 15 to 20)
#    0.000    1.867    1.333    1.200    1.867    3.733 
#    9.600    0.000    0.000    0.000    0.000    0.000 
#    0.000    0.000    0.000    0.000    0.000    0.000 
#
# Total GULP energy -83618.795950 kJ/mol
# GULP energy per Si atom -5574.586397 kJ/mol
# Density = 2.699895 g / cm^3
# Si number density = 27.060540 Si / 1000 Ang^3
#
#
#
# Elastic Constant Matrix: (Units=GPa)
#
#
# Indices 1 2 3 4 5 6 
#
# 1 155.2378 39.0770 95.2522 20.2847 -13.1119 -28.0106
# 2 39.0770 38.9505 28.3148 -5.3308 -0.9712 -21.1179
# 3 95.2522 28.3148 199.3460 40.9191 -6.1956 -25.5200
# 4 20.2847 -5.3308 40.9191 39.3813 -4.8202 -8.8411
# 5 -13.1119 -0.9712 -6.1956 -4.8202 56.5671 10.3581
# 6 -28.0106 -21.1179 -25.5200 -8.8411 10.3581 48.2111
#
#
#
# Elastic Compliance Matrix: (Units=1/GPa)
#
#
# Indices 1 2 3 4 5 6 
#
# 1 0.011536 -0.009827 -0.003369 -0.003642 0.001911 -0.000464
# 2 -0.009827 0.052082 -0.004617 0.020786 -0.003644 0.019255
# 3 -0.003369 -0.004617 0.008890 -0.008342 -0.000469 -0.000703
# 4 -0.003642 0.020786 -0.008342 0.041036 0.000257 0.010043
# 5 0.001911 -0.003644 -0.000469 0.000257 0.018898 -0.004747
# 6 -0.000464 0.019255 -0.000703 0.010043 -0.004747 0.031396
#
#
# Mechanical properties :
#
#
# Convention : Reuss Voigt Hill
#
# Bulk Modulus (GPa) = 27.11319 79.86914 53.49117
# Shear Modulus (GPa) = 23.61182 44.22457 33.91820
#
# Velocity S-wave (km/s) = 2.95711 4.04701 3.54421
# Velocity P-wave (km/s) = 4.65838 7.17055 6.04638
#
# Compressibility (1/GPa) = 0.03688242
#
# Stress axis : x y z
#
# Youngs Moduli (GPa) = 86.68465 19.20041 112.49119
#
# Poissons Ratio (x) = 0.18868 0.37896
# Poissons Ratio (y) = 0.85184 0.51938
# Poissons Ratio (z) = 0.29202 0.08865
#
# Static dielectric constant tensor:
#      x y z
#    x 1.815380 0.046960 -0.089230 
#    y 0.046960 3.143690 -0.151980 
#    z -0.089230 -0.151980 2.136910 
# 
# From -- ./inp_files/104881.got.cif
#   From: 2010.05.17/outbox.cif.g08.bks.cpg/sg2_53_cif.got.tgz:104881.got - 2010.06.03 11:33:40.
