data_PCOD9110482
_publ_section_title
;
Structure prediction by ZEFSAII (Michael W. Deem and Ramdas Pophale) SiO2 
 PCOD9110482
Probable space group: P -1
;
_chemical_formula_sum "Si O2"
_cell_formula_units_Z 16
_cell_length_a 19.104195
_cell_length_b 8.055121
_cell_length_c 22.536205
_cell_angle_alpha 36.021977
_cell_angle_beta 157.285063
_cell_angle_gamma 132.752077
_cell_volume 752.250058
_symmetry_space_group_name_H-M "P -1"
_symmetry_group_IT_number 2
_symmetry_cell_setting 'triclinic'
loop_
_space_group_symop_operation_xyz
x,y,z
-x,-y,-z
loop_
_atom_site_type_symbol
_atom_site_label
_atom_site_fract_x
_atom_site_fract_y
_atom_site_fract_z
Si Si1 0.930984 0.388475 0.767701
Si Si2 0.448334 0.805895 0.905324
Si Si3 0.213725 0.667949 0.865468
Si Si4 0.430573 0.153596 0.677504
Si Si5 0.159810 0.810564 0.050216
Si Si6 0.200738 0.278245 0.709622
Si Si7 0.618553 0.290473 0.327565
Si Si8 0.880634 0.723804 0.756554
O O1 0.708317 0.525165 0.540573
O O2 0.953871 0.531877 0.808684
O O3 0.043602 0.532190 0.767406
O O4 0.028977 0.045087 0.927736
O O5 0.281220 0.779066 0.824994
O O6 0.417601 0.074502 0.758643
O O7 0.500000 0.500000 0.000000
O O8 0.628071 0.785029 0.092387
O O9 0.149874 0.974623 0.759553
O O10 0.392022 0.448594 0.103258
O O11 0.357769 0.905795 0.657692
O O12 0.645071 0.119766 0.834065
O O13 0.042460 0.795764 0.902665
O O14 0.204119 0.491225 0.208134
O O15 0.287227 0.442155 0.678173
O O16 0.000000 0.500000 0.500000
O O17 0.722105 0.034092 0.528294
#
# Coordination Sequence:
#
# PCOD9110482 Si02
#       8
#     2   2   2   2   2   2   2   2
#     4  11  24  45  69 100 135 180 223 272 340 399
#     4  11  21  39  61  91 131 171 215 271 320 386
#     4  11  23  41  63  95 134 174 225 258 328 401
#     4  11  23  41  67  99 134 174 227 271 337 396
#     4  11  24  49  67 102 135 169 225 290 331 399
#     4  11  23  38  60  90 131 174 219 263 324 393
#     4  10  20  42  62  95 129 174 217 270 331 392
#     4  10  25  45  74  97 132 174 224 277 348 396
#
# _framework density 21.269523
#
# number of rings (size 3 to 8) (size 9 to 14) (size 15 to 20)
#    0.000    1.250    3.750    3.375    3.500    4.500 
#    2.250    1.250    0.000    0.000    0.000    0.000 
#    0.000    0.000    0.000    0.000    0.000    0.000 
#
# Total GULP energy -89145.492297 kJ/mol
# GULP energy per Si atom -5571.593269 kJ/mol
# Density = 2.122111 g / cm^3
# Si number density = 21.269523 Si / 1000 Ang^3
#
#
#
# Elastic Constant Matrix: (Units=GPa)
#
#
# Indices 1 2 3 4 5 6 
#
# 1 24.2051 -0.4916 65.6094 30.6842 -3.2919 10.3438
# 2 -0.4916 68.4962 30.8672 -11.8769 -6.3306 9.1652
# 3 65.6094 30.8672 90.2294 -46.8568 -0.1942 -3.6550
# 4 30.6842 -11.8769 -46.8568 8.9090 7.0382 3.6484
# 5 -3.2919 -6.3306 -0.1942 7.0382 30.0626 -4.4060
# 6 10.3438 9.1652 -3.6550 3.6484 -4.4060 21.9036
#
#
#
# Elastic Compliance Matrix: (Units=1/GPa)
#
#
# Indices 1 2 3 4 5 6 
#
# 1 0.005005 0.001241 0.005388 0.018686 -0.004407 -0.005983
# 2 0.001241 0.019017 -0.002995 0.009317 0.000399 -0.010515
# 3 0.005388 -0.002995 0.002803 -0.010498 0.002649 0.001458
# 4 0.018686 0.009317 -0.010498 0.013423 -0.001701 -0.017052
# 5 -0.004407 0.000399 0.002649 -0.001701 0.034690 0.009618
# 6 -0.005983 -0.010515 0.001458 -0.017052 0.009618 0.057898
#
#
# Mechanical properties :
#
#
# Convention : Reuss Voigt Hill
#
# Bulk Modulus (GPa) = 29.33165 41.65563 35.49364
# Shear Modulus (GPa) = 36.51440 17.97141 27.24290
#
# Velocity S-wave (km/s) = 4.14786 2.90993 3.58277
# Velocity P-wave (km/s) = 6.06301 5.56035 5.81711
#
# Compressibility (1/GPa) = 0.03409287
#
# Stress axis : x y z
#
# Youngs Moduli (GPa) = 199.80124 52.58385 356.79868
#
# Poissons Ratio (x) = -0.06526 -1.92236
# Poissons Ratio (y) = -0.24798 1.06859
# Poissons Ratio (z) = -1.07649 0.15749
#
# Static dielectric constant tensor:
#      x y z
#    x 1.832390 0.002140 -0.016890 
#    y 0.002140 1.751030 -0.017720 
#    z -0.016890 -0.017720 1.756360 
# 
# From -- ./inp_files/328496.got.cif
#   From: 2010.05.17/outbox.cif.g08.bks.cpg/sg2_165_cif.got.tgz:328496.got - 2010.06.03 11:33:40.
