data_PCOD9110072
_publ_section_title
;
Structure prediction by ZEFSAII (Michael W. Deem and Ramdas Pophale) SiO2 
 PCOD9110072
Probable space group: P -1
;
_chemical_formula_sum "Si O2"
_cell_formula_units_Z 15
_cell_length_a 21.683041
_cell_length_b 12.104756
_cell_length_c 8.800775
_cell_angle_alpha 116.053175
_cell_angle_beta 137.090002
_cell_angle_gamma 28.940371
_cell_volume 601.642531
_symmetry_space_group_name_H-M "P -1"
_symmetry_group_IT_number 2
_symmetry_cell_setting 'triclinic'
loop_
_space_group_symop_operation_xyz
x,y,z
-x,-y,-z
loop_
_atom_site_type_symbol
_atom_site_label
_atom_site_fract_x
_atom_site_fract_y
_atom_site_fract_z
Si Si1 0.044042 0.683381 0.941195
Si Si2 0.282527 0.816647 0.111815
Si Si3 0.415740 0.321851 0.756044
Si Si4 0.500000 0.500000 0.000000
Si Si5 0.296253 0.064348 0.674881
Si Si6 0.870848 0.535986 0.592458
Si Si7 0.361399 0.475353 0.234457
Si Si8 0.278044 0.166015 0.189284
O O1 0.862907 0.851730 0.603327
O O2 0.925159 0.870856 0.994057
O O3 0.168555 0.642942 0.067833
O O4 0.192196 0.386031 0.069530
O O5 0.293967 0.665138 0.111314
O O6 0.480582 0.651103 0.439258
O O7 0.330481 0.747411 0.979676
O O8 0.393352 0.492597 0.797260
O O9 0.219190 0.489509 0.573808
O O10 0.491219 0.161358 0.641764
O O11 0.613728 0.055347 0.067050
O O12 0.185786 0.327034 0.584817
O O13 0.501153 0.791131 0.773339
O O14 0.751053 0.763426 0.645071
O O15 0.113602 0.259517 0.907994
#
# Coordination Sequence:
#
# PCOD9110072 Si02
#       8
#     2   2   2   1   2   2   2   2
#     4  10  22  40  73  98 126 172 228 276 325 389
#     4  10  23  43  63  95 134 175 226 270 317 403
#     4  12  25  44  65  95 140 178 212 274 333 391
#     4  12  28  44  64 100 140 176 218 268 334 400
#     4  10  22  41  66 101 132 167 222 272 330 397
#     4  10  23  42  68  98 127 173 225 272 330 385
#     4  10  20  41  69  93 128 179 224 268 326 388
#     4  10  24  42  68 102 126 169 225 279 327 390
#
# _framework density 24.931747999999999
#
# number of rings (size 3 to 8) (size 9 to 14) (size 15 to 20)
#    0.000    1.600    1.333    2.000    9.333    3.200 
#    0.000    1.333    0.000    0.000    0.000    0.000 
#    0.000    0.000    0.000    0.000    0.000    0.000 
#
# Total GULP energy -83802.548571 kJ/mol
# GULP energy per Si atom -5586.836571 kJ/mol
# Density = 2.487500 g / cm^3
# Si number density = 24.931748 Si / 1000 Ang^3
#
#
#
# Elastic Constant Matrix: (Units=GPa)
#
#
# Indices 1 2 3 4 5 6 
#
# 1 129.7177 29.8935 48.0162 6.1938 48.6247 -10.0443
# 2 29.8935 100.8598 16.6056 12.7718 18.5836 -12.9870
# 3 48.0162 16.6056 99.1613 8.0954 29.9075 -4.5537
# 4 6.1938 12.7718 8.0954 7.9067 -5.8590 -5.7214
# 5 48.6247 18.5836 29.9075 -5.8590 56.5120 1.7845
# 6 -10.0443 -12.9870 -4.5537 -5.7214 1.7845 32.3800
#
#
#
# Elastic Compliance Matrix: (Units=1/GPa)
#
#
# Indices 1 2 3 4 5 6 
#
# 1 0.014526 0.001829 -0.000755 -0.023504 -0.015195 0.001818
# 2 0.001829 0.016548 0.003750 -0.040959 -0.013285 0.001227
# 3 -0.000755 0.003750 0.016133 -0.032256 -0.012420 -0.001476
# 4 -0.023504 -0.040959 -0.032256 0.323576 0.083543 0.024315
# 5 -0.015195 -0.013285 -0.012420 0.083543 0.050366 0.000198
# 6 0.001818 0.001227 -0.001476 0.024315 0.000198 0.036017
#
#
# Mechanical properties :
#
#
# Convention : Reuss Voigt Hill
#
# Bulk Modulus (GPa) = 17.58833 57.64108 37.61471
# Shear Modulus (GPa) = 10.71885 35.04132 22.88009
#
# Velocity S-wave (km/s) = 2.07572 3.75305 3.03266
# Velocity P-wave (km/s) = 3.57977 6.47690 5.23283
#
# Compressibility (1/GPa) = 0.05685587
#
# Stress axis : x y z
#
# Youngs Moduli (GPa) = 68.84368 60.43183 61.98295
#
# Poissons Ratio (x) = -0.11053 0.04679
# Poissons Ratio (y) = -0.12592 -0.23246
# Poissons Ratio (z) = 0.05197 -0.22664
#
# Static dielectric constant tensor:
#      x y z
#    x 1.977620 0.022640 -0.026340 
#    y 0.022640 1.947060 -0.006880 
#    z -0.026340 -0.006880 1.978950 
# 
# From -- ./inp_files/346308.got.cif
#   From: 2010.05.17/outbox.cif.g08.bks.cpg/sg2_174_cif.got.tgz:346308.got - 2010.06.03 11:33:40.
