data_PCOD9110184
_publ_section_title
;
Structure prediction by ZEFSAII (Michael W. Deem and Ramdas Pophale) SiO2 
 PCOD9110184
Probable space group: P -1
;
_chemical_formula_sum "Si O2"
_cell_formula_units_Z 13
_cell_length_a 8.809742
_cell_length_b 11.701397
_cell_length_c 9.823011
_cell_angle_alpha 54.726266
_cell_angle_beta 113.446065
_cell_angle_gamma 138.277813
_cell_volume 549.163112
_symmetry_space_group_name_H-M "P -1"
_symmetry_group_IT_number 2
_symmetry_cell_setting 'triclinic'
loop_
_space_group_symop_operation_xyz
x,y,z
-x,-y,-z
loop_
_atom_site_type_symbol
_atom_site_label
_atom_site_fract_x
_atom_site_fract_y
_atom_site_fract_z
Si Si1 0.380710 0.541247 0.025672
Si Si2 0.242723 0.957352 0.538849
Si Si3 0.474214 0.064394 0.154031
Si Si4 0.133321 0.719315 0.083163
Si Si5 0.069605 0.432165 0.454243
Si Si6 0.500000 0.500000 0.500000
Si Si7 0.772710 0.754740 0.626700
O O1 0.368075 0.464753 0.225173
O O2 0.500000 0.500000 0.000000
O O3 0.504634 0.761978 0.915278
O O4 0.117919 0.396080 0.983035
O O5 0.446801 0.996164 0.658471
O O6 0.130728 0.792896 0.499779
O O7 0.037290 0.868352 0.635881
O O8 0.291265 0.144755 0.382574
O O9 0.236761 0.881184 0.125404
O O10 0.676876 0.169587 0.042295
O O11 0.113040 0.553465 0.253818
O O12 0.301167 0.481077 0.520617
O O13 0.000000 0.500000 0.500000
O O14 0.695560 0.725329 0.464038
#
# Coordination Sequence:
#
# PCOD9110184 Si02
#       7
#     2   2   2   2   2   1   2
#     4  12  26  43  66  97 142 178 219 283 340 407
#     4  10  20  41  70  96 130 176 225 286 340 402
#     4  11  22  44  75  93 130 179 227 284 336 409
#     4  11  24  44  70 101 129 178 235 276 340 410
#     4  11  24  42  68 100 141 178 231 288 342 416
#     4  10  22  40  62  96 134 174 224 278 336 398
#     4  10  22  40  66 100 133 174 227 278 342 410
#
# _framework density 23.672383
#
# number of rings (size 3 to 8) (size 9 to 14) (size 15 to 20)
#    0.000    1.231    3.077    3.231    2.154    3.077 
#    2.769    2.308    0.000    0.000    0.000    0.000 
#    0.000    0.000    0.000    0.000    0.000    0.000 
#
# Total GULP energy -72430.791938 kJ/mol
# GULP energy per Si atom -5571.599380 kJ/mol
# Density = 2.361850 g / cm^3
# Si number density = 23.672383 Si / 1000 Ang^3
#
#
#
# Elastic Constant Matrix: (Units=GPa)
#
#
# Indices 1 2 3 4 5 6 
#
# 1 133.3723 47.8062 35.5437 -10.5731 19.2392 -31.9083
# 2 47.8062 129.6911 10.2629 -13.9017 33.4234 -27.5406
# 3 35.5437 10.2629 48.0761 -11.0321 20.0979 2.8097
# 4 -10.5731 -13.9017 -11.0321 24.2722 -1.2684 10.1191
# 5 19.2392 33.4234 20.0979 -1.2684 29.7766 -7.1726
# 6 -31.9083 -27.5406 2.8097 10.1191 -7.1726 41.0731
#
#
#
# Elastic Compliance Matrix: (Units=1/GPa)
#
#
# Indices 1 2 3 4 5 6 
#
# 1 0.014825 -0.004900 -0.017145 -0.009222 0.010349 0.013483
# 2 -0.004900 0.015190 0.012234 0.011441 -0.021920 -0.001105
# 3 -0.017145 0.012234 0.061006 0.035819 -0.048717 -0.026622
# 4 -0.009222 0.011441 0.035819 0.068569 -0.034111 -0.024793
# 5 0.010349 -0.021920 -0.048717 -0.034111 0.087849 0.020419
# 6 0.013483 -0.001105 -0.026622 -0.024793 0.020419 0.045576
#
#
# Mechanical properties :
#
#
# Convention : Reuss Voigt Hill
#
# Bulk Modulus (GPa) = 14.00611 55.37392 34.69002
# Shear Modulus (GPa) = 14.86164 33.52616 24.19390
#
# Velocity S-wave (km/s) = 2.50832 3.76740 3.20039
# Velocity P-wave (km/s) = 3.78397 6.50899 5.32378
#
# Compressibility (1/GPa) = 0.07139741
#
# Stress axis : x y z
#
# Youngs Moduli (GPa) = 67.45195 65.83467 16.39190
#
# Poissons Ratio (x) = 0.32261 0.28104
# Poissons Ratio (y) = 0.33054 -0.20053
# Poissons Ratio (z) = 1.15646 -0.80540
#
# Static dielectric constant tensor:
#      x y z
#    x 1.903070 -0.019790 -0.039400 
#    y -0.019790 2.021370 0.181370 
#    z -0.039400 0.181370 2.250470 
# 
# From -- ./inp_files/238082.got.cif
#   From: 2010.05.17/outbox.cif.g08.bks.cpg/sg2_120_cif.got.tgz:238082.got - 2010.06.03 11:33:40.
