data_PCOD9110916
_publ_section_title
;
Structure prediction by ZEFSAII (Michael W. Deem and Ramdas Pophale) SiO2 
 PCOD9110916
Probable space group: P -1
;
_chemical_formula_sum "Si O2"
_cell_formula_units_Z 16
_cell_length_a 9.294633
_cell_length_b 17.708656
_cell_length_c 10.857196
_cell_angle_alpha 37.720645
_cell_angle_beta 83.361907
_cell_angle_gamma 113.499763
_cell_volume 641.926116
_symmetry_space_group_name_H-M "P -1"
_symmetry_group_IT_number 2
_symmetry_cell_setting 'triclinic'
loop_
_space_group_symop_operation_xyz
x,y,z
-x,-y,-z
loop_
_atom_site_type_symbol
_atom_site_label
_atom_site_fract_x
_atom_site_fract_y
_atom_site_fract_z
Si Si1 0.985349 0.662161 0.244030
Si Si2 0.220289 0.246850 0.502286
Si Si3 0.443782 0.300206 0.206514
Si Si4 0.576544 0.499397 0.622362
Si Si5 0.281365 0.971616 0.199225
Si Si6 0.964038 0.857218 0.796775
Si Si7 0.772597 0.288572 0.625611
Si Si8 0.378275 0.028943 0.402803
O O1 0.748011 0.504174 0.561994
O O2 0.949020 0.526059 0.326608
O O3 0.194115 0.775960 0.173776
O O4 0.002191 0.802130 0.989560
O O5 0.396756 0.261948 0.408078
O O6 0.266056 0.296879 0.577115
O O7 0.933862 0.074427 0.729361
O O8 0.358057 0.460417 0.151558
O O9 0.145870 0.100347 0.466850
O O10 0.508028 0.230688 0.203010
O O11 0.500000 0.500000 0.500000
O O12 0.320197 0.304560 0.968989
O O13 0.189585 0.773585 0.414911
O O14 0.378836 0.030460 0.253658
O O15 0.497698 0.149665 0.850961
O O16 0.090559 0.851885 0.694231
O O17 0.500000 0.000000 0.500000
#
# Coordination Sequence:
#
# PCOD9110916 Si02
#       8
#     2   2   2   2   2   2   2   2
#     4  10  20  42  67  91 131 170 213 266 316 390
#     4  11  23  43  66 100 130 159 227 270 314 386
#     4   9  25  40  70  93 129 172 212 272 322 376
#     4  10  22  41  65  94 128 169 208 263 326 380
#     4  11  24  40  66  98 128 168 218 267 323 373
#     4   9  22  41  65  93 126 170 215 256 327 383
#     4  10  23  40  66  97 126 171 217 263 320 383
#     4  10  23  44  65  92 130 175 210 258 326 387
#
# _framework density 24.924987999999999
#
# number of rings (size 3 to 8) (size 9 to 14) (size 15 to 20)
#    0.750    1.250    1.250    0.750    7.000    2.000 
#    4.500    3.750    0.000    0.000    0.000    0.000 
#    0.000    0.000    0.000    0.000    0.000    0.000 
#
# Total GULP energy -89150.728601 kJ/mol
# GULP energy per Si atom -5571.920538 kJ/mol
# Density = 2.486826 g / cm^3
# Si number density = 24.924988 Si / 1000 Ang^3
#
#
#
# Elastic Constant Matrix: (Units=GPa)
#
#
# Indices 1 2 3 4 5 6 
#
# 1 88.4924 25.7722 37.2265 15.7868 -9.3669 2.2174
# 2 25.7722 134.2126 1.7581 19.6069 6.9899 -17.2463
# 3 37.2265 1.7581 70.7052 13.8553 -9.4401 -2.1218
# 4 15.7868 19.6069 13.8553 36.8655 -7.5085 -4.0392
# 5 -9.3669 6.9899 -9.4401 -7.5085 35.4890 2.8014
# 6 2.2174 -17.2463 -2.1218 -4.0392 2.8014 37.9751
#
#
#
# Elastic Compliance Matrix: (Units=1/GPa)
#
#
# Indices 1 2 3 4 5 6 
#
# 1 0.016289 -0.003281 -0.007823 -0.002106 0.002680 -0.003300
# 2 -0.003281 0.009478 0.002065 -0.004648 -0.003512 0.004376
# 3 -0.007823 0.002065 0.019359 -0.004496 0.001578 0.001882
# 4 -0.002106 -0.004648 -0.004496 0.033546 0.006192 0.000872
# 5 0.002680 -0.003512 0.001578 0.006192 0.031570 -0.003334
# 6 -0.003300 0.004376 0.001882 0.000872 -0.003334 0.028957
#
#
# Mechanical properties :
#
#
# Convention : Reuss Voigt Hill
#
# Bulk Modulus (GPa) = 36.97225 46.99153 41.98189
# Shear Modulus (GPa) = 30.06719 37.30949 33.68834
#
# Velocity S-wave (km/s) = 3.47696 3.87314 3.68038
# Velocity P-wave (km/s) = 5.56638 6.23664 5.91102
#
# Compressibility (1/GPa) = 0.02704731
#
# Stress axis : x y z
#
# Youngs Moduli (GPa) = 61.39058 105.50531 51.65512
#
# Poissons Ratio (x) = 0.34621 0.40411
# Poissons Ratio (y) = 0.20145 -0.10668
# Poissons Ratio (z) = 0.48028 -0.21789
#
# Static dielectric constant tensor:
#      x y z
#    x 2.254880 0.120720 -0.134570 
#    y 0.120720 2.250030 -0.058530 
#    z -0.134570 -0.058530 2.099520 
# 
# From -- ./inp_files/401830.got.cif
#   From: 2010.05.17/outbox.cif.g08.bks.cpg/sg2_201_cif.got.tgz:401830.got - 2010.06.03 11:33:40.
