data_PCOD9110693
_publ_section_title
;
Structure prediction by ZEFSAII (Michael W. Deem and Ramdas Pophale) SiO2 
 PCOD9110693
Probable space group: P -1
;
_chemical_formula_sum "Si O2"
_cell_formula_units_Z 16
_cell_length_a 11.055043
_cell_length_b 15.443023
_cell_length_c 9.208488
_cell_angle_alpha 131.336152
_cell_angle_beta 134.022379
_cell_angle_gamma 36.255735
_cell_volume 649.756855
_symmetry_space_group_name_H-M "P -1"
_symmetry_group_IT_number 2
_symmetry_cell_setting 'triclinic'
loop_
_space_group_symop_operation_xyz
x,y,z
-x,-y,-z
loop_
_atom_site_type_symbol
_atom_site_label
_atom_site_fract_x
_atom_site_fract_y
_atom_site_fract_z
Si Si1 0.606946 0.710574 0.460776
Si Si2 0.786840 0.445401 0.521485
Si Si3 0.559223 0.986930 0.201154
Si Si4 0.699611 0.431388 0.736720
Si Si5 0.289397 0.659705 0.066611
Si Si6 0.035298 0.887005 0.521028
Si Si7 0.988217 0.144938 0.227044
Si Si8 0.474987 0.885871 0.277981
O O1 0.770276 0.557878 0.519043
O O2 0.382375 0.734393 0.302861
O O3 0.617801 0.733255 0.322080
O O4 0.583321 0.844334 0.665336
O O5 0.775115 0.482298 0.724859
O O6 0.561955 0.466175 0.340601
O O7 0.982388 0.274917 0.445097
O O8 0.807641 0.917367 0.355371
O O9 0.524759 0.885575 0.152017
O O10 0.500000 0.000000 0.000000
O O11 0.805272 0.380745 0.929542
O O12 0.771779 0.279280 0.556924
O O13 0.500000 0.500000 0.000000
O O14 0.137896 0.765803 0.926033
O O15 0.087598 0.895512 0.740395
O O16 0.000000 0.000000 0.500000
O O17 0.215685 0.984588 0.195795
O O18 0.500000 0.000000 0.500000
#
# Coordination Sequence:
#
# PCOD9110693 Si02
#       8
#     2   2   2   2   2   2   2   2
#     4  10  20  42  65  92 127 169 220 264 321 392
#     4   9  18  37  61  92 126 169 204 266 326 382
#     4  11  25  46  63  91 135 178 218 269 324 385
#     4   9  19  33  57  88 134 162 201 264 329 372
#     4  11  21  38  62 102 135 165 213 274 332 388
#     4  11  22  39  67  99 127 169 222 269 330 389
#     4  11  21  38  67  95 134 170 208 268 338 378
#     4  10  22  43  64  88 130 177 221 270 312 390
#
# _framework density 24.624594999999999
#
# number of rings (size 3 to 8) (size 9 to 14) (size 15 to 20)
#    0.000    1.750    5.000    1.500    1.750    1.500 
#    2.250    2.500    0.000    3.000    0.000    0.000 
#    0.000    0.000    0.000    0.000    0.000    0.000 
#
# Total GULP energy -89221.992796 kJ/mol
# GULP energy per Si atom -5576.374550 kJ/mol
# Density = 2.456855 g / cm^3
# Si number density = 24.624595 Si / 1000 Ang^3
#
#
#
# Elastic Constant Matrix: (Units=GPa)
#
#
# Indices 1 2 3 4 5 6 
#
# 1 107.8569 52.1262 34.1131 -21.6736 -44.3596 35.1874
# 2 52.1262 148.0314 42.1110 -33.7560 -29.3634 49.4512
# 3 34.1131 42.1110 92.7839 -26.2862 -44.6167 18.0578
# 4 -21.6736 -33.7560 -26.2862 39.0557 18.6529 -20.9945
# 5 -44.3596 -29.3634 -44.6167 18.6529 45.1196 -21.2547
# 6 35.1874 49.4512 18.0578 -20.9945 -21.2547 48.4171
#
#
#
# Elastic Compliance Matrix: (Units=1/GPa)
#
#
# Indices 1 2 3 4 5 6 
#
# 1 0.018002 -0.002586 0.003971 -0.000491 0.018190 -0.004151
# 2 -0.002586 0.011660 -0.003670 0.003311 -0.004230 -0.009082
# 3 0.003971 -0.003670 0.023643 0.006010 0.025076 0.005659
# 4 -0.000491 0.003311 0.006010 0.039596 -0.003968 0.010162
# 5 0.018190 -0.004230 0.025076 -0.003968 0.068486 0.010093
# 6 -0.004151 -0.009082 0.005659 0.010162 0.010093 0.039673
#
#
# Mechanical properties :
#
#
# Convention : Reuss Voigt Hill
#
# Bulk Modulus (GPa) = 20.51912 67.26361 43.89137
# Shear Modulus (GPa) = 22.53527 41.20660 31.87093
#
# Velocity S-wave (km/s) = 3.02843 4.09515 3.60150
# Velocity P-wave (km/s) = 4.53645 7.05232 5.92936
#
# Compressibility (1/GPa) = 0.04873503
#
# Stress axis : x y z
#
# Youngs Moduli (GPa) = 55.54876 85.76570 42.29543
#
# Poissons Ratio (x) = 0.22178 -0.16794
# Poissons Ratio (y) = 0.14365 0.15522
# Poissons Ratio (z) = -0.22057 0.31475
#
# Static dielectric constant tensor:
#      x y z
#    x 2.096090 0.055030 0.031000 
#    y 0.055030 2.015090 -0.019240 
#    z 0.031000 -0.019240 2.090290 
# 
# From -- ./inp_files/274124.got.cif
#   From: 2010.05.17/outbox.cif.g08.bks.cpg/sg2_138_cif.got.tgz:274124.got - 2010.06.03 11:33:40.
