data_PCOD9110748
_publ_section_title
;
Structure prediction by ZEFSAII (Michael W. Deem and Ramdas Pophale) SiO2 
 PCOD9110748
Probable space group: P -1
;
_chemical_formula_sum "Si O2"
_cell_formula_units_Z 14
_cell_length_a 14.634620
_cell_length_b 8.759583
_cell_length_c 22.283949
_cell_angle_alpha 138.020450
_cell_angle_beta 153.358715
_cell_angle_gamma 33.634286
_cell_volume 709.491030
_symmetry_space_group_name_H-M "P -1"
_symmetry_group_IT_number 2
_symmetry_cell_setting 'triclinic'
loop_
_space_group_symop_operation_xyz
x,y,z
-x,-y,-z
loop_
_atom_site_type_symbol
_atom_site_label
_atom_site_fract_x
_atom_site_fract_y
_atom_site_fract_z
Si Si1 0.337930 0.937571 0.326215
Si Si2 0.870718 0.515167 0.201252
Si Si3 0.925573 0.018542 0.030581
Si Si4 0.224465 0.185696 0.540305
Si Si5 0.521013 0.493571 0.616035
Si Si6 0.866039 0.283230 0.653953
Si Si7 0.460455 0.018088 0.761723
O O1 0.568815 0.883124 0.407783
O O2 0.420771 0.757369 0.381832
O O3 0.130228 0.263088 0.308346
O O4 0.178193 0.857195 0.169517
O O5 0.789297 0.335678 0.066831
O O6 0.699452 0.727535 0.213339
O O7 0.918428 0.685865 0.231011
O O8 0.740112 0.927741 0.903725
O O9 0.000000 0.000000 0.000000
O O10 0.361789 0.109175 0.662603
O O11 0.000000 0.500000 0.500000
O O12 0.111658 0.003405 0.412267
O O13 0.755746 0.426150 0.694817
O O14 0.328624 0.564970 0.470687
O O15 0.434358 0.763540 0.683280
#
# Coordination Sequence:
#
# PCOD9110748 Si02
#       7
#     2   2   2   2   2   2   2
#     4  10  23  39  63  95 116 167 202 253 304 363
#     4  10  23  38  64  92 118 168 202 251 307 357
#     4  10  20  42  66  86 124 164 211 244 307 365
#     4  11  25  38  63  94 126 160 204 258 308 364
#     4  10  22  38  64  89 126 161 207 247 312 361
#     4  10  22  40  59  88 129 166 197 250 311 373
#     4  11  22  41  63  91 126 163 205 255 304 363
#
# _framework density 19.732455999999999
#
# number of rings (size 3 to 8) (size 9 to 14) (size 15 to 20)
#    0.857    0.857    1.429    3.857    6.000    2.857 
#    0.000    0.000    0.000    2.571    0.000    0.000 
#    0.000    0.000    0.000    0.000    0.000    0.000 
#
# Total GULP energy -78062.223494 kJ/mol
# GULP energy per Si atom -5575.873107 kJ/mol
# Density = 1.968754 g / cm^3
# Si number density = 19.732456 Si / 1000 Ang^3
#
#
#
# Elastic Constant Matrix: (Units=GPa)
#
#
# Indices 1 2 3 4 5 6 
#
# 1 77.7230 35.1011 -3.7229 10.3262 0.2215 -3.7304
# 2 35.1011 107.7618 12.2725 10.0952 -0.9605 -0.9761
# 3 -3.7229 12.2725 49.8836 12.6676 -0.3195 2.1026
# 4 10.3262 10.0952 12.6676 27.7706 -3.5155 -3.8210
# 5 0.2215 -0.9605 -0.3195 -3.5155 27.9201 7.7824
# 6 -3.7304 -0.9761 2.1026 -3.8210 7.7824 33.6970
#
#
#
# Elastic Compliance Matrix: (Units=1/GPa)
#
#
# Indices 1 2 3 4 5 6 
#
# 1 0.016245 -0.005184 0.003956 -0.005984 -0.001301 0.001023
# 2 -0.005184 0.011386 -0.002960 -0.000849 0.000359 -0.000238
# 3 0.003956 -0.002960 0.024168 -0.011829 -0.000695 -0.002337
# 4 -0.005984 -0.000849 -0.011829 0.045066 0.004402 0.004144
# 5 -0.001301 0.000359 -0.000695 0.004402 0.038767 -0.008544
# 6 0.001023 -0.000238 -0.002337 0.004144 -0.008544 0.032372
#
#
# Mechanical properties :
#
#
# Convention : Reuss Voigt Hill
#
# Bulk Modulus (GPa) = 23.02942 35.85220 29.44081
# Shear Modulus (GPa) = 26.19811 30.65871 28.42841
#
# Velocity S-wave (km/s) = 3.64767 3.94600 3.79976
# Velocity P-wave (km/s) = 5.42557 6.24258 5.84836
#
# Compressibility (1/GPa) = 0.04342271
#
# Stress axis : x y z
#
# Youngs Moduli (GPa) = 61.55910 87.82855 41.37697
#
# Poissons Ratio (x) = 0.45526 -0.16368
# Poissons Ratio (y) = 0.31909 0.12248
# Poissons Ratio (z) = -0.24352 0.25999
#
# Static dielectric constant tensor:
#      x y z
#    x 1.673850 -0.012400 0.003810 
#    y -0.012400 1.710060 0.024040 
#    z 0.003810 0.024040 1.727840 
# 
# From -- ./inp_files/611560.got.cif
#   From: 2010.05.17/outbox.cif.g08.bks.cpg/sg2_306_cif.got.tgz:611560.got - 2010.06.03 11:33:40.
