data_PCOD9110519
_publ_section_title
;
Structure prediction by ZEFSAII (Michael W. Deem and Ramdas Pophale) SiO2 
 PCOD9110519
Probable space group: P -1
;
_chemical_formula_sum "Si O2"
_cell_formula_units_Z 16
_cell_length_a 14.278262
_cell_length_b 8.645968
_cell_length_c 13.402853
_cell_angle_alpha 88.196733
_cell_angle_beta 127.162770
_cell_angle_gamma 47.425193
_cell_volume 642.203317
_symmetry_space_group_name_H-M "P -1"
_symmetry_group_IT_number 2
_symmetry_cell_setting 'triclinic'
loop_
_space_group_symop_operation_xyz
x,y,z
-x,-y,-z
loop_
_atom_site_type_symbol
_atom_site_label
_atom_site_fract_x
_atom_site_fract_y
_atom_site_fract_z
Si Si1 0.598767 0.249910 0.383834
Si Si2 0.907748 0.706070 0.342511
Si Si3 0.145700 0.391684 0.191885
Si Si4 0.571198 0.910484 0.347937
Si Si5 0.745313 0.223542 0.293302
Si Si6 0.257421 0.274003 0.949814
Si Si7 0.869056 0.223042 0.814840
Si Si8 0.884678 0.238287 0.197839
O O1 0.571851 0.098057 0.344256
O O2 0.560912 0.414526 0.263376
O O3 0.411595 0.494454 0.348123
O O4 0.877546 0.957581 0.595946
O O5 0.000000 0.500000 0.500000
O O6 0.741055 0.802059 0.157379
O O7 0.163085 0.460595 0.464204
O O8 0.785848 0.000867 0.293270
O O9 0.416869 0.040151 0.342325
O O10 0.113560 0.611633 0.176899
O O11 0.013372 0.457097 0.193533
O O12 0.000000 0.500000 0.000000
O O13 0.444787 0.002592 0.160696
O O14 0.716278 0.353493 0.170676
O O15 0.000000 0.000000 0.500000
O O16 0.262830 0.451782 0.949858
O O17 0.999584 0.006412 0.805539
O O18 0.000000 0.000000 0.000000
#
# Coordination Sequence:
#
# PCOD9110519 Si02
#       8
#     2   2   2   2   2   2   2   2
#     4  10  20  42  63  92 129 166 214 260 320 385
#     4  12  22  42  68  90 128 169 215 264 315 381
#     4   9  20  40  61  93 130 161 213 262 315 382
#     4  10  21  41  66  96 123 166 214 264 321 374
#     4  10  22  42  65  93 129 168 211 266 321 381
#     4  11  23  42  68  94 132 167 211 269 313 382
#     4  11  22  39  64  93 130 170 210 267 319 378
#     4  11  21  41  65  96 129 170 214 260 323 379
#
# _framework density 24.914225999999999
#
# number of rings (size 3 to 8) (size 9 to 14) (size 15 to 20)
#    0.000    1.500    2.500    4.125    0.000    1.000 
#   15.750    2.500    0.000    0.000    0.000    0.000 
#    0.000    0.000    0.000    0.000    0.000    0.000 
#
# Total GULP energy -89521.783029 kJ/mol
# GULP energy per Si atom -5595.111439 kJ/mol
# Density = 2.485752 g / cm^3
# Si number density = 24.914226 Si / 1000 Ang^3
#
#
#
# Elastic Constant Matrix: (Units=GPa)
#
#
# Indices 1 2 3 4 5 6 
#
# 1 135.3804 21.1764 15.3254 5.3152 5.3514 0.3046
# 2 21.1764 91.5349 21.3975 25.6423 2.7993 -1.1779
# 3 15.3254 21.3975 98.8772 17.8490 12.1054 -7.1154
# 4 5.3152 25.6423 17.8490 38.0692 -5.7396 -2.8370
# 5 5.3514 2.7993 12.1054 -5.7396 42.3730 -1.1258
# 6 0.3046 -1.1779 -7.1154 -2.8370 -1.1258 27.6511
#
#
#
# Elastic Compliance Matrix: (Units=1/GPa)
#
#
# Indices 1 2 3 4 5 6 
#
# 1 0.007756 -0.001673 -0.000853 0.000328 -0.000591 -0.000367
# 2 -0.001673 0.014146 -0.000992 -0.009133 -0.001694 -0.000640
# 3 -0.000853 -0.000992 0.012066 -0.005285 -0.003927 0.002370
# 4 0.000328 -0.009133 -0.005285 0.036076 0.007018 0.002234
# 5 -0.000591 -0.001694 -0.003927 0.007018 0.025877 0.000698
# 6 -0.000367 -0.000640 0.002370 0.002234 0.000698 0.037009
#
#
# Mechanical properties :
#
#
# Convention : Reuss Voigt Hill
#
# Bulk Modulus (GPa) = 37.13280 49.06567 43.09923
# Shear Modulus (GPa) = 33.56948 39.47821 36.52385
#
# Velocity S-wave (km/s) = 3.67468 3.98498 3.83297
# Velocity P-wave (km/s) = 5.73942 6.39609 6.07663
#
# Compressibility (1/GPa) = 0.02693037
#
# Stress axis : x y z
#
# Youngs Moduli (GPa) = 128.92827 70.69260 82.87852
#
# Poissons Ratio (x) = 0.11830 0.07072
# Poissons Ratio (y) = 0.21576 0.08221
# Poissons Ratio (z) = 0.11002 0.07012
#
# Static dielectric constant tensor:
#      x y z
#    x 2.063520 -0.126820 -0.002510 
#    y -0.126820 1.984260 0.028780 
#    z -0.002510 0.028780 2.034250 
# 
# From -- ./inp_files/529789.got.cif
#   From: 2010.05.17/outbox.cif.g08.bks.cpg/sg2_265_cif.got.tgz:529789.got - 2010.06.03 11:33:40.
