data_PCOD9110091
_publ_section_title
;
Structure prediction by ZEFSAII (Michael W. Deem and Ramdas Pophale) SiO2 
 PCOD9110091
Probable space group: P -1
;
_chemical_formula_sum "Si O2"
_cell_formula_units_Z 14
_cell_length_a 16.730313
_cell_length_b 8.261543
_cell_length_c 9.481207
_cell_angle_alpha 82.439323
_cell_angle_beta 58.331138
_cell_angle_gamma 41.701772
_cell_volume 658.852360
_symmetry_space_group_name_H-M "P -1"
_symmetry_group_IT_number 2
_symmetry_cell_setting 'triclinic'
loop_
_space_group_symop_operation_xyz
x,y,z
-x,-y,-z
loop_
_atom_site_type_symbol
_atom_site_label
_atom_site_fract_x
_atom_site_fract_y
_atom_site_fract_z
Si Si1 0.959486 0.243414 0.526214
Si Si2 0.719749 0.171795 0.224813
Si Si3 0.989430 0.676749 0.825979
Si Si4 0.918118 0.445707 0.821273
Si Si5 0.450884 0.788428 0.386375
Si Si6 0.338256 0.161999 0.195020
Si Si7 0.773941 0.447899 0.200495
O O1 0.021606 0.252709 0.333548
O O2 0.017003 0.236321 0.623402
O O3 0.228772 0.459816 0.324816
O O4 0.000000 0.000000 0.500000
O O5 0.561549 0.479536 0.274535
O O6 0.661552 0.122107 0.397907
O O7 0.802375 0.213931 0.218386
O O8 0.836483 0.943555 0.025014
O O9 0.001645 0.464117 0.836030
O O10 0.139347 0.561425 0.765563
O O11 0.771504 0.739619 0.844875
O O12 0.844803 0.407068 0.989835
O O13 0.584436 0.723760 0.334216
O O14 0.367760 0.989738 0.309225
O O15 0.500000 0.000000 0.000000
#
# Coordination Sequence:
#
# PCOD9110091 Si02
#       7
#     2   2   2   2   2   2   2
#     4  10  24  44  68  98 134 180 234 279 341 404
#     4   9  21  40  68 101 139 174 232 280 341 397
#     4  12  23  41  62 106 133 184 224 281 343 403
#     4  10  23  41  67  97 139 174 225 286 336 410
#     4   9  19  42  68 100 136 180 225 287 333 407
#     4  10  20  42  70  95 137 180 222 279 349 400
#     4  10  20  41  69  95 135 178 231 278 335 401
#
# _framework density 21.24907
#
# number of rings (size 3 to 8) (size 9 to 14) (size 15 to 20)
#    1.714    0.286    1.429    2.143    2.000    2.286 
#    5.143    2.143    0.000    0.000    0.000    1.000 
#    0.000    0.000    0.000    0.000    0.000    0.000 
#
# Total GULP energy -78095.863192 kJ/mol
# GULP energy per Si atom -5578.275942 kJ/mol
# Density = 2.120071 g / cm^3
# Si number density = 21.249070 Si / 1000 Ang^3
#
#
#
# Elastic Constant Matrix: (Units=GPa)
#
#
# Indices 1 2 3 4 5 6 
#
# 1 98.2729 22.8435 70.4239 7.2177 1.1543 5.7688
# 2 22.8435 102.1191 51.1127 7.5876 -8.3139 -10.8085
# 3 70.4239 51.1127 143.1284 -11.6016 -19.2790 6.4922
# 4 7.2177 7.5876 -11.6016 37.6376 1.1057 2.8447
# 5 1.1543 -8.3139 -19.2790 1.1057 28.3162 -1.9277
# 6 5.7688 -10.8085 6.4922 2.8447 -1.9277 22.9118
#
#
#
# Elastic Compliance Matrix: (Units=1/GPa)
#
#
# Indices 1 2 3 4 5 6 
#
# 1 0.018495 0.001236 -0.011114 -0.006940 -0.007735 -0.000714
# 2 0.001236 0.014182 -0.006476 -0.005786 0.000542 0.008978
# 3 -0.011114 -0.006476 0.016993 0.008804 0.009412 -0.005373
# 4 -0.006940 -0.005786 0.008804 0.032245 0.002826 -0.007243
# 5 -0.007735 0.000542 0.009412 0.002826 0.042274 0.002742
# 6 -0.000714 0.008978 -0.005373 -0.007243 0.002742 0.050713
#
#
# Mechanical properties :
#
#
# Convention : Reuss Voigt Hill
#
# Bulk Modulus (GPa) = 58.95505 70.25340 64.60423
# Shear Modulus (GPa) = 23.44523 31.04914 27.24719
#
# Velocity S-wave (km/s) = 3.32528 3.82671 3.58477
# Velocity P-wave (km/s) = 6.52291 7.25662 6.89953
#
# Compressibility (1/GPa) = 0.01696207
#
# Stress axis : x y z
#
# Youngs Moduli (GPa) = 54.06780 70.51410 58.84889
#
# Poissons Ratio (x) = -0.08714 0.65403
# Poissons Ratio (y) = -0.06681 0.38109
# Poissons Ratio (z) = 0.60090 0.45663
#
# Static dielectric constant tensor:
#      x y z
#    x 1.811680 -0.013560 -0.010730 
#    y -0.013560 1.829000 -0.028750 
#    z -0.010730 -0.028750 1.769840 
# 
# From -- ./inp_files/295455.got.cif
#   From: 2010.05.17/outbox.cif.g08.bks.cpg/sg2_148_cif.got.tgz:295455.got - 2010.06.03 11:33:40.
