data_PCOD9110454
_publ_section_title
;
Structure prediction by ZEFSAII (Michael W. Deem and Ramdas Pophale) SiO2 
 PCOD9110454
Probable space group: P -1
;
_chemical_formula_sum "Si O2"
_cell_formula_units_Z 16
_cell_length_a 17.047377
_cell_length_b 8.890946
_cell_length_c 20.126827
_cell_angle_alpha 128.026487
_cell_angle_beta 160.785762
_cell_angle_gamma 50.476131
_cell_volume 773.036498
_symmetry_space_group_name_H-M "P -1"
_symmetry_group_IT_number 2
_symmetry_cell_setting 'triclinic'
loop_
_space_group_symop_operation_xyz
x,y,z
-x,-y,-z
loop_
_atom_site_type_symbol
_atom_site_label
_atom_site_fract_x
_atom_site_fract_y
_atom_site_fract_z
Si Si1 0.307391 0.201823 0.387173
Si Si2 0.943552 0.842631 0.695867
Si Si3 0.807145 0.154891 0.568989
Si Si4 0.971173 0.873466 0.504875
Si Si5 0.216171 0.469694 0.609409
Si Si6 0.090482 0.478832 0.177732
Si Si7 0.507110 0.300043 0.911041
Si Si8 0.613949 0.530113 0.723543
O O1 0.098226 0.183327 0.267239
O O2 0.190891 0.276695 0.242822
O O3 0.449904 0.373670 0.564720
O O4 0.500000 0.000000 0.500000
O O5 0.859746 0.662016 0.544069
O O6 0.787641 0.035850 0.588734
O O7 0.226673 0.832948 0.904635
O O8 0.916030 0.340512 0.728054
O O9 0.555446 0.253655 0.358003
O O10 0.955759 0.997631 0.594030
O O11 0.717505 0.797641 0.275248
O O12 0.199533 0.690503 0.635824
O O13 0.000000 0.000000 0.500000
O O14 0.454879 0.362392 0.809374
O O15 0.000000 0.500000 0.500000
O O16 0.269503 0.502459 0.266099
O O17 0.829078 0.499271 0.940308
O O18 0.500000 0.500000 0.000000
#
# Coordination Sequence:
#
# PCOD9110454 Si02
#       8
#     2   2   2   2   2   2   2   2
#     4  11  24  43  66  97 130 165 216 272 319 383
#     4  12  23  39  67  94 128 174 222 260 325 390
#     4  11  22  41  65  91 131 170 211 260 330 378
#     4  11  24  42  64  95 130 174 220 269 318 383
#     4  10  20  42  62  89 132 171 212 267 324 378
#     4  10  23  43  67  94 128 165 214 261 334 389
#     4  11  21  41  67  90 130 177 216 267 325 380
#     4  10  23  44  66  93 129 167 206 270 329 391
#
# _framework density 20.697600999999999
#
# number of rings (size 3 to 8) (size 9 to 14) (size 15 to 20)
#    0.000    1.250    5.000    3.000    5.250    1.500 
#    0.000    2.500    0.000    0.000    0.000    0.000 
#    0.000    0.000    0.000    0.000    0.000    0.000 
#
# Total GULP energy -89280.037629 kJ/mol
# GULP energy per Si atom -5580.002352 kJ/mol
# Density = 2.065049 g / cm^3
# Si number density = 20.697601 Si / 1000 Ang^3
#
#
#
# Elastic Constant Matrix: (Units=GPa)
#
#
# Indices 1 2 3 4 5 6 
#
# 1 68.2978 29.4182 29.5287 1.2396 -7.4924 29.2048
# 2 29.4182 126.1469 35.9837 -16.6190 -6.5797 26.3957
# 3 29.5287 35.9837 95.8450 -17.8617 -13.9489 6.2980
# 4 1.2396 -16.6190 -17.8617 28.9350 3.9686 -6.7312
# 5 -7.4924 -6.5797 -13.9489 3.9686 29.0759 -0.4129
# 6 29.2048 26.3957 6.2980 -6.7312 -0.4129 36.3682
#
#
#
# Elastic Compliance Matrix: (Units=1/GPa)
#
#
# Indices 1 2 3 4 5 6 
#
# 1 0.030358 -0.000846 -0.009324 -0.013928 0.004709 -0.024674
# 2 -0.000846 0.010555 -0.002696 0.002996 0.000383 -0.005955
# 3 -0.009324 -0.002696 0.016190 0.010371 0.003461 0.008600
# 4 -0.013928 0.002996 0.010371 0.047571 -0.004202 0.015971
# 5 0.004709 0.000383 0.003461 -0.004202 0.037855 -0.005007
# 6 -0.024674 -0.005955 0.008600 0.015971 -0.005007 0.053042
#
#
# Mechanical properties :
#
#
# Convention : Reuss Voigt Hill
#
# Bulk Modulus (GPa) = 31.87949 53.35009 42.61479
# Shear Modulus (GPa) = 21.57397 31.89976 26.73686
#
# Velocity S-wave (km/s) = 3.23203 3.93011 3.59804
# Velocity P-wave (km/s) = 5.41886 6.81368 6.15590
#
# Compressibility (1/GPa) = 0.03136813
#
# Stress axis : x y z
#
# Youngs Moduli (GPa) = 32.94063 94.74612 61.76747
#
# Poissons Ratio (x) = 0.08019 0.57593
# Poissons Ratio (y) = 0.02788 0.16655
# Poissons Ratio (z) = 0.30714 0.25547
#
# Static dielectric constant tensor:
#      x y z
#    x 1.761120 -0.004400 -0.009580 
#    y -0.004400 1.733620 -0.021000 
#    z -0.009580 -0.021000 1.740140 
# 
# From -- ./inp_files/539463.got.cif
#   From: 2010.05.17/outbox.cif.g08.bks.cpg/sg2_270_cif.got.tgz:539463.got - 2010.06.03 11:33:40.
