data_PCOD9110678
_publ_section_title
;
Structure prediction by ZEFSAII (Michael W. Deem and Ramdas Pophale) SiO2 
 PCOD9110678
Probable space group: P -1
;
_chemical_formula_sum "Si O2"
_cell_formula_units_Z 16
_cell_length_a 21.080441
_cell_length_b 7.591197
_cell_length_c 9.087918
_cell_angle_alpha 56.165698
_cell_angle_beta 40.219463
_cell_angle_gamma 65.244843
_cell_volume 779.981570
_symmetry_space_group_name_H-M "P -1"
_symmetry_group_IT_number 2
_symmetry_cell_setting 'triclinic'
loop_
_space_group_symop_operation_xyz
x,y,z
-x,-y,-z
loop_
_atom_site_type_symbol
_atom_site_label
_atom_site_fract_x
_atom_site_fract_y
_atom_site_fract_z
Si Si1 0.144183 0.546313 0.715510
Si Si2 0.255450 0.936457 0.393440
Si Si3 0.588679 0.068995 0.414558
Si Si4 0.996556 0.482984 0.265842
Si Si5 0.729350 0.782578 0.470459
Si Si6 0.681988 0.490464 0.951397
Si Si7 0.120854 0.287216 0.388699
Si Si8 0.452877 0.140924 0.889034
O O1 0.236529 0.688721 0.534734
O O2 0.175480 0.303134 0.743081
O O3 0.093380 0.618521 0.619726
O O4 0.067473 0.569369 0.972831
O O5 0.260082 0.038216 0.503048
O O6 0.162093 0.052728 0.434907
O O7 0.351916 0.009312 0.099264
O O8 0.657208 0.246946 0.135398
O O9 0.533538 0.161068 0.611923
O O10 0.500000 0.000000 0.500000
O O11 0.651770 0.871998 0.451811
O O12 0.061083 0.336788 0.325119
O O13 0.949611 0.657187 0.375528
O O14 0.697750 0.575511 0.718095
O O15 0.588910 0.630214 0.101500
O O16 0.780636 0.565171 0.830166
O O17 0.500000 0.000000 0.000000
#
# Coordination Sequence:
#
# PCOD9110678 Si02
#       8
#     2   2   2   2   2   2   2   2
#     4  11  23  40  65  95 126 170 210 267 325 374
#     4  10  22  40  68  86 128 177 204 257 343 363
#     4  12  26  39  65 101 122 169 221 261 319 388
#     4  10  21  39  63  95 129 159 220 265 310 396
#     4  10  23  47  60  95 140 163 214 273 318 384
#     4  10  22  42  67  87 133 173 206 264 328 369
#     4   9  20  42  63  91 130 168 206 270 321 375
#     4  10  20  42  65  89 127 167 218 258 312 391
#
# _framework density 20.513304999999999
#
# number of rings (size 3 to 8) (size 9 to 14) (size 15 to 20)
#    0.000    2.000    5.000    0.375    3.500    4.500 
#    0.000    0.000    0.000    0.000    0.000    0.000 
#    0.000    0.000    0.000    0.000    0.000    0.000 
#
# Total GULP energy -89176.437905 kJ/mol
# GULP energy per Si atom -5573.527369 kJ/mol
# Density = 2.046662 g / cm^3
# Si number density = 20.513305 Si / 1000 Ang^3
#
#
#
# Elastic Constant Matrix: (Units=GPa)
#
#
# Indices 1 2 3 4 5 6 
#
# 1 110.3480 45.2473 22.3210 -3.3674 14.0136 -24.7362
# 2 45.2473 55.2692 22.8714 11.3206 -1.7073 -14.2040
# 3 22.3210 22.8714 51.9086 -0.5644 7.3709 2.1246
# 4 -3.3674 11.3206 -0.5644 24.2721 -1.2929 -9.2069
# 5 14.0136 -1.7073 7.3709 -1.2929 24.3176 -1.3794
# 6 -24.7362 -14.2040 2.1246 -9.2069 -1.3794 38.2189
#
#
#
# Elastic Compliance Matrix: (Units=1/GPa)
#
#
# Indices 1 2 3 4 5 6 
#
# 1 0.020177 -0.017491 0.000458 0.013935 -0.011717 0.009467
# 2 -0.017491 0.043545 -0.014266 -0.021822 0.016357 0.000989
# 3 0.000458 -0.014266 0.026990 0.004666 -0.009523 -0.005725
# 4 0.013935 -0.021822 0.004666 0.058544 -0.007042 0.014499
# 5 -0.011717 0.016357 -0.009523 -0.007042 0.051489 -0.000813
# 6 0.009467 0.000989 -0.005725 0.014499 -0.000813 0.036442
#
#
# Mechanical properties :
#
#
# Convention : Reuss Voigt Hill
#
# Bulk Modulus (GPa) = 35.56699 44.26722 39.91710
# Shear Modulus (GPa) = 16.17307 25.83413 21.00360
#
# Velocity S-wave (km/s) = 2.81093 3.55263 3.20332
# Velocity P-wave (km/s) = 5.28311 6.20120 5.76047
#
# Compressibility (1/GPa) = 0.02811596
#
# Stress axis : x y z
#
# Youngs Moduli (GPa) = 49.56135 22.96459 37.05010
#
# Poissons Ratio (x) = 0.40168 -0.01698
# Poissons Ratio (y) = 0.86689 0.52854
# Poissons Ratio (z) = -0.02271 0.32760
#
# Static dielectric constant tensor:
#      x y z
#    x 1.794640 0.054300 0.016230 
#    y 0.054300 1.792690 0.049720 
#    z 0.016230 0.049720 1.780120 
# 
# From -- ./inp_files/343296.got.cif
#   From: 2010.05.17/outbox.cif.g08.bks.cpg/sg2_172_cif.got.tgz:343296.got - 2010.06.03 11:33:40.
