data_PCOD9110626
_publ_section_title
;
Structure prediction by ZEFSAII (Michael W. Deem and Ramdas Pophale) SiO2 
 PCOD9110626
Probable space group: P -1
;
_chemical_formula_sum "Si O2"
_cell_formula_units_Z 15
_cell_length_a 17.175788
_cell_length_b 11.034955
_cell_length_c 20.337046
_cell_angle_alpha 41.639768
_cell_angle_beta 21.335073
_cell_angle_gamma 32.364283
_cell_volume 735.136981
_symmetry_space_group_name_H-M "P -1"
_symmetry_group_IT_number 2
_symmetry_cell_setting 'triclinic'
loop_
_space_group_symop_operation_xyz
x,y,z
-x,-y,-z
loop_
_atom_site_type_symbol
_atom_site_label
_atom_site_fract_x
_atom_site_fract_y
_atom_site_fract_z
Si Si1 0.914784 0.549593 0.739583
Si Si2 0.013095 0.100164 0.518062
Si Si3 0.295385 0.234181 0.679307
Si Si4 0.000000 0.000000 0.000000
Si Si5 0.630273 0.079789 0.913424
Si Si6 0.138000 0.050505 0.723677
Si Si7 0.980816 0.794588 0.870318
Si Si8 0.409778 0.283036 0.716482
O O1 0.985542 0.687006 0.584860
O O2 0.085064 0.462442 0.709006
O O3 0.988100 0.322335 0.739029
O O4 0.601751 0.726165 0.934388
O O5 0.758920 0.172728 0.731855
O O6 0.000000 0.000000 0.500000
O O7 0.287756 0.900836 0.420465
O O8 0.384376 0.274929 0.661553
O O9 0.559661 0.074174 0.490339
O O10 0.148154 0.118322 0.855459
O O11 0.883381 0.032337 0.154536
O O12 0.861775 0.866426 0.861723
O O13 0.500000 0.000000 0.000000
O O14 0.000191 0.985088 0.807447
O O15 0.272044 0.543649 0.742051
O O16 0.776584 0.776724 0.080161
#
# Coordination Sequence:
#
# PCOD9110626 Si02
#       8
#     2   2   2   1   2   2   2   2
#     4  11  25  44  67 103 144 180 229 287 346 419
#     4  12  26  46  70 103 139 181 228 289 352 415
#     4  11  24  44  73 107 140 183 238 285 345 419
#     4  10  20  42  64  96 142 180 224 284 334 406
#     4  12  24  45  71 102 140 183 235 286 354 410
#     4  11  25  44  70 103 143 183 240 282 349 419
#     4  11  24  45  73 104 137 188 231 294 350 408
#     4  11  24  46  75 102 140 180 237 292 348 417
#
# _framework density 20.404361000000002
#
# number of rings (size 3 to 8) (size 9 to 14) (size 15 to 20)
#    0.000    0.800    4.000    3.200    1.867    6.933 
#    0.000    1.333    0.000    0.000    0.000    0.000 
#    0.000    0.000    0.000    0.000    0.000    0.000 
#
# Total GULP energy -83653.143612 kJ/mol
# GULP energy per Si atom -5576.876241 kJ/mol
# Density = 2.035792 g / cm^3
# Si number density = 20.404361 Si / 1000 Ang^3
#
#
#
# Elastic Constant Matrix: (Units=GPa)
#
#
# Indices 1 2 3 4 5 6 
#
# 1 109.5032 37.8534 12.8207 -14.3061 -10.3415 -0.2797
# 2 37.8534 102.4438 65.2370 -13.5139 1.4687 -5.0951
# 3 12.8207 65.2370 152.6866 -35.6631 19.7650 -1.2235
# 4 -14.3061 -13.5139 -35.6631 20.2961 -10.5867 5.0485
# 5 -10.3415 1.4687 19.7650 -10.5867 36.7597 3.7480
# 6 -0.2797 -5.0951 -1.2235 5.0485 3.7480 23.6533
#
#
#
# Elastic Compliance Matrix: (Units=1/GPa)
#
#
# Indices 1 2 3 4 5 6 
#
# 1 0.014186 -0.006295 0.005306 0.021037 0.008130 -0.006692
# 2 -0.006295 0.016618 -0.008985 -0.011330 -0.001447 0.005688
# 3 0.005306 -0.008985 0.016610 0.030142 0.002400 -0.007827
# 4 0.021037 -0.011330 0.030142 0.135152 0.032621 -0.034648
# 5 0.008130 -0.001447 0.002400 0.032621 0.039003 -0.013234
# 6 -0.006692 0.005688 -0.007827 -0.034648 -0.013234 0.052511
#
#
# Mechanical properties :
#
#
# Convention : Reuss Voigt Hill
#
# Bulk Modulus (GPa) = 36.40927 66.27286 51.34107
# Shear Modulus (GPa) = 16.49162 32.72331 24.60747
#
# Velocity S-wave (km/s) = 2.84604 4.00902 3.47650
# Velocity P-wave (km/s) = 5.35561 7.34710 6.42894
#
# Compressibility (1/GPa) = 0.02746553
#
# Stress axis : x y z
#
# Youngs Moduli (GPa) = 70.49131 60.17399 60.20540
#
# Poissons Ratio (x) = 0.37880 -0.31945
# Poissons Ratio (y) = 0.44374 0.54097
# Poissons Ratio (z) = -0.37402 0.54069
#
# Static dielectric constant tensor:
#      x y z
#    x 1.725000 -0.005320 -0.011280 
#    y -0.005320 1.718120 0.012400 
#    z -0.011280 0.012400 1.734730 
# 
# From -- ./inp_files/577562.got.cif
#   From: 2010.05.17/outbox.cif.g08.bks.cpg/sg2_289_cif.got.tgz:577562.got - 2010.06.03 11:33:40.
