data_PCOD9110901
_publ_section_title
;
Structure prediction by ZEFSAII (Michael W. Deem and Ramdas Pophale) SiO2 
 PCOD9110901
Probable space group: P -1
;
_chemical_formula_sum "Si O2"
_cell_formula_units_Z 14
_cell_length_a 9.605147
_cell_length_b 12.367848
_cell_length_c 6.657227
_cell_angle_alpha 66.587975
_cell_angle_beta 75.194236
_cell_angle_gamma 98.138119
_cell_volume 674.786984
_symmetry_space_group_name_H-M "P -1"
_symmetry_group_IT_number 2
_symmetry_cell_setting 'triclinic'
loop_
_space_group_symop_operation_xyz
x,y,z
-x,-y,-z
loop_
_atom_site_type_symbol
_atom_site_label
_atom_site_fract_x
_atom_site_fract_y
_atom_site_fract_z
Si Si1 0.794757 0.015664 0.991822
Si Si2 0.189608 0.663319 0.794310
Si Si3 0.339500 0.466342 0.981171
Si Si4 0.314884 0.206111 0.117713
Si Si5 0.414932 0.884719 0.753077
Si Si6 0.070658 0.084597 0.599834
Si Si7 0.950596 0.533673 0.705166
O O1 0.742877 0.894519 0.960982
O O2 0.856297 0.982029 0.207364
O O3 0.930674 0.108277 0.754004
O O4 0.659493 0.069801 0.060676
O O5 0.283809 0.794604 0.736929
O O6 0.081358 0.646492 0.658097
O O7 0.303344 0.578056 0.791168
O O8 0.072670 0.590241 0.060321
O O9 0.325168 0.344168 0.948303
O O10 0.210545 0.443410 0.217902
O O11 0.500000 0.500000 0.000000
O O12 0.469813 0.187868 0.157939
O O13 0.202600 0.181991 0.367702
O O14 0.500000 0.000000 0.500000
O O15 0.000000 0.000000 0.500000
O O16 0.000000 0.500000 0.500000
#
# Coordination Sequence:
#
# PCOD9110901 Si02
#       7
#     2   2   2   2   2   2   2
#     4  10  22  39  61  90 123 168 209 256 320 376
#     4   9  22  43  66  90 133 161 213 266 319 370
#     4  10  20  42  67  89 129 162 200 276 317 364
#     4  11  21  41  62  91 125 161 212 261 321 379
#     4  12  23  42  65  90 134 172 210 263 324 385
#     4   9  20  39  59  88 122 160 209 255 314 376
#     4   9  20  44  68  98 119 169 219 258 327 378
#
# _framework density 20.74729
#
# number of rings (size 3 to 8) (size 9 to 14) (size 15 to 20)
#    0.857    1.143    2.857    0.429    0.000    4.571 
#   10.286    0.714    0.000    0.000    0.000    0.000 
#    0.000    0.000    0.000    0.000    0.000    0.000 
#
# Total GULP energy -78001.902115 kJ/mol
# GULP energy per Si atom -5571.564437 kJ/mol
# Density = 2.070007 g / cm^3
# Si number density = 20.747290 Si / 1000 Ang^3
#
#
#
# Elastic Constant Matrix: (Units=GPa)
#
#
# Indices 1 2 3 4 5 6 
#
# 1 109.1606 46.4391 27.1162 16.2488 -16.3686 12.7179
# 2 46.4391 123.3048 42.7064 9.0599 -14.0975 7.9282
# 3 27.1162 42.7064 69.2888 18.7530 -4.2478 3.5518
# 4 16.2488 9.0599 18.7530 24.3284 -3.2535 2.3558
# 5 -16.3686 -14.0975 -4.2478 -3.2535 28.4282 10.3917
# 6 12.7179 7.9282 3.5518 2.3558 10.3917 37.4808
#
#
#
# Elastic Compliance Matrix: (Units=1/GPa)
#
#
# Indices 1 2 3 4 5 6 
#
# 1 0.013261 -0.003008 -0.001163 -0.005328 0.007355 -0.005458
# 2 -0.003008 0.011993 -0.006797 0.003606 0.004466 -0.002337
# 3 -0.001163 -0.006797 0.022841 -0.014811 -0.002828 0.001383
# 4 -0.005328 0.003606 -0.014811 0.055414 0.003591 -0.002030
# 5 0.007355 0.004466 -0.002828 0.003591 0.047690 -0.016621
# 6 -0.005458 -0.002337 0.001383 -0.002030 -0.016621 0.033631
#
#
# Mechanical properties :
#
#
# Convention : Reuss Voigt Hill
#
# Bulk Modulus (GPa) = 38.22749 59.36419 48.79584
# Shear Modulus (GPa) = 23.20330 30.41366 26.80848
#
# Velocity S-wave (km/s) = 3.34784 3.83287 3.59854
# Velocity P-wave (km/s) = 5.78008 6.94716 6.39032
#
# Compressibility (1/GPa) = 0.02615918
#
# Stress axis : x y z
#
# Youngs Moduli (GPa) = 75.40667 83.38126 43.78086
#
# Poissons Ratio (x) = 0.25085 0.05091
# Poissons Ratio (y) = 0.22686 0.29758
# Poissons Ratio (z) = 0.08768 0.56674
#
# Static dielectric constant tensor:
#      x y z
#    x 1.753090 -0.025510 -0.018800 
#    y -0.025510 1.739690 -0.053420 
#    z -0.018800 -0.053420 1.718800 
# 
# From -- ./inp_files/26883.got.cif
#   From: 2010.05.17/outbox.cif.g08.bks.cpg/sg2_14_cif.got.tgz:26883.got - 2010.06.03 11:33:40.
