data_PCOD9110982
_publ_section_title
;
Structure prediction by ZEFSAII (Michael W. Deem and Ramdas Pophale) SiO2 
 PCOD9110982
Probable space group: P -1
;
_chemical_formula_sum "Si O2"
_cell_formula_units_Z 14
_cell_length_a 8.659555
_cell_length_b 13.528222
_cell_length_c 18.470329
_cell_angle_alpha 21.058599
_cell_angle_beta 59.477003
_cell_angle_gamma 70.405203
_cell_volume 598.856410
_symmetry_space_group_name_H-M "P -1"
_symmetry_group_IT_number 2
_symmetry_cell_setting 'triclinic'
loop_
_space_group_symop_operation_xyz
x,y,z
-x,-y,-z
loop_
_atom_site_type_symbol
_atom_site_label
_atom_site_fract_x
_atom_site_fract_y
_atom_site_fract_z
Si Si1 0.078740 0.675912 0.532114
Si Si2 0.533625 0.220905 0.408018
Si Si3 0.745795 0.169625 0.776074
Si Si4 0.486268 0.909663 0.334095
Si Si5 0.864996 0.844740 0.302279
Si Si6 0.054432 0.270951 0.096419
Si Si7 0.625634 0.310853 0.892969
O O1 0.152034 0.712458 0.407359
O O2 0.859934 0.397549 0.783819
O O3 0.258806 0.659292 0.543958
O O4 0.073064 0.004787 0.321983
O O5 0.383270 0.372208 0.336432
O O6 0.500000 0.000000 0.500000
O O7 0.514983 0.059570 0.600027
O O8 0.744493 0.513640 0.141992
O O9 0.775955 0.484206 0.590894
O O10 0.908336 0.066305 0.842206
O O11 0.520901 0.934652 0.964316
O O12 0.668598 0.835296 0.316999
O O13 0.525781 0.188753 0.079213
O O14 0.907362 0.084431 0.193741
O O15 0.000000 0.500000 0.000000
#
# Coordination Sequence:
#
# PCOD9110982 Si02
#       7
#     2   2   2   2   2   2   2
#     4  10  22  44  66 101 138 179 224 281 341 404
#     4  12  24  45  69  97 137 183 228 282 342 406
#     4   9  20  43  68  99 141 176 230 282 336 409
#     4  11  25  43  68 103 139 175 235 276 346 409
#     4  10  20  42  68 101 137 177 232 282 336 411
#     4  11  22  45  68  97 138 179 229 283 339 405
#     4  11  23  45  69  99 142 178 226 284 340 405
#
# _framework density 23.377893
#
# number of rings (size 3 to 8) (size 9 to 14) (size 15 to 20)
#    0.000    1.429    4.286    3.429    2.000    2.857 
#    5.143    7.143    0.000    0.000    0.000    0.000 
#    0.000    0.000    0.000    0.000    0.000    0.000 
#
# Total GULP energy -78007.950395 kJ/mol
# GULP energy per Si atom -5571.996457 kJ/mol
# Density = 2.332468 g / cm^3
# Si number density = 23.377893 Si / 1000 Ang^3
#
#
#
# Elastic Constant Matrix: (Units=GPa)
#
#
# Indices 1 2 3 4 5 6 
#
# 1 142.0571 28.9872 50.1049 -4.8556 -37.4322 -10.9195
# 2 28.9872 82.6847 38.3610 -13.6481 3.2695 6.5421
# 3 50.1049 38.3610 131.6839 8.5686 -37.0704 3.1753
# 4 -4.8556 -13.6481 8.5686 49.0719 -4.4306 0.8502
# 5 -37.4322 3.2695 -37.0704 -4.4306 48.4177 14.9574
# 6 -10.9195 6.5421 3.1753 0.8502 14.9574 33.8151
#
#
#
# Elastic Compliance Matrix: (Units=1/GPa)
#
#
# Indices 1 2 3 4 5 6 
#
# 1 0.009987 -0.003265 -0.000939 0.000867 0.007054 0.000803
# 2 -0.003265 0.017354 -0.006377 0.004901 -0.008008 -0.000394
# 3 -0.000939 -0.006377 0.013288 -0.003085 0.011201 -0.005194
# 4 0.000867 0.004901 -0.003085 0.022418 0.000370 -0.001106
# 5 0.007054 -0.008008 0.011201 0.000370 0.039848 -0.014860
# 6 0.000803 -0.000394 -0.005194 -0.001106 -0.014860 0.036996
#
#
# Mechanical properties :
#
#
# Convention : Reuss Voigt Hill
#
# Bulk Modulus (GPa) = 51.36780 65.70355 58.53567
# Shear Modulus (GPa) = 29.84323 42.19245 36.01784
#
# Velocity S-wave (km/s) = 3.57677 4.25290 3.92941
# Velocity P-wave (km/s) = 6.25126 7.23065 6.75872
#
# Compressibility (1/GPa) = 0.01946745
#
# Stress axis : x y z
#
# Youngs Moduli (GPa) = 100.13193 57.62349 75.25590
#
# Poissons Ratio (x) = 0.18813 0.07066
# Poissons Ratio (y) = 0.32692 0.47990
# Poissons Ratio (z) = 0.09401 0.36746
#
# Static dielectric constant tensor:
#      x y z
#    x 2.061150 -0.053880 -0.018460 
#    y -0.053880 1.953990 0.043250 
#    z -0.018460 0.043250 1.914190 
# 
# From -- ./inp_files/590398.got.cif
#   From: 2010.05.17/outbox.cif.g08.bks.cpg/sg2_296_cif.got.tgz:590398.got - 2010.06.03 11:33:40.
