data_PCOD9110073
_publ_section_title
;
Structure prediction by ZEFSAII (Michael W. Deem and Ramdas Pophale) SiO2 
 PCOD9110073
Probable space group: P -1
;
_chemical_formula_sum "Si O2"
_cell_formula_units_Z 16
_cell_length_a 15.992146
_cell_length_b 11.245830
_cell_length_c 9.214730
_cell_angle_alpha 140.345846
_cell_angle_beta 135.427599
_cell_angle_gamma 48.448114
_cell_volume 717.390464
_symmetry_space_group_name_H-M "P -1"
_symmetry_group_IT_number 2
_symmetry_cell_setting 'triclinic'
loop_
_space_group_symop_operation_xyz
x,y,z
-x,-y,-z
loop_
_atom_site_type_symbol
_atom_site_label
_atom_site_fract_x
_atom_site_fract_y
_atom_site_fract_z
Si Si1 0.452875 0.427069 0.520718
Si Si2 0.001751 0.060885 0.394846
Si Si3 0.122395 0.292746 0.590459
Si Si4 0.644278 0.851229 0.424824
Si Si5 0.046094 0.724508 0.907817
Si Si6 0.733530 0.262894 0.242644
Si Si7 0.384398 0.072083 0.214159
Si Si8 0.683385 0.277881 0.869006
O O1 0.500000 0.500000 0.500000
O O2 0.335794 0.588936 0.584803
O O3 0.414392 0.222963 0.279004
O O4 0.566962 0.394998 0.744378
O O5 0.879202 0.232571 0.381857
O O6 0.118425 0.138402 0.563903
O O7 0.000000 0.000000 0.500000
O O8 0.998039 0.884483 0.119083
O O9 0.254727 0.287569 0.679747
O O10 0.057869 0.506045 0.765427
O O11 0.042795 0.241414 0.309800
O O12 0.645284 0.809835 0.558991
O O13 0.507099 0.900767 0.238899
O O14 0.676815 0.056683 0.650698
O O15 0.183754 0.726147 0.034079
O O16 0.677769 0.334101 0.083330
O O17 0.714369 0.049224 0.051442
#
# Coordination Sequence:
#
# PCOD9110073 Si02
#       8
#     2   2   2   2   2   2   2   2
#     4  11  26  41  64  99 135 170 209 269 338 399
#     4  12  27  45  65  96 142 179 218 270 335 398
#     4  11  23  40  69 101 126 174 226 280 325 386
#     4   9  18  36  67  95 128 162 216 277 324 373
#     4  11  23  40  68  98 127 173 228 275 320 387
#     4  11  24  43  68  92 127 177 219 271 325 385
#     4   9  21  39  61  97 128 165 214 269 322 391
#     4  10  20  41  69  93 130 165 224 272 319 390
#
# _framework density 22.303056000000002
#
# number of rings (size 3 to 8) (size 9 to 14) (size 15 to 20)
#    0.000    1.500    2.500    3.000    5.250    2.000 
#    2.250    0.000    0.000    0.000    0.000    0.000 
#    0.000    0.000    0.000    0.000    0.000    0.000 
#
# Total GULP energy -89489.460118 kJ/mol
# GULP energy per Si atom -5593.091257 kJ/mol
# Density = 2.225229 g / cm^3
# Si number density = 22.303056 Si / 1000 Ang^3
#
#
#
# Elastic Constant Matrix: (Units=GPa)
#
#
# Indices 1 2 3 4 5 6 
#
# 1 115.9615 37.3522 20.9336 6.0934 -2.3535 -0.2788
# 2 37.3522 63.3403 13.5422 12.2692 -16.6118 1.4543
# 3 20.9336 13.5422 28.0000 10.8204 2.0303 0.3339
# 4 6.0934 12.2692 10.8204 19.5646 -9.0430 -1.2481
# 5 -2.3535 -16.6118 2.0303 -9.0430 34.9937 2.8199
# 6 -0.2788 1.4543 0.3339 -1.2481 2.8199 51.1460
#
#
#
# Elastic Compliance Matrix: (Units=1/GPa)
#
#
# Indices 1 2 3 4 5 6 
#
# 1 0.011753 -0.006396 -0.007164 0.003950 -0.000844 0.000436
# 2 -0.006396 0.024572 -0.005634 -0.005672 0.010208 -0.001398
# 3 -0.007164 -0.005634 0.057681 -0.033102 -0.015038 -0.000234
# 4 0.003950 -0.005672 -0.033102 0.081251 0.020389 0.001258
# 5 -0.000844 0.010208 -0.015038 0.020389 0.039659 -0.001886
# 6 0.000436 -0.001398 -0.000234 0.001258 -0.001886 0.019730
#
#
# Mechanical properties :
#
#
# Convention : Reuss Voigt Hill
#
# Bulk Modulus (GPa) = 17.97983 38.99533 28.48758
# Shear Modulus (GPa) = 17.14828 30.17243 23.66036
#
# Velocity S-wave (km/s) = 2.77587 3.68209 3.26061
# Velocity P-wave (km/s) = 4.28404 5.96651 5.19386
#
# Compressibility (1/GPa) = 0.05561787
#
# Stress axis : x y z
#
# Youngs Moduli (GPa) = 85.08188 40.69656 17.33683
#
# Poissons Ratio (x) = 0.26029 0.12420
# Poissons Ratio (y) = 0.54418 0.09768
# Poissons Ratio (z) = 0.60954 0.22928
#
# Static dielectric constant tensor:
#      x y z
#    x 1.829010 0.015260 0.020940 
#    y 0.015260 1.831780 0.012730 
#    z 0.020940 0.012730 1.813810 
# 
# From -- ./inp_files/271009.got.cif
#   From: 2010.05.17/outbox.cif.g08.bks.cpg/sg2_136_cif.got.tgz:271009.got - 2010.06.03 11:33:40.
