data_PCOD9110473
_publ_section_title
;
Structure prediction by ZEFSAII (Michael W. Deem and Ramdas Pophale) SiO2 
 PCOD9110473
Probable space group: P -1
;
_chemical_formula_sum "Si O2"
_cell_formula_units_Z 16
_cell_length_a 14.527408
_cell_length_b 11.092115
_cell_length_c 8.582412
_cell_angle_alpha 82.960801
_cell_angle_beta 138.968259
_cell_angle_gamma 78.535002
_cell_volume 806.027557
_symmetry_space_group_name_H-M "P -1"
_symmetry_group_IT_number 2
_symmetry_cell_setting 'triclinic'
loop_
_space_group_symop_operation_xyz
x,y,z
-x,-y,-z
loop_
_atom_site_type_symbol
_atom_site_label
_atom_site_fract_x
_atom_site_fract_y
_atom_site_fract_z
Si Si1 0.256657 0.935663 0.277059
Si Si2 0.000029 0.156662 0.123391
Si Si3 0.684025 0.509081 0.290385
Si Si4 0.796350 0.819181 0.047863
Si Si5 0.961679 0.156882 0.416037
Si Si6 0.623592 0.290598 0.077229
Si Si7 0.537280 0.769149 0.872182
Si Si8 0.998539 0.397788 0.882591
O O1 0.419293 0.821497 0.568157
O O2 0.148195 0.875429 0.071065
O O3 0.150633 0.027050 0.270314
O O4 0.271636 0.042849 0.161533
O O5 0.020855 0.185762 0.323563
O O6 0.971719 0.281176 0.956091
O O7 0.671933 0.372528 0.256091
O O8 0.851400 0.479838 0.570789
O O9 0.543374 0.597167 0.216445
O O10 0.634576 0.607993 0.060111
O O11 0.950293 0.808404 0.336868
O O12 0.851699 0.689755 0.022080
O O13 0.666153 0.821877 0.000661
O O14 0.773417 0.232599 0.171048
O O15 0.000000 0.000000 0.500000
O O16 0.575148 0.187283 0.124403
O O17 0.000000 0.500000 0.000000
#
# Coordination Sequence:
#
# PCOD9110473 Si02
#       8
#     2   2   2   2   2   2   2   2
#     4  10  20  42  62  93 127 167 209 263 311 372
#     4  10  23  37  68  91 124 170 215 257 314 369
#     4   9  20  40  64  88 122 175 208 250 312 375
#     4  11  24  40  66  93 131 161 214 263 313 378
#     4  12  22  41  65 100 120 169 220 258 305 384
#     4   9  20  39  64  90 126 163 215 255 303 376
#     4  10  21  37  66  91 125 171 200 259 329 362
#     4  11  24  43  61  93 132 165 209 264 316 377
#
# _framework density 19.850438
#
# number of rings (size 3 to 8) (size 9 to 14) (size 15 to 20)
#    0.750    1.000    2.500    1.875    3.500    1.500 
#    2.250    4.375    0.000    0.000    0.000    0.000 
#    0.000    0.000    0.000    0.000    0.000    0.000 
#
# Total GULP energy -89100.158854 kJ/mol
# GULP energy per Si atom -5568.759928 kJ/mol
# Density = 1.980526 g / cm^3
# Si number density = 19.850438 Si / 1000 Ang^3
#
#
#
# Elastic Constant Matrix: (Units=GPa)
#
#
# Indices 1 2 3 4 5 6 
#
# 1 86.4275 13.9150 22.3679 0.2460 1.1870 5.3339
# 2 13.9150 63.5180 25.2735 -1.1429 2.6771 -3.2128
# 3 22.3679 25.2735 88.7990 -16.8313 -3.2274 5.2025
# 4 0.2460 -1.1429 -16.8313 18.7037 2.3849 -0.0014
# 5 1.1870 2.6771 -3.2274 2.3849 23.0034 8.8600
# 6 5.3339 -3.2128 5.2025 -0.0014 8.8600 19.7565
#
#
#
# Elastic Compliance Matrix: (Units=1/GPa)
#
#
# Indices 1 2 3 4 5 6 
#
# 1 0.012870 -0.001838 -0.003101 -0.003162 0.000703 -0.003272
# 2 -0.001838 0.019268 -0.006418 -0.003849 -0.005678 0.007866
# 3 -0.003101 -0.006418 0.017178 0.014547 0.004388 -0.006697
# 4 -0.003162 -0.003849 0.014547 0.066807 -0.003491 -0.002033
# 5 0.000703 -0.005678 0.004388 -0.003491 0.055542 -0.027177
# 6 -0.003272 0.007866 -0.006697 -0.002033 -0.027177 0.066730
#
#
# Mechanical properties :
#
#
# Convention : Reuss Voigt Hill
#
# Bulk Modulus (GPa) = 37.58931 40.20636 38.89784
# Shear Modulus (GPa) = 18.52017 24.10527 21.31272
#
# Velocity S-wave (km/s) = 3.05779 3.48853 3.28024
# Velocity P-wave (km/s) = 5.60751 6.04359 5.82963
#
# Compressibility (1/GPa) = 0.02660331
#
# Stress axis : x y z
#
# Youngs Moduli (GPa) = 77.69952 51.90041 58.21318
#
# Poissons Ratio (x) = 0.09538 0.18051
# Poissons Ratio (y) = 0.14279 0.37360
# Poissons Ratio (z) = 0.24094 0.33308
#
# Static dielectric constant tensor:
#      x y z
#    x 1.797170 -0.030020 0.012130 
#    y -0.030020 1.704090 -0.024780 
#    z 0.012130 -0.024780 1.704980 
# 
# From -- ./inp_files/307624.got.cif
#   From: 2010.05.17/outbox.cif.g08.bks.cpg/sg2_154_cif.got.tgz:307624.got - 2010.06.03 11:33:40.
