data_PCOD9110988
_publ_section_title
;
Structure prediction by ZEFSAII (Michael W. Deem and Ramdas Pophale) SiO2 
 PCOD9110988
Probable space group: P -1
;
_chemical_formula_sum "Si O2"
_cell_formula_units_Z 15
_cell_length_a 7.623211
_cell_length_b 17.557255
_cell_length_c 17.215968
_cell_angle_alpha 31.132942
_cell_angle_beta 142.730574
_cell_angle_gamma 131.445771
_cell_volume 720.068887
_symmetry_space_group_name_H-M "P -1"
_symmetry_group_IT_number 2
_symmetry_cell_setting 'triclinic'
loop_
_space_group_symop_operation_xyz
x,y,z
-x,-y,-z
loop_
_atom_site_type_symbol
_atom_site_label
_atom_site_fract_x
_atom_site_fract_y
_atom_site_fract_z
Si Si1 0.383894 0.560013 0.489719
Si Si2 0.746815 0.250803 0.370088
Si Si3 0.500000 0.000000 0.000000
Si Si4 0.222115 0.865533 0.222399
Si Si5 0.928887 0.716975 0.390676
Si Si6 0.790382 0.015468 0.251960
Si Si7 0.119726 0.279019 0.190598
Si Si8 0.091627 0.411621 0.229530
O O1 0.500000 0.500000 0.500000
O O2 0.228242 0.724471 0.289927
O O3 0.181677 0.430769 0.556231
O O4 0.645438 0.576510 0.627854
O O5 0.413964 0.233242 0.287912
O O6 0.825095 0.346959 0.239204
O O7 0.888431 0.322755 0.433200
O O8 0.927105 0.095196 0.559725
O O9 0.334044 0.165289 0.783452
O O10 0.342182 0.942148 0.915801
O O11 0.537199 0.929570 0.278810
O O12 0.118475 0.804993 0.320371
O O13 0.000000 0.000000 0.000000
O O14 0.885699 0.157680 0.206015
O O15 0.177861 0.310600 0.273913
O O16 0.996674 0.429413 0.975753
#
# Coordination Sequence:
#
# PCOD9110988 Si02
#       8
#     2   2   1   2   2   2   2   2
#     4  12  23  46  73 103 137 189 228 296 363 408
#     4  11  23  46  69 102 137 183 236 287 343 423
#     4  10  20  42  68 102 142 176 230 294 348 412
#     4  12  25  43  67 107 145 178 235 291 352 433
#     4  11  23  41  72 101 143 184 232 294 359 411
#     4  11  23  46  68 101 142 184 227 293 350 417
#     4  11  26  45  72  99 139 191 228 288 352 414
#     4  11  24  47  71 101 142 174 244 293 337 427
#
# _framework density 20.831340999999998
#
# number of rings (size 3 to 8) (size 9 to 14) (size 15 to 20)
#    0.000    0.800    4.000    3.600    0.000    0.533 
#    7.200    0.000    0.000    0.000    0.000    0.000 
#    0.000    0.000    0.000    0.000    0.000    0.000 
#
# Total GULP energy -83604.110505 kJ/mol
# GULP energy per Si atom -5573.607367 kJ/mol
# Density = 2.078393 g / cm^3
# Si number density = 20.831341 Si / 1000 Ang^3
#
#
#
# Elastic Constant Matrix: (Units=GPa)
#
#
# Indices 1 2 3 4 5 6 
#
# 1 96.0489 35.6948 32.1934 -10.8053 -13.0717 3.0601
# 2 35.6948 109.7732 46.7646 -5.8527 -14.3214 3.5294
# 3 32.1934 46.7646 78.3263 -6.6173 4.8235 -7.8383
# 4 -10.8053 -5.8527 -6.6173 22.6340 -4.2538 -6.6228
# 5 -13.0717 -14.3214 4.8235 -4.2538 28.0872 3.2908
# 6 3.0601 3.5294 -7.8383 -6.6228 3.2908 35.2376
#
#
#
# Elastic Compliance Matrix: (Units=1/GPa)
#
#
# Indices 1 2 3 4 5 6 
#
# 1 0.014527 -0.000783 -0.005729 0.006037 0.008508 -0.002117
# 2 -0.000783 0.014815 -0.009416 0.001270 0.009486 -0.004157
# 3 -0.005729 -0.009416 0.022383 0.001400 -0.012014 0.007805
# 4 0.006037 0.001270 0.001400 0.052198 0.010123 0.008525
# 5 0.008508 0.009486 -0.012014 0.010123 0.048818 -0.007018
# 6 -0.002117 -0.004157 0.007805 0.008525 -0.007018 0.032973
#
#
# Mechanical properties :
#
#
# Convention : Reuss Voigt Hill
#
# Bulk Modulus (GPa) = 50.33235 57.05044 53.69140
# Shear Modulus (GPa) = 22.30222 28.49147 25.39684
#
# Velocity S-wave (km/s) = 3.27557 3.70228 3.49544
# Velocity P-wave (km/s) = 6.20645 6.76182 6.49008
#
# Compressibility (1/GPa) = 0.01986794
#
# Stress axis : x y z
#
# Youngs Moduli (GPa) = 68.83658 67.50057 44.67715
#
# Poissons Ratio (x) = 0.05287 0.25596
# Poissons Ratio (y) = 0.05391 0.42068
# Poissons Ratio (z) = 0.39437 0.63559
#
# Static dielectric constant tensor:
#      x y z
#    x 1.809950 0.012290 0.007460 
#    y 0.012290 1.716610 -0.013300 
#    z 0.007460 -0.013300 1.739230 
# 
# From -- ./inp_files/561907.got.cif
#   From: 2010.05.17/outbox.cif.g08.bks.cpg/sg2_281_cif.got.tgz:561907.got - 2010.06.03 11:33:40.
