data_PCOD9110727
_publ_section_title
;
Structure prediction by ZEFSAII (Michael W. Deem and Ramdas Pophale) SiO2 
 PCOD9110727
Probable space group: P -1
;
_chemical_formula_sum "Si O2"
_cell_formula_units_Z 16
_cell_length_a 13.064338
_cell_length_b 13.970197
_cell_length_c 9.661917
_cell_angle_alpha 46.807721
_cell_angle_beta 81.367734
_cell_angle_gamma 45.219952
_cell_volume 699.975660
_symmetry_space_group_name_H-M "P -1"
_symmetry_group_IT_number 2
_symmetry_cell_setting 'triclinic'
loop_
_space_group_symop_operation_xyz
x,y,z
-x,-y,-z
loop_
_atom_site_type_symbol
_atom_site_label
_atom_site_fract_x
_atom_site_fract_y
_atom_site_fract_z
Si Si1 0.671747 0.563123 0.557469
Si Si2 0.150019 0.996372 0.591583
Si Si3 0.024712 0.423371 0.228362
Si Si4 0.373616 0.692919 0.116243
Si Si5 0.406571 0.116813 0.555007
Si Si6 0.074074 0.050879 0.016700
Si Si7 0.777003 0.230787 0.456440
Si Si8 0.378232 0.219265 0.912344
O O1 0.612308 0.473925 0.671320
O O2 0.565997 0.773132 0.477763
O O3 0.659298 0.620553 0.343376
O O4 0.893415 0.332606 0.779183
O O5 0.121656 0.178542 0.439463
O O6 0.941924 0.156789 0.460890
O O7 0.254651 0.840780 0.587011
O O8 0.258914 0.817794 0.874134
O O9 0.825359 0.620847 0.153042
O O10 0.183359 0.338318 0.359102
O O11 0.000000 0.500000 0.000000
O O12 0.585691 0.511063 0.236595
O O13 0.252295 0.907697 0.034159
O O14 0.500000 0.000000 0.500000
O O15 0.497004 0.913403 0.841739
O O16 0.150618 0.923795 0.272758
O O17 0.000000 0.000000 0.000000
O O18 0.500000 0.000000 0.000000
#
# Coordination Sequence:
#
# PCOD9110727 Si02
#       8
#     2   2   2   2   2   2   2   2
#     4  10  23  44  73 100 148 176 228 295 342 422
#     4  11  26  45  66 103 142 172 237 287 336 424
#     4  12  27  46  74 101 141 188 237 293 350 410
#     4  11  23  45  70 104 139 180 228 279 355 415
#     4  11  25  47  72 102 137 191 238 287 351 408
#     4  10  20  42  65  99 137 174 224 276 341 415
#     4  11  24  42  70  98 137 186 219 284 357 403
#     4  10  24  47  68 104 141 179 240 289 339 416
#
# _framework density 22.857938000000001
#
# number of rings (size 3 to 8) (size 9 to 14) (size 15 to 20)
#    0.000    1.250    3.750    1.500    5.250    3.000 
#    4.500    0.000    0.000    0.000    0.000    0.000 
#    0.000    0.000    0.000    0.000    0.000    0.000 
#
# Total GULP energy -89435.962606 kJ/mol
# GULP energy per Si atom -5589.747663 kJ/mol
# Density = 2.280591 g / cm^3
# Si number density = 22.857938 Si / 1000 Ang^3
#
#
#
# Elastic Constant Matrix: (Units=GPa)
#
#
# Indices 1 2 3 4 5 6 
#
# 1 50.3869 15.0608 17.3456 1.3031 -5.2140 1.2096
# 2 15.0608 110.2730 -13.9315 0.9007 -29.2474 -5.0268
# 3 17.3456 -13.9315 6.0107 -7.6761 -59.4327 -26.4276
# 4 1.3031 0.9007 -7.6761 44.7539 -11.3524 1.2354
# 5 -5.2140 -29.2474 -59.4327 -11.3524 -2.2853 -16.8651
# 6 1.2096 -5.0268 -26.4276 1.2354 -16.8651 27.7645
#
#
#
# Elastic Compliance Matrix: (Units=1/GPa)
#
#
# Indices 1 2 3 4 5 6 
#
# 1 0.021478 -0.001522 -0.001709 0.000617 0.006021 0.000791
# 2 -0.001522 0.008371 -0.003090 -0.000992 -0.001579 -0.002275
# 3 -0.001709 -0.003090 0.004056 -0.002537 -0.013710 -0.004840
# 4 0.000617 -0.000992 -0.002537 0.021812 -0.000838 -0.004100
# 5 0.006021 -0.001579 -0.013710 -0.000838 0.005416 -0.010271
# 6 0.000791 -0.002275 -0.004840 -0.004100 -0.010271 0.024908
#
#
# Mechanical properties :
#
#
# Convention : Reuss Voigt Hill
#
# Bulk Modulus (GPa) = 47.03191 22.62449 34.82820
# Shear Modulus (GPa) = 47.27208 23.92635 35.59922
#
# Velocity S-wave (km/s) = 4.55255 3.23885 3.95069
# Velocity P-wave (km/s) = 6.94656 4.88940 6.00670
#
# Compressibility (1/GPa) = 0.02126216
#
# Stress axis : x y z
#
# Youngs Moduli (GPa) = 46.55989 119.45552 246.55764
#
# Poissons Ratio (x) = 0.18175 0.42148
# Poissons Ratio (y) = 0.07084 0.76196
# Poissons Ratio (z) = 0.07959 0.36916
#
# Static dielectric constant tensor:
#      x y z
#    x 1.961500 0.031650 -0.029200 
#    y 0.031650 1.934870 -0.019730 
#    z -0.029200 -0.019730 1.792210 
# 
# From -- ./inp_files/314651.got.cif
#   From: 2010.05.17/outbox.cif.g08.bks.cpg/sg2_158_cif.got.tgz:314651.got - 2010.06.03 11:33:40.
