data_PCOD9110606
_publ_section_title
;
Structure prediction by ZEFSAII (Michael W. Deem and Ramdas Pophale) SiO2 
 PCOD9110606
Probable space group: P -1
;
_chemical_formula_sum "Si O2"
_cell_formula_units_Z 16
_cell_length_a 11.897405
_cell_length_b 17.221914
_cell_length_c 8.677173
_cell_angle_alpha 139.616654
_cell_angle_beta 80.767056
_cell_angle_gamma 66.682868
_cell_volume 666.665916
_symmetry_space_group_name_H-M "P -1"
_symmetry_group_IT_number 2
_symmetry_cell_setting 'triclinic'
loop_
_space_group_symop_operation_xyz
x,y,z
-x,-y,-z
loop_
_atom_site_type_symbol
_atom_site_label
_atom_site_fract_x
_atom_site_fract_y
_atom_site_fract_z
Si Si1 0.444688 0.876504 0.932864
Si Si2 0.384845 0.481716 0.453183
Si Si3 0.987664 0.236104 0.839200
Si Si4 0.459937 0.072811 0.442643
Si Si5 0.101705 0.282519 0.171184
Si Si6 0.152963 0.699812 0.578814
Si Si7 0.802540 0.590596 0.196457
Si Si8 0.090146 0.020306 0.207631
O O1 0.533644 0.708877 0.783400
O O2 0.616923 0.773227 0.627295
O O3 0.368564 0.048553 0.315850
O O4 0.272230 0.946732 0.998893
O O5 0.500000 0.500000 0.500000
O O6 0.362317 0.493402 0.291965
O O7 0.180348 0.667844 0.867848
O O8 0.086183 0.048412 0.433484
O O9 0.888935 0.402433 0.981933
O O10 0.110986 0.212472 0.894116
O O11 0.311556 0.307676 0.789896
O O12 0.500000 0.000000 0.500000
O O13 0.684109 0.894995 0.072587
O O14 0.000000 0.500000 0.500000
O O15 0.977028 0.299097 0.329008
O O16 0.101554 0.768984 0.519467
O O17 0.109482 0.866354 0.920901
O O18 0.000000 0.500000 0.000000
#
# Coordination Sequence:
#
# PCOD9110606 Si02
#       8
#     2   2   2   2   2   2   2   2
#     4  11  23  41  69  93 131 173 223 278 333 403
#     4  10  20  42  64  93 125 172 217 269 337 399
#     4  10  24  41  67  98 131 177 225 279 335 402
#     4  12  25  40  63 100 135 175 224 275 332 402
#     4  11  23  44  67  97 136 178 228 276 343 403
#     4  10  23  40  69  92 134 174 218 277 340 402
#     4  11  23  41  63  94 133 176 221 268 333 399
#     4  11  22  43  66 100 130 173 229 276 346 398
#
# _framework density 24.000026999999999
#
# number of rings (size 3 to 8) (size 9 to 14) (size 15 to 20)
#    0.000    1.250    1.250    5.625    0.000    7.000 
#    2.250    0.625    0.000    0.000    0.000    0.000 
#    0.000    0.000    0.000    0.000    0.000    0.000 
#
# Total GULP energy -89241.135372 kJ/mol
# GULP energy per Si atom -5577.570961 kJ/mol
# Density = 2.394540 g / cm^3
# Si number density = 24.000027 Si / 1000 Ang^3
#
#
#
# Elastic Constant Matrix: (Units=GPa)
#
#
# Indices 1 2 3 4 5 6 
#
# 1 127.1056 27.7239 32.3479 1.5518 -5.3347 -0.4752
# 2 27.7239 136.7306 -0.0967 25.5614 6.2126 -10.7973
# 3 32.3479 -0.0967 54.3102 -8.3225 -2.0939 -6.3992
# 4 1.5518 25.5614 -8.3225 29.4366 -11.5795 -7.3344
# 5 -5.3347 6.2126 -2.0939 -11.5795 39.9981 1.5733
# 6 -0.4752 -10.7973 -6.3992 -7.3344 1.5733 41.5899
#
#
#
# Elastic Compliance Matrix: (Units=1/GPa)
#
#
# Indices 1 2 3 4 5 6 
#
# 1 0.009938 -0.002157 -0.006076 -0.000207 0.001340 -0.001469
# 2 -0.002157 0.009979 -0.000372 -0.010366 -0.004892 0.000866
# 3 -0.006076 -0.000372 0.024320 0.010097 0.003238 0.005234
# 4 -0.000207 -0.010366 0.010097 0.054735 0.017648 0.007845
# 5 0.001340 -0.004892 0.003238 0.017648 0.031172 0.001176
# 6 -0.001469 0.000866 0.005234 0.007845 0.001176 0.026397
#
#
# Mechanical properties :
#
#
# Convention : Reuss Voigt Hill
#
# Bulk Modulus (GPa) = 37.00208 48.67741 42.83975
# Shear Modulus (GPa) = 27.35818 39.41635 33.38726
#
# Velocity S-wave (km/s) = 3.37994 4.05698 3.73384
# Velocity P-wave (km/s) = 5.53922 6.50167 6.03965
#
# Compressibility (1/GPa) = 0.02702551
#
# Stress axis : x y z
#
# Youngs Moduli (GPa) = 100.62755 100.20674 41.11875
#
# Poissons Ratio (x) = 0.21619 0.24983
# Poissons Ratio (y) = 0.21710 0.01531
# Poissons Ratio (z) = 0.61140 0.03730
#
# Static dielectric constant tensor:
#      x y z
#    x 1.908230 -0.026150 -0.095610 
#    y -0.026150 1.957150 -0.049510 
#    z -0.095610 -0.049510 1.773750 
# 
# From -- ./inp_files/278504.got.cif
#   From: 2010.05.17/outbox.cif.g08.bks.cpg/sg2_140_cif.got.tgz:278504.got - 2010.06.03 11:33:40.
