data_PCOD9110095
_publ_section_title
;
Structure prediction by ZEFSAII (Michael W. Deem and Ramdas Pophale) SiO2 
 PCOD9110095
Probable space group: P -1
;
_chemical_formula_sum "Si O2"
_cell_formula_units_Z 15
_cell_length_a 9.181212
_cell_length_b 13.868072
_cell_length_c 5.650691
_cell_angle_alpha 124.091449
_cell_angle_beta 108.115166
_cell_angle_gamma 67.374239
_cell_volume 545.684655
_symmetry_space_group_name_H-M "P -1"
_symmetry_group_IT_number 2
_symmetry_cell_setting 'triclinic'
loop_
_space_group_symop_operation_xyz
x,y,z
-x,-y,-z
loop_
_atom_site_type_symbol
_atom_site_label
_atom_site_fract_x
_atom_site_fract_y
_atom_site_fract_z
Si Si1 0.161504 0.235893 0.486330
Si Si2 0.157931 0.766353 0.508612
Si Si3 0.284941 0.104673 0.876075
Si Si4 0.000000 0.000000 0.000000
Si Si5 0.154751 0.509040 0.827241
Si Si6 0.213275 0.482237 0.324515
Si Si7 0.490824 0.750454 0.886870
Si Si8 0.270793 0.861794 0.302243
O O1 0.219775 0.176318 0.691402
O O2 0.206615 0.361286 0.646599
O O3 0.971633 0.281457 0.481809
O O4 0.195427 0.150710 0.148089
O O5 0.061156 0.908926 0.685495
O O6 0.181315 0.769883 0.244860
O O7 0.334331 0.735386 0.659317
O O8 0.451168 0.137776 0.031751
O O9 0.297891 0.967485 0.629041
O O10 0.160741 0.928511 0.128197
O O11 0.222765 0.542498 0.664380
O O12 0.960193 0.549183 0.794533
O O13 0.216923 0.543801 0.155609
O O14 0.362259 0.365428 0.228975
O O15 0.437954 0.785382 0.176856
#
# Coordination Sequence:
#
# PCOD9110095 Si02
#       8
#     2   2   2   1   2   2   2   2
#     4  12  24  42  68  97 127 172 221 269 311 394
#     4  11  25  38  65  89 135 174 215 261 328 374
#     4  12  26  42  68  92 132 171 227 266 314 377
#     4  10  20  42  58  90 118 182 224 258 302 382
#     4  10  20  41  69  96 123 163 219 264 322 385
#     4  10  21  40  69  96 125 164 210 273 325 381
#     4  11  25  42  61 100 130 170 209 280 324 380
#     4  11  25  40  65  92 135 177 218 264 321 385
#
# _framework density 27.488403999999999
#
# number of rings (size 3 to 8) (size 9 to 14) (size 15 to 20)
#    0.000    1.067    4.000    1.600    9.333    0.533 
#    0.000    0.667    0.000    0.800    0.000    0.000 
#    0.000    0.000    0.000    0.000    0.000    0.000 
#
# Total GULP energy -83673.606905 kJ/mol
# GULP energy per Si atom -5578.240460 kJ/mol
# Density = 2.742584 g / cm^3
# Si number density = 27.488404 Si / 1000 Ang^3
#
#
#
# Elastic Constant Matrix: (Units=GPa)
#
#
# Indices 1 2 3 4 5 6 
#
# 1 102.4800 50.2879 69.7514 -11.6694 -16.6452 -0.7256
# 2 50.2879 75.4470 45.7188 -22.3567 -23.8924 -7.2953
# 3 69.7514 45.7188 214.1299 -2.6179 -37.3304 -6.3567
# 4 -11.6694 -22.3567 -2.6179 43.6320 -3.4780 -2.8834
# 5 -16.6452 -23.8924 -37.3304 -3.4780 58.1509 -3.6296
# 6 -0.7256 -7.2953 -6.3567 -2.8834 -3.6296 43.6153
#
#
#
# Elastic Compliance Matrix: (Units=1/GPa)
#
#
# Indices 1 2 3 4 5 6 
#
# 1 0.016794 -0.010130 -0.003730 -0.001225 -0.001960 -0.002203
# 2 -0.010130 0.027578 -0.000669 0.012500 0.009119 0.005932
# 3 -0.003730 -0.000669 0.006552 -0.000653 0.002885 0.000978
# 4 -0.001225 0.012500 -0.000653 0.029765 0.006426 0.004478
# 5 -0.001960 0.009119 0.002885 0.006426 0.022884 0.004242
# 6 -0.002203 0.005932 0.000978 0.004478 0.004242 0.024675
#
#
# Mechanical properties :
#
#
# Convention : Reuss Voigt Hill
#
# Bulk Modulus (GPa) = 45.73580 80.39701 63.06641
# Shear Modulus (GPa) = 30.37748 44.16622 37.27185
#
# Velocity S-wave (km/s) = 3.32791 4.01274 3.68627
# Velocity P-wave (km/s) = 5.60723 7.12605 6.41177
#
# Compressibility (1/GPa) = 0.02186471
#
# Stress axis : x y z
#
# Youngs Moduli (GPa) = 59.54412 36.26110 152.62453
#
# Poissons Ratio (x) = 0.36734 0.56925
# Poissons Ratio (y) = 0.60321 0.10218
# Poissons Ratio (z) = 0.22209 0.02428
#
# Static dielectric constant tensor:
#      x y z
#    x 2.209590 0.176050 0.223340 
#    y 0.176050 2.312560 0.182170 
#    z 0.223340 0.182170 2.017020 
# 
# From -- ./inp_files/49082.got.cif
#   From: 2010.05.17/outbox.cif.g08.bks.cpg/sg2_25_cif.got.tgz:49082.got - 2010.06.03 11:33:40.
