data_PCOD9110339
_publ_section_title
;
Structure prediction by ZEFSAII (Michael W. Deem and Ramdas Pophale) SiO2 
 PCOD9110339
Probable space group: P -1
;
_chemical_formula_sum "Si O2"
_cell_formula_units_Z 14
_cell_length_a 7.359038
_cell_length_b 10.852434
_cell_length_c 10.079343
_cell_angle_alpha 58.351754
_cell_angle_beta 115.657608
_cell_angle_gamma 121.315278
_cell_volume 571.037775
_symmetry_space_group_name_H-M "P -1"
_symmetry_group_IT_number 2
_symmetry_cell_setting 'triclinic'
loop_
_space_group_symop_operation_xyz
x,y,z
-x,-y,-z
loop_
_atom_site_type_symbol
_atom_site_label
_atom_site_fract_x
_atom_site_fract_y
_atom_site_fract_z
Si Si1 0.001132 0.622225 0.211269
Si Si2 0.502690 0.917765 0.907742
Si Si3 0.454145 0.655205 0.405923
Si Si4 0.143990 0.015391 0.667836
Si Si5 0.367012 0.314885 0.051595
Si Si6 0.328225 0.713046 0.626627
Si Si7 0.137431 0.886273 0.301161
O O1 0.861835 0.437297 0.285552
O O2 0.994428 0.714773 0.293271
O O3 0.251093 0.647583 0.254006
O O4 0.879465 0.696482 0.029883
O O5 0.558447 0.762628 0.006631
O O6 0.269112 0.896551 0.782242
O O7 0.693457 0.033991 0.807759
O O8 0.500000 0.000000 0.000000
O O9 0.500000 0.500000 0.500000
O O10 0.663818 0.812475 0.365053
O O11 0.377559 0.660630 0.528690
O O12 0.002680 0.016506 0.752039
O O13 0.000000 0.000000 0.500000
O O14 0.455098 0.244263 0.241804
O O15 0.500000 0.500000 0.000000
O O16 0.254594 0.853809 0.486645
#
# Coordination Sequence:
#
# PCOD9110339 Si02
#       7
#     2   2   2   2   2   2   2
#     4  10  20  42  70 103 141 195 240 293 371 436
#     4  12  27  48  75 106 143 197 255 302 368 447
#     4  11  22  41  67 107 145 191 250 294 353 454
#     4  12  26  43  69 112 145 187 249 307 366 440
#     4  10  24  44  72 105 149 191 236 308 381 434
#     4  10  20  41  74 104 142 189 237 306 372 430
#     4  11  23  45  73 101 147 190 247 305 364 433
#
# _framework density 24.516764999999999
#
# number of rings (size 3 to 8) (size 9 to 14) (size 15 to 20)
#    0.000    1.143    2.857    5.143    2.000    5.714 
#    0.000    0.714    0.000    0.000    0.000    0.000 
#    0.000    0.000    0.000    0.000    0.000    0.000 
#
# Total GULP energy -78321.412989 kJ/mol
# GULP energy per Si atom -5594.386642 kJ/mol
# Density = 2.446096 g / cm^3
# Si number density = 24.516765 Si / 1000 Ang^3
#
#
#
# Elastic Constant Matrix: (Units=GPa)
#
#
# Indices 1 2 3 4 5 6 
#
# 1 135.9165 51.5280 48.5705 -10.4753 25.3210 4.2414
# 2 51.5280 109.5005 47.7303 -10.9124 16.2535 5.0247
# 3 48.5705 47.7303 130.0039 5.7217 37.6368 16.7817
# 4 -10.4753 -10.9124 5.7217 46.2787 1.5137 11.8375
# 5 25.3210 16.2535 37.6368 1.5137 51.5085 -0.8872
# 6 4.2414 5.0247 16.7817 11.8375 -0.8872 43.9599
#
#
#
# Elastic Compliance Matrix: (Units=1/GPa)
#
#
# Indices 1 2 3 4 5 6 
#
# 1 0.009874 -0.003288 -0.001752 0.001881 -0.002600 -0.000467
# 2 -0.003288 0.012457 -0.003425 0.002751 0.000098 -0.000538
# 3 -0.001752 -0.003425 0.012186 -0.001503 -0.006984 -0.003828
# 4 0.001881 0.002751 -0.001503 0.024601 -0.001530 -0.006577
# 5 -0.002600 0.000098 -0.006984 -0.001530 0.025876 0.003840
# 6 -0.000467 -0.000538 -0.003828 -0.006577 0.003840 0.026165
#
#
# Mechanical properties :
#
#
# Convention : Reuss Voigt Hill
#
# Bulk Modulus (GPa) = 56.85889 74.56425 65.71157
# Shear Modulus (GPa) = 37.32732 43.52222 40.42477
#
# Velocity S-wave (km/s) = 3.90618 4.21789 4.06502
# Velocity P-wave (km/s) = 6.60201 7.36209 6.99239
#
# Compressibility (1/GPa) = 0.01758740
#
# Stress axis : x y z
#
# Youngs Moduli (GPa) = 101.27797 80.27689 82.05973
#
# Poissons Ratio (x) = 0.26396 0.14373
# Poissons Ratio (y) = 0.33301 0.28106
# Poissons Ratio (z) = 0.17739 0.27496
#
# Static dielectric constant tensor:
#      x y z
#    x 1.966930 0.011860 0.037580 
#    y 0.011860 1.993200 0.002210 
#    z 0.037580 0.002210 2.060510 
# 
# From -- ./inp_files/392232.got.cif
#   From: 2010.05.17/outbox.cif.g08.bks.cpg/sg2_197_cif.got.tgz:392232.got - 2010.06.03 11:33:40.
