data_PCOD9110189
_publ_section_title
;
Structure prediction by ZEFSAII (Michael W. Deem and Ramdas Pophale) SiO2 
 PCOD9110189
Probable space group: P -1
;
_chemical_formula_sum "Si O2"
_cell_formula_units_Z 16
_cell_length_a 10.212123
_cell_length_b 8.510603
_cell_length_c 12.718717
_cell_angle_alpha 143.296522
_cell_angle_beta 94.072571
_cell_angle_gamma 97.257788
_cell_volume 627.087761
_symmetry_space_group_name_H-M "P -1"
_symmetry_group_IT_number 2
_symmetry_cell_setting 'triclinic'
loop_
_space_group_symop_operation_xyz
x,y,z
-x,-y,-z
loop_
_atom_site_type_symbol
_atom_site_label
_atom_site_fract_x
_atom_site_fract_y
_atom_site_fract_z
Si Si1 0.503620 0.824177 0.796321
Si Si2 0.030072 0.631385 0.185164
Si Si3 0.245988 0.760492 0.942464
Si Si4 0.973101 0.248303 0.214095
Si Si5 0.360287 0.944633 0.641862
Si Si6 0.536569 0.548559 0.233647
Si Si7 0.056200 0.889557 0.631298
Si Si8 0.242436 0.447969 0.215462
O O1 0.443767 0.512893 0.672074
O O2 0.434057 0.903164 0.732041
O O3 0.500000 0.000000 0.000000
O O4 0.668619 0.940505 0.846549
O O5 0.176299 0.625138 0.230257
O O6 0.903666 0.422486 0.127628
O O7 0.018282 0.935823 0.347099
O O8 0.000000 0.500000 0.000000
O O9 0.348044 0.579748 0.873616
O O10 0.191355 0.812147 0.851864
O O11 0.017974 0.576036 0.422413
O O12 0.100596 0.230552 0.135764
O O13 0.983831 0.098460 0.243399
O O14 0.440135 0.169703 0.679547
O O15 0.220293 0.014655 0.697829
O O16 0.312599 0.651579 0.423047
O O17 0.371497 0.396512 0.135397
#
# Coordination Sequence:
#
# PCOD9110189 Si02
#       8
#     2   2   2   2   2   2   2   2
#     4  10  24  41  64 100 134 174 225 271 332 402
#     4  11  25  41  65  96 134 172 222 278 335 398
#     4  10  22  42  63  93 128 172 221 272 329 403
#     4   9  21  41  69  94 129 168 225 280 330 398
#     4  11  23  43  69 100 134 175 229 278 328 403
#     4  11  23  43  68  95 137 181 217 277 338 395
#     4  10  20  41  70  97 124 176 224 274 337 394
#     4  10  25  43  62 102 133 173 225 274 340 399
#
# _framework density 25.514771
#
# number of rings (size 3 to 8) (size 9 to 14) (size 15 to 20)
#    0.000    1.750    1.250    1.875    3.500    8.000 
#    0.000    2.500    0.000    0.000    0.000    0.000 
#    0.000    0.000    0.000    0.000    0.000    0.000 
#
# Total GULP energy -89179.429202 kJ/mol
# GULP energy per Si atom -5573.714325 kJ/mol
# Density = 2.545670 g / cm^3
# Si number density = 25.514771 Si / 1000 Ang^3
#
#
#
# Elastic Constant Matrix: (Units=GPa)
#
#
# Indices 1 2 3 4 5 6 
#
# 1 175.2095 59.6106 37.3905 -0.3198 14.8539 -22.4748
# 2 59.6106 152.3885 37.8347 10.1081 24.2108 -15.3461
# 3 37.3905 37.8347 48.5400 -11.3496 21.4045 -7.9943
# 4 -0.3198 10.1081 -11.3496 46.5556 0.3044 12.7665
# 5 14.8539 24.2108 21.4045 0.3044 37.6429 2.8474
# 6 -22.4748 -15.3461 -7.9943 12.7665 2.8474 47.0480
#
#
#
# Elastic Compliance Matrix: (Units=1/GPa)
#
#
# Indices 1 2 3 4 5 6 
#
# 1 0.007529 -0.001460 -0.004803 -0.001544 0.000508 0.002692
# 2 -0.001460 0.009497 -0.005736 -0.004198 -0.002442 0.002713
# 3 -0.004803 -0.005736 0.038607 0.010590 -0.016493 0.000519
# 4 -0.001544 -0.004198 0.010590 0.027034 -0.002363 -0.007500
# 5 0.000508 -0.002442 -0.016493 -0.002363 0.037711 -0.004997
# 6 0.002692 0.002713 0.000519 -0.007500 -0.004997 0.025852
#
#
# Mechanical properties :
#
#
# Convention : Reuss Voigt Hill
#
# Bulk Modulus (GPa) = 31.61112 71.75661 51.68386
# Shear Modulus (GPa) = 27.65914 42.33612 34.99763
#
# Velocity S-wave (km/s) = 3.29605 4.07784 3.70761
# Velocity P-wave (km/s) = 5.18667 7.09622 6.21522
#
# Compressibility (1/GPa) = 0.03163444
#
# Stress axis : x y z
#
# Youngs Moduli (GPa) = 132.82797 105.29745 25.90206
#
# Poissons Ratio (x) = 0.15370 0.12441
# Poissons Ratio (y) = 0.19388 0.14858
# Poissons Ratio (z) = 0.63799 0.60401
#
# Static dielectric constant tensor:
#      x y z
#    x 2.072640 0.087270 -0.074880 
#    y 0.087270 2.048760 0.099730 
#    z -0.074880 0.099730 2.086740 
# 
# From -- ./inp_files/495897.got.cif
#   From: 2010.05.17/outbox.cif.g08.bks.cpg/sg2_248_cif.got.tgz:495897.got - 2010.06.03 11:33:40.
