data_PCOD9110957
_publ_section_title
;
Structure prediction by ZEFSAII (Michael W. Deem and Ramdas Pophale) SiO2 
 PCOD9110957
Probable space group: P -1
;
_chemical_formula_sum "Si O2"
_cell_formula_units_Z 16
_cell_length_a 27.349442
_cell_length_b 7.747140
_cell_length_c 11.643170
_cell_angle_alpha 139.990075
_cell_angle_beta 29.498508
_cell_angle_gamma 149.496534
_cell_volume 615.317022
_symmetry_space_group_name_H-M "P -1"
_symmetry_group_IT_number 2
_symmetry_cell_setting 'triclinic'
loop_
_space_group_symop_operation_xyz
x,y,z
-x,-y,-z
loop_
_atom_site_type_symbol
_atom_site_label
_atom_site_fract_x
_atom_site_fract_y
_atom_site_fract_z
Si Si1 0.048273 0.330344 0.143962
Si Si2 0.808415 0.208053 0.538458
Si Si3 0.117077 0.294820 0.570398
Si Si4 0.183629 0.751214 0.872754
Si Si5 0.842834 0.700831 0.869318
Si Si6 0.600008 0.347758 0.826275
Si Si7 0.536774 0.999039 0.555135
Si Si8 0.431983 0.309601 0.344624
O O1 0.139338 0.375875 0.078961
O O2 0.916803 0.243571 0.407322
O O3 0.119169 0.648736 0.075703
O O4 0.000000 0.000000 0.000000
O O5 0.865413 0.451284 0.434277
O O6 0.754485 0.357719 0.802668
O O7 0.696975 0.836170 0.533326
O O8 0.104184 0.433601 0.787045
O O9 0.248807 0.352297 0.336443
O O10 0.984991 0.925096 0.638617
O O11 0.317515 0.837826 0.656169
O O12 0.197207 0.062390 0.945944
O O13 0.529272 0.212554 0.778513
O O14 0.589380 0.016878 0.720458
O O15 0.538350 0.431454 0.092304
O O16 0.461337 0.594096 0.518577
O O17 0.500000 0.000000 0.500000
#
# Coordination Sequence:
#
# PCOD9110957 Si02
#       8
#     2   2   2   2   2   2   2   2
#     4  12  25  43  70 100 139 180 221 280 345 411
#     4  11  25  41  66 105 137 178 229 282 342 411
#     4  10  20  42  67  97 136 177 221 282 341 404
#     4  11  25  45  68 103 134 179 233 279 343 412
#     4  12  24  42  71  99 140 178 225 280 348 410
#     4   9  22  42  70 101 128 182 231 282 340 406
#     4  11  26  44  68 101 137 181 229 285 345 409
#     4  10  23  45  70  96 138 178 235 283 339 404
#
# _framework density 26.002856999999999
#
# number of rings (size 3 to 8) (size 9 to 14) (size 15 to 20)
#    0.000    1.250    2.500    2.250    7.000    1.500 
#    0.000    0.000    0.000    0.000    0.000    0.000 
#    0.000    0.000    0.000    0.000    0.000    0.000 
#
# Total GULP energy -89641.562883 kJ/mol
# GULP energy per Si atom -5602.597680 kJ/mol
# Density = 2.594367 g / cm^3
# Si number density = 26.002857 Si / 1000 Ang^3
#
#
#
# Elastic Constant Matrix: (Units=GPa)
#
#
# Indices 1 2 3 4 5 6 
#
# 1 140.1746 -0.1917 13.7546 -2.5942 2.0161 -3.1527
# 2 -0.1917 61.4525 8.1155 8.6624 -0.1654 20.0952
# 3 13.7546 8.1155 61.8879 -2.4217 5.6326 1.3656
# 4 -2.5942 8.6624 -2.4217 37.1089 -0.5445 0.2077
# 5 2.0161 -0.1654 5.6326 -0.5445 28.7444 1.2970
# 6 -3.1527 20.0952 1.3656 0.2077 1.2970 26.0234
#
#
#
# Elastic Compliance Matrix: (Units=1/GPa)
#
#
# Indices 1 2 3 4 5 6 
#
# 1 0.007327 -0.000203 -0.001587 0.000446 -0.000247 0.001136
# 2 -0.000203 0.023294 -0.002961 -0.005524 0.001431 -0.017884
# 3 -0.001587 -0.002961 0.017236 0.001649 -0.003312 0.001342
# 4 0.000446 -0.005524 0.001649 0.028353 -0.000030 0.004008
# 5 -0.000247 0.001431 -0.003312 -0.000030 0.035587 -0.002734
# 6 0.001136 -0.017884 0.001342 0.004008 -0.002734 0.052408
#
#
# Mechanical properties :
#
#
# Convention : Reuss Voigt Hill
#
# Bulk Modulus (GPa) = 26.07260 34.09687 30.08473
# Shear Modulus (GPa) = 26.81099 34.49776 30.65437
#
# Velocity S-wave (km/s) = 3.21452 3.64633 3.43721
# Velocity P-wave (km/s) = 4.88120 5.55597 5.22948
#
# Compressibility (1/GPa) = 0.03835445
#
# Stress axis : x y z
#
# Youngs Moduli (GPa) = 136.48598 42.93012 58.01923
#
# Poissons Ratio (x) = 0.00870 0.09207
# Poissons Ratio (y) = 0.02765 0.17181
# Poissons Ratio (z) = 0.21660 0.12713
#
# Static dielectric constant tensor:
#      x y z
#    x 2.086350 -0.052860 -0.000040 
#    y -0.052860 2.047790 0.013830 
#    z -0.000040 0.013830 2.086500 
# 
# From -- ./inp_files/476403.got.cif
#   From: 2010.05.17/outbox.cif.g08.bks.cpg/sg2_239_cif.got.tgz:476403.got - 2010.06.03 11:33:40.
