data_PCOD9110086
_publ_section_title
;
Structure prediction by ZEFSAII (Michael W. Deem and Ramdas Pophale) SiO2 
 PCOD9110086
Probable space group: P -1
;
_chemical_formula_sum "Si O2"
_cell_formula_units_Z 12
_cell_length_a 9.060630
_cell_length_b 19.555988
_cell_length_c 19.538583
_cell_angle_alpha 160.002164
_cell_angle_beta 149.489610
_cell_angle_gamma 28.517290
_cell_volume 551.462905
_symmetry_space_group_name_H-M "P -1"
_symmetry_group_IT_number 2
_symmetry_cell_setting 'triclinic'
loop_
_space_group_symop_operation_xyz
x,y,z
-x,-y,-z
loop_
_atom_site_type_symbol
_atom_site_label
_atom_site_fract_x
_atom_site_fract_y
_atom_site_fract_z
Si Si1 0.056529 0.219949 0.719698
Si Si2 0.862355 0.608457 0.619293
Si Si3 0.297690 0.770028 0.036708
Si Si4 0.659871 0.314728 0.777867
Si Si5 0.145888 0.846970 0.565760
Si Si6 0.038917 0.221443 0.424559
O O1 0.419521 0.178554 0.835223
O O2 0.823156 0.362191 0.819045
O O3 0.964182 0.268407 0.648887
O O4 0.000000 0.000000 0.500000
O O5 0.511909 0.793257 0.647413
O O6 0.000000 0.500000 0.500000
O O7 0.845809 0.417594 0.481658
O O8 0.098223 0.698623 0.835154
O O9 0.076605 0.987810 0.191614
O O10 0.466268 0.561294 0.958262
O O11 0.389080 0.224940 0.570189
O O12 0.934029 0.108324 0.728251
O O13 0.096717 0.752623 0.529327
#
# Coordination Sequence:
#
# PCOD9110086 Si02
#       6
#     2   2   2   2   2   2
#     4  10  20  41  69  95 130 171 219 271 317 382
#     4  11  27  47  66  95 133 175 223 273 324 388
#     4  11  23  42  69  96 134 173 216 269 332 385
#     4  10  22  40  68  99 132 167 222 269 314 389
#     4  11  22  43  69  96 135 174 214 273 325 381
#     4  11  23  44  66  96 138 173 214 269 328 394
#
# _framework density 21.760301999999999
#
# number of rings (size 3 to 8) (size 9 to 14) (size 15 to 20)
#    0.000    1.333    3.333    3.500    2.333    2.000 
#    6.000    0.000    0.000    0.000    0.000    0.000 
#    0.000    0.000    0.000    0.000    0.000    0.000 
#
# Total GULP energy -66984.802570 kJ/mol
# GULP energy per Si atom -5582.066881 kJ/mol
# Density = 2.171077 g / cm^3
# Si number density = 21.760302 Si / 1000 Ang^3
#
#
#
# Elastic Constant Matrix: (Units=GPa)
#
#
# Indices 1 2 3 4 5 6 
#
# 1 107.1506 1.4818 21.6378 -16.4376 -12.6718 14.7996
# 2 1.4818 111.3161 34.7081 -4.2120 -0.8946 -3.9234
# 3 21.6378 34.7081 75.7284 -2.8789 2.1058 3.0229
# 4 -16.4376 -4.2120 -2.8789 37.7825 -1.6330 9.9361
# 5 -12.6718 -0.8946 2.1058 -1.6330 13.8398 -0.3556
# 6 14.7996 -3.9234 3.0229 9.9361 -0.3556 32.0705
#
#
#
# Elastic Compliance Matrix: (Units=1/GPa)
#
#
# Indices 1 2 3 4 5 6 
#
# 1 0.014624 0.001372 -0.004525 0.009138 0.015018 -0.008819
# 2 0.001372 0.010745 -0.005382 0.001296 0.002944 0.000820
# 3 -0.004525 -0.005382 0.017095 -0.001646 -0.007280 0.000248
# 4 0.009138 0.001296 -0.001646 0.034828 0.012437 -0.014556
# 5 0.015018 0.002944 -0.007280 0.012437 0.088546 -0.008755
# 6 -0.008819 0.000820 0.000248 -0.014556 -0.008755 0.039740
#
#
# Mechanical properties :
#
#
# Convention : Reuss Voigt Hill
#
# Bulk Modulus (GPa) = 39.38165 45.53894 42.46029
# Shear Modulus (GPa) = 21.63453 32.49640 27.06547
#
# Velocity S-wave (km/s) = 3.15655 3.86862 3.53058
# Velocity P-wave (km/s) = 5.60556 6.39749 6.01457
#
# Compressibility (1/GPa) = 0.02539254
#
# Stress axis : x y z
#
# Youngs Moduli (GPa) = 68.38288 93.06806 58.49760
#
# Poissons Ratio (x) = -0.12769 0.26472
# Poissons Ratio (y) = -0.09382 0.31483
# Poissons Ratio (z) = 0.30946 0.50088
#
# Static dielectric constant tensor:
#      x y z
#    x 1.847770 0.013580 -0.046610 
#    y 0.013580 1.827780 0.036690 
#    z -0.046610 0.036690 1.836720 
# 
# From -- ./inp_files/230236.got.cif
#   From: 2010.05.17/outbox.cif.g08.bks.cpg/sg2_116_cif.got.tgz:230236.got - 2010.06.03 11:33:40.
