data_PCOD9110299
_publ_section_title
;
Structure prediction by ZEFSAII (Michael W. Deem and Ramdas Pophale) SiO2 
 PCOD9110299
Probable space group: P -1
;
_chemical_formula_sum "Si O2"
_cell_formula_units_Z 16
_cell_length_a 16.933747
_cell_length_b 9.130034
_cell_length_c 11.395109
_cell_angle_alpha 102.389577
_cell_angle_beta 138.833788
_cell_angle_gamma 48.261833
_cell_volume 702.748604
_symmetry_space_group_name_H-M "P -1"
_symmetry_group_IT_number 2
_symmetry_cell_setting 'triclinic'
loop_
_space_group_symop_operation_xyz
x,y,z
-x,-y,-z
loop_
_atom_site_type_symbol
_atom_site_label
_atom_site_fract_x
_atom_site_fract_y
_atom_site_fract_z
Si Si1 0.310660 0.573888 0.487953
Si Si2 0.058441 0.611034 0.063811
Si Si3 0.170327 0.943510 0.229919
Si Si4 0.382345 0.861975 0.068462
Si Si5 0.716937 0.694458 0.966669
Si Si6 0.564014 0.105662 0.122374
Si Si7 0.040502 0.245383 0.367661
Si Si8 0.961935 0.024421 0.326446
O O1 0.190081 0.551119 0.301494
O O2 0.325979 0.674820 0.412200
O O3 0.488811 0.343125 0.723403
O O4 0.165295 0.798015 0.452292
O O5 0.200634 0.468445 0.084310
O O6 0.000000 0.500000 0.000000
O O7 0.858019 0.902954 0.876015
O O8 0.128145 0.092666 0.319438
O O9 0.000000 0.000000 0.000000
O O10 0.464187 0.774079 0.009531
O O11 0.355428 0.066160 0.097590
O O12 0.183450 0.965654 0.862019
O O13 0.905955 0.517129 0.232241
O O14 0.557046 0.754510 0.868544
O O15 0.788397 0.894359 0.374071
O O16 0.500000 0.000000 0.000000
O O17 0.899402 0.250376 0.253281
O O18 0.000000 0.000000 0.500000
#
# Coordination Sequence:
#
# PCOD9110299 Si02
#       8
#     2   2   2   2   2   2   2   2
#     4  10  23  41  65  95 137 169 211 277 326 388
#     4  10  20  41  72  98 124 173 221 275 329 389
#     4   8  18  39  63  88 123 167 209 255 326 382
#     4  11  24  40  63 102 133 173 222 267 327 393
#     4  10  24  42  66  94 133 171 224 262 330 396
#     4  10  23  39  59  94 133 174 215 264 322 391
#     4  10  21  41  65  92 127 174 217 268 330 379
#     4  11  23  41  65  94 128 174 218 266 326 390
#
# _framework density 22.767745999999999
#
# number of rings (size 3 to 8) (size 9 to 14) (size 15 to 20)
#    0.000    2.000    1.250    0.750    1.750   11.000 
#    0.000    5.000    0.000   18.750    0.000    0.000 
#    0.000    0.000    0.000    0.000    0.000    0.000 
#
# Total GULP energy -89136.103974 kJ/mol
# GULP energy per Si atom -5571.006498 kJ/mol
# Density = 2.271593 g / cm^3
# Si number density = 22.767746 Si / 1000 Ang^3
#
#
#
# Elastic Constant Matrix: (Units=GPa)
#
#
# Indices 1 2 3 4 5 6 
#
# 1 49.8511 19.2186 14.8805 -20.6744 1.0785 -13.4384
# 2 19.2186 70.8930 35.5499 -11.5989 -7.5748 6.7198
# 3 14.8805 35.5499 109.0403 -24.2241 -29.3630 0.9175
# 4 -20.6744 -11.5989 -24.2241 35.9861 3.6118 -14.6728
# 5 1.0785 -7.5748 -29.3630 3.6118 26.6318 -1.6787
# 6 -13.4384 6.7198 0.9175 -14.6728 -1.6787 42.1817
#
#
#
# Elastic Compliance Matrix: (Units=1/GPa)
#
#
# Indices 1 2 3 4 5 6 
#
# 1 0.048712 -0.012558 0.005369 0.040684 -0.003161 0.031429
# 2 -0.012558 0.020475 -0.007330 -0.009735 -0.001093 -0.010533
# 3 0.005369 -0.007330 0.018566 0.014947 0.016667 0.008337
# 4 0.040684 -0.009735 0.014947 0.073979 0.004558 0.040102
# 5 -0.003161 -0.001093 0.016667 0.004558 0.055287 0.002590
# 6 0.031429 -0.010533 0.008337 0.040102 0.002590 0.049269
#
#
# Mechanical properties :
#
#
# Convention : Reuss Voigt Hill
#
# Bulk Modulus (GPa) = 17.03146 41.00918 29.02032
# Shear Modulus (GPa) = 15.87823 31.63562 23.75693
#
# Velocity S-wave (km/s) = 2.64370 3.73163 3.23375
# Velocity P-wave (km/s) = 4.10069 6.05127 5.16882
#
# Compressibility (1/GPa) = 0.05871486
#
# Stress axis : x y z
#
# Youngs Moduli (GPa) = 20.52898 48.84064 53.86103
#
# Poissons Ratio (x) = 0.61336 -0.28919
# Poissons Ratio (y) = 0.25781 0.39479
# Poissons Ratio (z) = -0.11023 0.35799
#
# Static dielectric constant tensor:
#      x y z
#    x 1.088160 0.192830 -0.613140 
#    y 0.192830 1.915720 0.029500 
#    z -0.613140 0.029500 1.477360 
# 
# From -- ./inp_files/345003.got.cif
#   From: 2010.05.17/outbox.cif.g08.bks.cpg/sg2_173_cif.got.tgz:345003.got - 2010.06.03 11:33:40.
