data_PCOD9110814
_publ_section_title
;
Structure prediction by ZEFSAII (Michael W. Deem and Ramdas Pophale) SiO2 
 PCOD9110814
Probable space group: P -1
;
_chemical_formula_sum "Si O2"
_cell_formula_units_Z 12
_cell_length_a 7.731753
_cell_length_b 7.660615
_cell_length_c 13.384809
_cell_angle_alpha 102.422603
_cell_angle_beta 105.921216
_cell_angle_gamma 130.050037
_cell_volume 494.136832
_symmetry_space_group_name_H-M "P -1"
_symmetry_group_IT_number 2
_symmetry_cell_setting 'triclinic'
loop_
_space_group_symop_operation_xyz
x,y,z
-x,-y,-z
loop_
_atom_site_type_symbol
_atom_site_label
_atom_site_fract_x
_atom_site_fract_y
_atom_site_fract_z
Si Si1 0.165056 0.240718 0.688458
Si Si2 0.085236 0.420321 0.238987
Si Si3 0.297932 0.208049 0.141731
Si Si4 0.665702 0.834240 0.089583
Si Si5 0.971327 0.629586 0.093543
Si Si6 0.411256 0.266109 0.526329
O O1 0.377115 0.561280 0.761876
O O2 0.228876 0.189949 0.797742
O O3 0.272392 0.212267 0.604742
O O4 0.841930 0.020226 0.601513
O O5 0.212204 0.340693 0.188255
O O6 0.062003 0.588068 0.199286
O O7 0.297572 0.602951 0.385083
O O8 0.779643 0.117633 0.165554
O O9 0.244676 0.146960 0.007563
O O10 0.157387 0.938269 0.141155
O O11 0.652961 0.430190 0.005804
O O12 0.000000 0.500000 0.000000
O O13 0.500000 0.500000 0.500000
#
# Coordination Sequence:
#
# PCOD9110814 Si02
#       6
#     2   2   2   2   2   2
#     4  10  23  37  67 100 125 174 228 266 325 395
#     4  11  24  44  68  99 135 176 223 273 328 397
#     4  11  26  43  66 101 140 174 216 272 337 398
#     4  12  24  40  69 102 135 174 215 276 337 394
#     4  12  26  41  62 102 140 172 221 268 336 401
#     4  10  20  42  66  94 127 175 228 269 319 389
#
# _framework density 24.284772
#
# number of rings (size 3 to 8) (size 9 to 14) (size 15 to 20)
#    0.000    1.000    3.333    3.500    4.667    0.000 
#    0.000    0.833    0.000    7.000    0.000    2.333 
#    0.000    0.000    0.000    0.000    0.000    0.000 
#
# Total GULP energy -66949.599816 kJ/mol
# GULP energy per Si atom -5579.133318 kJ/mol
# Density = 2.422950 g / cm^3
# Si number density = 24.284772 Si / 1000 Ang^3
#
#
#
# Elastic Constant Matrix: (Units=GPa)
#
#
# Indices 1 2 3 4 5 6 
#
# 1 65.0426 48.9077 33.1648 -1.5180 -11.3464 -2.0710
# 2 48.9077 244.1285 110.2315 17.5971 30.6061 -19.8985
# 3 33.1648 110.2315 206.9528 13.0446 35.3373 -21.4212
# 4 -1.5180 17.5971 13.0446 54.9526 8.0362 -4.6974
# 5 -11.3464 30.6061 35.3373 8.0362 42.7155 -9.3167
# 6 -2.0710 -19.8985 -21.4212 -4.6974 -9.3167 25.9749
#
#
#
# Elastic Compliance Matrix: (Units=1/GPa)
#
#
# Indices 1 2 3 4 5 6 
#
# 1 0.022581 -0.004618 -0.003240 0.001152 0.011776 0.000023
# 2 -0.004618 0.006548 -0.001865 -0.001089 -0.003836 0.001537
# 3 -0.003240 -0.001865 0.007506 -0.000304 -0.005106 0.002617
# 4 0.001152 -0.001089 -0.000304 0.019075 -0.001861 0.001789
# 5 0.011776 -0.003836 -0.005106 -0.001861 0.035186 0.006074
# 6 0.000023 0.001537 0.002617 0.001789 0.006074 0.044338
#
#
# Mechanical properties :
#
#
# Convention : Reuss Voigt Hill
#
# Bulk Modulus (GPa) = 58.17512 100.08133 79.12823
# Shear Modulus (GPa) = 31.16988 46.31660 38.74324
#
# Velocity S-wave (km/s) = 3.58651 4.37192 3.99854
# Velocity P-wave (km/s) = 6.41546 8.17227 7.34656
#
# Compressibility (1/GPa) = 0.01718948
#
# Stress axis : x y z
#
# Youngs Moduli (GPa) = 44.28512 152.71250 133.21815
#
# Poissons Ratio (x) = 0.70529 0.43158
# Poissons Ratio (y) = 0.20453 0.24846
# Poissons Ratio (z) = 0.14347 0.28481
#
# Static dielectric constant tensor:
#      x y z
#    x 2.272510 0.047030 0.071050 
#    y 0.047030 1.977040 0.009910 
#    z 0.071050 0.009910 2.161660 
# 
# From -- ./inp_files/449064.got.cif
#   From: 2010.05.17/outbox.cif.g08.bks.cpg/sg2_225_cif.got.tgz:449064.got - 2010.06.03 11:33:40.
