data_PCOD9110078
_publ_section_title
;
Structure prediction by ZEFSAII (Michael W. Deem and Ramdas Pophale) SiO2 
 PCOD9110078
Probable space group: P -1
;
_chemical_formula_sum "Si O2"
_cell_formula_units_Z 14
_cell_length_a 7.633301
_cell_length_b 14.264681
_cell_length_c 19.818341
_cell_angle_alpha 149.603280
_cell_angle_beta 28.703328
_cell_angle_gamma 144.412468
_cell_volume 509.945585
_symmetry_space_group_name_H-M "P -1"
_symmetry_group_IT_number 2
_symmetry_cell_setting 'triclinic'
loop_
_space_group_symop_operation_xyz
x,y,z
-x,-y,-z
loop_
_atom_site_type_symbol
_atom_site_label
_atom_site_fract_x
_atom_site_fract_y
_atom_site_fract_z
Si Si1 0.778732 0.249938 0.276964
Si Si2 0.109677 0.305514 0.450863
Si Si3 0.039299 0.267194 0.892040
Si Si4 0.714743 0.826053 0.386877
Si Si5 0.562632 0.948053 0.278679
Si Si6 0.334884 0.356675 0.045095
Si Si7 0.351238 0.572732 0.771499
O O1 0.382968 0.220522 0.353188
O O2 0.875387 0.476213 0.399297
O O3 0.101800 0.226872 0.101602
O O4 0.721556 0.121635 0.282608
O O5 0.288511 0.324902 0.328347
O O6 0.684568 0.193333 0.527530
O O7 0.016097 0.203586 0.783295
O O8 0.132991 0.105065 0.807032
O O9 0.376902 0.457519 0.907505
O O10 0.688620 0.324754 0.080864
O O11 0.646736 0.641759 0.343928
O O12 0.747916 0.005372 0.536481
O O13 0.467805 0.767016 0.148181
O O14 0.006381 0.416247 0.148144
#
# Coordination Sequence:
#
# PCOD9110078 Si02
#       7
#     2   2   2   2   2   2   2
#     4  10  20  41  69  94 125 162 221 261 308 376
#     4  10  21  39  68  97 123 165 214 265 313 375
#     4  11  24  45  64  92 133 173 207 256 321 382
#     4  12  23  40  65  96 128 169 210 262 317 371
#     4  11  23  39  65  99 128 161 212 272 309 369
#     4  10  22  45  67  92 128 171 212 258 317 381
#     4  10  21  39  66  94 125 169 211 255 315 384
#
# _framework density 27.453911999999999
#
# number of rings (size 3 to 8) (size 9 to 14) (size 15 to 20)
#    0.000    1.429    2.857    3.429    0.000    0.000 
#    0.000   18.571    0.000    0.000    0.000    0.000 
#    0.000    0.000    0.000    0.000    0.000    0.000 
#
# Total GULP energy -78578.328116 kJ/mol
# GULP energy per Si atom -5612.737723 kJ/mol
# Density = 2.739143 g / cm^3
# Si number density = 27.453912 Si / 1000 Ang^3
#
#
#
# Elastic Constant Matrix: (Units=GPa)
#
#
# Indices 1 2 3 4 5 6 
#
# 1 138.5204 38.5306 29.4245 0.1207 1.7179 -15.2598
# 2 38.5306 125.9237 47.2719 -4.3863 12.2364 -33.2779
# 3 29.4245 47.2719 179.0622 -10.6728 43.6630 -12.3013
# 4 0.1207 -4.3863 -10.6728 48.5501 -12.9792 5.1027
# 5 1.7179 12.2364 43.6630 -12.9792 28.3943 -0.9136
# 6 -15.2598 -33.2779 -12.3013 5.1027 -0.9136 54.6421
#
#
#
# Elastic Compliance Matrix: (Units=1/GPa)
#
#
# Indices 1 2 3 4 5 6 
#
# 1 0.008122 -0.002014 -0.001365 0.000097 0.002545 0.000768
# 2 -0.002014 0.010874 -0.001685 -0.000524 -0.002030 0.005696
# 3 -0.001365 -0.001685 0.009946 -0.002176 -0.015455 0.000777
# 4 0.000097 -0.000524 -0.002176 0.024260 0.014565 -0.002804
# 5 0.002545 -0.002030 -0.015455 0.014565 0.066226 -0.004258
# 6 0.000768 0.005696 0.000777 -0.002804 -0.004258 0.022350
#
#
# Mechanical properties :
#
#
# Convention : Reuss Voigt Hill
#
# Bulk Modulus (GPa) = 53.14782 74.88446 64.01614
# Shear Modulus (GPa) = 31.61012 48.20259 39.90635
#
# Velocity S-wave (km/s) = 3.39689 4.19473 3.81672
# Velocity P-wave (km/s) = 5.89798 7.12718 6.54151
#
# Compressibility (1/GPa) = 0.01881545
#
# Stress axis : x y z
#
# Youngs Moduli (GPa) = 123.11922 91.96046 100.54210
#
# Poissons Ratio (x) = 0.18519 0.13724
# Poissons Ratio (y) = 0.24793 0.16939
# Poissons Ratio (z) = 0.16805 0.15494
#
# Static dielectric constant tensor:
#      x y z
#    x 2.139180 0.021690 0.007980 
#    y 0.021690 2.073520 0.024990 
#    z 0.007980 0.024990 2.136890 
# 
# From -- ./inp_files/299400.got.cif
#   From: 2010.05.17/outbox.cif.g08.bks.cpg/sg2_150_cif.got.tgz:299400.got - 2010.06.03 11:33:40.
