data_PCOD9110334
_publ_section_title
;
Structure prediction by ZEFSAII (Michael W. Deem and Ramdas Pophale) SiO2 
 PCOD9110334
Probable space group: P -1
;
_chemical_formula_sum "Si O2"
_cell_formula_units_Z 16
_cell_length_a 9.581459
_cell_length_b 8.601678
_cell_length_c 12.316435
_cell_angle_alpha 111.870119
_cell_angle_beta 57.750712
_cell_angle_gamma 127.998762
_cell_volume 675.033107
_symmetry_space_group_name_H-M "P -1"
_symmetry_group_IT_number 2
_symmetry_cell_setting 'triclinic'
loop_
_space_group_symop_operation_xyz
x,y,z
-x,-y,-z
loop_
_atom_site_type_symbol
_atom_site_label
_atom_site_fract_x
_atom_site_fract_y
_atom_site_fract_z
Si Si1 0.609478 0.674369 0.237986
Si Si2 0.705522 0.069751 0.877741
Si Si3 0.980348 0.678969 0.012708
Si Si4 0.771514 0.751884 0.657983
Si Si5 0.225576 0.695498 0.730545
Si Si6 0.124555 0.729345 0.544347
Si Si7 0.719491 0.656887 0.412910
Si Si8 0.579902 0.105244 0.728152
O O1 0.411918 0.466219 0.293542
O O2 0.704301 0.763201 0.340345
O O3 0.547967 0.802929 0.228937
O O4 0.768587 0.645492 0.103824
O O5 0.866777 0.151418 0.925594
O O6 0.706034 0.199539 0.809547
O O7 0.724995 0.905708 0.765310
O O8 0.500000 0.000000 0.000000
O O9 0.059819 0.709293 0.865472
O O10 0.000000 0.500000 0.000000
O O11 0.810937 0.770736 0.516266
O O12 0.964241 0.783929 0.640844
O O13 0.231437 0.741451 0.613771
O O14 0.198586 0.480374 0.694209
O O15 0.428167 0.869797 0.742112
O O16 0.275717 0.851856 0.419389
O O17 0.000000 0.500000 0.500000
O O18 0.500000 0.500000 0.500000
#
# Coordination Sequence:
#
# PCOD9110334 Si02
#       8
#     2   2   2   2   2   2   2   2
#     4  11  24  45  76 109 149 199 248 300 378 440
#     4  12  28  52  76 108 153 194 253 307 368 446
#     4  12  27  48  79 106 145 205 250 297 371 453
#     4  11  25  48  73 110 150 196 246 310 371 446
#     4  12  25  47  74 106 154 194 245 308 364 444
#     4  12  25  46  74 116 150 190 247 315 375 432
#     4  10  20  41  73  99 142 193 244 292 368 434
#     4  12  27  47  76 111 155 193 245 317 371 433
#
# _framework density 23.702539000000002
#
# number of rings (size 3 to 8) (size 9 to 14) (size 15 to 20)
#    0.000    0.500    5.000    3.375    5.250    3.000 
#    0.000    1.875    0.000    0.000    0.000    0.000 
#    0.000    0.000    0.000    0.000    0.000    0.000 
#
# Total GULP energy -89596.253449 kJ/mol
# GULP energy per Si atom -5599.765841 kJ/mol
# Density = 2.364859 g / cm^3
# Si number density = 23.702539 Si / 1000 Ang^3
#
#
#
# Elastic Constant Matrix: (Units=GPa)
#
#
# Indices 1 2 3 4 5 6 
#
# 1 107.4640 14.7977 33.4802 11.4037 -24.7601 -16.4511
# 2 14.7977 62.6875 18.2060 18.4306 -11.8506 -3.1030
# 3 33.4802 18.2060 138.3465 3.5144 -17.5827 -5.4848
# 4 11.4037 18.4306 3.5144 34.6982 0.9768 -6.1998
# 5 -24.7601 -11.8506 -17.5827 0.9768 53.6678 -3.3169
# 6 -16.4511 -3.1030 -5.4848 -6.1998 -3.3169 31.6654
#
#
#
# Elastic Compliance Matrix: (Units=1/GPa)
#
#
# Indices 1 2 3 4 5 6 
#
# 1 0.012451 -0.000186 -0.001976 -0.002853 0.005486 0.006124
# 2 -0.000186 0.020449 -0.001868 -0.010742 0.004007 -0.000100
# 3 -0.001976 -0.001868 0.008122 0.000872 0.001352 0.000510
# 4 -0.002853 -0.010742 0.000872 0.036254 -0.003796 0.004316
# 5 0.005486 0.004007 0.001352 -0.003796 0.022878 0.005131
# 6 0.006124 -0.000100 0.000510 0.004316 0.005131 0.036223
#
#
# Mechanical properties :
#
#
# Convention : Reuss Voigt Hill
#
# Bulk Modulus (GPa) = 30.33735 49.05177 39.69456
# Shear Modulus (GPa) = 32.16977 40.14055 36.15516
#
# Velocity S-wave (km/s) = 3.68806 4.11970 3.90984
# Velocity P-wave (km/s) = 5.56441 6.58550 6.09637
#
# Compressibility (1/GPa) = 0.03296267
#
# Stress axis : x y z
#
# Youngs Moduli (GPa) = 80.31407 48.90104 123.11923
#
# Poissons Ratio (x) = 0.00910 0.24331
# Poissons Ratio (y) = 0.01494 0.22997
# Poissons Ratio (z) = 0.15871 0.09134
#
# Static dielectric constant tensor:
#      x y z
#    x 1.927630 0.008690 0.015520 
#    y 0.008690 1.996210 0.004960 
#    z 0.015520 0.004960 1.898690 
# 
# From -- ./inp_files/382544.got.cif
#   From: 2010.05.17/outbox.cif.g08.bks.cpg/sg2_192_cif.got.tgz:382544.got - 2010.06.03 11:33:40.
