data_PCOD9110460
_publ_section_title
;
Structure prediction by ZEFSAII (Michael W. Deem and Ramdas Pophale) SiO2 
 PCOD9110460
Probable space group: P -1
;
_chemical_formula_sum "Si O2"
_cell_formula_units_Z 16
_cell_length_a 8.047550
_cell_length_b 18.131614
_cell_length_c 20.761467
_cell_angle_alpha 160.167938
_cell_angle_beta 134.868766
_cell_angle_gamma 46.302170
_cell_volume 723.727063
_symmetry_space_group_name_H-M "P -1"
_symmetry_group_IT_number 2
_symmetry_cell_setting 'triclinic'
loop_
_space_group_symop_operation_xyz
x,y,z
-x,-y,-z
loop_
_atom_site_type_symbol
_atom_site_label
_atom_site_fract_x
_atom_site_fract_y
_atom_site_fract_z
Si Si1 0.491938 0.009670 0.428585
Si Si2 0.976621 0.984085 0.263408
Si Si3 0.032470 0.343968 0.104282
Si Si4 0.494684 0.702710 0.442410
Si Si5 0.854361 0.294983 0.220504
Si Si6 0.963277 0.792245 0.403885
Si Si7 0.188149 0.004416 0.153698
Si Si8 0.228657 0.531535 0.433209
O O1 0.750208 0.896707 0.387012
O O2 0.254184 0.908822 0.263606
O O3 0.500000 0.000000 0.500000
O O4 0.451032 0.241074 0.570950
O O5 0.978247 0.040408 0.385828
O O6 0.878571 0.214053 0.392633
O O7 0.859278 0.790272 0.038246
O O8 0.880334 0.570568 0.228998
O O9 0.215165 0.428392 0.273708
O O10 0.896622 0.178478 0.973269
O O11 0.639619 0.480581 0.322108
O O12 0.215306 0.713158 0.378198
O O13 0.597823 0.887541 0.666794
O O14 0.062598 0.405242 0.330657
O O15 0.768257 0.109634 0.997699
O O16 0.970335 0.189419 0.230314
O O17 0.500000 0.500000 0.500000
#
# Coordination Sequence:
#
# PCOD9110460 Si02
#       8
#     2   2   2   2   2   2   2   2
#     4  10  21  42  71  91 121 172 215 264 323 377
#     4  10  20  42  62  90 127 170 212 259 312 383
#     4  10  21  42  61  94 126 170 214 256 314 382
#     4  12  22  43  66  95 131 167 208 265 321 378
#     4  10  22  40  64  93 134 169 207 257 322 379
#     4  10  25  39  65  96 127 161 216 270 318 367
#     4  10  22  39  65  94 126 174 213 249 314 393
#     4  10  21  37  63  95 129 165 213 265 310 377
#
# _framework density 22.107782
#
# number of rings (size 3 to 8) (size 9 to 14) (size 15 to 20)
#    0.000    1.750    2.500    0.750    5.250    2.000 
#    4.500    0.000    0.000    3.750    0.000    0.000 
#    0.000    0.000    0.000    0.000    0.000    0.000 
#
# Total GULP energy -89270.750686 kJ/mol
# GULP energy per Si atom -5579.421918 kJ/mol
# Density = 2.205746 g / cm^3
# Si number density = 22.107782 Si / 1000 Ang^3
#
#
#
# Elastic Constant Matrix: (Units=GPa)
#
#
# Indices 1 2 3 4 5 6 
#
# 1 55.6923 22.2380 10.9617 -1.3039 1.9445 -18.0988
# 2 22.2380 122.0570 39.2707 1.2767 11.7645 -20.9364
# 3 10.9617 39.2707 111.2706 -2.8657 -13.5561 -8.1923
# 4 -1.3039 1.2767 -2.8657 23.5733 6.5718 -1.5213
# 5 1.9445 11.7645 -13.5561 6.5718 19.8230 -5.2310
# 6 -18.0988 -20.9364 -8.1923 -1.5213 -5.2310 42.1071
#
#
#
# Elastic Compliance Matrix: (Units=1/GPa)
#
#
# Indices 1 2 3 4 5 6 
#
# 1 0.021706 -0.002446 -0.000569 0.001639 0.000534 0.008128
# 2 -0.002446 0.011544 -0.004784 0.001531 -0.009702 0.002608
# 3 -0.000569 -0.004784 0.012257 -0.001583 0.012121 0.001210
# 4 0.001639 0.001531 -0.001583 0.047192 -0.017620 0.000674
# 5 0.000534 -0.009702 0.012121 -0.017620 0.071881 0.006057
# 6 0.008128 0.002608 0.001210 0.000674 0.006057 0.029552
#
#
# Mechanical properties :
#
#
# Convention : Reuss Voigt Hill
#
# Bulk Modulus (GPa) = 33.43550 48.21786 40.82668
# Shear Modulus (GPa) = 22.75850 31.53732 27.14791
#
# Velocity S-wave (km/s) = 3.21196 3.78104 3.50806
# Velocity P-wave (km/s) = 5.37701 6.39682 5.90896
#
# Compressibility (1/GPa) = 0.02990833
#
# Stress axis : x y z
#
# Youngs Moduli (GPa) = 46.07066 86.62391 81.58898
#
# Poissons Ratio (x) = 0.21187 0.04645
# Poissons Ratio (y) = 0.11268 0.39031
# Poissons Ratio (z) = 0.02623 0.41440
#
# Static dielectric constant tensor:
#      x y z
#    x 1.892280 0.024860 -0.012010 
#    y 0.024860 1.808200 0.019150 
#    z -0.012010 0.019150 1.851590 
# 
# From -- ./inp_files/214222.got.cif
#   From: 2010.05.17/outbox.cif.g08.bks.cpg/sg2_108_cif.got.tgz:214222.got - 2010.06.03 11:33:40.
