data_PCOD9110902
_publ_section_title
;
Structure prediction by ZEFSAII (Michael W. Deem and Ramdas Pophale) SiO2 
 PCOD9110902
Probable space group: P -1
;
_chemical_formula_sum "Si O2"
_cell_formula_units_Z 16
_cell_length_a 21.480255
_cell_length_b 15.336767
_cell_length_c 9.915612
_cell_angle_alpha 51.428615
_cell_angle_beta 42.580484
_cell_angle_gamma 18.721629
_cell_volume 667.115142
_symmetry_space_group_name_H-M "P -1"
_symmetry_group_IT_number 2
_symmetry_cell_setting 'triclinic'
loop_
_space_group_symop_operation_xyz
x,y,z
-x,-y,-z
loop_
_atom_site_type_symbol
_atom_site_label
_atom_site_fract_x
_atom_site_fract_y
_atom_site_fract_z
Si Si1 0.260191 0.136139 0.297410
Si Si2 0.380755 0.625633 0.215230
Si Si3 0.026835 0.754913 0.294853
Si Si4 0.622999 0.710283 0.618073
Si Si5 0.766069 0.502133 0.053103
Si Si6 0.775239 0.781007 0.408817
Si Si7 0.887240 0.306516 0.350664
Si Si8 0.307776 0.669783 0.746685
O O1 0.282172 0.132570 0.426525
O O2 0.150917 0.133496 0.456421
O O3 0.058555 0.444905 0.264486
O O4 0.521807 0.843558 0.100261
O O5 0.279433 0.615862 0.426283
O O6 0.583228 0.430722 0.185268
O O7 0.500000 0.500000 0.000000
O O8 0.155489 0.960602 0.265198
O O9 0.278100 0.477595 0.239155
O O10 0.049845 0.673550 0.188548
O O11 0.919703 0.997019 0.229666
O O12 0.657845 0.792521 0.549006
O O13 0.805975 0.486092 0.418913
O O14 0.362674 0.985446 0.702049
O O15 0.843848 0.405781 0.176317
O O16 0.725098 0.420281 0.152738
O O17 0.500000 0.500000 0.500000
#
# Coordination Sequence:
#
# PCOD9110902 Si02
#       8
#     2   2   2   2   2   2   2   2
#     4  10  20  42  67  90 120 163 208 252 314 367
#     4  11  25  40  61  93 127 166 207 249 296 364
#     4  11  24  39  64  93 125 163 206 249 303 372
#     4  10  21  40  65  93 120 160 208 257 315 359
#     4  12  24  40  63  93 127 167 202 249 306 371
#     4   9  20  40  69  86 119 164 203 264 316 358
#     4  11  23  40  63  88 130 165 199 252 310 361
#     4  12  22  41  62  91 130 167 204 243 298 372
#
# _framework density 23.983865999999999
#
# number of rings (size 3 to 8) (size 9 to 14) (size 15 to 20)
#    0.000    1.250    3.750    1.875    5.250    0.000 
#    0.000    6.250    0.000    0.000    0.000    0.000 
#    0.000    0.000    0.000    0.000    0.000    0.000 
#
# Total GULP energy -89543.957583 kJ/mol
# GULP energy per Si atom -5596.497349 kJ/mol
# Density = 2.392928 g / cm^3
# Si number density = 23.983866 Si / 1000 Ang^3
#
#
#
# Elastic Constant Matrix: (Units=GPa)
#
#
# Indices 1 2 3 4 5 6 
#
# 1 95.1733 39.6569 13.9404 -7.2224 20.0585 -7.8514
# 2 39.6569 175.7177 23.4847 7.0921 9.8890 -16.3736
# 3 13.9404 23.4847 88.5907 2.7427 14.0997 -7.4429
# 4 -7.2224 7.0921 2.7427 34.2299 -7.2225 15.2698
# 5 20.0585 9.8890 14.0997 -7.2225 38.5337 -2.6350
# 6 -7.8514 -16.3736 -7.4429 15.2698 -2.6350 36.7735
#
#
#
# Elastic Compliance Matrix: (Units=1/GPa)
#
#
# Indices 1 2 3 4 5 6 
#
# 1 0.013011 -0.002615 -0.000519 0.002049 -0.005510 0.000263
# 2 -0.002615 0.006944 -0.000903 -0.003758 -0.000530 0.003873
# 3 -0.000519 -0.000903 0.012694 -0.003278 -0.004546 0.003092
# 4 0.002049 -0.003758 -0.003278 0.040334 0.007418 -0.018116
# 5 -0.005510 -0.000530 -0.004546 0.007418 0.031795 -0.003135
# 6 0.000263 0.003873 0.003092 -0.018116 -0.003135 0.036898
#
#
# Mechanical properties :
#
#
# Convention : Reuss Voigt Hill
#
# Bulk Modulus (GPa) = 40.69158 57.07174 48.88166
# Shear Modulus (GPa) = 31.65713 40.73406 36.19560
#
# Velocity S-wave (km/s) = 3.63703 4.12563 3.88901
# Velocity P-wave (km/s) = 5.88561 6.82217 6.37112
#
# Compressibility (1/GPa) = 0.02457511
#
# Stress axis : x y z
#
# Youngs Moduli (GPa) = 76.85641 144.00328 78.77978
#
# Poissons Ratio (x) = 0.37660 0.04085
# Poissons Ratio (y) = 0.20100 0.07116
# Poissons Ratio (z) = 0.03985 0.13008
#
# Static dielectric constant tensor:
#      x y z
#    x 1.879500 0.018800 -0.034580 
#    y 0.018800 1.958010 -0.042890 
#    z -0.034580 -0.042890 1.980470 
# 
# From -- ./inp_files/201789.got.cif
#   From: 2010.05.17/outbox.cif.g08.bks.cpg/sg2_101_cif.got.tgz:201789.got - 2010.06.03 11:33:40.
