data_PCOD9110773
_publ_section_title
;
Structure prediction by ZEFSAII (Michael W. Deem and Ramdas Pophale) SiO2 
 PCOD9110773
Probable space group: P -1
;
_chemical_formula_sum "Si O2"
_cell_formula_units_Z 16
_cell_length_a 8.575755
_cell_length_b 5.872765
_cell_length_c 20.730850
_cell_angle_alpha 129.550770
_cell_angle_beta 99.310475
_cell_angle_gamma 57.780762
_cell_volume 655.319370
_symmetry_space_group_name_H-M "P -1"
_symmetry_group_IT_number 2
_symmetry_cell_setting 'triclinic'
loop_
_space_group_symop_operation_xyz
x,y,z
-x,-y,-z
loop_
_atom_site_type_symbol
_atom_site_label
_atom_site_fract_x
_atom_site_fract_y
_atom_site_fract_z
Si Si1 0.034996 0.819431 0.322652
Si Si2 0.641997 0.111679 0.606443
Si Si3 0.574142 0.577485 0.225978
Si Si4 0.488332 0.033373 0.928812
Si Si5 0.144745 0.079915 0.132434
Si Si6 0.789776 0.541633 0.114823
Si Si7 0.355807 0.545009 0.553615
Si Si8 0.960408 0.015102 0.214382
O O1 0.827796 0.051818 0.382807
O O2 0.012650 0.033432 0.293736
O O3 0.194790 0.814676 0.373424
O O4 0.096340 0.431526 0.233477
O O5 0.574614 0.144919 0.682058
O O6 0.465588 0.413868 0.605634
O O7 0.704202 0.728225 0.514990
O O8 0.522878 0.288446 0.157653
O O9 0.612842 0.689368 0.179800
O O10 0.780663 0.379540 0.239258
O O11 0.670737 0.018971 0.912526
O O12 0.300700 0.389782 0.949639
O O13 0.500000 0.000000 0.000000
O O14 0.967203 0.173935 0.090791
O O15 0.140634 0.849993 0.148802
O O16 0.881484 0.767313 0.164798
O O17 0.500000 0.500000 0.500000
#
# Coordination Sequence:
#
# PCOD9110773 Si02
#       8
#     2   2   2   2   2   2   2   2
#     4  11  22  40  63  92 126 162 210 258 313 370
#     4  11  24  41  64  91 128 162 213 256 312 378
#     4  10  20  42  66  91 123 169 209 253 315 382
#     4  11  24  41  63  98 130 160 211 262 314 374
#     4  10  22  38  65  94 121 167 209 257 311 380
#     4   9  22  39  64  90 126 167 206 258 315 369
#     4  11  27  41  62  94 130 167 205 265 314 363
#     4   9  20  38  63  93 124 157 217 253 307 373
#
# _framework density 24.415578
#
# number of rings (size 3 to 8) (size 9 to 14) (size 15 to 20)
#    0.000    1.750    2.500    0.375    7.000    2.500 
#    0.000    5.625    0.000    0.000    0.000    0.000 
#    0.000    0.000    0.000    0.000    0.000    0.000 
#
# Total GULP energy -89523.153160 kJ/mol
# GULP energy per Si atom -5595.197073 kJ/mol
# Density = 2.436001 g / cm^3
# Si number density = 24.415578 Si / 1000 Ang^3
#
#
#
# Elastic Constant Matrix: (Units=GPa)
#
#
# Indices 1 2 3 4 5 6 
#
# 1 137.1315 23.4879 53.9544 -8.2640 -14.1891 11.6948
# 2 23.4879 49.3268 23.1699 -8.8716 1.3737 -2.8838
# 3 53.9544 23.1699 100.4221 -9.7108 7.2074 -4.7936
# 4 -8.2640 -8.8716 -9.7108 37.4265 4.4602 -0.5328
# 5 -14.1891 1.3737 7.2074 4.4602 42.1583 -4.6662
# 6 11.6948 -2.8838 -4.7936 -0.5328 -4.6662 39.5048
#
#
#
# Elastic Compliance Matrix: (Units=1/GPa)
#
#
# Indices 1 2 3 4 5 6 
#
# 1 0.010717 -0.002855 -0.005609 -0.000329 0.004300 -0.003558
# 2 -0.002855 0.024195 -0.003421 0.004414 -0.001400 0.002090
# 3 -0.005609 -0.003421 0.014405 0.002224 -0.004176 0.002695
# 4 -0.000329 0.004414 0.002224 0.028708 -0.003600 0.000651
# 5 0.004300 -0.001400 -0.004176 -0.003600 0.026440 0.001193
# 6 -0.003558 0.002090 0.002695 0.000651 0.001193 0.026996
#
#
# Mechanical properties :
#
#
# Convention : Reuss Voigt Hill
#
# Bulk Modulus (GPa) = 39.14754 54.23387 46.69070
# Shear Modulus (GPa) = 30.53508 36.23580 33.38544
#
# Velocity S-wave (km/s) = 3.54027 3.85662 3.70183
# Velocity P-wave (km/s) = 5.72538 6.48786 6.11851
#
# Compressibility (1/GPa) = 0.02554439
#
# Stress axis : x y z
#
# Youngs Moduli (GPa) = 93.31078 41.33167 69.42221
#
# Poissons Ratio (x) = 0.11801 0.38942
# Poissons Ratio (y) = 0.26641 0.23751
# Poissons Ratio (z) = 0.52342 0.14141
#
# Static dielectric constant tensor:
#      x y z
#    x 1.916070 -0.019170 -0.034980 
#    y -0.019170 2.027790 0.006160 
#    z -0.034980 0.006160 1.960480 
# 
# From -- ./inp_files/223136.got.cif
#   From: 2010.05.17/outbox.cif.g08.bks.cpg/sg2_112_cif.got.tgz:223136.got - 2010.06.03 11:33:40.
