data_PCOD9110007
_publ_section_title
;
Structure prediction by ZEFSAII (Michael W. Deem and Ramdas Pophale) SiO2 
 PCOD9110007
Probable space group: P -1
;
_chemical_formula_sum "Si O2"
_cell_formula_units_Z 15
_cell_length_a 10.155024
_cell_length_b 10.986524
_cell_length_c 14.308275
_cell_angle_alpha 40.118690
_cell_angle_beta 136.393854
_cell_angle_gamma 123.457398
_cell_volume 709.443883
_symmetry_space_group_name_H-M "P -1"
_symmetry_group_IT_number 2
_symmetry_cell_setting 'triclinic'
loop_
_space_group_symop_operation_xyz
x,y,z
-x,-y,-z
loop_
_atom_site_type_symbol
_atom_site_label
_atom_site_fract_x
_atom_site_fract_y
_atom_site_fract_z
Si Si1 0.221675 0.537670 0.411250
Si Si2 0.000000 0.500000 0.500000
Si Si3 0.668252 0.394786 0.092981
Si Si4 0.872056 0.049068 0.494518
Si Si5 0.589664 0.759533 0.451632
Si Si6 0.601924 0.897323 0.947363
Si Si7 0.039196 0.076540 0.763867
Si Si8 0.888215 0.757106 0.010866
O O1 0.121618 0.439872 0.504546
O O2 0.420125 0.638100 0.479651
O O3 0.272532 0.382160 0.449957
O O4 0.076590 0.687087 0.202607
O O5 0.947656 0.278929 0.622360
O O6 0.778411 0.253829 0.303662
O O7 0.563308 0.261716 0.041779
O O8 0.802474 0.567170 0.031321
O O9 0.500000 0.500000 0.000000
O O10 0.995280 0.034713 0.658854
O O11 0.703773 0.894565 0.500788
O O12 0.000000 0.000000 0.500000
O O13 0.494096 0.904563 0.243581
O O14 0.739718 0.910138 0.099096
O O15 0.740170 0.835464 0.967388
O O16 0.942303 0.916839 0.871865
#
# Coordination Sequence:
#
# PCOD9110007 Si02
#       8
#     2   1   2   2   2   2   2   2
#     4  11  22  42  73  97 139 178 229 281 342 405
#     4  12  24  40  64 106 128 182 222 274 336 418
#     4   9  21  40  67  93 132 169 217 279 336 387
#     4  11  24  46  67  92 137 183 224 278 345 411
#     4  10  22  43  70 100 135 180 224 290 335 397
#     4  10  20  41  68  99 134 171 228 277 338 403
#     4  12  24  39  71  97 130 177 232 267 342 408
#     4  11  20  42  70  97 132 183 220 281 338 414
#
# _framework density 21.143322000000001
#
# number of rings (size 3 to 8) (size 9 to 14) (size 15 to 20)
#    0.000    1.333    2.667    3.600    1.867    0.000 
#    2.400   15.333    0.000    0.000    0.000    0.000 
#    0.000    0.000    0.000    0.000    0.000    0.000 
#
# Total GULP energy -83592.779495 kJ/mol
# GULP energy per Si atom -5572.851966 kJ/mol
# Density = 2.109520 g / cm^3
# Si number density = 21.143322 Si / 1000 Ang^3
#
#
#
# Elastic Constant Matrix: (Units=GPa)
#
#
# Indices 1 2 3 4 5 6 
#
# 1 84.8304 29.9789 50.7124 -4.2624 -10.1461 8.9939
# 2 29.9789 145.7994 57.2224 5.7533 -35.2759 26.4951
# 3 50.7124 57.2224 102.4662 -0.0129 -13.8530 -7.5511
# 4 -4.2624 5.7533 -0.0129 48.9668 -1.8854 -5.4043
# 5 -10.1461 -35.2759 -13.8530 -1.8854 25.7814 -6.2752
# 6 8.9939 26.4951 -7.5511 -5.4043 -6.2752 26.8226
#
#
#
# Elastic Compliance Matrix: (Units=1/GPa)
#
#
# Indices 1 2 3 4 5 6 
#
# 1 0.019686 0.004192 -0.012622 -0.000145 0.003398 -0.013530
# 2 0.004192 0.017656 -0.011354 -0.003267 0.014784 -0.019242
# 3 -0.012622 -0.011354 0.023679 0.002598 -0.002205 0.022122
# 4 -0.000145 -0.003267 0.002598 0.021754 0.000533 0.008515
# 5 0.003398 0.014784 -0.002205 0.000533 0.058587 -0.002550
# 6 -0.013530 -0.019242 0.022122 0.008515 -0.002550 0.068172
#
#
# Mechanical properties :
#
#
# Convention : Reuss Voigt Hill
#
# Bulk Modulus (GPa) = 46.61302 67.65815 57.13559
# Shear Modulus (GPa) = 19.51204 33.32630 26.41917
#
# Velocity S-wave (km/s) = 3.04113 3.97446 3.53870
# Velocity P-wave (km/s) = 5.86732 7.28910 6.61651
#
# Compressibility (1/GPa) = 0.02145323
#
# Stress axis : x y z
#
# Youngs Moduli (GPa) = 50.79873 56.63954 42.23095
#
# Poissons Ratio (x) = -0.23746 0.53303
# Poissons Ratio (y) = -0.21297 0.47950
# Poissons Ratio (z) = 0.64117 0.64310
#
# Static dielectric constant tensor:
#      x y z
#    x 1.751430 0.024680 0.012740 
#    y 0.024680 1.829170 -0.002980 
#    z 0.012740 -0.002980 1.759910 
# 
# From -- ./inp_files/497558.got.cif
#   From: 2010.05.17/outbox.cif.g08.bks.cpg/sg2_249_cif.got.tgz:497558.got - 2010.06.03 11:33:40.
