data_PCOD9110324
_publ_section_title
;
Structure prediction by ZEFSAII (Michael W. Deem and Ramdas Pophale) SiO2 
 PCOD9110324
Probable space group: P -1
;
_chemical_formula_sum "Si O2"
_cell_formula_units_Z 16
_cell_length_a 25.335786
_cell_length_b 7.469898
_cell_length_c 5.332326
_cell_angle_alpha 80.958872
_cell_angle_beta 60.492558
_cell_angle_gamma 47.569642
_cell_volume 623.684844
_symmetry_space_group_name_H-M "P -1"
_symmetry_group_IT_number 2
_symmetry_cell_setting 'triclinic'
loop_
_space_group_symop_operation_xyz
x,y,z
-x,-y,-z
loop_
_atom_site_type_symbol
_atom_site_label
_atom_site_fract_x
_atom_site_fract_y
_atom_site_fract_z
Si Si1 0.456349 0.878710 0.459585
Si Si2 0.067727 0.924935 0.633658
Si Si3 0.572741 0.408132 0.663795
Si Si4 0.380145 0.311148 0.943318
Si Si5 0.047394 0.598118 0.488091
Si Si6 0.729736 0.288107 0.250502
Si Si7 0.861596 0.706225 0.160398
Si Si8 0.764331 0.532218 0.429089
O O1 0.518994 0.644164 0.552655
O O2 0.400277 0.836774 0.479650
O O3 0.531120 0.804258 0.128200
O O4 0.408554 0.128647 0.677988
O O5 0.076088 0.741558 0.460767
O O6 0.159914 0.745564 0.570763
O O7 0.041526 0.155515 0.485300
O O8 0.000000 0.000000 0.000000
O O9 0.653430 0.354596 0.574612
O O10 0.500000 0.500000 0.000000
O O11 0.316445 0.602135 0.934491
O O12 0.323973 0.307337 0.258572
O O13 0.075450 0.435606 0.713486
O O14 0.090621 0.424568 0.183230
O O15 0.752240 0.449854 0.217279
O O16 0.808369 0.997928 0.186127
O O17 0.798959 0.663145 0.330340
#
# Coordination Sequence:
#
# PCOD9110324 Si02
#       8
#     2   2   2   2   2   2   2   2
#     4   9  21  41  66  93 135 183 232 289 349 421
#     4  10  20  41  73 105 138 183 241 286 353 430
#     4  10  21  39  64  96 131 181 230 286 352 420
#     4  10  23  43  64  99 137 181 239 291 354 420
#     4  10  21  43  71 103 134 189 231 288 347 427
#     4  11  27  41  64 103 138 179 236 298 347 428
#     4  11  26  44  72 103 144 185 239 287 359 419
#     4  11  25  42  68 101 135 185 227 299 352 419
#
# _framework density 25.653983
#
# number of rings (size 3 to 8) (size 9 to 14) (size 15 to 20)
#    0.000    1.750    2.500    0.750    8.750    0.000 
#    0.000    5.000    0.000    0.000    0.000    0.000 
#    0.000    0.000    0.000    0.000    0.000    0.000 
#
# Total GULP energy -89289.945015 kJ/mol
# GULP energy per Si atom -5580.621563 kJ/mol
# Density = 2.559559 g / cm^3
# Si number density = 25.653983 Si / 1000 Ang^3
#
#
#
# Elastic Constant Matrix: (Units=GPa)
#
#
# Indices 1 2 3 4 5 6 
#
# 1 92.5601 16.7334 18.8809 -7.0409 0.8539 10.8746
# 2 16.7334 157.4726 50.5936 -11.4354 0.4774 -9.3409
# 3 18.8809 50.5936 87.4934 -11.3714 1.4765 1.8408
# 4 -7.0409 -11.4354 -11.3714 34.2429 2.8594 5.1247
# 5 0.8539 0.4774 1.4765 2.8594 40.1057 -2.0109
# 6 10.8746 -9.3409 1.8408 5.1247 -2.0109 41.1815
#
#
#
# Elastic Compliance Matrix: (Units=1/GPa)
#
#
# Indices 1 2 3 4 5 6 
#
# 1 0.011883 -0.000744 -0.001768 0.002178 -0.000511 -0.003524
# 2 -0.000744 0.008034 -0.004438 0.000725 0.000139 0.002134
# 3 -0.001768 -0.004438 0.014869 0.003407 -0.000783 -0.001666
# 4 0.002178 0.000725 0.003407 0.031948 -0.002692 -0.004670
# 5 -0.000511 0.000139 -0.000783 -0.002692 0.025253 0.001770
# 6 -0.003524 0.002134 -0.001666 -0.004670 0.001770 0.026439
#
#
# Mechanical properties :
#
#
# Convention : Reuss Voigt Hill
#
# Bulk Modulus (GPa) = 47.88152 56.66020 52.27086
# Shear Modulus (GPa) = 35.89661 39.86056 37.87858
#
# Velocity S-wave (km/s) = 3.74473 3.94607 3.84672
# Velocity P-wave (km/s) = 6.11573 6.54952 6.33634
#
# Compressibility (1/GPa) = 0.02088489
#
# Stress axis : x y z
#
# Youngs Moduli (GPa) = 84.15120 124.46943 67.25620
#
# Poissons Ratio (x) = 0.09259 0.11894
# Poissons Ratio (y) = 0.06260 0.29850
# Poissons Ratio (z) = 0.14882 0.55242
#
# Static dielectric constant tensor:
#      x y z
#    x 2.143060 0.033280 -0.099780 
#    y 0.033280 2.046980 -0.065250 
#    z -0.099780 -0.065250 2.199080 
# 
# From -- ./inp_files/128160.got.cif
#   From: 2010.05.17/outbox.cif.g08.bks.cpg/sg2_65_cif.got.tgz:128160.got - 2010.06.03 11:33:40.
