data_PCOD9110350
_publ_section_title
;
Structure prediction by ZEFSAII (Michael W. Deem and Ramdas Pophale) SiO2 
 PCOD9110350
Probable space group: P -1
;
_chemical_formula_sum "Si O2"
_cell_formula_units_Z 12
_cell_length_a 8.392195
_cell_length_b 7.628457
_cell_length_c 13.667126
_cell_angle_alpha 134.838373
_cell_angle_beta 60.145725
_cell_angle_gamma 89.586871
_cell_volume 437.399550
_symmetry_space_group_name_H-M "P -1"
_symmetry_group_IT_number 2
_symmetry_cell_setting 'triclinic'
loop_
_space_group_symop_operation_xyz
x,y,z
-x,-y,-z
loop_
_atom_site_type_symbol
_atom_site_label
_atom_site_fract_x
_atom_site_fract_y
_atom_site_fract_z
Si Si1 0.708559 0.297866 0.519329
Si Si2 0.757273 0.504083 0.189002
Si Si3 0.746574 0.756864 0.786425
Si Si4 0.884065 0.780567 0.407682
Si Si5 0.616198 0.143935 0.819734
Si Si6 0.741659 0.924756 0.187396
O O1 0.468763 0.477247 0.723366
O O2 0.776280 0.525899 0.602269
O O3 0.881792 0.982176 0.400563
O O4 0.685886 0.208066 0.382027
O O5 0.739451 0.680133 0.362184
O O6 0.749328 0.694646 0.173932
O O7 0.014639 0.207446 0.987435
O O8 0.899423 0.526737 0.735489
O O9 0.772427 0.986757 0.806272
O O10 0.500000 0.000000 0.000000
O O11 0.759116 0.006645 0.623869
O O12 0.431661 0.063877 0.831952
O O13 0.500000 0.500000 0.000000
#
# Coordination Sequence:
#
# PCOD9110350 Si02
#       6
#     2   2   2   2   2   2
#     4  11  22  47  78 102 145 183 233 300 349 421
#     4  10  20  41  76 106 139 185 234 288 351 427
#     4  12  28  45  67 109 144 186 240 289 357 423
#     4  11  22  47  70 103 145 186 233 291 354 419
#     4  12  25  46  72 101 146 191 237 293 352 424
#     4  10  21  41  73 109 134 185 245 279 357 419
#
# _framework density 27.434871999999999
#
# number of rings (size 3 to 8) (size 9 to 14) (size 15 to 20)
#    0.000    1.000    3.333    4.000    0.000    4.667 
#    3.000    1.667    0.000    0.000    0.000    0.000 
#    0.000    0.000    0.000    0.000    0.000    0.000 
#
# Total GULP energy -67144.668854 kJ/mol
# GULP energy per Si atom -5595.389071 kJ/mol
# Density = 2.737243 g / cm^3
# Si number density = 27.434872 Si / 1000 Ang^3
#
#
#
# Elastic Constant Matrix: (Units=GPa)
#
#
# Indices 1 2 3 4 5 6 
#
# 1 104.2841 33.8602 39.9864 8.9423 -10.6035 -11.5773
# 2 33.8602 112.6785 56.7345 33.0224 -5.6375 -22.0939
# 3 39.9864 56.7345 143.6310 2.7873 -7.5041 -19.8945
# 4 8.9423 33.0224 2.7873 55.7125 -10.6892 -12.4549
# 5 -10.6035 -5.6375 -7.5041 -10.6892 42.9723 -0.9675
# 6 -11.5773 -22.0939 -19.8945 -12.4549 -0.9675 41.0303
#
#
#
# Elastic Compliance Matrix: (Units=1/GPa)
#
#
# Indices 1 2 3 4 5 6 
#
# 1 0.011409 -0.002105 -0.002064 0.000223 0.002261 0.001206
# 2 -0.002105 0.014612 -0.004745 -0.007757 -0.001302 0.002588
# 3 -0.002064 -0.004745 0.009800 0.003556 0.001526 0.002730
# 4 0.000223 -0.007757 0.003556 0.024635 0.005904 0.005228
# 5 0.002261 -0.001302 0.001526 0.005904 0.025462 0.003069
# 6 0.001206 0.002588 0.002730 0.005228 0.003069 0.029089
#
#
# Mechanical properties :
#
#
# Convention : Reuss Voigt Hill
#
# Bulk Modulus (GPa) = 55.57575 69.08397 62.32986
# Shear Modulus (GPa) = 36.01486 43.27717 39.64601
#
# Velocity S-wave (km/s) = 3.62711 3.97602 3.80557
# Velocity P-wave (km/s) = 6.15163 6.80545 6.48678
#
# Compressibility (1/GPa) = 0.01799346
#
# Stress axis : x y z
#
# Youngs Moduli (GPa) = 87.65258 68.43655 102.04231
#
# Poissons Ratio (x) = 0.14406 0.21059
# Poissons Ratio (y) = 0.18451 0.48417
# Poissons Ratio (z) = 0.18090 0.32472
#
# Static dielectric constant tensor:
#      x y z
#    x 2.227820 0.001780 -0.087220 
#    y 0.001780 2.165840 0.021010 
#    z -0.087220 0.021010 2.110460 
# 
# From -- ./inp_files/448283.got.cif
#   From: 2010.05.17/outbox.cif.g08.bks.cpg/sg2_225_cif.got.tgz:448283.got - 2010.06.03 11:33:40.
