data_PCOD9110453
_publ_section_title
;
Structure prediction by ZEFSAII (Michael W. Deem and Ramdas Pophale) SiO2 
 PCOD9110453
Probable space group: P -1
;
_chemical_formula_sum "Si O2"
_cell_formula_units_Z 14
_cell_length_a 11.680738
_cell_length_b 17.927212
_cell_length_c 16.434677
_cell_angle_alpha 30.891329
_cell_angle_beta 148.735404
_cell_angle_gamma 159.174019
_cell_volume 601.428805
_symmetry_space_group_name_H-M "P -1"
_symmetry_group_IT_number 2
_symmetry_cell_setting 'triclinic'
loop_
_space_group_symop_operation_xyz
x,y,z
-x,-y,-z
loop_
_atom_site_type_symbol
_atom_site_label
_atom_site_fract_x
_atom_site_fract_y
_atom_site_fract_z
Si Si1 0.681490 0.811601 0.354967
Si Si2 0.457956 0.870163 0.840017
Si Si3 0.772567 0.259969 0.546250
Si Si4 0.657344 0.665329 0.170463
Si Si5 0.717230 0.518059 0.723415
Si Si6 0.326920 0.903209 0.074674
Si Si7 0.285401 0.252837 0.222960
O O1 0.734675 0.697053 0.547516
O O2 0.561986 0.696037 0.301947
O O3 0.382586 0.760553 0.258285
O O4 0.026602 0.070275 0.307580
O O5 0.078944 0.637951 0.806122
O O6 0.574276 0.066690 0.674389
O O7 0.475368 0.920624 0.898263
O O8 0.690582 0.846400 0.991703
O O9 0.507796 0.220523 0.368000
O O10 0.000000 0.500000 0.500000
O O11 0.029933 0.265936 0.663417
O O12 0.374949 0.541025 0.184170
O O13 0.524391 0.496211 0.176246
O O14 0.960260 0.792901 0.948719
O O15 0.500000 0.000000 0.000000
#
# Coordination Sequence:
#
# PCOD9110453 Si02
#       7
#     2   2   2   2   2   2   2
#     4  10  21  37  61  97 131 159 205 264 319 367
#     4  12  23  42  68  94 127 170 210 259 319 372
#     4  10  24  43  65  90 128 171 216 255 308 383
#     4  11  23  39  66  94 128 164 214 257 314 375
#     4  11  22  37  66  98 126 161 212 263 319 372
#     4  10  21  36  63  94 128 156 206 259 315 366
#     4  10  20  42  62  89 132 166 204 258 311 373
#
# _framework density 23.277899999999999
#
# number of rings (size 3 to 8) (size 9 to 14) (size 15 to 20)
#    0.000    1.429    1.429    5.143    4.000    1.143 
#    0.000    5.714    3.143    0.000    0.000    0.000 
#    0.000    0.000    0.000    0.000    0.000    0.000 
#
# Total GULP energy -78169.112992 kJ/mol
# GULP energy per Si atom -5583.508071 kJ/mol
# Density = 2.322492 g / cm^3
# Si number density = 23.277900 Si / 1000 Ang^3
#
#
#
# Elastic Constant Matrix: (Units=GPa)
#
#
# Indices 1 2 3 4 5 6 
#
# 1 15.4749 23.6478 19.9233 -9.8156 10.8591 9.6775
# 2 23.6478 15.8733 -0.5166 25.8287 8.1558 15.4504
# 3 19.9233 -0.5166 142.6174 13.4349 52.4894 8.8308
# 4 -9.8156 25.8287 13.4349 14.3660 7.5095 6.7713
# 5 10.8591 8.1558 52.4894 7.5095 34.2487 8.1413
# 6 9.6775 15.4504 8.8308 6.7713 8.1413 25.4290
#
#
#
# Elastic Compliance Matrix: (Units=1/GPa)
#
#
# Indices 1 2 3 4 5 6 
#
# 1 0.021919 0.026396 0.004133 -0.023128 -0.010636 -0.016251
# 2 0.026396 0.004306 -0.002153 0.023697 -0.007532 -0.015813
# 3 0.004133 -0.002153 0.015328 0.005216 -0.025733 0.001262
# 4 -0.023128 0.023697 0.005216 0.014344 -0.007340 -0.008878
# 5 -0.010636 -0.007532 -0.025733 -0.007340 0.076603 -0.005010
# 6 -0.016251 -0.015813 0.001262 -0.008878 -0.005010 0.058648
#
#
# Mechanical properties :
#
#
# Convention : Reuss Voigt Hill
#
# Bulk Modulus (GPa) = 10.17228 28.89717 19.53473
# Shear Modulus (GPa) = 29.91085 23.53616 26.72350
#
# Velocity S-wave (km/s) = 3.58850 3.18322 3.39192
# Velocity P-wave (km/s) = 4.64211 5.09426 4.87343
#
# Compressibility (1/GPa) = 0.09830637
#
# Stress axis : x y z
#
# Youngs Moduli (GPa) = 45.62282 232.21278 65.24028
#
# Poissons Ratio (x) = -6.12960 -0.26963
# Poissons Ratio (y) = -1.20428 0.14045
# Poissons Ratio (z) = -0.18856 0.49991
#
# Static dielectric constant tensor:
#      x y z
#    x 1.825590 0.045640 0.022820 
#    y 0.045640 1.869780 0.009890 
#    z 0.022820 0.009890 1.952410 
# 
# From -- ./inp_files/380140.got.cif
#   From: 2010.05.17/outbox.cif.g08.bks.cpg/sg2_191_cif.got.tgz:380140.got - 2010.06.03 11:33:40.
