data_PCOD9110641
_publ_section_title
;
Structure prediction by ZEFSAII (Michael W. Deem and Ramdas Pophale) SiO2 
 PCOD9110641
Probable space group: P -1
;
_chemical_formula_sum "Si O2"
_cell_formula_units_Z 16
_cell_length_a 12.578922
_cell_length_b 9.100134
_cell_length_c 9.110851
_cell_angle_alpha 46.097616
_cell_angle_beta 110.466177
_cell_angle_gamma 109.147910
_cell_volume 698.337372
_symmetry_space_group_name_H-M "P -1"
_symmetry_group_IT_number 2
_symmetry_cell_setting 'triclinic'
loop_
_space_group_symop_operation_xyz
x,y,z
-x,-y,-z
loop_
_atom_site_type_symbol
_atom_site_label
_atom_site_fract_x
_atom_site_fract_y
_atom_site_fract_z
Si Si1 0.971638 0.046416 0.623454
Si Si2 0.314310 0.097493 0.735734
Si Si3 0.126746 0.737011 0.001489
Si Si4 0.670701 0.365811 0.345825
Si Si5 0.277580 0.512511 0.045761
Si Si6 0.705042 0.959646 0.566445
Si Si7 0.498304 0.605084 0.266636
Si Si8 0.152093 0.428644 0.483561
O O1 0.041480 0.259621 0.565096
O O2 0.838121 0.053006 0.562087
O O3 0.000000 0.000000 0.500000
O O4 0.014190 0.850764 0.859670
O O5 0.341653 0.040850 0.622131
O O6 0.424472 0.177569 0.827560
O O7 0.242969 0.292837 0.547898
O O8 0.227141 0.926929 0.893072
O O9 0.156868 0.578116 0.998577
O O10 0.129436 0.610581 0.238880
O O11 0.564406 0.470640 0.280760
O O12 0.782209 0.472832 0.411479
O O13 0.648091 0.119852 0.527323
O O14 0.692451 0.405397 0.157839
O O15 0.291307 0.272006 0.220126
O O16 0.372973 0.611676 0.139053
O O17 0.500000 0.500000 0.500000
#
# Coordination Sequence:
#
# PCOD9110641 Si02
#       8
#     2   2   2   2   2   2   2   2
#     4  11  21  39  68 101 133 171 227 271 314 391
#     4  10  20  42  64  98 132 164 225 273 312 397
#     4  11  21  40  70  97 129 179 219 268 327 380
#     4  11  26  44  63  96 138 171 215 277 332 387
#     4  12  23  42  68  98 136 176 216 272 337 383
#     4  12  23  42  64  99 139 170 218 277 322 388
#     4  11  23  45  73  95 129 173 221 274 330 396
#     4  10  22  42  65  95 134 176 224 267 317 391
#
# _framework density 22.911560999999999
#
# number of rings (size 3 to 8) (size 9 to 14) (size 15 to 20)
#    0.000    1.000    6.250    1.125    0.000    7.500 
#    0.000    1.250    0.000    0.000    0.000    0.000 
#    0.000    0.000    0.000    0.000    0.000    0.000 
#
# Total GULP energy -89511.705255 kJ/mol
# GULP energy per Si atom -5594.481578 kJ/mol
# Density = 2.285941 g / cm^3
# Si number density = 22.911561 Si / 1000 Ang^3
#
#
#
# Elastic Constant Matrix: (Units=GPa)
#
#
# Indices 1 2 3 4 5 6 
#
# 1 39.5042 6.1650 4.6532 -3.8657 13.1260 -6.7703
# 2 6.1650 108.7363 24.5447 -19.1611 11.9989 3.2048
# 3 4.6532 24.5447 116.6643 -7.3163 10.8759 -5.8304
# 4 -3.8657 -19.1611 -7.3163 38.1477 -4.7025 -4.6311
# 5 13.1260 11.9989 10.8759 -4.7025 23.5649 -5.9463
# 6 -6.7703 3.2048 -5.8304 -4.6311 -5.9463 31.2154
#
#
#
# Elastic Compliance Matrix: (Units=1/GPa)
#
#
# Indices 1 2 3 4 5 6 
#
# 1 0.031598 0.000103 0.000577 0.001821 -0.016528 0.004072
# 2 0.000103 0.010876 -0.001690 0.004424 -0.004331 -0.001579
# 3 0.000577 -0.001690 0.009331 0.000790 -0.003220 0.001545
# 4 0.001821 0.004424 0.000790 0.029853 0.003641 0.005211
# 5 -0.016528 -0.004331 -0.003220 0.003641 0.058042 0.007855
# 6 0.004072 -0.001579 0.001545 0.005211 0.007855 0.035639
#
#
# Mechanical properties :
#
#
# Convention : Reuss Voigt Hill
#
# Bulk Modulus (GPa) = 20.08674 37.29227 28.68951
# Shear Modulus (GPa) = 25.77922 33.88840 29.83381
#
# Velocity S-wave (km/s) = 3.35798 3.85007 3.61242
# Velocity P-wave (km/s) = 4.88066 6.00633 5.47252
#
# Compressibility (1/GPa) = 0.04978409
#
# Stress axis : x y z
#
# Youngs Moduli (GPa) = 31.64803 91.94400 107.16876
#
# Poissons Ratio (x) = -0.00948 -0.06179
# Poissons Ratio (y) = -0.00326 0.18112
# Poissons Ratio (z) = -0.01825 0.15539
#
# Static dielectric constant tensor:
#      x y z
#    x 1.857820 0.017370 0.016900 
#    y 0.017370 1.888490 -0.041750 
#    z 0.016900 -0.041750 1.847920 
# 
# From -- ./inp_files/294220.got.cif
#   From: 2010.05.17/outbox.cif.g08.bks.cpg/sg2_148_cif.got.tgz:294220.got - 2010.06.03 11:33:40.
