data_PCOD9110886
_publ_section_title
;
Structure prediction by ZEFSAII (Michael W. Deem and Ramdas Pophale) SiO2 
 PCOD9110886
Probable space group: P -1
;
_chemical_formula_sum "Si O2"
_cell_formula_units_Z 16
_cell_length_a 13.695025
_cell_length_b 6.814101
_cell_length_c 16.326973
_cell_angle_alpha 108.551087
_cell_angle_beta 28.863143
_cell_angle_gamma 111.617157
_cell_volume 683.717816
_symmetry_space_group_name_H-M "P -1"
_symmetry_group_IT_number 2
_symmetry_cell_setting 'triclinic'
loop_
_space_group_symop_operation_xyz
x,y,z
-x,-y,-z
loop_
_atom_site_type_symbol
_atom_site_label
_atom_site_fract_x
_atom_site_fract_y
_atom_site_fract_z
Si Si1 0.154958 0.365644 0.409218
Si Si2 0.569906 0.597893 0.219586
Si Si3 0.147038 0.254206 0.118359
Si Si4 0.853784 0.843243 0.312295
Si Si5 0.450541 0.964370 0.627116
Si Si6 0.897607 0.296149 0.739689
Si Si7 0.775591 0.454905 0.198101
Si Si8 0.431354 0.256413 0.048234
O O1 0.348141 0.514440 0.331890
O O2 0.267903 0.250682 0.241326
O O3 0.000000 0.500000 0.500000
O O4 0.017582 0.236073 0.564227
O O5 0.619443 0.450029 0.236427
O O6 0.591428 0.826147 0.274122
O O7 0.739544 0.628414 0.027639
O O8 0.070495 0.445701 0.247199
O O9 0.312241 0.164622 0.041911
O O10 0.973403 0.048711 0.203189
O O11 0.658898 0.913076 0.505998
O O12 0.767651 0.647016 0.290749
O O13 0.999612 0.772270 0.263643
O O14 0.272959 0.763346 0.747050
O O15 0.500000 0.000000 0.500000
O O16 0.651602 0.203251 0.903350
O O17 0.000000 0.500000 0.000000
O O18 0.500000 0.500000 0.000000
#
# Coordination Sequence:
#
# PCOD9110886 Si02
#       8
#     2   2   2   2   2   2   2   2
#     4  12  21  40  75 103 137 188 232 286 357 424
#     4  12  25  44  74 102 143 188 239 289 355 430
#     4  11  23  44  73 102 140 188 235 290 355 423
#     4  12  27  44  71 103 137 185 237 294 362 418
#     4  12  28  47  70 103 141 185 241 295 354 431
#     4  11  23  43  71 100 145 186 233 297 354 417
#     4  12  28  47  72 103 141 185 239 297 360 425
#     4  10  20  42  67 106 140 185 236 288 355 422
#
# _framework density 23.401468999999999
#
# number of rings (size 3 to 8) (size 9 to 14) (size 15 to 20)
#    0.000    0.500    6.250    3.375    5.250    1.500 
#    2.250    0.625    0.000    0.000    0.000    0.000 
#    0.000    0.000    0.000    0.000    0.000    0.000 
#
# Total GULP energy -89569.086583 kJ/mol
# GULP energy per Si atom -5598.067911 kJ/mol
# Density = 2.334821 g / cm^3
# Si number density = 23.401469 Si / 1000 Ang^3
#
#
#
# Elastic Constant Matrix: (Units=GPa)
#
#
# Indices 1 2 3 4 5 6 
#
# 1 120.9901 21.5942 32.2164 -12.0708 2.8934 -22.3955
# 2 21.5942 63.4709 25.1162 -10.6356 5.5307 -7.8566
# 3 32.2164 25.1162 136.6080 -9.8432 14.6509 -11.1228
# 4 -12.0708 -10.6356 -9.8432 40.7469 3.7178 -0.3093
# 5 2.8934 5.5307 14.6509 3.7178 43.6294 5.8821
# 6 -22.3955 -7.8566 -11.1228 -0.3093 5.8821 33.0308
#
#
#
# Elastic Compliance Matrix: (Units=1/GPa)
#
#
# Indices 1 2 3 4 5 6 
#
# 1 0.010378 -0.001709 -0.001316 0.002460 -0.001103 0.006406
# 2 -0.001709 0.018439 -0.002226 0.003993 -0.002209 0.002909
# 3 -0.001316 -0.002226 0.008616 0.001392 -0.002914 0.002012
# 4 0.002460 0.003993 0.001392 0.027043 -0.003987 0.004049
# 5 -0.001103 -0.002209 -0.002914 -0.003987 0.025513 -0.006835
# 6 0.006406 0.002909 0.002012 0.004049 -0.006835 0.037243
#
#
# Mechanical properties :
#
#
# Convention : Reuss Voigt Hill
#
# Bulk Modulus (GPa) = 37.13036 53.21364 45.17200
# Shear Modulus (GPa) = 34.08049 39.62423 36.85236
#
# Velocity S-wave (km/s) = 3.82034 4.11936 3.97267
# Velocity P-wave (km/s) = 5.94652 6.73901 6.35513
#
# Compressibility (1/GPa) = 0.02693214
#
# Stress axis : x y z
#
# Youngs Moduli (GPa) = 96.35589 54.23318 116.05795
#
# Poissons Ratio (x) = 0.09267 0.15275
# Poissons Ratio (y) = 0.16465 0.25831
# Poissons Ratio (z) = 0.12682 0.12071
#
# Static dielectric constant tensor:
#      x y z
#    x 1.829540 -0.166860 -0.090930 
#    y -0.166860 1.648750 -0.126410 
#    z -0.090930 -0.126410 1.840090 
# 
# From -- ./inp_files/571718.got.cif
#   From: 2010.05.17/outbox.cif.g08.bks.cpg/sg2_286_cif.got.tgz:571718.got - 2010.06.03 11:33:40.
