data_PCOD9110016
_publ_section_title
;
Structure prediction by ZEFSAII (Michael W. Deem and Ramdas Pophale) SiO2 
 PCOD9110016
Probable space group: P -1
;
_chemical_formula_sum "Si O2"
_cell_formula_units_Z 14
_cell_length_a 11.054130
_cell_length_b 9.123309
_cell_length_c 8.764729
_cell_angle_alpha 136.728348
_cell_angle_beta 61.767733
_cell_angle_gamma 113.340803
_cell_volume 531.849969
_symmetry_space_group_name_H-M "P -1"
_symmetry_group_IT_number 2
_symmetry_cell_setting 'triclinic'
loop_
_space_group_symop_operation_xyz
x,y,z
-x,-y,-z
loop_
_atom_site_type_symbol
_atom_site_label
_atom_site_fract_x
_atom_site_fract_y
_atom_site_fract_z
Si Si1 0.803098 0.570822 0.742109
Si Si2 0.264975 0.371043 0.717513
Si Si3 0.063125 0.006301 0.717302
Si Si4 0.205010 0.948604 0.906068
Si Si5 0.603323 0.334192 0.872133
Si Si6 0.037952 0.433064 0.670425
Si Si7 0.501576 0.897592 0.751841
O O1 0.872114 0.550527 0.523942
O O2 0.918534 0.584183 0.816962
O O3 0.739269 0.797704 0.943400
O O4 0.709069 0.363688 0.691997
O O5 0.181392 0.170245 0.700208
O O6 0.330518 0.550370 0.929384
O O7 0.142859 0.467674 0.770266
O O8 0.387815 0.278221 0.473660
O O9 0.120666 0.918231 0.776007
O O10 0.032267 0.809177 0.468692
O O11 0.909343 0.070670 0.905134
O O12 0.341247 0.826132 0.757226
O O13 0.500000 0.500000 0.000000
O O14 0.550400 0.093086 0.756891
O O15 0.500000 0.000000 0.000000
#
# Coordination Sequence:
#
# PCOD9110016 Si02
#       7
#     2   2   2   2   2   2   2
#     4  10  20  44  65  98 140 184 238 294 352 421
#     4  12  26  46  74 110 143 189 247 295 365 430
#     4  10  20  41  69 100 134 184 236 296 348 425
#     4  10  21  42  69  99 140 187 237 288 365 424
#     4  12  26  47  76 104 146 192 241 296 358 438
#     4  10  23  40  69 101 143 185 235 299 359 424
#     4  12  27  49  71 107 152 190 235 306 363 426
#
# _framework density 26.323212000000002
#
# number of rings (size 3 to 8) (size 9 to 14) (size 15 to 20)
#    0.000    1.143    2.857    3.000    0.000    5.714 
#   12.857    0.000    0.000    0.000    0.000    0.000 
#    0.000    0.000    0.000    0.000    0.000    0.000 
#
# Total GULP energy -78391.871340 kJ/mol
# GULP energy per Si atom -5599.419381 kJ/mol
# Density = 2.626330 g / cm^3
# Si number density = 26.323212 Si / 1000 Ang^3
#
#
#
# Elastic Constant Matrix: (Units=GPa)
#
#
# Indices 1 2 3 4 5 6 
#
# 1 130.7422 -12.3192 15.3407 -7.4315 -7.2654 -12.7285
# 2 -12.3192 81.4250 -6.4327 9.2143 -15.3203 19.2208
# 3 15.3407 -6.4327 86.4060 -12.6521 -23.2021 2.2464
# 4 -7.4315 9.2143 -12.6521 27.5158 3.7820 -0.1340
# 5 -7.2654 -15.3203 -23.2021 3.7820 50.9280 -2.1280
# 6 -12.7285 19.2208 2.2464 -0.1340 -2.1280 46.4212
#
#
#
# Elastic Compliance Matrix: (Units=1/GPa)
#
#
# Indices 1 2 3 4 5 6 
#
# 1 0.008160 0.000681 -0.001007 0.001400 0.000892 0.002049
# 2 0.000681 0.015657 0.002051 -0.004951 0.005853 -0.006142
# 3 -0.001007 0.002051 0.014419 0.004753 0.006627 -0.001506
# 4 0.001400 -0.004951 0.004753 0.040859 -0.002065 0.002227
# 5 0.000892 0.005853 0.006627 -0.002065 0.024638 -0.001376
# 6 0.002049 -0.006142 -0.001506 0.002227 -0.001376 0.024663
#
#
# Mechanical properties :
#
#
# Convention : Reuss Voigt Hill
#
# Bulk Modulus (GPa) = 23.98873 32.41676 28.20275
# Shear Modulus (GPa) = 36.01214 45.10530 40.55872
#
# Velocity S-wave (km/s) = 3.70276 4.14396 3.92956
# Velocity P-wave (km/s) = 5.23579 5.93617 5.59695
#
# Compressibility (1/GPa) = 0.04168625
#
# Stress axis : x y z
#
# Youngs Moduli (GPa) = 122.55592 63.86735 69.35145
#
# Poissons Ratio (x) = -0.04347 0.06982
# Poissons Ratio (y) = -0.08341 -0.14225
# Poissons Ratio (z) = 0.12339 -0.13100
#
# Static dielectric constant tensor:
#      x y z
#    x 2.114830 0.050120 -0.044740 
#    y 0.050120 2.064090 0.018690 
#    z -0.044740 0.018690 2.127430 
# 
# From -- ./inp_files/245789.got.cif
#   From: 2010.05.17/outbox.cif.g08.bks.cpg/sg2_123_cif.got.tgz:245789.got - 2010.06.03 11:33:40.
