data_PCOD9110502
_publ_section_title
;
Structure prediction by ZEFSAII (Michael W. Deem and Ramdas Pophale) SiO2 
 PCOD9110502
Probable space group: P -1
;
_chemical_formula_sum "Si O2"
_cell_formula_units_Z 14
_cell_length_a 24.945593
_cell_length_b 4.887496
_cell_length_c 4.837880
_cell_angle_alpha 64.528041
_cell_angle_beta 64.435356
_cell_angle_gamma 77.551239
_cell_volume 480.047994
_symmetry_space_group_name_H-M "P -1"
_symmetry_group_IT_number 2
_symmetry_cell_setting 'triclinic'
loop_
_space_group_symop_operation_xyz
x,y,z
-x,-y,-z
loop_
_atom_site_type_symbol
_atom_site_label
_atom_site_fract_x
_atom_site_fract_y
_atom_site_fract_z
Si Si1 0.406576 0.898467 0.492282
Si Si2 0.884884 0.607050 0.367770
Si Si3 0.819122 0.180614 0.952061
Si Si4 0.644936 0.481839 0.663909
Si Si5 0.777179 0.620005 0.343885
Si Si6 0.942324 0.099916 0.419565
Si Si7 0.466598 0.419249 0.825814
O O1 0.355396 0.750017 0.485927
O O2 0.471766 0.700531 0.457566
O O3 0.384461 0.214161 0.546415
O O4 0.435365 0.104594 0.071102
O O5 0.849364 0.833884 0.137401
O O6 0.935919 0.424588 0.136171
O O7 0.915983 0.838617 0.408297
O O8 0.811238 0.486240 0.622684
O O9 0.802808 0.351827 0.199164
O O10 0.768554 0.951030 0.056388
O O11 0.892672 0.259275 0.668985
O O12 0.709533 0.549576 0.595442
O O13 0.602629 0.368983 0.060611
O O14 0.000000 0.000000 0.500000
O O15 0.500000 0.500000 0.000000
#
# Coordination Sequence:
#
# PCOD9110502 Si02
#       7
#     2   2   2   2   2   2   2
#     4  10  24  44  67 103 134 181 233 278 359 400
#     4  10  22  39  62  92 121 173 207 273 327 392
#     4  10  22  39  63  90 124 168 204 276 323 394
#     4  10  26  40  66  99 135 182 220 298 336 424
#     4  12  22  42  64  93 128 166 229 260 342 401
#     4  10  20  42  63  89 130 170 212 272 335 391
#     4  10  24  46  71 103 140 181 234 288 347 411
#
# _framework density 29.163751999999999
#
# number of rings (size 3 to 8) (size 9 to 14) (size 15 to 20)
#    1.714    0.000    1.429    2.571    2.000    3.429 
#    0.000    4.286    0.000    0.000    0.000    0.000 
#    0.000    0.000    0.000    0.000    0.000    0.000 
#
# Total GULP energy -77963.575275 kJ/mol
# GULP energy per Si atom -5568.826805 kJ/mol
# Density = 2.909737 g / cm^3
# Si number density = 29.163752 Si / 1000 Ang^3
#
#
#
# Elastic Constant Matrix: (Units=GPa)
#
#
# Indices 1 2 3 4 5 6 
#
# 1 161.5387 43.1377 48.5774 -12.3512 -1.0494 -12.8290
# 2 43.1377 209.3704 22.8807 -27.7031 -1.2596 6.1507
# 3 48.5774 22.8807 105.4326 -15.4233 9.5105 -1.2619
# 4 -12.3512 -27.7031 -15.4233 62.5627 -6.1541 10.4530
# 5 -1.0494 -1.2596 9.5105 -6.1541 49.4634 1.7111
# 6 -12.8290 6.1507 -1.2619 10.4530 1.7111 49.2486
#
#
#
# Elastic Compliance Matrix: (Units=1/GPa)
#
#
# Indices 1 2 3 4 5 6 
#
# 1 0.007695 -0.001301 -0.003323 -0.000159 0.000677 0.002092
# 2 -0.001301 0.005442 -0.000297 0.002390 0.000519 -0.001551
# 3 -0.003323 -0.000297 0.011545 0.002009 -0.002017 -0.000889
# 4 -0.000159 0.002390 0.002009 0.018428 0.002112 -0.004273
# 5 0.000677 0.000519 -0.002017 0.002112 0.020934 -0.001116
# 6 0.002092 -0.001551 -0.000889 -0.004273 -0.001116 0.021967
#
#
# Mechanical properties :
#
#
# Convention : Reuss Voigt Hill
#
# Bulk Modulus (GPa) = 67.38201 78.39257 72.88729
# Shear Modulus (GPa) = 49.60368 56.37133 52.98751
#
# Velocity S-wave (km/s) = 4.12863 4.40127 4.26713
# Velocity P-wave (km/s) = 6.77365 7.26407 7.02314
#
# Compressibility (1/GPa) = 0.01484076
#
# Stress axis : x y z
#
# Youngs Moduli (GPa) = 129.94793 183.76817 86.61556
#
# Poissons Ratio (x) = 0.23905 0.28778
# Poissons Ratio (y) = 0.16904 0.02576
# Poissons Ratio (z) = 0.43176 0.05465
#
# Static dielectric constant tensor:
#      x y z
#    x 2.287140 -0.110010 -0.090830 
#    y -0.110010 2.238290 -0.107970 
#    z -0.090830 -0.107970 2.464480 
# 
# From -- ./inp_files/114468.got.cif
#   From: 2010.05.17/outbox.cif.g08.bks.cpg/sg2_58_cif.got.tgz:114468.got - 2010.06.03 11:33:40.
