data_PCOD9110890
_publ_section_title
;
Structure prediction by ZEFSAII (Michael W. Deem and Ramdas Pophale) SiO2 
 PCOD9110890
Probable space group: P -1
;
_chemical_formula_sum "Si O2"
_cell_formula_units_Z 16
_cell_length_a 8.032698
_cell_length_b 11.330498
_cell_length_c 12.222505
_cell_angle_alpha 77.698424
_cell_angle_beta 96.946407
_cell_angle_gamma 140.284036
_cell_volume 692.853754
_symmetry_space_group_name_H-M "P -1"
_symmetry_group_IT_number 2
_symmetry_cell_setting 'triclinic'
loop_
_space_group_symop_operation_xyz
x,y,z
-x,-y,-z
loop_
_atom_site_type_symbol
_atom_site_label
_atom_site_fract_x
_atom_site_fract_y
_atom_site_fract_z
Si Si1 0.024699 0.779470 0.627447
Si Si2 0.821690 0.921725 0.859506
Si Si3 0.668683 0.907945 0.250993
Si Si4 0.845968 0.465610 0.802156
Si Si5 0.750201 0.163583 0.808758
Si Si6 0.499653 0.600655 0.719703
Si Si7 0.021633 0.376631 0.570157
Si Si8 0.548195 0.623442 0.071526
O O1 0.046692 0.667005 0.722237
O O2 0.755757 0.690752 0.662938
O O3 0.238539 0.993136 0.643838
O O4 0.008235 0.732919 0.510212
O O5 0.804273 0.054749 0.851737
O O6 0.602754 0.756288 0.785107
O O7 0.090770 0.020424 0.807324
O O8 0.749121 0.821253 0.989111
O O9 0.548062 0.958446 0.168111
O O10 0.410562 0.682272 0.270579
O O11 0.714667 0.450450 0.901394
O O12 0.917137 0.363860 0.840579
O O13 0.809005 0.222547 0.674233
O O14 0.379354 0.420118 0.811398
O O15 0.293507 0.524113 0.627992
O O16 0.000000 0.500000 0.500000
O O17 0.500000 0.500000 0.000000
#
# Coordination Sequence:
#
# PCOD9110890 Si02
#       8
#     2   2   2   2   2   2   2   2
#     4  10  20  42  67  86 130 174 214 266 322 374
#     4  10  21  42  67  94 128 169 210 269 329 376
#     4   9  22  42  62  95 133 168 209 273 313 378
#     4   9  20  40  61  95 134 159 212 268 311 386
#     4  10  24  39  60  97 134 165 216 267 314 382
#     4   9  22  41  65  95 123 166 223 265 313 393
#     4  12  23  39  63  92 126 177 213 261 325 381
#     4   9  19  40  71  95 123 168 215 260 324 386
#
# _framework density 23.092898999999999
#
# number of rings (size 3 to 8) (size 9 to 14) (size 15 to 20)
#    0.750    1.500    1.250    1.125    5.250    1.500 
#    4.500    1.250    0.000    6.750    0.000    0.000 
#    0.000    0.000    0.000    0.000    0.000    0.000 
#
# Total GULP energy -89253.336457 kJ/mol
# GULP energy per Si atom -5578.333529 kJ/mol
# Density = 2.304034 g / cm^3
# Si number density = 23.092899 Si / 1000 Ang^3
#
#
#
# Elastic Constant Matrix: (Units=GPa)
#
#
# Indices 1 2 3 4 5 6 
#
# 1 112.1239 28.7433 18.5974 -0.1474 7.6467 -34.4265
# 2 28.7433 85.0646 23.5943 13.5435 -0.5490 -20.9238
# 3 18.5974 23.5943 67.7978 8.2226 -6.4884 -22.7269
# 4 -0.1474 13.5435 8.2226 42.5068 -13.3845 0.2255
# 5 7.6467 -0.5490 -6.4884 -13.3845 34.6480 7.1410
# 6 -34.4265 -20.9238 -22.7269 0.2255 7.1410 40.6048
#
#
#
# Elastic Compliance Matrix: (Units=1/GPa)
#
#
# Indices 1 2 3 4 5 6 
#
# 1 0.013228 -0.001517 0.000445 -0.001457 -0.005838 0.011717
# 2 -0.001517 0.015229 -0.002633 -0.005374 -0.003163 0.005675
# 3 0.000445 -0.002633 0.019171 -0.002804 0.000367 0.009702
# 4 -0.001457 -0.005374 -0.002804 0.029882 0.012906 -0.008010
# 5 -0.005838 -0.003163 0.000367 0.012906 0.037855 -0.013103
# 6 0.011717 0.005675 0.009702 -0.008010 -0.013103 0.045266
#
#
# Mechanical properties :
#
#
# Convention : Reuss Voigt Hill
#
# Bulk Modulus (GPa) = 24.86285 45.20623 35.03454
# Shear Modulus (GPa) = 27.55656 36.48867 32.02262
#
# Velocity S-wave (km/s) = 3.45815 3.97934 3.72786
# Velocity P-wave (km/s) = 5.17058 6.38215 5.80804
#
# Compressibility (1/GPa) = 0.04022065
#
# Stress axis : x y z
#
# Youngs Moduli (GPa) = 75.59972 65.66204 52.16104
#
# Poissons Ratio (x) = 0.09958 -0.02323
# Poissons Ratio (y) = 0.11465 0.13732
# Poissons Ratio (z) = -0.03367 0.17287
#
# Static dielectric constant tensor:
#      x y z
#    x 1.932280 0.021470 -0.005210 
#    y 0.021470 1.961130 0.014990 
#    z -0.005210 0.014990 1.836450 
# 
# From -- ./inp_files/387324.got.cif
#   From: 2010.05.17/outbox.cif.g08.bks.cpg/sg2_194_cif.got.tgz:387324.got - 2010.06.03 11:33:40.
