data_PCOD9110602
_publ_section_title
;
Structure prediction by ZEFSAII (Michael W. Deem and Ramdas Pophale) SiO2 
 PCOD9110602
Probable space group: P -1
;
_chemical_formula_sum "Si O2"
_cell_formula_units_Z 15
_cell_length_a 15.246190
_cell_length_b 17.829939
_cell_length_c 15.267288
_cell_angle_alpha 154.008775
_cell_angle_beta 25.856862
_cell_angle_gamma 157.555006
_cell_volume 632.383155
_symmetry_space_group_name_H-M "P -1"
_symmetry_group_IT_number 2
_symmetry_cell_setting 'triclinic'
loop_
_space_group_symop_operation_xyz
x,y,z
-x,-y,-z
loop_
_atom_site_type_symbol
_atom_site_label
_atom_site_fract_x
_atom_site_fract_y
_atom_site_fract_z
Si Si1 0.504785 0.218413 0.468862
Si Si2 0.990516 0.218041 0.532818
Si Si3 0.500000 0.000000 0.500000
Si Si4 0.229022 0.198080 0.950855
Si Si5 0.179141 0.027677 0.288474
Si Si6 0.681574 0.560143 0.038994
Si Si7 0.986715 0.406390 0.567485
Si Si8 0.724029 0.313859 0.176714
O O1 0.357356 0.319790 0.725970
O O2 0.600810 0.250927 0.318096
O O3 0.761926 0.366416 0.448643
O O4 0.310288 0.965808 0.394543
O O5 0.104862 0.105467 0.353851
O O6 0.086835 0.427935 0.724492
O O7 0.071531 0.301342 0.448267
O O8 0.211061 0.767668 0.505651
O O9 0.605837 0.873309 0.308583
O O10 0.411430 0.383242 0.051213
O O11 0.161711 0.279007 0.013980
O O12 0.000000 0.000000 0.000000
O O13 0.478417 0.209146 0.226511
O O14 0.000000 0.000000 0.500000
O O15 0.151844 0.808275 0.075801
O O16 0.819675 0.455005 0.826470
#
# Coordination Sequence:
#
# PCOD9110602 Si02
#       8
#     2   2   1   2   2   2   2   2
#     4  11  23  43  64 100 140 183 230 290 347 410
#     4  11  24  43  69 103 139 186 228 285 349 412
#     4  10  20  42  64  92 136 176 236 286 342 412
#     4  10  21  39  66  95 123 179 230 284 349 409
#     4  11  23  48  74 103 143 181 230 291 343 423
#     4  10  23  40  63  94 136 172 230 290 339 407
#     4  10  24  42  64 100 140 182 238 291 348 416
#     4  10  25  46  69 105 139 182 233 280 352 419
#
# _framework density 23.719797
#
# number of rings (size 3 to 8) (size 9 to 14) (size 15 to 20)
#    0.000    1.600    1.333    2.000    3.733    4.800 
#    7.200    6.000    0.000    0.000    0.000    0.000 
#    0.000    0.000    0.000    0.000    0.000    0.000 
#
# Total GULP energy -83563.722027 kJ/mol
# GULP energy per Si atom -5570.914802 kJ/mol
# Density = 2.366581 g / cm^3
# Si number density = 23.719797 Si / 1000 Ang^3
#
#
#
# Elastic Constant Matrix: (Units=GPa)
#
#
# Indices 1 2 3 4 5 6 
#
# 1 85.6131 36.6641 31.2917 -7.0421 -22.5286 0.5859
# 2 36.6641 191.2888 36.3736 16.7041 -3.0777 28.4239
# 3 31.2917 36.3736 141.3911 8.2375 -5.9349 1.8520
# 4 -7.0421 16.7041 8.2375 28.4536 -0.5901 9.3593
# 5 -22.5286 -3.0777 -5.9349 -0.5901 35.4441 0.2196
# 6 0.5859 28.4239 1.8520 9.3593 0.2196 39.9475
#
#
#
# Elastic Compliance Matrix: (Units=1/GPa)
#
#
# Indices 1 2 3 4 5 6 
#
# 1 0.017558 -0.003328 -0.003017 0.007226 0.010483 0.000500
# 2 -0.003328 0.006891 -0.000860 -0.003331 -0.001692 -0.004025
# 3 -0.003017 -0.000860 0.008090 -0.002917 -0.000692 0.000968
# 4 0.007226 -0.003331 -0.002917 0.042307 0.004566 -0.007538
# 5 0.010483 -0.001692 -0.000692 0.004566 0.034691 -0.000178
# 6 0.000500 -0.004025 0.000968 -0.007538 -0.000178 0.029611
#
#
# Mechanical properties :
#
#
# Convention : Reuss Voigt Hill
#
# Bulk Modulus (GPa) = 55.16521 69.66129 62.41325
# Shear Modulus (GPa) = 31.32789 41.69996 36.51392
#
# Velocity S-wave (km/s) = 3.63815 4.19743 3.92776
# Velocity P-wave (km/s) = 6.39967 7.27485 6.85124
#
# Compressibility (1/GPa) = 0.01812737
#
# Stress axis : x y z
#
# Youngs Moduli (GPa) = 56.95398 145.11841 123.61225
#
# Poissons Ratio (x) = 0.48299 0.37295
# Poissons Ratio (y) = 0.18956 0.10635
# Poissons Ratio (z) = 0.17184 0.12485
#
# Static dielectric constant tensor:
#      x y z
#    x 1.906590 0.035430 0.039670 
#    y 0.035430 1.935770 0.019210 
#    z 0.039670 0.019210 1.932800 
# 
# From -- ./inp_files/576386.got.cif
#   From: 2010.05.17/outbox.cif.g08.bks.cpg/sg2_289_cif.got.tgz:576386.got - 2010.06.03 11:33:40.
