data_PCOD9110081
_publ_section_title
;
Structure prediction by ZEFSAII (Michael W. Deem and Ramdas Pophale) SiO2 
 PCOD9110081
Probable space group: P -1
;
_chemical_formula_sum "Si O2"
_cell_formula_units_Z 12
_cell_length_a 12.227136
_cell_length_b 12.241455
_cell_length_c 9.772036
_cell_angle_alpha 143.747276
_cell_angle_beta 45.469532
_cell_angle_gamma 142.288482
_cell_volume 520.899273
_symmetry_space_group_name_H-M "P -1"
_symmetry_group_IT_number 2
_symmetry_cell_setting 'triclinic'
loop_
_space_group_symop_operation_xyz
x,y,z
-x,-y,-z
loop_
_atom_site_type_symbol
_atom_site_label
_atom_site_fract_x
_atom_site_fract_y
_atom_site_fract_z
Si Si1 0.649948 0.849610 0.811507
Si Si2 0.199102 0.135636 0.017551
Si Si3 0.165386 0.550170 0.503289
Si Si4 0.924274 0.320506 0.004134
Si Si5 0.694857 0.599502 0.281177
Si Si6 0.468921 0.296119 0.726295
O O1 0.749139 0.923297 0.945067
O O2 0.708323 0.714139 0.529211
O O3 0.438583 0.663806 0.843066
O O4 0.741264 0.085275 0.894795
O O5 0.210042 0.361215 0.270053
O O6 0.309769 0.114372 0.775289
O O7 0.000000 0.000000 0.000000
O O8 0.365360 0.738307 0.467665
O O9 0.000000 0.500000 0.500000
O O10 0.119713 0.588169 0.732112
O O11 0.104230 0.311388 0.861884
O O12 0.000000 0.500000 0.000000
O O13 0.596156 0.669430 0.328592
O O14 0.500000 0.500000 0.000000
#
# Coordination Sequence:
#
# PCOD9110081 Si02
#       6
#     2   2   2   2   2   2
#     4  11  24  44  72 100 133 184 239 270 342 418
#     4  11  22  43  73  98 130 186 236 270 332 427
#     4  11  23  42  65  99 140 170 221 291 344 393
#     4  12  27  44  66 102 142 175 227 294 351 392
#     4  11  23  45  74  95 139 183 233 279 334 427
#     4  10  20  41  69  94 132 177 226 270 335 412
#
# _framework density 23.037082000000002
#
# number of rings (size 3 to 8) (size 9 to 14) (size 15 to 20)
#    0.000    1.000    3.333    5.500    2.333    2.000 
#    3.000    1.667    0.000    0.000    0.000    0.000 
#    0.000    0.000    0.000    0.000    0.000    0.000 
#
# Total GULP energy -66920.912332 kJ/mol
# GULP energy per Si atom -5576.742694 kJ/mol
# Density = 2.298465 g / cm^3
# Si number density = 23.037082 Si / 1000 Ang^3
#
#
#
# Elastic Constant Matrix: (Units=GPa)
#
#
# Indices 1 2 3 4 5 6 
#
# 1 94.7418 41.6276 29.5215 -19.0746 -0.0459 1.4713
# 2 41.6276 139.6192 63.7453 -24.6244 7.1826 3.5095
# 3 29.5215 63.7453 102.6670 -39.1265 4.5843 10.0550
# 4 -19.0746 -24.6244 -39.1265 56.0918 3.8526 -14.5645
# 5 -0.0459 7.1826 4.5843 3.8526 35.0068 0.9456
# 6 1.4713 3.5095 10.0550 -14.5645 0.9456 33.5299
#
#
#
# Elastic Compliance Matrix: (Units=1/GPa)
#
#
# Indices 1 2 3 4 5 6 
#
# 1 0.012647 -0.002923 -0.000954 0.002626 0.000421 0.001166
# 2 -0.002923 0.010761 -0.005878 -0.000069 -0.001455 0.000776
# 3 -0.000954 -0.005878 0.017302 0.009179 -0.002058 -0.000486
# 4 0.002626 -0.000069 0.009179 0.027832 -0.004500 0.009356
# 5 0.000421 -0.001455 -0.002058 -0.004500 0.029685 -0.002041
# 6 0.001166 0.000776 -0.000486 0.009356 -0.002041 0.033959
#
#
# Mechanical properties :
#
#
# Convention : Reuss Voigt Hill
#
# Bulk Modulus (GPa) = 47.17010 67.42410 57.29710
# Shear Modulus (GPa) = 31.49359 38.40128 34.94743
#
# Velocity S-wave (km/s) = 3.70142 4.08724 3.89910
# Velocity P-wave (km/s) = 6.22796 7.18368 6.72282
#
# Compressibility (1/GPa) = 0.02119987
#
# Stress axis : x y z
#
# Youngs Moduli (GPa) = 79.06760 92.93013 57.79755
#
# Poissons Ratio (x) = 0.27164 0.05514
# Poissons Ratio (y) = 0.23112 0.33973
# Poissons Ratio (z) = 0.07543 0.54624
#
# Static dielectric constant tensor:
#      x y z
#    x 1.858860 -0.046830 -0.023320 
#    y -0.046830 2.141080 -0.011710 
#    z -0.023320 -0.011710 1.780910 
# 
# From -- ./inp_files/255392.got.cif
#   From: 2010.05.17/outbox.cif.g08.bks.cpg/sg2_128_cif.got.tgz:255392.got - 2010.06.03 11:33:40.
