data_PCOD9110328
_publ_section_title
;
Structure prediction by ZEFSAII (Michael W. Deem and Ramdas Pophale) SiO2 
 PCOD9110328
Probable space group: P -1
;
_chemical_formula_sum "Si O2"
_cell_formula_units_Z 16
_cell_length_a 11.435324
_cell_length_b 17.834206
_cell_length_c 8.371255
_cell_angle_alpha 37.315019
_cell_angle_beta 106.021537
_cell_angle_gamma 131.815741
_cell_volume 637.569171
_symmetry_space_group_name_H-M "P -1"
_symmetry_group_IT_number 2
_symmetry_cell_setting 'triclinic'
loop_
_space_group_symop_operation_xyz
x,y,z
-x,-y,-z
loop_
_atom_site_type_symbol
_atom_site_label
_atom_site_fract_x
_atom_site_fract_y
_atom_site_fract_z
Si Si1 0.360147 0.895888 0.325063
Si Si2 0.616127 0.714510 0.190865
Si Si3 0.086088 0.966704 0.470065
Si Si4 0.332942 0.602913 0.828556
Si Si5 0.352344 0.670239 0.367634
Si Si6 0.044148 0.408852 0.467120
Si Si7 0.816908 0.708218 0.502889
Si Si8 0.885426 0.272557 0.175123
O O1 0.424135 0.807445 0.547191
O O2 0.257537 0.866616 0.496825
O O3 0.180563 0.750530 0.379901
O O4 0.533265 0.111356 0.959117
O O5 0.500000 0.500000 0.500000
O O6 0.466786 0.695831 0.225711
O O7 0.763494 0.794144 0.251868
O O8 0.722744 0.832034 0.872951
O O9 0.120381 0.851446 0.732464
O O10 0.000000 0.000000 0.500000
O O11 0.950247 0.843860 0.472840
O O12 0.376190 0.617456 0.633359
O O13 0.355456 0.503605 0.119434
O O14 0.104775 0.450040 0.016261
O O15 0.132166 0.484814 0.549130
O O16 0.099315 0.323585 0.542813
O O17 0.145913 0.612563 0.090687
#
# Coordination Sequence:
#
# PCOD9110328 Si02
#       8
#     2   2   2   2   2   2   2   2
#     4  11  20  44  71 100 136 181 227 282 349 418
#     4  12  26  44  65  96 139 179 230 278 340 417
#     4  11  25  46  72 102 135 178 236 284 335 417
#     4  10  22  42  69 102 137 176 226 294 342 403
#     4  12  26  42  67 106 142 174 232 291 339 411
#     4  11  21  43  75  98 135 187 222 283 356 407
#     4  11  22  44  74  92 132 191 225 276 352 400
#     4  10  20  41  73  97 134 181 231 274 349 415
#
# _framework density 25.095317000000001
#
# number of rings (size 3 to 8) (size 9 to 14) (size 15 to 20)
#    0.000    1.000    6.250    1.500    3.500    3.000 
#    2.250    1.250    0.000    0.000    0.000    0.000 
#    0.000    0.000    0.000    0.000    0.000    0.000 
#
# Total GULP energy -89379.155467 kJ/mol
# GULP energy per Si atom -5586.197217 kJ/mol
# Density = 2.503820 g / cm^3
# Si number density = 25.095317 Si / 1000 Ang^3
#
#
#
# Elastic Constant Matrix: (Units=GPa)
#
#
# Indices 1 2 3 4 5 6 
#
# 1 92.6996 33.5461 31.8729 -8.8209 -5.1481 -23.7962
# 2 33.5461 78.1314 29.6068 -25.8639 -2.9684 -7.3798
# 3 31.8729 29.6068 138.7143 0.6190 -10.6370 -10.8284
# 4 -8.8209 -25.8639 0.6190 32.0300 -10.4329 3.6718
# 5 -5.1481 -2.9684 -10.6370 -10.4329 37.4457 1.2237
# 6 -23.7962 -7.3798 -10.8284 3.6718 1.2237 40.8629
#
#
#
# Elastic Compliance Matrix: (Units=1/GPa)
#
#
# Indices 1 2 3 4 5 6 
#
# 1 0.015217 -0.005409 -0.001699 -0.000767 0.000722 0.007482
# 2 -0.005409 0.022695 -0.003412 0.018870 0.005403 -0.001813
# 3 -0.001699 -0.003412 0.008488 -0.003166 0.000996 0.000898
# 4 -0.000767 0.018870 -0.003166 0.051513 0.014940 -0.002954
# 5 0.000722 0.005403 0.000996 0.014940 0.031699 -0.000631
# 6 0.007482 -0.001813 0.000898 -0.002954 -0.000631 0.029024
#
#
# Mechanical properties :
#
#
# Convention : Reuss Voigt Hill
#
# Bulk Modulus (GPa) = 39.43426 55.51076 47.47251
# Shear Modulus (GPa) = 26.57725 36.36904 31.47314
#
# Velocity S-wave (km/s) = 3.25784 3.81101 3.54523
# Velocity P-wave (km/s) = 5.46802 6.44462 5.97630
#
# Compressibility (1/GPa) = 0.02535866
#
# Stress axis : x y z
#
# Youngs Moduli (GPa) = 65.71612 44.06224 117.80761
#
# Poissons Ratio (x) = 0.23835 0.20016
# Poissons Ratio (y) = 0.35549 0.40202
# Poissons Ratio (z) = 0.11165 0.15036
#
# Static dielectric constant tensor:
#      x y z
#    x 2.238960 0.132460 0.110590 
#    y 0.132460 2.202290 0.003740 
#    z 0.110590 0.003740 2.019920 
# 
# From -- ./inp_files/278819.got.cif
#   From: 2010.05.17/outbox.cif.g08.bks.cpg/sg2_140_cif.got.tgz:278819.got - 2010.06.03 11:33:40.
