data_PCOD9110825
_publ_section_title
;
Structure prediction by ZEFSAII (Michael W. Deem and Ramdas Pophale) SiO2 
 PCOD9110825
Probable space group: P -1
;
_chemical_formula_sum "Si O2"
_cell_formula_units_Z 16
_cell_length_a 8.908271
_cell_length_b 18.569128
_cell_length_c 8.759719
_cell_angle_alpha 117.576853
_cell_angle_beta 78.339793
_cell_angle_gamma 49.618493
_cell_volume 654.255891
_symmetry_space_group_name_H-M "P -1"
_symmetry_group_IT_number 2
_symmetry_cell_setting 'triclinic'
loop_
_space_group_symop_operation_xyz
x,y,z
-x,-y,-z
loop_
_atom_site_type_symbol
_atom_site_label
_atom_site_fract_x
_atom_site_fract_y
_atom_site_fract_z
Si Si1 0.755892 0.316200 0.780020
Si Si2 0.273652 0.773769 0.610784
Si Si3 0.022668 0.639606 0.517121
Si Si4 0.792664 0.910331 0.920405
Si Si5 0.647425 0.288171 0.105379
Si Si6 0.561429 0.986029 0.646714
Si Si7 0.092742 0.439913 0.750533
Si Si8 0.614333 0.755979 0.961456
O O1 0.677683 0.290471 0.630082
O O2 0.097992 0.184863 0.553700
O O3 0.500000 0.500000 0.000000
O O4 0.763477 0.281205 0.921137
O O5 0.259072 0.749116 0.771595
O O6 0.557929 0.703169 0.486401
O O7 0.912494 0.938527 0.847287
O O8 0.998470 0.609945 0.327212
O O9 0.754606 0.718450 0.736123
O O10 0.317781 0.471304 0.362330
O O11 0.019395 0.735523 0.654616
O O12 0.677316 0.962628 0.167252
O O13 0.500000 0.000000 0.000000
O O14 0.626479 0.204428 0.973707
O O15 0.500000 0.000000 0.500000
O O16 0.494686 0.110941 0.814142
O O17 0.885772 0.593052 0.841345
O O18 0.000000 0.500000 0.000000
#
# Coordination Sequence:
#
# PCOD9110825 Si02
#       8
#     2   2   2   2   2   2   2   2
#     4  12  28  44  69 110 146 182 250 311 355 442
#     4  12  23  43  73 104 140 186 250 288 361 444
#     4  10  20  42  66  94 140 181 229 289 357 432
#     4  11  24  43  64  92 140 189 230 298 358 420
#     4  11  22  43  73 104 139 191 234 305 368 425
#     4  11  26  47  68  97 143 195 236 297 380 433
#     4  11  22  40  70 108 141 182 239 302 356 432
#     4  10  21  44  69  96 142 187 236 293 365 444
#
# _framework density 24.455262000000001
#
# number of rings (size 3 to 8) (size 9 to 14) (size 15 to 20)
#    0.000    1.000    3.750    3.750    1.750    3.500 
#    0.000    2.500    0.000    0.000    0.000    0.000 
#    0.000    0.000    0.000    0.000    0.000    0.000 
#
# Total GULP energy -89090.110749 kJ/mol
# GULP energy per Si atom -5568.131922 kJ/mol
# Density = 2.439960 g / cm^3
# Si number density = 24.455262 Si / 1000 Ang^3
#
#
#
# Elastic Constant Matrix: (Units=GPa)
#
#
# Indices 1 2 3 4 5 6 
#
# 1 69.8943 23.8307 35.4878 5.9121 -9.2628 -3.1642
# 2 23.8307 69.2447 28.2910 -15.5404 4.1844 -5.7495
# 3 35.4878 28.2910 123.4337 -12.4000 -6.3722 2.1180
# 4 5.9121 -15.5404 -12.4000 63.0919 -4.1682 9.5212
# 5 -9.2628 4.1844 -6.3722 -4.1682 35.1224 -12.1557
# 6 -3.1642 -5.7495 2.1180 9.5212 -12.1557 39.2701
#
#
#
# Elastic Compliance Matrix: (Units=1/GPa)
#
#
# Indices 1 2 3 4 5 6 
#
# 1 0.020054 -0.006071 -0.004580 -0.004469 0.006006 0.003917
# 2 -0.006071 0.018699 -0.002284 0.004460 -0.003659 0.000158
# 3 -0.004580 -0.002284 0.010218 0.002155 0.000626 -0.001583
# 4 -0.004469 0.004460 0.002155 0.018425 -0.000691 -0.004505
# 5 0.006006 -0.003659 0.000626 -0.000691 0.034217 0.010674
# 6 0.003917 0.000158 -0.001583 -0.004505 0.010674 0.030285
#
#
# Mechanical properties :
#
#
# Convention : Reuss Voigt Hill
#
# Bulk Modulus (GPa) = 43.28871 48.64352 45.96611
# Shear Modulus (GPa) = 30.21707 39.16110 34.68908
#
# Velocity S-wave (km/s) = 3.51893 4.00601 3.77035
# Velocity P-wave (km/s) = 5.85236 6.42896 6.14742
#
# Compressibility (1/GPa) = 0.02310071
#
# Stress axis : x y z
#
# Youngs Moduli (GPa) = 49.86497 53.47794 97.86828
#
# Poissons Ratio (x) = 0.32467 0.44826
# Poissons Ratio (y) = 0.30273 0.22353
# Poissons Ratio (z) = 0.22839 0.12214
#
# Static dielectric constant tensor:
#      x y z
#    x 1.311640 0.081860 0.519210 
#    y 0.081860 2.150010 -0.086760 
#    z 0.519210 -0.086760 1.593780 
# 
# From -- ./inp_files/223821.got.cif
#   From: 2010.05.17/outbox.cif.g08.bks.cpg/sg2_112_cif.got.tgz:223821.got - 2010.06.03 11:33:40.
