data_PCOD9110312
_publ_section_title
;
Structure prediction by ZEFSAII (Michael W. Deem and Ramdas Pophale) SiO2 
 PCOD9110312
Probable space group: P -1
;
_chemical_formula_sum "Si O2"
_cell_formula_units_Z 14
_cell_length_a 6.792919
_cell_length_b 12.941995
_cell_length_c 9.984908
_cell_angle_alpha 38.703757
_cell_angle_beta 71.546963
_cell_angle_gamma 82.127098
_cell_volume 511.630317
_symmetry_space_group_name_H-M "P -1"
_symmetry_group_IT_number 2
_symmetry_cell_setting 'triclinic'
loop_
_space_group_symop_operation_xyz
x,y,z
-x,-y,-z
loop_
_atom_site_type_symbol
_atom_site_label
_atom_site_fract_x
_atom_site_fract_y
_atom_site_fract_z
Si Si1 0.116428 0.023300 0.594628
Si Si2 0.414705 0.216546 0.676589
Si Si3 0.655273 0.931023 0.869592
Si Si4 0.351402 0.755294 0.927224
Si Si5 0.972664 0.675440 0.264251
Si Si6 0.807307 0.605058 0.803655
Si Si7 0.227447 0.502843 0.771441
O O1 0.263761 0.884075 0.717790
O O2 0.907318 0.988317 0.769323
O O3 0.417721 0.186873 0.122135
O O4 0.000000 0.000000 0.500000
O O5 0.168633 0.229016 0.708770
O O6 0.547374 0.396577 0.424351
O O7 0.531066 0.083674 0.713238
O O8 0.433888 0.163001 0.880900
O O9 0.754252 0.787577 0.600821
O O10 0.310978 0.565972 0.069592
O O11 0.202577 0.764153 0.080591
O O12 0.853207 0.629628 0.194044
O O13 0.000000 0.500000 0.500000
O O14 0.051163 0.621598 0.689688
O O15 0.790964 0.563833 0.006301
#
# Coordination Sequence:
#
# PCOD9110312 Si02
#       7
#     2   2   2   2   2   2   2
#     4  12  24  49  78 106 153 202 246 310 376 443
#     4  11  23  45  71 105 150 197 245 313 378 441
#     4  11  26  46  76 110 149 196 254 309 374 455
#     4  11  26  48  74 111 148 193 258 309 373 449
#     4  11  23  41  70 109 148 190 247 314 371 446
#     4  10  23  45  75 105 148 195 245 308 373 446
#     4  10  20  41  72  99 145 194 240 302 374 439
#
# _framework density 27.363507999999999
#
# number of rings (size 3 to 8) (size 9 to 14) (size 15 to 20)
#    0.000    1.143    2.857    3.857    0.000    3.429 
#    0.000    2.143    0.000    0.857    0.000    0.000 
#    0.000    0.000    0.000    0.000    0.000    0.000 
#
# Total GULP energy -78471.454596 kJ/mol
# GULP energy per Si atom -5605.103900 kJ/mol
# Density = 2.730123 g / cm^3
# Si number density = 27.363508 Si / 1000 Ang^3
#
#
#
# Elastic Constant Matrix: (Units=GPa)
#
#
# Indices 1 2 3 4 5 6 
#
# 1 120.2586 43.9970 40.8606 -8.2669 -3.5116 14.5881
# 2 43.9970 146.8712 29.5914 -19.4815 -6.7761 -6.5696
# 3 40.8606 29.5914 118.4750 -10.9494 -6.0479 11.5882
# 4 -8.2669 -19.4815 -10.9494 58.6140 -4.3847 -3.0948
# 5 -3.5116 -6.7761 -6.0479 -4.3847 44.4539 -4.1382
# 6 14.5881 -6.5696 11.5882 -3.0948 -4.1382 41.8356
#
#
#
# Elastic Compliance Matrix: (Units=1/GPa)
#
#
# Indices 1 2 3 4 5 6 
#
# 1 0.010661 -0.002846 -0.002655 -0.000143 -0.000290 -0.003468
# 2 -0.002846 0.008406 -0.001107 0.002447 0.001421 0.002941
# 3 -0.002655 -0.001107 0.009960 0.001090 0.000913 -0.001836
# 4 -0.000143 0.002447 0.001090 0.018335 0.002480 0.001734
# 5 -0.000290 0.001421 0.000913 0.002480 0.023296 0.002559
# 6 -0.003468 0.002941 -0.001836 0.001734 0.002559 0.026464
#
#
# Mechanical properties :
#
#
# Convention : Reuss Voigt Hill
#
# Bulk Modulus (GPa) = 63.24730 68.27810 65.76270
# Shear Modulus (GPa) = 43.24967 47.05775 45.15371
#
# Velocity S-wave (km/s) = 3.97994 4.15146 4.06660
# Velocity P-wave (km/s) = 6.65461 6.92718 6.79226
#
# Compressibility (1/GPa) = 0.01581095
#
# Stress axis : x y z
#
# Youngs Moduli (GPa) = 93.79797 118.96188 100.40636
#
# Poissons Ratio (x) = 0.33860 0.26656
# Poissons Ratio (y) = 0.26698 0.11113
# Poissons Ratio (z) = 0.24901 0.13167
#
# Static dielectric constant tensor:
#      x y z
#    x 2.096670 -0.031840 -0.008680 
#    y -0.031840 2.201870 -0.027920 
#    z -0.008680 -0.027920 2.166290 
# 
# From -- ./inp_files/404459.got.cif
#   From: 2010.05.17/outbox.cif.g08.bks.cpg/sg2_203_cif.got.tgz:404459.got - 2010.06.03 11:33:40.
