data_PCOD9110142
_publ_section_title
;
Structure prediction by ZEFSAII (Michael W. Deem and Ramdas Pophale) SiO2 
 PCOD9110142
Probable space group: P -1
;
_chemical_formula_sum "Si O2"
_cell_formula_units_Z 16
_cell_length_a 14.321766
_cell_length_b 10.368791
_cell_length_c 9.428461
_cell_angle_alpha 71.466911
_cell_angle_beta 82.171465
_cell_angle_gamma 33.056424
_cell_volume 700.790391
_symmetry_space_group_name_H-M "P -1"
_symmetry_group_IT_number 2
_symmetry_cell_setting 'triclinic'
loop_
_space_group_symop_operation_xyz
x,y,z
-x,-y,-z
loop_
_atom_site_type_symbol
_atom_site_label
_atom_site_fract_x
_atom_site_fract_y
_atom_site_fract_z
Si Si1 0.900982 0.364072 0.592453
Si Si2 0.919422 0.022305 0.690146
Si Si3 0.631292 0.385861 0.389454
Si Si4 0.568263 0.831238 0.676533
Si Si5 0.745475 0.723194 0.941493
Si Si6 0.275926 0.439599 0.737070
Si Si7 0.143410 0.123350 0.024985
Si Si8 0.717337 0.058015 0.259303
O O1 0.763225 0.552415 0.681461
O O2 0.796318 0.524361 0.412144
O O3 0.937010 0.159124 0.669298
O O4 0.089419 0.209440 0.617109
O O5 0.107285 0.724840 0.736669
O O6 0.815397 0.140945 0.522241
O O7 0.831165 0.041288 0.825915
O O8 0.500000 0.500000 0.500000
O O9 0.595564 0.588958 0.299702
O O10 0.640881 0.281983 0.283103
O O11 0.603879 0.874324 0.794303
O O12 0.430433 0.878135 0.716363
O O13 0.500000 0.000000 0.500000
O O14 0.935291 0.424148 0.959774
O O15 0.687758 0.716797 0.098677
O O16 0.772433 0.847390 0.928763
O O17 0.229024 0.991744 0.899372
#
# Coordination Sequence:
#
# PCOD9110142 Si02
#       8
#     2   2   2   2   2   2   2   2
#     4  11  22  46  72 104 140 179 241 288 347 423
#     4  10  20  41  70 103 135 178 234 283 351 415
#     4  11  22  40  67 106 140 177 235 289 349 422
#     4  12  30  46  67 105 141 184 238 297 347 421
#     4  10  24  47  67 100 143 180 241 285 349 423
#     4  10  20  41  74  97 135 187 221 291 353 405
#     4  10  24  43  73 100 135 195 230 288 352 413
#     4  12  24  43  72 102 139 186 233 284 358 413
#
# _framework density 22.831361999999999
#
# number of rings (size 3 to 8) (size 9 to 14) (size 15 to 20)
#    0.000    1.250    3.750    2.250    3.500    4.500 
#    0.000    1.875    0.000    0.000    0.000    0.000 
#    0.000    0.000    0.000    0.000    0.000    0.000 
#
# Total GULP energy -89448.579974 kJ/mol
# GULP energy per Si atom -5590.536248 kJ/mol
# Density = 2.277940 g / cm^3
# Si number density = 22.831362 Si / 1000 Ang^3
#
#
#
# Elastic Constant Matrix: (Units=GPa)
#
#
# Indices 1 2 3 4 5 6 
#
# 1 80.9001 7.6944 49.6052 -2.4341 29.2830 -33.8436
# 2 7.6944 95.0199 21.9024 20.5319 12.9237 -10.4028
# 3 49.6052 21.9024 138.4902 10.8629 12.4673 -14.2386
# 4 -2.4341 20.5319 10.8629 43.3183 3.2925 -3.1764
# 5 29.2830 12.9237 12.4673 3.2925 35.4291 12.4442
# 6 -33.8436 -10.4028 -14.2386 -3.1764 12.4442 23.3766
#
#
#
# Elastic Compliance Matrix: (Units=1/GPa)
#
#
# Indices 1 2 3 4 5 6 
#
# 1 -0.015304 -0.006733 -0.000221 -0.002961 0.030111 -0.041719
# 2 -0.006733 0.010827 -0.000175 -0.006518 0.005366 -0.008778
# 3 -0.000221 -0.000175 0.008681 -0.001142 -0.005369 0.007592
# 4 -0.002961 -0.006518 -0.001142 0.025342 0.005450 -0.007340
# 5 0.030111 0.005366 -0.005369 0.005450 -0.015373 0.051636
# 6 -0.041719 -0.008778 0.007592 -0.007340 0.051636 -0.045387
#
#
# Mechanical properties :
#
#
# Convention : Reuss Voigt Hill
#
# Bulk Modulus (GPa) = -99.46770 52.53493 -23.46638
# Shear Modulus (GPa) = -246.21914 36.10535 -105.05689
#
# Velocity S-wave (km/s) = -10.39599 3.98099 -6.79074
# Velocity P-wave (km/s) = 13.70266 6.64763 8.47266
#
# Compressibility (1/GPa) = -0.01005352
#
# Stress axis : x y z
#
# Youngs Moduli (GPa) = -65.34314 92.35962 115.19277
#
# Poissons Ratio (x) = 0.62183 0.02549
# Poissons Ratio (y) = -0.43994 0.02016
# Poissons Ratio (z) = -0.01446 0.01616
#
# Static dielectric constant tensor:
#      x y z
#    x 1.880210 -0.047190 0.000830 
#    y -0.047190 1.982150 -0.016000 
#    z 0.000830 -0.016000 1.823340 
# 
# From -- ./inp_files/307006.got.cif
#   From: 2010.05.17/outbox.cif.g08.bks.cpg/sg2_154_cif.got.tgz:307006.got - 2010.06.03 11:33:40.
