data_PCOD9110781
_publ_section_title
;
Structure prediction by ZEFSAII (Michael W. Deem and Ramdas Pophale) SiO2 
 PCOD9110781
Probable space group: P -1
;
_chemical_formula_sum "Si O2"
_cell_formula_units_Z 16
_cell_length_a 18.135377
_cell_length_b 9.904970
_cell_length_c 13.178997
_cell_angle_alpha 121.986952
_cell_angle_beta 33.450077
_cell_angle_gamma 145.161798
_cell_volume 648.747711
_symmetry_space_group_name_H-M "P -1"
_symmetry_group_IT_number 2
_symmetry_cell_setting 'triclinic'
loop_
_space_group_symop_operation_xyz
x,y,z
-x,-y,-z
loop_
_atom_site_type_symbol
_atom_site_label
_atom_site_fract_x
_atom_site_fract_y
_atom_site_fract_z
Si Si1 0.386140 0.788134 0.404390
Si Si2 0.769454 0.394365 0.821676
Si Si3 0.291226 0.913513 0.390060
Si Si4 0.678982 0.586602 0.124341
Si Si5 0.718959 0.596480 0.777988
Si Si6 0.111888 0.210395 0.833622
Si Si7 0.140710 0.719718 0.837042
Si Si8 0.795046 0.818837 0.486308
O O1 0.439057 0.979167 0.336204
O O2 0.302707 0.551044 0.347009
O O3 0.203245 0.670954 0.650295
O O4 0.620832 0.988660 0.274306
O O5 0.673032 0.142875 0.780316
O O6 0.721155 0.484200 0.829198
O O7 0.038705 0.621636 0.604141
O O8 0.694276 0.412421 0.016482
O O9 0.264561 0.074495 0.464493
O O10 0.697095 0.648238 0.247194
O O11 0.447199 0.431308 0.279541
O O12 0.909141 0.885517 0.935399
O O13 0.500000 0.500000 0.000000
O O14 0.966485 0.923892 0.627541
O O15 0.183962 0.295784 0.668612
O O16 0.000112 0.261687 0.024969
O O17 0.000000 0.500000 0.000000
#
# Coordination Sequence:
#
# PCOD9110781 Si02
#       8
#     2   2   2   2   2   2   2   2
#     4  10  23  42  66  92 129 172 207 269 325 375
#     4   9  18  37  62  90 127 167 205 260 323 373
#     4   9  18  37  64  92 129 164 207 263 319 378
#     4  11  23  39  66  98 125 174 212 268 325 368
#     4  10  20  42  66  91 132 170 208 267 330 383
#     4  11  24  43  63  93 136 166 213 272 325 375
#     4  11  26  45  66  93 125 171 221 260 318 395
#     4  11  23  39  65  99 128 166 220 265 314 393
#
# _framework density 24.662901000000002
#
# number of rings (size 3 to 8) (size 9 to 14) (size 15 to 20)
#    0.000    1.750    2.500    2.625    3.500    2.500 
#    4.500    0.625    0.000    0.000    0.000    0.000 
#    0.000    0.000    0.000    0.000    0.000    0.000 
#
# Total GULP energy -89429.317074 kJ/mol
# GULP energy per Si atom -5589.332317 kJ/mol
# Density = 2.460677 g / cm^3
# Si number density = 24.662901 Si / 1000 Ang^3
#
#
#
# Elastic Constant Matrix: (Units=GPa)
#
#
# Indices 1 2 3 4 5 6 
#
# 1 71.3939 23.8574 13.3775 7.3861 -15.5011 14.1694
# 2 23.8574 123.1937 66.5774 4.6658 -0.3035 25.9916
# 3 13.3775 66.5774 146.2857 17.8973 -6.8496 31.5627
# 4 7.3861 4.6658 17.8973 39.7013 12.1430 6.1072
# 5 -15.5011 -0.3035 -6.8496 12.1430 39.4851 4.4862
# 6 14.1694 25.9916 31.5627 6.1072 4.4862 38.9847
#
#
#
# Elastic Compliance Matrix: (Units=1/GPa)
#
#
# Indices 1 2 3 4 5 6 
#
# 1 0.019015 -0.003329 0.002580 -0.006501 0.010680 -0.006991
# 2 -0.003329 0.011938 -0.004961 0.002680 -0.002575 -0.002856
# 3 0.002580 -0.004961 0.011178 -0.005588 0.005362 -0.006422
# 4 -0.006501 0.002680 -0.005588 0.032546 -0.013689 0.001577
# 5 0.010680 -0.002575 0.005362 -0.013689 0.035600 -0.008458
# 6 -0.006991 -0.002856 -0.006422 0.001577 -0.008458 0.036022
#
#
# Mechanical properties :
#
#
# Convention : Reuss Voigt Hill
#
# Bulk Modulus (GPa) = 32.56179 60.94420 46.75300
# Shear Modulus (GPa) = 29.76973 39.43829 34.60401
#
# Velocity S-wave (km/s) = 3.47805 4.00321 3.74983
# Velocity P-wave (km/s) = 5.41854 6.79206 6.14380
#
# Compressibility (1/GPa) = 0.03071084
#
# Stress axis : x y z
#
# Youngs Moduli (GPa) = 52.59046 83.76773 89.46004
#
# Poissons Ratio (x) = 0.27889 -0.23082
# Poissons Ratio (y) = 0.17509 0.44380
# Poissons Ratio (z) = -0.13569 0.41556
#
# Static dielectric constant tensor:
#      x y z
#    x 1.952890 -0.039850 0.045440 
#    y -0.039850 1.959860 -0.027700 
#    z 0.045440 -0.027700 1.981540 
# 
# From -- ./inp_files/541117.got.cif
#   From: 2010.05.17/outbox.cif.g08.bks.cpg/sg2_271_cif.got.tgz:541117.got - 2010.06.03 11:33:40.
