data_PCOD9110200
_publ_section_title
;
Structure prediction by ZEFSAII (Michael W. Deem and Ramdas Pophale) SiO2 
 PCOD9110200
Probable space group: P -1
;
_chemical_formula_sum "Si O2"
_cell_formula_units_Z 16
_cell_length_a 18.994277
_cell_length_b 12.169764
_cell_length_c 8.171324
_cell_angle_alpha 65.882815
_cell_angle_beta 107.215633
_cell_angle_gamma 156.958305
_cell_volume 657.611889
_symmetry_space_group_name_H-M "P -1"
_symmetry_group_IT_number 2
_symmetry_cell_setting 'triclinic'
loop_
_space_group_symop_operation_xyz
x,y,z
-x,-y,-z
loop_
_atom_site_type_symbol
_atom_site_label
_atom_site_fract_x
_atom_site_fract_y
_atom_site_fract_z
Si Si1 0.722475 0.107386 0.795733
Si Si2 0.144863 0.120562 0.972202
Si Si3 0.948298 0.040042 0.335918
Si Si4 0.398053 0.040244 0.555684
Si Si5 0.486685 0.568349 0.107717
Si Si6 0.656697 0.265785 0.810740
Si Si7 0.266465 0.097116 0.499384
Si Si8 0.998324 0.653697 0.279334
O O1 0.597143 0.915632 0.660337
O O2 0.712233 0.224882 0.785237
O O3 0.918113 0.345887 0.731032
O O4 0.654454 0.910428 0.004726
O O5 0.180111 0.189900 0.763750
O O6 0.065554 0.867101 0.090123
O O7 0.311122 0.384722 0.050397
O O8 0.000000 0.000000 0.000000
O O9 0.148998 0.389583 0.203358
O O10 0.833434 0.969971 0.395212
O O11 0.000000 0.000000 0.500000
O O12 0.345925 0.082985 0.593641
O O13 0.219628 0.684796 0.653784
O O14 0.565819 0.221726 0.644151
O O15 0.431475 0.415224 0.324862
O O16 0.500000 0.500000 0.000000
O O17 0.500000 0.000000 0.000000
O O18 0.105513 0.838243 0.409657
#
# Coordination Sequence:
#
# PCOD9110200 Si02
#       8
#     2   2   2   2   2   2   2   2
#     4  11  23  42  73  97 140 174 229 278 340 410
#     4  11  25  42  69  95 133 180 228 276 340 414
#     4  12  27  46  67  98 141 184 226 281 343 405
#     4  11  22  42  70 101 132 176 230 275 337 409
#     4  11  21  44  72 104 130 177 228 285 335 406
#     4  12  29  45  65 103 142 180 224 288 344 394
#     4  10  22  42  69 101 137 172 227 281 345 399
#     4  10  20  41  70  98 129 181 222 274 342 412
#
# _framework density 24.330461
#
# number of rings (size 3 to 8) (size 9 to 14) (size 15 to 20)
#    0.000    1.000    3.750    5.625    7.000    1.000 
#    0.000    3.750    0.000    0.000    0.000    0.000 
#    0.000    0.000    0.000    0.000    0.000    0.000 
#
# Total GULP energy -89571.976553 kJ/mol
# GULP energy per Si atom -5598.248535 kJ/mol
# Density = 2.427508 g / cm^3
# Si number density = 24.330461 Si / 1000 Ang^3
#
#
#
# Elastic Constant Matrix: (Units=GPa)
#
#
# Indices 1 2 3 4 5 6 
#
# 1 135.3414 -0.2057 6.0200 15.5619 -4.1254 2.6506
# 2 -0.2057 77.4108 10.9884 -11.9932 -0.1467 8.8658
# 3 6.0200 10.9884 93.0601 -11.0179 1.3303 -5.9526
# 4 15.5619 -11.9932 -11.0179 32.9882 3.0811 -2.2596
# 5 -4.1254 -0.1467 1.3303 3.0811 36.4065 0.6258
# 6 2.6506 8.8658 -5.9526 -2.2596 0.6258 28.5282
#
#
#
# Elastic Compliance Matrix: (Units=1/GPa)
#
#
# Indices 1 2 3 4 5 6 
#
# 1 0.008020 -0.000374 -0.001107 -0.004500 0.001350 -0.001246
# 2 -0.000374 0.014331 -0.001391 0.004648 -0.000253 -0.004336
# 3 -0.001107 -0.001391 0.011712 0.004248 -0.000976 0.003337
# 4 -0.004500 0.004648 0.004248 0.036087 -0.003749 0.002800
# 5 0.001350 -0.000253 -0.000976 -0.003749 0.027992 -0.001162
# 6 -0.001246 -0.004336 0.003337 0.002800 -0.001162 0.037460
#
#
# Mechanical properties :
#
#
# Convention : Reuss Voigt Hill
#
# Bulk Modulus (GPa) = 35.31062 37.71308 36.51185
# Shear Modulus (GPa) = 33.15961 38.85188 36.00575
#
# Velocity S-wave (km/s) = 3.69573 4.00038 3.85107
# Velocity P-wave (km/s) = 5.72326 6.07219 5.90030
#
# Compressibility (1/GPa) = 0.02832009
#
# Stress axis : x y z
#
# Youngs Moduli (GPa) = 124.68209 69.77971 85.38318
#
# Poissons Ratio (x) = 0.02607 0.09448
# Poissons Ratio (y) = 0.04658 0.11880
# Poissons Ratio (z) = 0.13797 0.09709
#
# Static dielectric constant tensor:
#      x y z
#    x 1.878800 0.000400 -0.018830 
#    y 0.000400 1.921790 0.009320 
#    z -0.018830 0.009320 2.009870 
# 
# From -- ./inp_files/331751.got.cif
#   From: 2010.05.17/outbox.cif.g08.bks.cpg/sg2_166_cif.got.tgz:331751.got - 2010.06.03 11:33:40.
