data_PCOD9110054
_publ_section_title
;
Structure prediction by ZEFSAII (Michael W. Deem and Ramdas Pophale) SiO2 
 PCOD9110054
Probable space group: P -1
;
_chemical_formula_sum "Si O2"
_cell_formula_units_Z 16
_cell_length_a 17.856230
_cell_length_b 8.420864
_cell_length_c 7.975916
_cell_angle_alpha 129.669189
_cell_angle_beta 50.087519
_cell_angle_gamma 111.538099
_cell_volume 706.246894
_symmetry_space_group_name_H-M "P -1"
_symmetry_group_IT_number 2
_symmetry_cell_setting 'triclinic'
loop_
_space_group_symop_operation_xyz
x,y,z
-x,-y,-z
loop_
_atom_site_type_symbol
_atom_site_label
_atom_site_fract_x
_atom_site_fract_y
_atom_site_fract_z
Si Si1 0.512603 0.220123 0.054721
Si Si2 0.214027 0.290004 0.808797
Si Si3 0.470677 0.778806 0.341245
Si Si4 0.322271 0.501532 0.503830
Si Si5 0.164161 0.831495 0.494094
Si Si6 0.652188 0.508523 0.034807
Si Si7 0.119267 0.597535 0.719153
Si Si8 0.942154 0.359718 0.779237
O O1 0.404301 0.317049 0.242718
O O2 0.577600 0.377589 0.167230
O O3 0.563686 0.202645 0.788458
O O4 0.500000 0.000000 0.000000
O O5 0.269086 0.443009 0.709961
O O6 0.287974 0.297368 0.862152
O O7 0.198689 0.062420 0.613081
O O8 0.109974 0.419072 0.059705
O O9 0.383827 0.700522 0.526397
O O10 0.566963 0.618207 0.112124
O O11 0.500000 0.000000 0.500000
O O12 0.233424 0.521090 0.514870
O O13 0.109952 0.767121 0.699633
O O14 0.097280 0.801108 0.404894
O O15 0.257883 0.664864 0.234969
O O16 0.055791 0.403161 0.641278
O O17 0.086540 0.674303 0.006437
#
# Coordination Sequence:
#
# PCOD9110054 Si02
#       8
#     2   2   2   2   2   2   2   2
#     4  11  23  39  62  90 125 165 213 261 315 380
#     4  10  23  40  66  97 127 167 213 265 319 382
#     4  11  25  39  62  91 127 164 214 258 317 382
#     4  10  22  40  61  87 128 167 207 258 318 375
#     4  11  21  41  69  95 129 173 215 261 327 378
#     4  10  23  40  62  91 131 162 212 265 310 382
#     4  10  20  41  69  89 134 173 210 268 324 376
#     4   9  22  43  62  99 132 166 216 270 314 385
#
# _framework density 22.654966999999999
#
# number of rings (size 3 to 8) (size 9 to 14) (size 15 to 20)
#    0.000    1.750    0.000    4.125    7.000    1.500 
#    2.250   11.875    0.000    0.000    0.000    0.000 
#    0.000    0.000    0.000    0.000    0.000    0.000 
#
# Total GULP energy -89163.771322 kJ/mol
# GULP energy per Si atom -5572.735708 kJ/mol
# Density = 2.260340 g / cm^3
# Si number density = 22.654967 Si / 1000 Ang^3
#
#
#
# Elastic Constant Matrix: (Units=GPa)
#
#
# Indices 1 2 3 4 5 6 
#
# 1 102.8864 53.2810 19.4064 3.0547 14.0093 34.8797
# 2 53.2810 161.7992 40.9694 14.0783 6.2759 24.2918
# 3 19.4064 40.9694 28.4689 10.6585 2.2841 16.0273
# 4 3.0547 14.0783 10.6585 37.6973 7.8774 8.7492
# 5 14.0093 6.2759 2.2841 7.8774 27.7086 -3.8360
# 6 34.8797 24.2918 16.0273 8.7492 -3.8360 35.9936
#
#
#
# Elastic Compliance Matrix: (Units=1/GPa)
#
#
# Indices 1 2 3 4 5 6 
#
# 1 0.020483 -0.004279 0.002784 0.007204 -0.014643 -0.021513
# 2 -0.004279 0.010676 -0.014377 -0.000786 0.001668 0.003712
# 3 0.002784 -0.014377 0.070253 -0.008469 -0.004680 -0.022718
# 4 0.007204 -0.000786 -0.008469 0.034553 -0.014334 -0.012606
# 5 -0.014643 0.001668 -0.004680 -0.014334 0.050907 0.024058
# 6 -0.021513 0.003712 -0.022718 -0.012606 0.024058 0.061869
#
#
# Mechanical properties :
#
#
# Convention : Reuss Voigt Hill
#
# Bulk Modulus (GPa) = 14.35339 57.82979 36.09159
# Shear Modulus (GPa) = 16.46317 32.24642 24.35479
#
# Velocity S-wave (km/s) = 2.69865 3.77685 3.28232
# Velocity P-wave (km/s) = 4.00745 6.67841 5.50731
#
# Compressibility (1/GPa) = 0.06966996
#
# Stress axis : x y z
#
# Youngs Moduli (GPa) = 48.81987 93.66468 14.23423
#
# Poissons Ratio (x) = 0.40081 -0.03963
# Poissons Ratio (y) = 0.20891 0.20464
# Poissons Ratio (z) = -0.13593 1.34657
#
# Static dielectric constant tensor:
#      x y z
#    x 2.311590 0.131970 0.257790 
#    y 0.131970 1.888010 0.024570 
#    z 0.257790 0.024570 2.017540 
# 
# From -- ./inp_files/329529.got.cif
#   From: 2010.05.17/outbox.cif.g08.bks.cpg/sg2_165_cif.got.tgz:329529.got - 2010.06.03 11:33:40.
