data_PCOD9110762
_publ_section_title
;
Structure prediction by ZEFSAII (Michael W. Deem and Ramdas Pophale) SiO2 
 PCOD9110762
Probable space group: P -1
;
_chemical_formula_sum "Si O2"
_cell_formula_units_Z 14
_cell_length_a 11.162710
_cell_length_b 13.304852
_cell_length_c 8.771491
_cell_angle_alpha 102.813583
_cell_angle_beta 115.984041
_cell_angle_gamma 32.665259
_cell_volume 602.317464
_symmetry_space_group_name_H-M "P -1"
_symmetry_group_IT_number 2
_symmetry_cell_setting 'triclinic'
loop_
_space_group_symop_operation_xyz
x,y,z
-x,-y,-z
loop_
_atom_site_type_symbol
_atom_site_label
_atom_site_fract_x
_atom_site_fract_y
_atom_site_fract_z
Si Si1 0.739042 0.357520 0.196170
Si Si2 0.425503 0.076573 0.232420
Si Si3 0.244061 0.273841 0.519632
Si Si4 0.927375 0.883899 0.979654
Si Si5 0.417284 0.491543 0.303755
Si Si6 0.464872 0.295845 0.827467
Si Si7 0.720953 0.638513 0.919144
O O1 0.670469 0.329043 0.285878
O O2 0.686616 0.509878 0.263282
O O3 0.978350 0.188230 0.166671
O O4 0.500000 0.500000 0.000000
O O5 0.278772 0.214471 0.347611
O O6 0.253083 0.096492 0.079115
O O7 0.453969 0.151429 0.157690
O O8 0.692195 0.860103 0.372827
O O9 0.460804 0.212051 0.666910
O O10 0.000000 0.500000 0.500000
O O11 0.759313 0.097951 0.974251
O O12 0.178953 0.707173 0.163235
O O13 0.500000 0.500000 0.500000
O O14 0.331497 0.428595 0.234003
O O15 0.321860 0.362717 0.928336
O O16 0.000000 0.500000 0.000000
#
# Coordination Sequence:
#
# PCOD9110762 Si02
#       7
#     2   2   2   2   2   2   2
#     4  10  20  42  66  89 130 175 220 276 326 403
#     4  10  22  40  62  99 137 169 222 275 337 399
#     4  10  21  38  63  96 130 170 223 274 331 395
#     4  10  21  44  69  95 132 176 225 279 333 401
#     4  11  25  44  68 100 137 179 227 276 341 397
#     4  11  23  40  70 100 128 181 230 267 346 400
#     4  12  22  44  70  98 144 178 221 285 339 401
#
# _framework density 23.243556000000002
#
# number of rings (size 3 to 8) (size 9 to 14) (size 15 to 20)
#    0.000    1.429    4.286    1.714    2.000    4.571 
#    5.143    3.571    3.143    0.000    0.000    0.000 
#    0.000    0.000    0.000    0.000    0.000    0.000 
#
# Total GULP energy -78116.202218 kJ/mol
# GULP energy per Si atom -5579.728730 kJ/mol
# Density = 2.319065 g / cm^3
# Si number density = 23.243556 Si / 1000 Ang^3
#
#
#
# Elastic Constant Matrix: (Units=GPa)
#
#
# Indices 1 2 3 4 5 6 
#
# 1 103.0097 30.3993 27.2933 3.0771 9.5442 1.8092
# 2 30.3993 140.0040 25.2285 -17.0689 4.1107 -4.3826
# 3 27.2933 25.2285 95.9463 9.3981 16.2498 -3.4535
# 4 3.0771 -17.0689 9.3981 38.1064 11.3192 -0.7730
# 5 9.5442 4.1107 16.2498 11.3192 18.2493 0.3001
# 6 1.8092 -4.3826 -3.4535 -0.7730 0.3001 25.5702
#
#
#
# Elastic Compliance Matrix: (Units=1/GPa)
#
#
# Indices 1 2 3 4 5 6 
#
# 1 0.011210 -0.002044 -0.002112 -0.000355 -0.003279 -0.001401
# 2 -0.002044 0.008668 -0.001706 0.005295 -0.002675 0.001591
# 3 -0.002112 -0.001706 0.013284 -0.000925 -0.009794 0.001738
# 4 -0.000355 0.005295 -0.000925 0.035525 -0.022253 0.002143
# 5 -0.003279 -0.002675 -0.009794 -0.022253 0.079690 -0.003157
# 6 -0.001401 0.001591 0.001738 0.002143 -0.003157 0.039817
#
#
# Mechanical properties :
#
#
# Convention : Reuss Voigt Hill
#
# Bulk Modulus (GPa) = 46.64726 56.08912 51.36819
# Shear Modulus (GPa) = 24.14741 33.45443 28.80092
#
# Velocity S-wave (km/s) = 3.22667 3.79793 3.52389
# Velocity P-wave (km/s) = 5.83047 6.58906 6.22134
#
# Compressibility (1/GPa) = 0.02143749
#
# Stress axis : x y z
#
# Youngs Moduli (GPa) = 89.20944 115.36853 75.27987
#
# Poissons Ratio (x) = 0.23584 0.15896
# Poissons Ratio (y) = 0.18237 0.12843
# Poissons Ratio (z) = 0.18837 0.19682
#
# Static dielectric constant tensor:
#      x y z
#    x 1.699990 0.004120 0.010460 
#    y 0.004120 1.931700 -0.042930 
#    z 0.010460 -0.042930 1.937340 
# 
# From -- ./inp_files/273438.got.cif
#   From: 2010.05.17/outbox.cif.g08.bks.cpg/sg2_137_cif.got.tgz:273438.got - 2010.06.03 11:33:40.
