data_PCOD9110290
_publ_section_title
;
Structure prediction by ZEFSAII (Michael W. Deem and Ramdas Pophale) SiO2 
 PCOD9110290
Probable space group: P -1
;
_chemical_formula_sum "Si O2"
_cell_formula_units_Z 14
_cell_length_a 7.846257
_cell_length_b 14.768284
_cell_length_c 9.919860
_cell_angle_alpha 126.271037
_cell_angle_beta 135.692665
_cell_angle_gamma 70.178652
_cell_volume 640.043081
_symmetry_space_group_name_H-M "P -1"
_symmetry_group_IT_number 2
_symmetry_cell_setting 'triclinic'
loop_
_space_group_symop_operation_xyz
x,y,z
-x,-y,-z
loop_
_atom_site_type_symbol
_atom_site_label
_atom_site_fract_x
_atom_site_fract_y
_atom_site_fract_z
Si Si1 0.598429 0.178105 0.404324
Si Si2 0.779392 0.516435 0.122155
Si Si3 0.812722 0.306941 0.390752
Si Si4 0.699072 0.714876 0.058187
Si Si5 0.864655 0.264484 0.886458
Si Si6 0.967956 0.917188 0.035178
Si Si7 0.975193 0.892295 0.561036
O O1 0.693235 0.286085 0.456097
O O2 0.645315 0.213176 0.616037
O O3 0.322845 0.128514 0.168249
O O4 0.786047 0.091887 0.388840
O O5 0.777410 0.603229 0.072902
O O6 0.981983 0.583160 0.396414
O O7 0.500000 0.500000 0.000000
O O8 0.846334 0.394070 0.019355
O O9 0.947678 0.195513 0.359579
O O10 0.583818 0.306428 0.163248
O O11 0.884182 0.741775 0.061228
O O12 0.759452 0.818962 0.289255
O O13 0.884229 0.189073 0.963473
O O14 0.056869 0.993467 0.283484
O O15 0.000000 0.000000 0.000000
#
# Coordination Sequence:
#
# PCOD9110290 Si02
#       7
#     2   2   2   2   2   2   2
#     4   9  21  40  66  98 124 170 217 261 320 384
#     4  11  25  41  63  99 136 169 209 270 331 382
#     4   9  20  40  69  97 124 169 214 262 320 384
#     4  10  20  41  72  95 125 170 218 266 318 384
#     4  11  23  43  65  95 131 171 221 264 322 383
#     4  12  25  40  64  98 133 171 214 268 321 380
#     4   8  20  39  62  95 129 165 215 256 319 382
#
# _framework density 21.873525999999998
#
# number of rings (size 3 to 8) (size 9 to 14) (size 15 to 20)
#    0.857    1.143    2.857    0.857    0.000    9.714 
#    0.000    0.000    0.000    0.000    0.000    0.000 
#    0.000    0.000    0.000    0.000    0.000    0.000 
#
# Total GULP energy -78154.489155 kJ/mol
# GULP energy per Si atom -5582.463511 kJ/mol
# Density = 2.182374 g / cm^3
# Si number density = 21.873526 Si / 1000 Ang^3
#
#
#
# Elastic Constant Matrix: (Units=GPa)
#
#
# Indices 1 2 3 4 5 6 
#
# 1 41.9157 24.3004 43.5443 7.1262 11.5831 5.5127
# 2 24.3004 94.4002 74.4753 3.3696 6.6513 14.4065
# 3 43.5443 74.4753 152.7197 -13.3072 19.6923 -9.5614
# 4 7.1262 3.3696 -13.3072 34.5905 -1.9894 -1.3324
# 5 11.5831 6.6513 19.6923 -1.9894 10.1637 -0.8642
# 6 5.5127 14.4065 -9.5614 -1.3324 -0.8642 24.2701
#
#
#
# Elastic Compliance Matrix: (Units=1/GPa)
#
#
# Indices 1 2 3 4 5 6 
#
# 1 0.058126 0.008070 -0.018930 -0.023538 -0.041854 -0.028233
# 2 0.008070 0.027892 -0.019340 -0.012535 0.005314 -0.026507
# 3 -0.018930 -0.019340 0.025763 0.016122 -0.010282 0.026448
# 4 -0.023538 -0.012535 0.016122 0.042837 0.014045 0.021990
# 5 -0.041854 0.005314 -0.010282 0.014045 0.166045 0.008985
# 6 -0.028233 -0.026507 0.026448 0.021990 0.008985 0.075297
#
#
# Mechanical properties :
#
#
# Convention : Reuss Voigt Hill
#
# Bulk Modulus (GPa) = 19.46265 63.74173 41.60219
# Shear Modulus (GPa) = 10.55999 23.58591 17.07295
#
# Velocity S-wave (km/s) = 2.19960 3.28729 2.79683
# Velocity P-wave (km/s) = 3.92022 6.60399 5.43050
#
# Compressibility (1/GPa) = 0.05138046
#
# Stress axis : x y z
#
# Youngs Moduli (GPa) = 17.20413 35.85280 38.81539
#
# Poissons Ratio (x) = -0.28932 0.73478
# Poissons Ratio (y) = -0.13883 0.75067
# Poissons Ratio (z) = 0.32567 0.69338
#
# Static dielectric constant tensor:
#      x y z
#    x 1.844950 0.055710 -0.012790 
#    y 0.055710 1.836900 -0.014110 
#    z -0.012790 -0.014110 1.762920 
# 
# From -- ./inp_files/394656.got.cif
#   From: 2010.05.17/outbox.cif.g08.bks.cpg/sg2_198_cif.got.tgz:394656.got - 2010.06.03 11:33:40.
