data_PCOD9110587
_publ_section_title
;
Structure prediction by ZEFSAII (Michael W. Deem and Ramdas Pophale) SiO2 
 PCOD9110587
Probable space group: P -1
;
_chemical_formula_sum "Si O2"
_cell_formula_units_Z 14
_cell_length_a 18.985502
_cell_length_b 13.102795
_cell_length_c 9.792860
_cell_angle_alpha 130.839284
_cell_angle_beta 145.820222
_cell_angle_gamma 30.453517
_cell_volume 678.488563
_symmetry_space_group_name_H-M "P -1"
_symmetry_group_IT_number 2
_symmetry_cell_setting 'triclinic'
loop_
_space_group_symop_operation_xyz
x,y,z
-x,-y,-z
loop_
_atom_site_type_symbol
_atom_site_label
_atom_site_fract_x
_atom_site_fract_y
_atom_site_fract_z
Si Si1 0.081375 0.271118 0.089802
Si Si2 0.432474 0.630721 0.139830
Si Si3 0.838585 0.737660 0.086761
Si Si4 0.586914 0.338636 0.380360
Si Si5 0.004150 0.043418 0.886016
Si Si6 0.552898 0.085885 0.481112
Si Si7 0.369460 0.975563 0.755988
O O1 0.082750 0.246658 0.906131
O O2 0.295783 0.112963 0.354390
O O3 0.966095 0.503789 0.123230
O O4 0.002567 0.205585 0.989316
O O5 0.523768 0.464013 0.255289
O O6 0.495918 0.733401 0.363972
O O7 0.500000 0.500000 0.000000
O O8 0.202616 0.826885 0.954124
O O9 0.636107 0.842070 0.798909
O O10 0.803660 0.852572 0.267563
O O11 0.500000 0.500000 0.500000
O O12 0.514277 0.245890 0.193781
O O13 0.813128 0.144292 0.597517
O O14 0.000000 0.000000 0.000000
O O15 0.658723 0.028871 0.454509
O O16 0.500000 0.000000 0.000000
#
# Coordination Sequence:
#
# PCOD9110587 Si02
#       7
#     2   2   2   2   2   2   2
#     4  10  22  39  65  92 129 168 212 272 324 385
#     4  11  25  42  66 100 131 169 224 274 330 388
#     4  10  22  41  63  94 132 168 211 265 333 387
#     4  12  22  43  71  92 132 180 213 278 334 380
#     4  11  23  42  70  98 126 173 229 272 327 402
#     4  10  20  42  64  90 130 170 214 265 323 391
#     4  10  23  40  66  97 127 170 221 263 322 402
#
# _framework density 20.634097000000001
#
# number of rings (size 3 to 8) (size 9 to 14) (size 15 to 20)
#    0.000    1.429    2.857    2.143    6.000    1.143 
#    5.143    0.000    0.000    0.000    0.000    0.000 
#    0.000    0.000    0.000    0.000    0.000    0.000 
#
# Total GULP energy -78120.365769 kJ/mol
# GULP energy per Si atom -5580.026126 kJ/mol
# Density = 2.058713 g / cm^3
# Si number density = 20.634097 Si / 1000 Ang^3
#
#
#
# Elastic Constant Matrix: (Units=GPa)
#
#
# Indices 1 2 3 4 5 6 
#
# 1 100.3760 51.3410 22.6390 11.2552 -29.4982 10.8473
# 2 51.3410 123.5194 42.6441 4.2560 -19.1891 14.6125
# 3 22.6390 42.6441 64.4517 3.6825 -7.9899 10.6972
# 4 11.2552 4.2560 3.6825 40.5391 -3.0926 -16.0070
# 5 -29.4982 -19.1891 -7.9899 -3.0926 47.8069 5.6858
# 6 10.8473 14.6125 10.6972 -16.0070 5.6858 39.6541
#
#
#
# Elastic Compliance Matrix: (Units=1/GPa)
#
#
# Indices 1 2 3 4 5 6 
#
# 1 0.016067 -0.004283 -0.000383 -0.005806 0.008502 -0.006276
# 2 -0.004283 0.012528 -0.006225 -0.000270 0.001578 -0.002101
# 3 -0.000383 -0.006225 0.020816 -0.002831 0.001098 -0.004517
# 4 -0.005806 -0.000270 -0.002831 0.032660 -0.003979 0.016206
# 5 0.008502 0.001578 0.001098 -0.003979 0.027768 -0.008791
# 6 -0.006276 -0.002101 -0.004517 0.016206 -0.008791 0.036730
#
#
# Mechanical properties :
#
#
# Convention : Reuss Voigt Hill
#
# Bulk Modulus (GPa) = 36.19161 57.95505 47.07333
# Shear Modulus (GPa) = 28.15913 37.04822 32.60368
#
# Velocity S-wave (km/s) = 3.69818 4.24191 3.97934
# Velocity P-wave (km/s) = 5.98441 7.22079 6.63148
#
# Compressibility (1/GPa) = 0.02763071
#
# Stress axis : x y z
#
# Youngs Moduli (GPa) = 62.23820 79.81934 48.03923
#
# Poissons Ratio (x) = 0.34186 0.01838
# Poissons Ratio (y) = 0.26656 0.29905
# Poissons Ratio (z) = 0.02381 0.49688
#
# Static dielectric constant tensor:
#      x y z
#    x 1.843100 -0.047370 0.001230 
#    y -0.047370 1.728270 0.058580 
#    z 0.001230 0.058580 1.809780 
# 
# From -- ./inp_files/333837.got.cif
#   From: 2010.05.17/outbox.cif.g08.bks.cpg/sg2_167_cif.got.tgz:333837.got - 2010.06.03 11:33:40.
