data_PCOD9110668
_publ_section_title
;
Structure prediction by ZEFSAII (Michael W. Deem and Ramdas Pophale) SiO2 
 PCOD9110668
Probable space group: P -1
;
_chemical_formula_sum "Si O2"
_cell_formula_units_Z 15
_cell_length_a 20.499792
_cell_length_b 5.680955
_cell_length_c 11.756812
_cell_angle_alpha 115.741395
_cell_angle_beta 150.152039
_cell_angle_gamma 66.077107
_cell_volume 612.548389
_symmetry_space_group_name_H-M "P -1"
_symmetry_group_IT_number 2
_symmetry_cell_setting 'triclinic'
loop_
_space_group_symop_operation_xyz
x,y,z
-x,-y,-z
loop_
_atom_site_type_symbol
_atom_site_label
_atom_site_fract_x
_atom_site_fract_y
_atom_site_fract_z
Si Si1 0.000000 0.500000 0.000000
Si Si2 0.859443 0.883547 0.730263
Si Si3 0.307952 0.727120 0.298077
Si Si4 0.737742 0.821299 0.098671
Si Si5 0.855097 0.618800 0.444175
Si Si6 0.588966 0.341367 0.010499
Si Si7 0.530251 0.372151 0.674044
Si Si8 0.094220 0.339321 0.863832
O O1 0.124003 0.399478 0.246637
O O2 0.934447 0.669927 0.047538
O O3 0.857783 0.855627 0.587611
O O4 0.740859 0.057410 0.639380
O O5 0.000000 0.000000 0.000000
O O6 0.395396 0.497680 0.445556
O O7 0.396280 0.821779 0.347630
O O8 0.174816 0.603569 0.029267
O O9 0.856087 0.716905 0.337861
O O10 0.808939 0.877515 0.097839
O O11 0.655391 0.059198 0.083848
O O12 0.631555 0.606868 0.873233
O O13 0.712600 0.511276 0.214449
O O14 0.962183 0.401387 0.605720
O O15 0.500000 0.500000 0.000000
O O16 0.522054 0.297982 0.777481
#
# Coordination Sequence:
#
# PCOD9110668 Si02
#       8
#     1   2   2   2   2   2   2   2
#     4  10  22  36  56  98 126 152 200 242 304 374
#     4  11  22  39  63  92 125 162 193 253 317 356
#     4  10  20  42  65  88 126 160 198 257 307 359
#     4  10  23  43  65  86 125 167 202 253 302 355
#     4  10  23  41  63  93 121 161 207 247 304 369
#     4  11  26  42  60  91 123 164 211 250 293 363
#     4   9  23  42  63  91 118 162 210 247 302 364
#     4  10  21  42  64  96 123 155 205 253 311 367
#
# _framework density 24.487862
#
# number of rings (size 3 to 8) (size 9 to 14) (size 15 to 20)
#    0.000    1.867    2.667    0.400    5.600    5.867 
#    0.000    2.000    0.000    0.000    0.000    0.000 
#    0.000    0.000    0.000    0.000    0.000    0.000 
#
# Total GULP energy -83538.640118 kJ/mol
# GULP energy per Si atom -5569.242675 kJ/mol
# Density = 2.443213 g / cm^3
# Si number density = 24.487862 Si / 1000 Ang^3
#
#
#
# Elastic Constant Matrix: (Units=GPa)
#
#
# Indices 1 2 3 4 5 6 
#
# 1 108.5535 16.0376 28.0625 -6.5356 -0.5436 -28.3620
# 2 16.0376 32.8429 -5.3805 -6.9708 8.6197 -23.3294
# 3 28.0625 -5.3805 96.6439 -12.1747 -14.3434 1.5774
# 4 -6.5356 -6.9708 -12.1747 34.9208 0.1142 -2.2252
# 5 -0.5436 8.6197 -14.3434 0.1142 29.8470 -8.4375
# 6 -28.3620 -23.3294 1.5774 -2.2252 -8.4375 40.4489
#
#
#
# Elastic Compliance Matrix: (Units=1/GPa)
#
#
# Indices 1 2 3 4 5 6 
#
# 1 0.012655 -0.000075 -0.003428 0.001748 0.001232 0.009317
# 2 -0.000075 0.060255 0.003900 0.015570 -0.005929 0.034168
# 3 -0.003428 0.003900 0.012906 0.004663 0.005188 0.000682
# 4 0.001748 0.015570 0.004663 0.034468 0.001078 0.012145
# 5 0.001232 -0.005929 0.005188 0.001078 0.039282 0.005495
# 6 0.009317 0.034168 0.000682 0.012145 0.005495 0.052750
#
#
# Mechanical properties :
#
#
# Convention : Reuss Voigt Hill
#
# Bulk Modulus (GPa) = 11.54597 35.05328 23.29962
# Shear Modulus (GPa) = 20.79941 34.33137 27.56539
#
# Velocity S-wave (km/s) = 2.91757 3.74836 3.35875
# Velocity P-wave (km/s) = 4.00934 5.75145 4.95752
#
# Compressibility (1/GPa) = 0.08661032
#
# Stress axis : x y z
#
# Youngs Moduli (GPa) = 79.02038 16.59606 77.48302
#
# Poissons Ratio (x) = 0.00125 0.26560
# Poissons Ratio (y) = 0.00597 -0.30221
# Poissons Ratio (z) = 0.27087 -0.06473
#
# Static dielectric constant tensor:
#      x y z
#    x 1.999270 0.040460 -0.033490 
#    y 0.040460 2.051750 0.057250 
#    z -0.033490 0.057250 1.934600 
# 
# From -- ./inp_files/431133.got.cif
#   From: 2010.05.17/outbox.cif.g08.bks.cpg/sg2_216_cif.got.tgz:431133.got - 2010.06.03 11:33:40.
