data_PCOD9110490
_publ_section_title
;
Structure prediction by ZEFSAII (Michael W. Deem and Ramdas Pophale) SiO2 
 PCOD9110490
Probable space group: P -1
;
_chemical_formula_sum "Si O2"
_cell_formula_units_Z 14
_cell_length_a 12.003166
_cell_length_b 12.229647
_cell_length_c 15.481297
_cell_angle_alpha 28.616959
_cell_angle_beta 36.290662
_cell_angle_gamma 47.907528
_cell_volume 638.653485
_symmetry_space_group_name_H-M "P -1"
_symmetry_group_IT_number 2
_symmetry_cell_setting 'triclinic'
loop_
_space_group_symop_operation_xyz
x,y,z
-x,-y,-z
loop_
_atom_site_type_symbol
_atom_site_label
_atom_site_fract_x
_atom_site_fract_y
_atom_site_fract_z
Si Si1 0.113075 0.737401 0.547545
Si Si2 0.684789 0.388285 0.800779
Si Si3 0.280681 0.120980 0.302280
Si Si4 0.707814 0.065498 0.865760
Si Si5 0.212497 0.859900 0.942156
Si Si6 0.430530 0.172042 0.356474
Si Si7 0.817720 0.780745 0.158964
O O1 0.151180 0.898452 0.327572
O O2 0.188149 0.493466 0.654517
O O3 0.888914 0.724996 0.714178
O O4 0.223732 0.880608 0.455973
O O5 0.722348 0.310073 0.736095
O O6 0.668492 0.647307 0.653081
O O7 0.478759 0.246197 0.053388
O O8 0.836753 0.301269 0.831737
O O9 0.302971 0.082323 0.417259
O O10 0.500000 0.000000 0.000000
O O11 0.750065 0.887881 0.037926
O O12 0.372236 0.738882 0.877519
O O13 0.281031 0.106529 0.775036
O O14 0.038068 0.871062 0.980407
O O15 0.500000 0.000000 0.500000
#
# Coordination Sequence:
#
# PCOD9110490 Si02
#       7
#     2   2   2   2   2   2   2
#     4  11  23  41  67  88 125 163 204 251 301 367
#     4  10  20  42  63  83 128 161 197 256 303 355
#     4  10  22  43  60  89 123 165 201 246 310 356
#     4  11  24  41  62  94 123 161 203 250 307 365
#     4   9  20  41  59  88 122 162 197 250 309 351
#     4  11  23  35  62  92 120 158 207 245 300 368
#     4  10  22  40  65  89 124 159 203 253 305 361
#
# _framework density 21.921122
#
# number of rings (size 3 to 8) (size 9 to 14) (size 15 to 20)
#    0.000    1.714    1.429    3.429    4.000    1.714 
#    0.000    4.286    0.000    0.000    0.000    0.000 
#    0.000    0.000    0.000    0.000    0.000    0.000 
#
# Total GULP energy -78139.806593 kJ/mol
# GULP energy per Si atom -5581.414757 kJ/mol
# Density = 2.187123 g / cm^3
# Si number density = 21.921122 Si / 1000 Ang^3
#
#
#
# Elastic Constant Matrix: (Units=GPa)
#
#
# Indices 1 2 3 4 5 6 
#
# 1 161.7685 29.9655 30.0788 -17.4209 7.7549 11.2181
# 2 29.9655 87.5448 6.0225 -28.0003 1.3187 9.7450
# 3 30.0788 6.0225 30.5994 -13.1140 -0.4072 4.6616
# 4 -17.4209 -28.0003 -13.1140 37.2941 -8.8703 -5.2614
# 5 7.7549 1.3187 -0.4072 -8.8703 19.6595 0.4647
# 6 11.2181 9.7450 4.6616 -5.2614 0.4647 42.3691
#
#
#
# Elastic Compliance Matrix: (Units=1/GPa)
#
#
# Indices 1 2 3 4 5 6 
#
# 1 0.008315 -0.002879 -0.008586 -0.002452 -0.004351 -0.000851
# 2 -0.002879 0.016856 0.006289 0.014875 0.006895 -0.002035
# 3 -0.008586 0.006289 0.049383 0.020986 0.013507 -0.002149
# 4 -0.002452 0.014875 0.020986 0.049768 0.022839 0.000849
# 5 -0.004351 0.006895 0.013507 0.022839 0.062699 0.000228
# 6 -0.000851 -0.002035 -0.002149 0.000849 0.000228 0.024635
#
#
# Mechanical properties :
#
#
# Convention : Reuss Voigt Hill
#
# Bulk Modulus (GPa) = 15.57563 45.78294 30.67928
# Shear Modulus (GPa) = 20.54163 34.12094 27.33129
#
# Velocity S-wave (km/s) = 3.06448 3.94957 3.53484
# Velocity P-wave (km/s) = 4.43194 6.45984 5.53948
#
# Compressibility (1/GPa) = 0.06420287
#
# Stress axis : x y z
#
# Youngs Moduli (GPa) = 120.26419 59.32665 20.24979
#
# Poissons Ratio (x) = 0.17082 0.17386
# Poissons Ratio (y) = 0.34628 -0.12736
# Poissons Ratio (z) = 1.03256 -0.37313
#
# Static dielectric constant tensor:
#      x y z
#    x 1.827330 0.008420 0.013090 
#    y 0.008420 1.888040 0.047520 
#    z 0.013090 0.047520 1.877010 
# 
# From -- ./inp_files/189593.got.cif
#   From: 2010.05.17/outbox.cif.g08.bks.cpg/sg2_95_cif.got.tgz:189593.got - 2010.06.03 11:33:40.
