data_PCOD9110834
_publ_section_title
;
Structure prediction by ZEFSAII (Michael W. Deem and Ramdas Pophale) SiO2 
 PCOD9110834
Probable space group: P -1
;
_chemical_formula_sum "Si O2"
_cell_formula_units_Z 16
_cell_length_a 17.222950
_cell_length_b 8.712313
_cell_length_c 10.907835
_cell_angle_alpha 126.885086
_cell_angle_beta 113.479650
_cell_angle_gamma 34.723436
_cell_volume 729.346299
_symmetry_space_group_name_H-M "P -1"
_symmetry_group_IT_number 2
_symmetry_cell_setting 'triclinic'
loop_
_space_group_symop_operation_xyz
x,y,z
-x,-y,-z
loop_
_atom_site_type_symbol
_atom_site_label
_atom_site_fract_x
_atom_site_fract_y
_atom_site_fract_z
Si Si1 0.740014 0.701774 0.739755
Si Si2 0.720875 0.091965 0.721304
Si Si3 0.704536 0.434176 0.403729
Si Si4 0.032999 0.318847 0.810466
Si Si5 0.723385 0.592104 0.236947
Si Si6 0.564582 0.218398 0.483010
Si Si7 0.469955 0.356105 0.984232
Si Si8 0.019184 0.593914 0.684516
O O1 0.728990 0.515647 0.579683
O O2 0.893486 0.443035 0.767882
O O3 0.726749 0.896958 0.722708
O O4 0.610558 0.979659 0.881629
O O5 0.704317 0.039012 0.550168
O O6 0.587353 0.466844 0.838104
O O7 0.861073 0.954887 0.766895
O O8 0.703540 0.582436 0.362583
O O9 0.549772 0.630704 0.415386
O O10 0.825614 0.061221 0.275916
O O11 0.044108 0.419986 0.738873
O O12 0.000000 0.500000 0.000000
O O13 0.663587 0.511002 0.095205
O O14 0.874241 0.419782 0.243555
O O15 0.611272 0.956006 0.305950
O O16 0.500000 0.500000 0.500000
O O17 0.500000 0.500000 0.000000
O O18 0.000000 0.500000 0.500000
#
# Coordination Sequence:
#
# PCOD9110834 Si02
#       8
#     2   2   2   2   2   2   2   2
#     4  10  20  42  66  95 132 179 234 278 344 424
#     4  10  22  41  66  96 135 182 223 286 355 403
#     4  12  23  41  71  96 137 181 241 289 340 434
#     4  11  27  44  67 105 142 182 230 300 358 405
#     4  12  23  43  71 105 130 186 240 283 353 426
#     4  12  24  42  69 103 136 177 235 296 350 418
#     4  10  22  39  67  97 135 172 231 291 347 407
#     4  11  23  46  72  97 146 186 236 285 350 439
#
# _framework density 21.937453000000001
#
# number of rings (size 3 to 8) (size 9 to 14) (size 15 to 20)
#    0.000    1.000    3.750    3.750    7.000    0.500 
#    0.000    0.625    0.000    0.000    0.000    0.000 
#    0.000    0.000    0.000    0.000    0.000    0.000 
#
# Total GULP energy -89219.248614 kJ/mol
# GULP energy per Si atom -5576.203038 kJ/mol
# Density = 2.188752 g / cm^3
# Si number density = 21.937453 Si / 1000 Ang^3
#
#
#
# Elastic Constant Matrix: (Units=GPa)
#
#
# Indices 1 2 3 4 5 6 
#
# 1 109.9893 31.3018 20.4705 -3.4938 15.3417 -31.4064
# 2 31.3018 69.4347 8.6569 5.4368 12.9212 -22.1426
# 3 20.4705 8.6569 100.0664 6.2043 16.8260 -14.2262
# 4 -3.4938 5.4368 6.2043 35.0162 -8.2579 -0.0970
# 5 15.3417 12.9212 16.8260 -8.2579 27.7112 -11.0979
# 6 -31.4064 -22.1426 -14.2262 -0.0970 -11.0979 40.9369
#
#
#
# Elastic Compliance Matrix: (Units=1/GPa)
#
#
# Indices 1 2 3 4 5 6 
#
# 1 0.012459 -0.003058 -0.001125 0.001592 -0.001463 0.007121
# 2 -0.003058 0.019490 0.001421 -0.005243 -0.007118 0.006748
# 3 -0.001125 0.001421 0.011953 -0.004285 -0.007799 0.001935
# 4 0.001592 -0.005243 -0.004285 0.033734 0.014591 0.000932
# 5 -0.001463 -0.007118 -0.007799 0.014591 0.051867 0.006413
# 6 0.007121 0.006748 0.001935 0.000932 0.006413 0.035954
#
#
# Mechanical properties :
#
#
# Convention : Reuss Voigt Hill
#
# Bulk Modulus (GPa) = 26.05642 44.48321 35.26981
# Shear Modulus (GPa) = 27.20729 35.33695 31.27212
#
# Velocity S-wave (km/s) = 3.52550 4.01784 3.77969
# Velocity P-wave (km/s) = 5.33625 6.46880 5.92962
#
# Compressibility (1/GPa) = 0.03837826
#
# Stress axis : x y z
#
# Youngs Moduli (GPa) = 80.26111 51.30715 83.66321
#
# Poissons Ratio (x) = 0.15691 0.09409
# Poissons Ratio (y) = 0.24545 -0.11886
# Poissons Ratio (z) = 0.09026 -0.07289
#
# Static dielectric constant tensor:
#      x y z
#    x 1.870930 -0.053630 0.014860 
#    y -0.053630 1.789150 0.021770 
#    z 0.014860 0.021770 1.914960 
# 
# From -- ./inp_files/462463.got.cif
#   From: 2010.05.17/outbox.cif.g08.bks.cpg/sg2_232_cif.got.tgz:462463.got - 2010.06.03 11:33:40.
