data_PCOD9110247
_publ_section_title
;
Structure prediction by ZEFSAII (Michael W. Deem and Ramdas Pophale) SiO2 
 PCOD9110247
Probable space group: P -1
;
_chemical_formula_sum "Si O2"
_cell_formula_units_Z 14
_cell_length_a 14.745327
_cell_length_b 7.438402
_cell_length_c 8.283934
_cell_angle_alpha 96.128382
_cell_angle_beta 105.879587
_cell_angle_gamma 44.101759
_cell_volume 602.704173
_symmetry_space_group_name_H-M "P -1"
_symmetry_group_IT_number 2
_symmetry_cell_setting 'triclinic'
loop_
_space_group_symop_operation_xyz
x,y,z
-x,-y,-z
loop_
_atom_site_type_symbol
_atom_site_label
_atom_site_fract_x
_atom_site_fract_y
_atom_site_fract_z
Si Si1 0.914660 0.370591 0.625753
Si Si2 0.927031 0.548777 0.135673
Si Si3 0.469106 0.456250 0.210107
Si Si4 0.370298 0.092076 0.365020
Si Si5 0.005549 0.876741 0.695184
Si Si6 0.690629 0.221008 0.543338
Si Si7 0.379180 0.921706 0.014135
O O1 0.766435 0.604881 0.648527
O O2 0.992747 0.451476 0.687911
O O3 0.907382 0.306001 0.434451
O O4 0.001489 0.097013 0.734370
O O5 0.944108 0.312875 0.151363
O O6 0.772511 0.824818 0.090197
O O7 0.000000 0.500000 0.000000
O O8 0.606383 0.351597 0.348450
O O9 0.375365 0.558858 0.330687
O O10 0.518487 0.224291 0.100435
O O11 0.393013 0.702894 0.080126
O O12 0.500000 0.000000 0.500000
O O13 0.336426 0.944072 0.417056
O O14 0.404712 0.013435 0.187552
O O15 0.849358 0.039787 0.593071
#
# Coordination Sequence:
#
# PCOD9110247 Si02
#       7
#     2   2   2   2   2   2   2
#     4  11  25  44  68 103 133 182 230 284 330 407
#     4  12  22  44  69  99 140 175 224 280 348 406
#     4   9  20  36  63  98 121 171 227 260 340 398
#     4  11  24  43  65  96 137 176 229 279 339 409
#     4  11  25  43  70 102 134 179 236 275 340 404
#     4  10  20  41  71  95 131 183 222 280 333 406
#     4  10  21  40  63  95 134 174 215 281 340 400
#
# _framework density 23.228643999999999
#
# number of rings (size 3 to 8) (size 9 to 14) (size 15 to 20)
#    0.000    1.429    2.857    2.143    8.000    0.571 
#    2.571    0.714    0.000    0.000    0.000    0.000 
#    0.000    0.000    0.000    0.000    0.000    0.000 
#
# Total GULP energy -78320.578555 kJ/mol
# GULP energy per Si atom -5594.327040 kJ/mol
# Density = 2.317577 g / cm^3
# Si number density = 23.228644 Si / 1000 Ang^3
#
#
#
# Elastic Constant Matrix: (Units=GPa)
#
#
# Indices 1 2 3 4 5 6 
#
# 1 55.8410 17.9029 10.5009 5.4779 -5.0975 8.0403
# 2 17.9029 142.4001 44.3067 14.6461 -16.7019 -12.5436
# 3 10.5009 44.3067 79.0658 19.9908 -7.8516 -19.4148
# 4 5.4779 14.6461 19.9908 52.0306 -1.9842 -11.7575
# 5 -5.0975 -16.7019 -7.8516 -1.9842 33.6319 -14.2859
# 6 8.0403 -12.5436 -19.4148 -11.7575 -14.2859 19.8296
#
#
#
# Elastic Compliance Matrix: (Units=1/GPa)
#
#
# Indices 1 2 3 4 5 6 
#
# 1 0.027729 -0.005613 -0.012459 -0.008253 -0.022370 -0.048002
# 2 -0.005613 0.010744 0.000628 0.002637 0.013784 0.021181
# 3 -0.012459 0.000628 0.031236 0.004333 0.032231 0.061820
# 4 -0.008253 0.002637 0.004333 0.027347 0.019458 0.039489
# 5 -0.022370 0.013784 0.032231 0.019458 0.097585 0.131187
# 6 -0.048002 0.021181 0.061820 0.039489 0.131187 0.261744
#
#
# Mechanical properties :
#
#
# Convention : Reuss Voigt Hill
#
# Bulk Modulus (GPa) = 28.71835 46.96978 37.84407
# Shear Modulus (GPa) = 9.94272 34.73817 22.34044
#
# Velocity S-wave (km/s) = 2.07115 3.87135 3.10459
# Velocity P-wave (km/s) = 4.25555 6.34410 5.40173
#
# Compressibility (1/GPa) = 0.03482094
#
# Stress axis : x y z
#
# Youngs Moduli (GPa) = 36.06272 93.07472 32.01448
#
# Poissons Ratio (x) = 0.52242 0.39887
# Poissons Ratio (y) = 0.20242 -0.02010
# Poissons Ratio (z) = 0.44931 -0.05843
#
# Static dielectric constant tensor:
#      x y z
#    x 1.873700 0.049120 -0.040260 
#    y 0.049120 1.872490 0.003060 
#    z -0.040260 0.003060 1.881590 
# 
# From -- ./inp_files/255232.got.cif
#   From: 2010.05.17/outbox.cif.g08.bks.cpg/sg2_128_cif.got.tgz:255232.got - 2010.06.03 11:33:40.
