data_PCOD9110621
_publ_section_title
;
Structure prediction by ZEFSAII (Michael W. Deem and Ramdas Pophale) SiO2 
 PCOD9110621
Probable space group: P -1
;
_chemical_formula_sum "Si O2"
_cell_formula_units_Z 16
_cell_length_a 13.382333
_cell_length_b 10.798656
_cell_length_c 14.754586
_cell_angle_alpha 141.245873
_cell_angle_beta 49.267653
_cell_angle_gamma 149.635787
_cell_volume 673.296431
_symmetry_space_group_name_H-M "P -1"
_symmetry_group_IT_number 2
_symmetry_cell_setting 'triclinic'
loop_
_space_group_symop_operation_xyz
x,y,z
-x,-y,-z
loop_
_atom_site_type_symbol
_atom_site_label
_atom_site_fract_x
_atom_site_fract_y
_atom_site_fract_z
Si Si1 0.557357 0.504189 0.744830
Si Si2 0.038521 0.879684 0.196699
Si Si3 0.485930 0.147128 0.319751
Si Si4 0.699991 0.671885 0.042193
Si Si5 0.851358 0.349772 0.876215
Si Si6 0.998362 0.685160 0.818441
Si Si7 0.600268 0.248876 0.713179
Si Si8 0.699776 0.700970 0.394929
O O1 0.550909 0.272869 0.656491
O O2 0.467486 0.444380 0.665482
O O3 0.784480 0.826402 0.797226
O O4 0.421686 0.474294 0.877479
O O5 0.137583 0.846240 0.192294
O O6 0.904202 0.892944 0.332231
O O7 0.903647 0.578144 0.047111
O O8 0.651839 0.454609 0.343861
O O9 0.324987 0.135193 0.434912
O O10 0.523330 0.057790 0.336257
O O11 0.366267 0.872373 0.165218
O O12 0.595033 0.446717 0.890099
O O13 0.894219 0.746783 0.972691
O O14 0.801167 0.000406 0.157953
O O15 0.007454 0.533068 0.804746
O O16 0.832775 0.448475 0.705391
#
# Coordination Sequence:
#
# PCOD9110621 Si02
#       8
#     2   2   2   2   2   2   2   2
#     4  12  23  38  64  99 131 164 208 260 322 375
#     4  11  25  39  65 100 126 162 207 269 321 364
#     4  10  23  48  64  91 122 177 216 251 318 376
#     4   9  18  33  60  95 132 161 199 261 320 371
#     4  10  20  42  64  96 129 157 216 262 309 381
#     4   8  17  34  59  91 127 167 200 249 318 373
#     4   9  20  35  64  92 127 161 213 257 308 379
#     4  11  26  44  68  85 133 171 210 263 309 381
#
# _framework density 23.763679
#
# number of rings (size 3 to 8) (size 9 to 14) (size 15 to 20)
#    0.750    1.250    1.250    1.875    1.750    4.500 
#    0.000    0.625    0.000    0.000    0.000    0.000 
#    0.000    0.000    0.000    0.000    0.000    0.000 
#
# Total GULP energy -89270.124671 kJ/mol
# GULP energy per Si atom -5579.382792 kJ/mol
# Density = 2.370959 g / cm^3
# Si number density = 23.763679 Si / 1000 Ang^3
#
#
#
# Elastic Constant Matrix: (Units=GPa)
#
#
# Indices 1 2 3 4 5 6 
#
# 1 101.1813 19.4729 2.6513 2.6613 -1.7065 -38.3584
# 2 19.4729 140.5501 24.5987 -7.4938 -14.7718 -18.2427
# 3 2.6513 24.5987 46.4251 -7.9196 -2.2464 -1.3362
# 4 2.6613 -7.4938 -7.9196 20.4932 -2.9987 -12.1443
# 5 -1.7065 -14.7718 -2.2464 -2.9987 24.0171 1.7273
# 6 -38.3584 -18.2427 -1.3362 -12.1443 1.7273 38.0964
#
#
#
# Elastic Compliance Matrix: (Units=1/GPa)
#
#
# Indices 1 2 3 4 5 6 
#
# 1 0.017767 0.001041 0.001201 0.011944 0.001913 0.022151
# 2 0.001041 0.009580 -0.003348 0.007478 0.006038 0.007628
# 3 0.001201 -0.003348 0.025293 0.010927 0.001475 0.003910
# 4 0.011944 0.007478 0.010927 0.080509 0.013571 0.041040
# 5 0.001913 0.006038 0.001475 0.013571 0.046810 0.007073
# 6 0.022151 0.007628 0.003910 0.041040 0.007073 0.065104
#
#
# Mechanical properties :
#
#
# Convention : Reuss Voigt Hill
#
# Bulk Modulus (GPa) = 19.82979 42.40024 31.11501
# Shear Modulus (GPa) = 18.93332 32.61691 25.77512
#
# Velocity S-wave (km/s) = 2.82571 3.70882 3.29697
# Velocity P-wave (km/s) = 4.35992 6.01844 5.25502
#
# Compressibility (1/GPa) = 0.05042918
#
# Stress axis : x y z
#
# Youngs Moduli (GPa) = 56.28436 104.38310 39.53592
#
# Poissons Ratio (x) = -0.10868 -0.04750
# Poissons Ratio (y) = -0.05860 0.13237
# Poissons Ratio (z) = -0.06762 0.34949
#
# Static dielectric constant tensor:
#      x y z
#    x 2.070600 0.004770 -0.035740 
#    y 0.004770 1.944920 0.014220 
#    z -0.035740 0.014220 1.898210 
# 
# From -- ./inp_files/532718.got.cif
#   From: 2010.05.17/outbox.cif.g08.bks.cpg/sg2_267_cif.got.tgz:532718.got - 2010.06.03 11:33:40.
