data_PCOD9110650
_publ_section_title
;
Structure prediction by ZEFSAII (Michael W. Deem and Ramdas Pophale) SiO2 
 PCOD9110650
Probable space group: P -1
;
_chemical_formula_sum "Si O2"
_cell_formula_units_Z 16
_cell_length_a 9.409493
_cell_length_b 7.222651
_cell_length_c 11.981180
_cell_angle_alpha 95.813507
_cell_angle_beta 88.621816
_cell_angle_gamma 126.794052
_cell_volume 648.014063
_symmetry_space_group_name_H-M "P -1"
_symmetry_group_IT_number 2
_symmetry_cell_setting 'triclinic'
loop_
_space_group_symop_operation_xyz
x,y,z
-x,-y,-z
loop_
_atom_site_type_symbol
_atom_site_label
_atom_site_fract_x
_atom_site_fract_y
_atom_site_fract_z
Si Si1 0.484709 0.526846 0.346306
Si Si2 0.409765 0.074225 0.266490
Si Si3 0.690723 0.028352 0.347805
Si Si4 0.205600 0.532311 0.482859
Si Si5 0.305526 0.470671 0.105229
Si Si6 0.628452 0.881976 0.988016
Si Si7 0.088156 0.698365 0.846648
Si Si8 0.036926 0.673018 0.329273
O O1 0.512344 0.328804 0.333697
O O2 0.347362 0.496336 0.437137
O O3 0.394998 0.491891 0.224085
O O4 0.653162 0.792274 0.373736
O O5 0.505567 0.963198 0.297908
O O6 0.416584 0.095654 0.135393
O O7 0.206910 0.920171 0.302041
O O8 0.733569 0.221004 0.449363
O O9 0.830420 0.129590 0.251205
O O10 0.110284 0.536713 0.373791
O O11 0.077389 0.342587 0.566639
O O12 0.286706 0.258611 0.028740
O O13 0.111480 0.406622 0.120781
O O14 0.448270 0.707786 0.050692
O O15 0.770523 0.136511 0.051812
O O16 0.079021 0.480312 0.785019
#
# Coordination Sequence:
#
# PCOD9110650 Si02
#       8
#     2   2   2   2   2   2   2   2
#     4  11  21  42  70  93 134 181 209 276 338 381
#     4  11  25  43  63  99 140 169 224 277 319 400
#     4  11  23  42  64  99 132 170 228 268 327 404
#     4  10  21  41  68  93 129 178 215 275 339 379
#     4  10  20  42  65 101 138 166 230 268 322 405
#     4  10  23  40  66  98 137 178 214 276 328 386
#     4  11  21  41  70  94 130 182 217 267 336 387
#     4  10  22  41  64  96 133 166 225 278 319 403
#
# _framework density 24.690822000000001
#
# number of rings (size 3 to 8) (size 9 to 14) (size 15 to 20)
#    0.000    1.500    3.750    0.750    0.000    2.000 
#    4.500    2.500    0.000    0.000    0.000    0.000 
#    0.000    0.000    0.000    0.000    0.000    0.000 
#
# Total GULP energy -89549.026431 kJ/mol
# GULP energy per Si atom -5596.814152 kJ/mol
# Density = 2.463462 g / cm^3
# Si number density = 24.690822 Si / 1000 Ang^3
#
#
#
# Elastic Constant Matrix: (Units=GPa)
#
#
# Indices 1 2 3 4 5 6 
#
# 1 58.8076 29.1435 24.4009 -5.7951 -18.5789 0.4779
# 2 29.1435 116.0290 47.3182 -3.7065 -11.1869 7.1681
# 3 24.4009 47.3182 131.3120 5.9033 -12.7528 10.4777
# 4 -5.7951 -3.7065 5.9033 46.7981 14.3454 -13.0775
# 5 -18.5789 -11.1869 -12.7528 14.3454 37.0128 -5.0519
# 6 0.4779 7.1681 10.4777 -13.0775 -5.0519 40.9009
#
#
#
# Elastic Compliance Matrix: (Units=1/GPa)
#
#
# Indices 1 2 3 4 5 6 
#
# 1 0.023003 -0.004135 -0.002044 0.000443 0.009738 0.002324
# 2 -0.004135 0.011006 -0.003168 0.000560 -0.000182 -0.000912
# 3 -0.002044 -0.003168 0.009704 -0.003146 0.002219 -0.002639
# 4 0.000443 0.000560 -0.003146 0.027255 -0.010141 0.008164
# 5 0.009738 -0.000182 0.002219 -0.010141 0.036632 0.000632
# 6 0.002324 -0.000912 -0.002639 0.008164 0.000632 0.027946
#
#
# Mechanical properties :
#
#
# Convention : Reuss Voigt Hill
#
# Bulk Modulus (GPa) = 39.96813 56.43043 48.19928
# Shear Modulus (GPa) = 30.75431 38.62810 34.69120
#
# Velocity S-wave (km/s) = 3.53310 3.95963 3.75243
# Velocity P-wave (km/s) = 5.73292 6.61886 6.19176
#
# Compressibility (1/GPa) = 0.02501993
#
# Stress axis : x y z
#
# Youngs Moduli (GPa) = 43.47240 90.86334 103.04770
#
# Poissons Ratio (x) = 0.37569 0.21066
# Poissons Ratio (y) = 0.17974 0.32641
# Poissons Ratio (z) = 0.08887 0.28782
#
# Static dielectric constant tensor:
#      x y z
#    x 1.942540 0.037520 0.032150 
#    y 0.037520 1.972480 0.035100 
#    z 0.032150 0.035100 1.983560 
# 
# From -- ./inp_files/417580.got.cif
#   From: 2010.05.17/outbox.cif.g08.bks.cpg/sg2_209_cif.got.tgz:417580.got - 2010.06.03 11:33:40.
