data_PCOD9110119
_publ_section_title
;
Structure prediction by ZEFSAII (Michael W. Deem and Ramdas Pophale) SiO2 
 PCOD9110119
Probable space group: P -1
;
_chemical_formula_sum "Si O2"
_cell_formula_units_Z 16
_cell_length_a 7.838178
_cell_length_b 25.531922
_cell_length_c 11.894434
_cell_angle_alpha 27.985599
_cell_angle_beta 37.100798
_cell_angle_gamma 33.422934
_cell_volume 598.133046
_symmetry_space_group_name_H-M "P -1"
_symmetry_group_IT_number 2
_symmetry_cell_setting 'triclinic'
loop_
_space_group_symop_operation_xyz
x,y,z
-x,-y,-z
loop_
_atom_site_type_symbol
_atom_site_label
_atom_site_fract_x
_atom_site_fract_y
_atom_site_fract_z
Si Si1 0.967981 0.613577 0.442913
Si Si2 0.549485 0.169551 0.821123
Si Si3 0.254284 0.237228 0.084387
Si Si4 0.725263 0.033470 0.669494
Si Si5 0.958338 0.749744 0.405146
Si Si6 0.944779 0.401702 0.140777
Si Si7 0.119221 0.965972 0.818293
Si Si8 0.252110 0.589629 0.103382
O O1 0.619437 0.726127 0.382296
O O2 0.058125 0.639023 0.470168
O O3 0.945854 0.485277 0.685342
O O4 0.189520 0.618485 0.214977
O O5 0.419106 0.240264 0.873208
O O6 0.406095 0.070142 0.071274
O O7 0.928415 0.083395 0.778223
O O8 0.498655 0.096589 0.259576
O O9 0.202024 0.320608 0.065271
O O10 0.896608 0.285977 0.131143
O O11 0.910290 0.017458 0.719100
O O12 0.424780 0.166866 0.548572
O O13 0.000000 0.000000 0.500000
O O14 0.077911 0.690016 0.578029
O O15 0.063030 0.847386 0.109027
O O16 0.615153 0.491086 0.083292
O O17 0.000000 0.500000 0.000000
#
# Coordination Sequence:
#
# PCOD9110119 Si02
#       8
#     2   2   2   2   2   2   2   2
#     4  10  20  41  69  99 128 176 225 283 334 388
#     4  10  21  43  67 101 135 179 222 284 331 405
#     4  11  25  43  67  98 139 181 222 283 350 395
#     4  11  22  41  67 103 139 178 219 277 345 404
#     4  11  23  40  69  97 136 178 231 277 332 397
#     4  12  28  46  66 101 138 181 230 283 345 405
#     4  11  22  43  70 104 135 178 236 270 332 416
#     4  10  25  42  67  97 135 175 233 279 343 393
#
# _framework density 26.749903
#
# number of rings (size 3 to 8) (size 9 to 14) (size 15 to 20)
#    0.000    1.250    2.500    3.000    7.000    3.500 
#    0.000    3.125    0.000    0.000    0.000    0.000 
#    0.000    0.000    0.000    0.000    0.000    0.000 
#
# Total GULP energy -89551.603305 kJ/mol
# GULP energy per Si atom -5596.975207 kJ/mol
# Density = 2.668902 g / cm^3
# Si number density = 26.749903 Si / 1000 Ang^3
#
#
#
# Elastic Constant Matrix: (Units=GPa)
#
#
# Indices 1 2 3 4 5 6 
#
# 1 97.1215 54.2408 35.7718 -4.4041 26.8353 3.5567
# 2 54.2408 199.1044 41.3771 -18.1936 21.6306 5.0766
# 3 35.7718 41.3771 95.8862 -12.2788 12.7635 1.3928
# 4 -4.4041 -18.1936 -12.2788 33.7113 6.9841 17.4224
# 5 26.8353 21.6306 12.7635 6.9841 41.0995 -8.6719
# 6 3.5567 5.0766 1.3928 17.4224 -8.6719 63.7275
#
#
#
# Elastic Compliance Matrix: (Units=1/GPa)
#
#
# Indices 1 2 3 4 5 6 
#
# 1 0.015414 -0.002240 -0.003195 0.002834 -0.008923 -0.002601
# 2 -0.002240 0.006630 -0.001024 0.004562 -0.002911 -0.002024
# 3 -0.003195 -0.001024 0.013143 0.005353 -0.002760 -0.001866
# 4 0.002834 0.004562 0.005353 0.045993 -0.017005 -0.015526
# 5 -0.008923 -0.002911 -0.002760 -0.017005 0.037665 0.010565
# 6 -0.002601 -0.002024 -0.001866 -0.015526 0.010565 0.021721
#
#
# Mechanical properties :
#
#
# Convention : Reuss Voigt Hill
#
# Bulk Modulus (GPa) = 44.90902 72.76571 58.83736
# Shear Modulus (GPa) = 31.07361 45.08916 38.08139
#
# Velocity S-wave (km/s) = 3.41197 4.11004 3.77717
# Velocity P-wave (km/s) = 5.68744 7.05581 6.40826
#
# Compressibility (1/GPa) = 0.02226724
#
# Stress axis : x y z
#
# Youngs Moduli (GPa) = 64.87751 150.82131 76.08603
#
# Poissons Ratio (x) = 0.33790 0.24310
# Poissons Ratio (y) = 0.14535 0.07794
# Poissons Ratio (z) = 0.20729 0.15449
#
# Static dielectric constant tensor:
#      x y z
#    x 2.259240 -0.012900 -0.003660 
#    y -0.012900 2.112880 0.042110 
#    z -0.003660 0.042110 2.132510 
# 
# From -- ./inp_files/407316.got.cif
#   From: 2010.05.17/outbox.cif.g08.bks.cpg/sg2_204_cif.got.tgz:407316.got - 2010.06.03 11:33:40.
