data_PCOD9110685
_publ_section_title
;
Structure prediction by ZEFSAII (Michael W. Deem and Ramdas Pophale) SiO2 
 PCOD9110685
Probable space group: P -1
;
_chemical_formula_sum "Si O2"
_cell_formula_units_Z 16
_cell_length_a 15.044438
_cell_length_b 9.393686
_cell_length_c 12.152921
_cell_angle_alpha 71.935492
_cell_angle_beta 109.555786
_cell_angle_gamma 150.905646
_cell_volume 786.371317
_symmetry_space_group_name_H-M "P -1"
_symmetry_group_IT_number 2
_symmetry_cell_setting 'triclinic'
loop_
_space_group_symop_operation_xyz
x,y,z
-x,-y,-z
loop_
_atom_site_type_symbol
_atom_site_label
_atom_site_fract_x
_atom_site_fract_y
_atom_site_fract_z
Si Si1 0.039180 0.139314 0.598096
Si Si2 0.808863 0.909882 0.168504
Si Si3 0.308878 0.654008 0.022588
Si Si4 0.867123 0.439523 0.811215
Si Si5 0.627096 0.554948 0.599302
Si Si6 0.319444 0.685667 0.447380
Si Si7 0.595036 0.542624 0.836878
Si Si8 0.085650 0.844400 0.084142
O O1 0.129729 0.151215 0.721872
O O2 0.174636 0.454673 0.540558
O O3 0.000000 0.000000 0.500000
O O4 0.835662 0.901549 0.610103
O O5 0.590666 0.636979 0.150722
O O6 0.927410 0.209985 0.196120
O O7 0.870792 0.000681 0.045468
O O8 0.234588 0.604902 0.124018
O O9 0.352601 0.538872 0.061744
O O10 0.134472 0.446692 0.919775
O O11 0.500000 0.000000 0.000000
O O12 0.767534 0.330500 0.680226
O O13 0.871034 0.271774 0.886898
O O14 0.500000 0.500000 0.500000
O O15 0.634823 0.409817 0.571081
O O16 0.556350 0.441130 0.720487
O O17 0.500000 0.000000 0.500000
O O18 0.770242 0.891790 0.833149
#
# Coordination Sequence:
#
# PCOD9110685 Si02
#       8
#     2   2   2   2   2   2   2   2
#     4  10  20  42  65  91 121 171 211 258 314 383
#     4  11  21  41  68  90 128 174 217 251 318 393
#     4  11  22  43  63  91 132 167 210 264 325 370
#     4  11  22  43  64  90 129 170 217 253 316 395
#     4  11  23  42  66  95 126 164 211 265 328 369
#     4  11  24  44  67  94 124 169 219 261 314 385
#     4  12  23  40  64  99 128 162 211 275 318 370
#     4  11  25  40  63  99 129 172 214 258 317 389
#
# _framework density 20.346620999999999
#
# number of rings (size 3 to 8) (size 9 to 14) (size 15 to 20)
#    0.000    1.000    3.750    6.000    3.500    0.000 
#    2.250    0.625    0.000    0.000    0.000    0.000 
#    0.000    0.000    0.000    0.000    0.000    0.000 
#
# Total GULP energy -89364.551614 kJ/mol
# GULP energy per Si atom -5585.284476 kJ/mol
# Density = 2.030031 g / cm^3
# Si number density = 20.346621 Si / 1000 Ang^3
#
#
#
# Elastic Constant Matrix: (Units=GPa)
#
#
# Indices 1 2 3 4 5 6 
#
# 1 62.4462 34.4339 23.4742 6.8392 23.6018 24.3101
# 2 34.4339 155.3427 25.8296 10.4201 5.2157 14.5258
# 3 23.4742 25.8296 82.7918 5.6314 16.8848 3.7856
# 4 6.8392 10.4201 5.6314 31.4642 4.2456 -1.9041
# 5 23.6018 5.2157 16.8848 4.2456 33.4200 3.2733
# 6 24.3101 14.5258 3.7856 -1.9041 3.2733 29.0096
#
#
#
# Elastic Compliance Matrix: (Units=1/GPa)
#
#
# Indices 1 2 3 4 5 6 
#
# 1 0.039994 -0.004464 -0.003756 -0.005283 -0.022175 -0.028634
# 2 -0.004464 0.007749 -0.001634 -0.001735 0.003027 -0.000381
# 3 -0.003756 -0.001634 0.014508 -0.000462 -0.004615 0.002563
# 4 -0.005283 -0.001735 -0.000462 0.034169 -0.000859 0.007696
# 5 -0.022175 0.003027 -0.004615 -0.000859 0.046338 0.012384
# 6 -0.028634 -0.000381 0.002563 0.007696 0.012384 0.057431
#
#
# Mechanical properties :
#
#
# Convention : Reuss Voigt Hill
#
# Bulk Modulus (GPa) = 23.50501 52.00623 37.75562
# Shear Modulus (GPa) = 21.36032 33.23496 27.29764
#
# Velocity S-wave (km/s) = 3.24361 4.04597 3.66680
# Velocity P-wave (km/s) = 5.06018 6.88782 6.04349
#
# Compressibility (1/GPa) = 0.04254413
#
# Stress axis : x y z
#
# Youngs Moduli (GPa) = 25.00365 129.04912 68.92525
#
# Poissons Ratio (x) = 0.57612 0.25887
# Poissons Ratio (y) = 0.11162 0.11259
# Poissons Ratio (z) = 0.09391 0.21081
#
# Static dielectric constant tensor:
#      x y z
#    x 1.793040 -0.007480 0.033590 
#    y -0.007480 1.750480 -0.027790 
#    z 0.033590 -0.027790 1.824990 
# 
# From -- ./inp_files/186096.got.cif
#   From: 2010.05.17/outbox.cif.g08.bks.cpg/sg2_94_cif.got.tgz:186096.got - 2010.06.03 11:33:40.
