data_PCOD9110493
_publ_section_title
;
Structure prediction by ZEFSAII (Michael W. Deem and Ramdas Pophale) SiO2 
 PCOD9110493
Probable space group: P -1
;
_chemical_formula_sum "Si O2"
_cell_formula_units_Z 16
_cell_length_a 14.972356
_cell_length_b 13.307046
_cell_length_c 10.005706
_cell_angle_alpha 95.176531
_cell_angle_beta 46.098391
_cell_angle_gamma 56.301890
_cell_volume 729.148698
_symmetry_space_group_name_H-M "P -1"
_symmetry_group_IT_number 2
_symmetry_cell_setting 'triclinic'
loop_
_space_group_symop_operation_xyz
x,y,z
-x,-y,-z
loop_
_atom_site_type_symbol
_atom_site_label
_atom_site_fract_x
_atom_site_fract_y
_atom_site_fract_z
Si Si1 0.011417 0.436252 0.619800
Si Si2 0.714974 0.171560 0.809056
Si Si3 0.766196 0.236464 0.289149
Si Si4 0.396808 0.432491 0.918700
Si Si5 0.091845 0.173384 0.419130
Si Si6 0.556710 0.282224 0.281484
Si Si7 0.953064 0.449743 0.155740
Si Si8 0.908367 0.842667 0.899293
O O1 0.096173 0.450931 0.648134
O O2 0.000000 0.500000 0.500000
O O3 0.171348 0.224117 0.404727
O O4 0.744783 0.575549 0.943999
O O5 0.578603 0.310991 0.840583
O O6 0.582746 0.286755 0.098667
O O7 0.000000 0.000000 0.500000
O O8 0.721295 0.045817 0.774409
O O9 0.556697 0.337775 0.612050
O O10 0.658230 0.306643 0.260671
O O11 0.869894 0.259440 0.263735
O O12 0.000000 0.000000 0.000000
O O13 0.167787 0.665065 0.218851
O O14 0.043273 0.215395 0.314824
O O15 0.288570 0.439932 0.620694
O O16 0.710076 0.071589 0.126455
O O17 0.138859 0.229729 0.981725
O O18 0.000000 0.500000 0.000000
#
# Coordination Sequence:
#
# PCOD9110493 Si02
#       8
#     2   2   2   2   2   2   2   2
#     4  10  20  42  63  85 125 159 203 252 290 359
#     4  11  21  38  64  96 124 151 202 257 298 369
#     4  10  21  41  63  88 128 160 196 249 308 374
#     4  10  21  39  63  91 121 160 200 249 304 350
#     4   9  21  38  62  91 121 155 205 240 308 352
#     4  10  23  42  60  91 125 161 198 246 315 356
#     4  12  24  42  61  89 122 161 213 249 287 363
#     4  10  21  41  64  86 123 163 196 253 311 357
#
# _framework density 21.943397999999998
#
# number of rings (size 3 to 8) (size 9 to 14) (size 15 to 20)
#    0.750    1.000    1.250    4.500    0.000    4.000 
#    9.000    1.875    0.000    0.000    0.000    0.000 
#    0.000    0.000    0.000    0.000    0.000    0.000 
#
# Total GULP energy -89255.806912 kJ/mol
# GULP energy per Si atom -5578.487932 kJ/mol
# Density = 2.189345 g / cm^3
# Si number density = 21.943398 Si / 1000 Ang^3
#
#
#
# Elastic Constant Matrix: (Units=GPa)
#
#
# Indices 1 2 3 4 5 6 
#
# 1 69.6872 15.7585 -23.7771 7.9068 14.8498 0.7479
# 2 15.7585 60.7438 23.7260 -13.3433 18.7103 9.4154
# 3 -23.7771 23.7260 64.8366 -8.9274 9.9045 1.0458
# 4 7.9068 -13.3433 -8.9274 29.1852 -0.8638 0.3659
# 5 14.8498 18.7103 9.9045 -0.8638 36.2671 -1.6617
# 6 0.7479 9.4154 1.0458 0.3659 -1.6617 38.5717
#
#
#
# Elastic Compliance Matrix: (Units=1/GPa)
#
#
# Indices 1 2 3 4 5 6 
#
# 1 0.023528 -0.010539 0.012600 -0.007587 -0.007749 0.001513
# 2 -0.010539 0.030290 -0.011809 0.012943 -0.008114 -0.007342
# 3 0.012600 -0.011809 0.025048 -0.001346 -0.005860 0.001719
# 4 -0.007587 0.012943 -0.001346 0.041799 -0.002367 -0.003474
# 5 -0.007749 -0.008114 -0.005860 -0.002367 0.036654 0.003891
# 6 0.001513 -0.007342 0.001719 -0.003474 0.003891 0.027842
#
#
# Mechanical properties :
#
#
# Convention : Reuss Voigt Hill
#
# Bulk Modulus (GPa) = 16.84423 25.18694 21.01559
# Shear Modulus (GPa) = 22.27691 32.77548 27.52619
#
# Velocity S-wave (km/s) = 3.18967 3.86895 3.54562
# Velocity P-wave (km/s) = 4.61067 5.60905 5.13418
#
# Compressibility (1/GPa) = 0.05936752
#
# Stress axis : x y z
#
# Youngs Moduli (GPa) = 42.50280 33.01446 39.92410
#
# Poissons Ratio (x) = 0.34795 -0.50303
# Poissons Ratio (y) = 0.44795 0.47146
# Poissons Ratio (z) = -0.53552 0.38987
#
# Static dielectric constant tensor:
#      x y z
#    x 2.092510 0.631290 -0.086320 
#    y 0.631290 3.127940 -0.143220 
#    z -0.086320 -0.143220 1.824520 
# 
# From -- ./inp_files/315175.got.cif
#   From: 2010.05.17/outbox.cif.g08.bks.cpg/sg2_158_cif.got.tgz:315175.got - 2010.06.03 11:33:40.
