data_PCOD9110871
_publ_section_title
;
Structure prediction by ZEFSAII (Michael W. Deem and Ramdas Pophale) SiO2 
 PCOD9110871
Probable space group: P -1
;
_chemical_formula_sum "Si O2"
_cell_formula_units_Z 14
_cell_length_a 10.811651
_cell_length_b 7.267149
_cell_length_c 7.518533
_cell_angle_alpha 106.518476
_cell_angle_beta 100.546770
_cell_angle_gamma 68.254668
_cell_volume 524.041733
_symmetry_space_group_name_H-M "P -1"
_symmetry_group_IT_number 2
_symmetry_cell_setting 'triclinic'
loop_
_space_group_symop_operation_xyz
x,y,z
-x,-y,-z
loop_
_atom_site_type_symbol
_atom_site_label
_atom_site_fract_x
_atom_site_fract_y
_atom_site_fract_z
Si Si1 0.864684 0.666921 0.432412
Si Si2 0.031420 0.827697 0.304961
Si Si3 0.310228 0.278673 0.987066
Si Si4 0.750819 0.347908 0.415120
Si Si5 0.545270 0.134408 0.268723
Si Si6 0.712901 0.932929 0.748989
Si Si7 0.812105 0.251451 0.014613
O O1 0.749701 0.568584 0.410469
O O2 0.812978 0.867891 0.594567
O O3 0.000000 0.500000 0.500000
O O4 0.918924 0.722636 0.277323
O O5 0.171534 0.683751 0.387860
O O6 0.061774 0.840503 0.109085
O O7 0.000000 0.000000 0.500000
O O8 0.457421 0.242622 0.103565
O O9 0.232273 0.227334 0.119910
O O10 0.245215 0.506478 0.966044
O O11 0.347632 0.085016 0.811395
O O12 0.621478 0.283935 0.393860
O O13 0.825271 0.218898 0.223129
O O14 0.430966 0.082999 0.334229
O O15 0.708697 0.146621 0.886132
#
# Coordination Sequence:
#
# PCOD9110871 Si02
#       7
#     2   2   2   2   2   2   2
#     4  10  22  43  64  92 137 177 225 288 332 386
#     4  11  25  46  66  99 140 174 233 288 333 401
#     4   9  19  39  66 101 145 170 220 284 336 405
#     4  11  24  43  71 102 132 182 233 276 338 418
#     4   9  20  40  66 104 142 170 228 282 327 428
#     4  10  20  42  67 100 142 177 218 285 345 395
#     4  12  23  43  77  99 133 192 219 277 360 388
#
# _framework density 26.715426000000001
#
# number of rings (size 3 to 8) (size 9 to 14) (size 15 to 20)
#    0.857    0.857    2.857    1.714    0.000    5.143 
#    0.000    0.714    0.000    0.000    0.000    0.000 
#    0.000    0.000    0.000    0.000    0.000    0.000 
#
# Total GULP energy -78161.879864 kJ/mol
# GULP energy per Si atom -5582.991419 kJ/mol
# Density = 2.665462 g / cm^3
# Si number density = 26.715426 Si / 1000 Ang^3
#
#
#
# Elastic Constant Matrix: (Units=GPa)
#
#
# Indices 1 2 3 4 5 6 
#
# 1 149.6524 29.7741 40.4033 5.0696 0.7096 31.4200
# 2 29.7741 94.0620 35.3121 3.2102 6.7548 16.5930
# 3 40.4033 35.3121 115.2064 -5.9610 -16.2634 0.9240
# 4 5.0696 3.2102 -5.9610 52.1009 10.3036 2.9159
# 5 0.7096 6.7548 -16.2634 10.3036 53.9315 9.4435
# 6 31.4200 16.5930 0.9240 2.9159 9.4435 40.0010
#
#
#
# Elastic Compliance Matrix: (Units=1/GPa)
#
#
# Indices 1 2 3 4 5 6 
#
# 1 0.009050 -0.000557 -0.002933 -0.000885 0.000434 -0.006848
# 2 -0.000557 0.013328 -0.004170 -0.000594 -0.002023 -0.004474
# 3 -0.002933 -0.004170 0.011485 0.001038 0.003317 0.002910
# 4 -0.000885 -0.000594 0.001038 0.020110 -0.003491 0.000275
# 5 0.000434 -0.002023 0.003317 -0.003491 0.021216 -0.004333
# 6 -0.006848 -0.004474 0.002910 0.000275 -0.004333 0.033170
#
#
# Mechanical properties :
#
#
# Convention : Reuss Voigt Hill
#
# Bulk Modulus (GPa) = 53.92574 63.32220 58.62397
# Shear Modulus (GPa) = 38.50283 46.10210 42.30247
#
# Velocity S-wave (km/s) = 3.80046 4.15863 3.98357
# Velocity P-wave (km/s) = 6.28387 6.84199 6.56886
#
# Compressibility (1/GPa) = 0.01854402
#
# Stress axis : x y z
#
# Youngs Moduli (GPa) = 110.49143 75.03080 87.06652
#
# Poissons Ratio (x) = 0.04177 0.25536
# Poissons Ratio (y) = 0.06151 0.36309
# Poissons Ratio (z) = 0.32406 0.31290
#
# Static dielectric constant tensor:
#      x y z
#    x 2.075920 -0.033840 0.030330 
#    y -0.033840 2.170080 -0.037400 
#    z 0.030330 -0.037400 2.199000 
# 
# From -- ./inp_files/232740.got.cif
#   From: 2010.05.17/outbox.cif.g08.bks.cpg/sg2_117_cif.got.tgz:232740.got - 2010.06.03 11:33:40.
