data_PCOD9110270
_publ_section_title
;
Structure prediction by ZEFSAII (Michael W. Deem and Ramdas Pophale) SiO2 
 PCOD9110270
Probable space group: P -1
;
_chemical_formula_sum "Si O2"
_cell_formula_units_Z 15
_cell_length_a 13.311689
_cell_length_b 6.361054
_cell_length_c 10.665734
_cell_angle_alpha 103.748766
_cell_angle_beta 43.342791
_cell_angle_gamma 111.005834
_cell_volume 578.309151
_symmetry_space_group_name_H-M "P -1"
_symmetry_group_IT_number 2
_symmetry_cell_setting 'triclinic'
loop_
_space_group_symop_operation_xyz
x,y,z
-x,-y,-z
loop_
_atom_site_type_symbol
_atom_site_label
_atom_site_fract_x
_atom_site_fract_y
_atom_site_fract_z
Si Si1 0.712780 0.510140 0.117693
Si Si2 0.160723 0.730270 0.237826
Si Si3 0.500000 0.000000 0.000000
Si Si4 0.492507 0.686293 0.169214
Si Si5 0.856391 0.050441 0.316973
Si Si6 0.999989 0.752874 0.024737
Si Si7 0.847454 0.497605 0.533646
Si Si8 0.485559 0.112489 0.394725
O O1 0.619155 0.602867 0.112820
O O2 0.838109 0.712024 0.094086
O O3 0.600695 0.354557 0.298242
O O4 0.798438 0.352415 0.945099
O O5 0.155340 0.538107 0.320084
O O6 0.981061 0.717443 0.404969
O O7 0.308726 0.931442 0.167976
O O8 0.504914 0.253264 0.971661
O O9 0.328387 0.533058 0.343856
O O10 0.511389 0.943236 0.239243
O O11 0.880400 0.271697 0.411915
O O12 0.982283 0.912174 0.177188
O O13 0.688764 0.890233 0.468815
O O14 0.866911 0.147449 0.179596
O O15 0.000000 0.500000 0.000000
O O16 0.500000 0.000000 0.500000
#
# Coordination Sequence:
#
# PCOD9110270 Si02
#       8
#     2   2   1   2   2   2   2   2
#     4  12  24  42  70 107 134 192 237 282 358 416
#     4  10  20  41  71  99 138 180 229 285 351 415
#     4  10  20  42  68 102 136 178 230 284 346 404
#     4  10  23  41  70  99 142 184 228 293 343 423
#     4  10  22  42  64  97 133 182 229 282 357 412
#     4  11  24  42  68  97 141 186 233 294 347 421
#     4   9  20  41  69  97 140 181 225 290 351 418
#     4  11  23  42  65  98 142 179 236 295 344 413
#
# _framework density 25.937683
#
# number of rings (size 3 to 8) (size 9 to 14) (size 15 to 20)
#    0.000    1.600    2.667    1.600    0.000    7.467 
#    0.000    0.000    2.933    4.000    0.000    0.000 
#    0.000    0.000    0.000    0.000    0.000    0.000 
#
# Total GULP energy -83528.151230 kJ/mol
# GULP energy per Si atom -5568.543415 kJ/mol
# Density = 2.587865 g / cm^3
# Si number density = 25.937683 Si / 1000 Ang^3
#
#
#
# Elastic Constant Matrix: (Units=GPa)
#
#
# Indices 1 2 3 4 5 6 
#
# 1 60.0591 20.5436 14.3555 -12.5363 -22.1414 2.8125
# 2 20.5436 65.9164 41.0426 -18.5666 -9.3356 -5.9282
# 3 14.3555 41.0426 132.1957 -33.5956 -23.4655 13.3477
# 4 -12.5363 -18.5666 -33.5956 64.1759 13.7848 -3.4208
# 5 -22.1414 -9.3356 -23.4655 13.7848 43.8194 -9.1586
# 6 2.8125 -5.9282 13.3477 -3.4208 -9.1586 47.8290
#
#
#
# Elastic Compliance Matrix: (Units=1/GPa)
#
#
# Indices 1 2 3 4 5 6 
#
# 1 0.022540 -0.006325 0.001733 0.001201 0.010488 -0.000499
# 2 -0.006325 0.021916 -0.006269 0.002431 -0.001668 0.004692
# 3 0.001733 -0.006269 0.011168 0.003389 0.003823 -0.003021
# 4 0.001201 0.002431 0.003389 0.018943 -0.003006 0.000064
# 5 0.010488 -0.001668 0.003823 -0.003006 0.031582 0.003942
# 6 -0.000499 0.004692 -0.003021 0.000064 0.003942 0.023121
#
#
# Mechanical properties :
#
#
# Convention : Reuss Voigt Hill
#
# Bulk Modulus (GPa) = 29.49754 45.56163 37.52958
# Shear Modulus (GPa) = 30.80835 43.31350 37.06092
#
# Velocity S-wave (km/s) = 3.45016 4.09088 3.78411
# Velocity P-wave (km/s) = 5.22194 6.31804 5.79596
#
# Compressibility (1/GPa) = 0.03390113
#
# Stress axis : x y z
#
# Youngs Moduli (GPa) = 44.36547 45.62799 89.54450
#
# Poissons Ratio (x) = 0.28861 -0.15522
# Poissons Ratio (y) = 0.28063 0.56140
# Poissons Ratio (z) = -0.07690 0.28606
#
# Static dielectric constant tensor:
#      x y z
#    x 2.053150 -0.120130 -0.111860 
#    y -0.120130 2.010480 -0.008600 
#    z -0.111860 -0.008600 1.950000 
# 
# From -- ./inp_files/442042.got.cif
#   From: 2010.05.17/outbox.cif.g08.bks.cpg/sg2_222_cif.got.tgz:442042.got - 2010.06.03 11:33:40.
