data_PCOD9110014
_publ_section_title
;
Structure prediction by ZEFSAII (Michael W. Deem and Ramdas Pophale) SiO2 
 PCOD9110014
Probable space group: P -1
;
_chemical_formula_sum "Si O2"
_cell_formula_units_Z 16
_cell_length_a 13.094930
_cell_length_b 9.169095
_cell_length_c 21.641639
_cell_angle_alpha 72.885907
_cell_angle_beta 161.905246
_cell_angle_gamma 106.982292
_cell_volume 770.656651
_symmetry_space_group_name_H-M "P -1"
_symmetry_group_IT_number 2
_symmetry_cell_setting 'triclinic'
loop_
_space_group_symop_operation_xyz
x,y,z
-x,-y,-z
loop_
_atom_site_type_symbol
_atom_site_label
_atom_site_fract_x
_atom_site_fract_y
_atom_site_fract_z
Si Si1 0.786973 0.184587 0.032620
Si Si2 0.329973 0.099745 0.440325
Si Si3 0.737301 0.033416 0.897676
Si Si4 0.102835 0.041461 0.686830
Si Si5 0.169393 0.255350 0.499577
Si Si6 0.173417 0.486261 0.034532
Si Si7 0.577786 0.385442 0.614894
Si Si8 0.716241 0.256709 0.347982
O O1 0.888934 0.088673 0.042859
O O2 0.481359 0.095685 0.900589
O O3 0.699229 0.348298 0.936007
O O4 0.082135 0.204537 0.247682
O O5 0.566093 0.212978 0.602032
O O6 0.500000 0.000000 0.500000
O O7 0.104870 0.988263 0.367388
O O8 0.489317 0.165123 0.717946
O O9 0.516388 0.879327 0.797810
O O10 0.000000 0.000000 0.000000
O O11 0.928990 0.169761 0.531152
O O12 0.053971 0.879683 0.643710
O O13 0.290845 0.376340 0.503080
O O14 0.964477 0.319710 0.430211
O O15 0.908415 0.425389 0.838441
O O16 0.475982 0.375907 0.224035
O O17 0.000000 0.500000 0.000000
O O18 0.500000 0.500000 0.500000
#
# Coordination Sequence:
#
# PCOD9110014 Si02
#       8
#     2   2   2   2   2   2   2   2
#     4  12  23  44  64  99 140 175 231 278 340 411
#     4  11  27  43  71 100 130 183 234 278 342 404
#     4  11  21  37  69 101 132 173 228 288 337 392
#     4  10  22  42  69  98 137 172 224 295 335 397
#     4  10  20  41  69 100 131 175 226 285 341 393
#     4  12  28  44  69 103 141 184 226 280 343 412
#     4  11  24  49  67  93 143 185 220 280 340 411
#     4  11  22  42  69 104 134 176 228 279 355 394
#
# _framework density 20.761517000000001
#
# number of rings (size 3 to 8) (size 9 to 14) (size 15 to 20)
#    0.000    1.000    3.750    3.375    8.750    0.500 
#    2.250    0.625    0.000    0.000    0.000    0.000 
#    0.000    0.000    0.000    0.000    0.000    0.000 
#
# Total GULP energy -89456.007695 kJ/mol
# GULP energy per Si atom -5591.000481 kJ/mol
# Density = 2.071426 g / cm^3
# Si number density = 20.761517 Si / 1000 Ang^3
#
#
#
# Elastic Constant Matrix: (Units=GPa)
#
#
# Indices 1 2 3 4 5 6 
#
# 1 152.6166 32.3734 27.9903 0.4793 30.3448 0.6429
# 2 32.3734 57.9746 20.2082 9.3325 7.6973 5.7489
# 3 27.9903 20.2082 64.2395 13.6516 7.7404 -12.9962
# 4 0.4793 9.3325 13.6516 31.3911 -7.2543 -3.2183
# 5 30.3448 7.6973 7.7404 -7.2543 39.2473 2.6547
# 6 0.6429 5.7489 -12.9962 -3.2183 2.6547 37.2942
#
#
#
# Elastic Compliance Matrix: (Units=1/GPa)
#
#
# Indices 1 2 3 4 5 6 
#
# 1 0.008805 -0.003522 -0.002158 0.000568 -0.005592 0.000086
# 2 -0.003522 0.022698 -0.005522 -0.005158 -0.001206 -0.005722
# 3 -0.002158 -0.005522 0.021999 -0.007890 -0.003595 0.008129
# 4 0.000568 -0.005158 -0.007890 0.039036 0.009294 0.000743
# 5 -0.005592 -0.001206 -0.003595 0.009294 0.032635 -0.002492
# 6 0.000086 -0.005722 0.008129 0.000743 -0.002492 0.030769
#
#
# Mechanical properties :
#
#
# Convention : Reuss Voigt Hill
#
# Bulk Modulus (GPa) = 32.15593 48.44162 40.29877
# Shear Modulus (GPa) = 26.49545 34.53710 30.51627
#
# Velocity S-wave (km/s) = 3.57624 4.08305 3.83802
# Velocity P-wave (km/s) = 5.70741 6.75362 6.25244
#
# Compressibility (1/GPa) = 0.03109847
#
# Stress axis : x y z
#
# Youngs Moduli (GPa) = 113.57163 44.05625 45.45757
#
# Poissons Ratio (x) = 0.15517 0.09809
# Poissons Ratio (y) = 0.40000 0.25101
# Poissons Ratio (z) = 0.24507 0.24327
#
# Static dielectric constant tensor:
#      x y z
#    x 1.746710 0.005200 -0.012050 
#    y 0.005200 1.752220 0.021790 
#    z -0.012050 0.021790 1.763710 
# 
# From -- ./inp_files/379441.got.cif
#   From: 2010.05.17/outbox.cif.g08.bks.cpg/sg2_190_cif.got.tgz:379441.got - 2010.06.03 11:33:40.
