data_PCOD9110055
_publ_section_title
;
Structure prediction by ZEFSAII (Michael W. Deem and Ramdas Pophale) SiO2 
 PCOD9110055
Probable space group: P -1
;
_chemical_formula_sum "Si O2"
_cell_formula_units_Z 16
_cell_length_a 9.414216
_cell_length_b 15.665397
_cell_length_c 9.269129
_cell_angle_alpha 92.194983
_cell_angle_beta 44.330635
_cell_angle_gamma 67.697321
_cell_volume 775.742687
_symmetry_space_group_name_H-M "P -1"
_symmetry_group_IT_number 2
_symmetry_cell_setting 'triclinic'
loop_
_space_group_symop_operation_xyz
x,y,z
-x,-y,-z
loop_
_atom_site_type_symbol
_atom_site_label
_atom_site_fract_x
_atom_site_fract_y
_atom_site_fract_z
Si Si1 0.245621 0.054011 0.100657
Si Si2 0.726726 0.221898 0.645501
Si Si3 0.589282 0.606282 0.354232
Si Si4 0.154454 0.631711 0.866668
Si Si5 0.046969 0.768369 0.230819
Si Si6 0.622541 0.833962 0.198522
Si Si7 0.600370 0.772736 0.518880
Si Si8 0.110569 0.918184 0.044930
O O1 0.997640 0.150584 0.365909
O O2 0.185860 0.970378 0.108948
O O3 0.303938 0.092559 0.914067
O O4 0.500000 0.000000 0.000000
O O5 0.541124 0.324428 0.689706
O O6 0.591038 0.162508 0.736805
O O7 0.773614 0.248385 0.771147
O O8 0.364952 0.621253 0.612170
O O9 0.782398 0.483495 0.175961
O O10 0.690209 0.661438 0.378048
O O11 0.157884 0.679388 0.021009
O O12 0.884384 0.717752 0.999557
O O13 0.806275 0.774166 0.458037
O O14 0.961906 0.877133 0.221885
O O15 0.537693 0.846376 0.428025
O O16 0.358631 0.815426 0.791347
O O17 0.000000 0.000000 0.000000
#
# Coordination Sequence:
#
# PCOD9110055 Si02
#       8
#     2   2   2   2   2   2   2   2
#     4  12  25  40  60  86 128 169 203 249 308 360
#     4  11  24  41  62  93 129 161 205 251 306 369
#     4  10  20  41  69  90 120 162 204 249 309 375
#     4  10  20  41  69  91 119 161 205 252 307 366
#     4  11  24  39  60  92 126 157 201 255 305 359
#     4  10  22  40  64  91 120 164 210 247 303 370
#     4  10  22  38  62  90 119 158 205 254 300 361
#     4  12  23  38  60  86 122 159 210 258 297 350
#
# _framework density 20.625395999999999
#
# number of rings (size 3 to 8) (size 9 to 14) (size 15 to 20)
#    0.000    1.250    2.500    4.500    0.000   11.000 
#    0.000    0.000    0.000    3.000    0.000    0.000 
#    0.000    0.000    0.000    0.000    0.000    0.000 
#
# Total GULP energy -89375.518327 kJ/mol
# GULP energy per Si atom -5585.969895 kJ/mol
# Density = 2.057845 g / cm^3
# Si number density = 20.625396 Si / 1000 Ang^3
#
#
#
# Elastic Constant Matrix: (Units=GPa)
#
#
# Indices 1 2 3 4 5 6 
#
# 1 120.4929 17.4491 5.1956 5.0155 1.1079 18.0243
# 2 17.4491 93.8387 5.7089 3.0438 1.5831 18.6160
# 3 5.1956 5.7089 41.0071 -3.8073 -5.2487 5.3910
# 4 5.0155 3.0438 -3.8073 27.1879 6.5813 -4.9919
# 5 1.1079 1.5831 -5.2487 6.5813 30.4216 -1.2859
# 6 18.0243 18.6160 5.3910 -4.9919 -1.2859 32.0573
#
#
#
# Elastic Compliance Matrix: (Units=1/GPa)
#
#
# Indices 1 2 3 4 5 6 
#
# 1 0.009302 -0.000567 -0.000673 -0.002688 -0.000064 -0.005209
# 2 -0.000567 0.012324 -0.001021 -0.002590 -0.000536 -0.007091
# 3 -0.000673 -0.001021 0.025702 0.002380 0.003878 -0.002825
# 4 -0.002688 -0.002590 0.002380 0.041431 -0.007950 0.008748
# 5 -0.000064 -0.000536 0.003878 -0.007950 0.035285 -0.000127
# 6 -0.005209 -0.007091 -0.002825 0.008748 -0.000127 0.040073
#
#
# Mechanical properties :
#
#
# Convention : Reuss Voigt Hill
#
# Bulk Modulus (GPa) = 23.36066 34.67177 29.01622
# Shear Modulus (GPa) = 27.33635 33.06568 30.20101
#
# Velocity S-wave (km/s) = 3.64452 4.00828 3.83072
# Velocity P-wave (km/s) = 5.39080 6.18615 5.80212
#
# Compressibility (1/GPa) = 0.04280700
#
# Stress axis : x y z
#
# Youngs Moduli (GPa) = 107.50386 81.14286 38.90737
#
# Poissons Ratio (x) = 0.04602 0.02617
# Poissons Ratio (y) = 0.06098 0.03971
# Poissons Ratio (z) = 0.07230 0.08283
#
# Static dielectric constant tensor:
#      x y z
#    x 1.741750 0.006570 -0.007050 
#    y 0.006570 1.743030 -0.017480 
#    z -0.007050 -0.017480 1.758510 
# 
# From -- ./inp_files/207530.got.cif
#   From: 2010.05.17/outbox.cif.g08.bks.cpg/sg2_104_cif.got.tgz:207530.got - 2010.06.03 11:33:40.
