data_PCOD9110042
_publ_section_title
;
Structure prediction by ZEFSAII (Michael W. Deem and Ramdas Pophale) SiO2 
 PCOD9110042
Probable space group: P -1
;
_chemical_formula_sum "Si O2"
_cell_formula_units_Z 15
_cell_length_a 5.088348
_cell_length_b 9.328720
_cell_length_c 14.204499
_cell_angle_alpha 98.200840
_cell_angle_beta 76.604393
_cell_angle_gamma 79.003851
_cell_volume 631.425690
_symmetry_space_group_name_H-M "P -1"
_symmetry_group_IT_number 2
_symmetry_cell_setting 'triclinic'
loop_
_space_group_symop_operation_xyz
x,y,z
-x,-y,-z
loop_
_atom_site_type_symbol
_atom_site_label
_atom_site_fract_x
_atom_site_fract_y
_atom_site_fract_z
Si Si1 0.818814 0.881706 0.530990
Si Si2 0.833980 0.057691 0.201601
Si Si3 0.424877 0.395350 0.126167
Si Si4 0.627727 0.697000 0.150702
Si Si5 0.297238 0.138654 0.658500
Si Si6 0.209765 0.234366 0.278420
Si Si7 0.302517 0.888307 0.030086
Si Si8 0.000000 0.500000 0.000000
O O1 0.810445 0.792374 0.426302
O O2 0.884456 0.775113 0.606538
O O3 0.533533 0.996098 0.594117
O O4 0.000000 0.000000 0.500000
O O5 0.501456 0.110609 0.230585
O O6 0.971728 0.191614 0.231386
O O7 0.903099 0.939342 0.271416
O O8 0.993893 0.977615 0.091368
O O9 0.586565 0.527834 0.123918
O O10 0.286804 0.376947 0.236452
O O11 0.198227 0.422621 0.065441
O O12 0.639065 0.242906 0.064516
O O13 0.610710 0.752197 0.264029
O O14 0.427674 0.809090 0.110353
O O15 0.935838 0.662204 0.079182
O O16 0.500000 0.000000 0.000000
#
# Coordination Sequence:
#
# PCOD9110042 Si02
#       8
#     2   2   2   2   2   2   2   1
#     4  10  20  41  69 106 135 173 233 304 360 416
#     4  11  23  42  66 109 141 182 234 301 355 413
#     4  11  26  45  65 100 144 194 234 289 352 429
#     4  11  26  43  64 101 142 194 232 286 354 432
#     4  10  23  39  69 100 141 181 230 294 362 420
#     4  11  24  43  71 104 144 183 236 299 363 415
#     4  11  22  41  66 104 138 183 243 293 347 413
#     4  10  24  46  66  90 138 198 240 270 342 416
#
# _framework density 23.755765
#
# number of rings (size 3 to 8) (size 9 to 14) (size 15 to 20)
#    0.000    1.333    2.667    3.200    5.600    0.533 
#    0.000    0.667    0.000    1.600    0.000    0.000 
#    0.000    0.000    0.000    0.000    0.000    0.000 
#
# Total GULP energy -83599.777842 kJ/mol
# GULP energy per Si atom -5573.318523 kJ/mol
# Density = 2.370170 g / cm^3
# Si number density = 23.755765 Si / 1000 Ang^3
#
#
#
# Elastic Constant Matrix: (Units=GPa)
#
#
# Indices 1 2 3 4 5 6 
#
# 1 58.3509 10.5086 14.3802 3.1835 -2.9563 0.7496
# 2 10.5086 83.7093 23.6924 -8.9008 7.8735 15.7146
# 3 14.3802 23.6924 166.0614 -21.3938 24.3345 4.4880
# 4 3.1835 -8.9008 -21.3938 44.6420 5.8650 -1.3355
# 5 -2.9563 7.8735 24.3345 5.8650 46.3516 0.9829
# 6 0.7496 15.7146 4.4880 -1.3355 0.9829 37.5078
#
#
#
# Elastic Compliance Matrix: (Units=1/GPa)
#
#
# Indices 1 2 3 4 5 6 
#
# 1 0.018434 -0.002482 -0.002132 -0.003218 0.003108 0.000731
# 2 -0.002482 0.014073 -0.000970 0.002647 -0.002256 -0.005577
# 3 -0.002132 -0.000970 0.007536 0.004149 -0.004449 -0.000188
# 4 -0.003218 0.002647 0.004149 0.025934 -0.006105 -0.000458
# 5 0.003108 -0.002256 -0.004449 -0.006105 0.025252 0.000536
# 6 0.000731 -0.005577 -0.000188 -0.000458 0.000536 0.028975
#
#
# Mechanical properties :
#
#
# Convention : Reuss Voigt Hill
#
# Bulk Modulus (GPa) = 34.63343 45.03158 39.83251
# Shear Modulus (GPa) = 35.46106 43.00296 39.23201
#
# Velocity S-wave (km/s) = 3.86778 4.25927 4.06824
# Velocity P-wave (km/s) = 5.87852 6.57159 6.23469
#
# Compressibility (1/GPa) = 0.02887384
#
# Stress axis : x y z
#
# Youngs Moduli (GPa) = 54.24822 71.05756 132.68799
#
# Poissons Ratio (x) = 0.17639 0.28288
# Poissons Ratio (y) = 0.13467 0.12877
# Poissons Ratio (z) = 0.11565 0.06896
#
# Static dielectric constant tensor:
#      x y z
#    x 1.672820 -0.061460 0.248790 
#    y -0.061460 1.953110 -0.042990 
#    z 0.248790 -0.042990 1.838470 
# 
# From -- ./inp_files/479896.got.cif
#   From: 2010.05.17/outbox.cif.g08.bks.cpg/sg2_240_cif.got.tgz:479896.got - 2010.06.03 11:33:40.
