data_PCOD9110035
_publ_section_title
;
Structure prediction by ZEFSAII (Michael W. Deem and Ramdas Pophale) SiO2 
 PCOD9110035
Probable space group: P -1
;
_chemical_formula_sum "Si O2"
_cell_formula_units_Z 16
_cell_length_a 18.349871
_cell_length_b 8.846659
_cell_length_c 21.498200
_cell_angle_alpha 152.249989
_cell_angle_beta 27.060395
_cell_angle_gamma 141.002552
_cell_volume 738.254333
_symmetry_space_group_name_H-M "P -1"
_symmetry_group_IT_number 2
_symmetry_cell_setting 'triclinic'
loop_
_space_group_symop_operation_xyz
x,y,z
-x,-y,-z
loop_
_atom_site_type_symbol
_atom_site_label
_atom_site_fract_x
_atom_site_fract_y
_atom_site_fract_z
Si Si1 0.597079 0.322806 0.045637
Si Si2 0.354964 0.535499 0.072879
Si Si3 0.847878 0.749447 0.206797
Si Si4 0.747588 0.792344 0.553510
Si Si5 0.005188 0.578081 0.691341
Si Si6 0.804972 0.118899 0.498058
Si Si7 0.533198 0.618949 0.334685
Si Si8 0.862338 0.799973 0.669128
O O1 0.589620 0.528372 0.062956
O O2 0.773909 0.149462 0.855335
O O3 0.539966 0.509053 0.218240
O O4 0.500000 0.000000 0.000000
O O5 0.187020 0.362677 0.147172
O O6 0.294799 0.913405 0.259860
O O7 0.500000 0.500000 0.000000
O O8 0.707938 0.568184 0.213002
O O9 0.906572 0.083929 0.253972
O O10 0.779895 0.884432 0.373829
O O11 0.000000 0.500000 0.000000
O O12 0.918023 0.617242 0.379050
O O13 0.605148 0.552832 0.585421
O O14 0.747523 0.957907 0.546371
O O15 0.061613 0.352426 0.507575
O O16 0.755981 0.502329 0.665143
O O17 0.996867 0.145058 0.369180
O O18 0.500000 0.000000 0.500000
#
# Coordination Sequence:
#
# PCOD9110035 Si02
#       8
#     2   2   2   2   2   2   2   2
#     4  12  25  43  73  99 138 187 239 284 359 417
#     4  12  27  41  71 115 142 168 238 314 351 408
#     4  11  26  46  68  98 144 193 239 286 353 430
#     4  12  23  45  72 101 139 187 238 292 358 421
#     4  11  22  46  72  98 143 187 229 293 360 419
#     4  10  23  38  72 101 137 177 234 293 357 404
#     4  12  27  49  71  99 144 196 236 285 357 435
#     4  10  20  41  69 104 133 180 232 288 352 426
#
# _framework density 21.672747999999999
#
# number of rings (size 3 to 8) (size 9 to 14) (size 15 to 20)
#    0.000    0.750    5.000    1.875    5.250    0.500 
#    2.250    1.250    0.000    0.000    0.000    0.000 
#    0.000    0.000    0.000    0.000    0.000    0.000 
#
# Total GULP energy -89397.969335 kJ/mol
# GULP energy per Si atom -5587.373083 kJ/mol
# Density = 2.162342 g / cm^3
# Si number density = 21.672748 Si / 1000 Ang^3
#
#
#
# Elastic Constant Matrix: (Units=GPa)
#
#
# Indices 1 2 3 4 5 6 
#
# 1 119.2877 45.9869 31.5383 -12.3554 0.5895 -6.5776
# 2 45.9869 118.9458 28.0491 -18.2602 13.8109 -5.4451
# 3 31.5383 28.0491 73.5748 -2.8059 -0.2194 -7.3289
# 4 -12.3554 -18.2602 -2.8059 37.3954 7.3121 -0.0387
# 5 0.5895 13.8109 -0.2194 7.3121 47.1493 -4.6244
# 6 -6.5776 -5.4451 -7.3289 -0.0387 -4.6244 41.4395
#
#
#
# Elastic Compliance Matrix: (Units=1/GPa)
#
#
# Indices 1 2 3 4 5 6 
#
# 1 0.010657 -0.003142 -0.003229 0.001629 0.000596 0.000776
# 2 -0.003142 0.011590 -0.002879 0.005221 -0.004173 0.000054
# 3 -0.003229 -0.002879 0.016232 -0.001528 0.001406 0.002135
# 4 0.001629 0.005221 -0.001528 0.030957 -0.006358 -0.000006
# 5 0.000596 -0.004173 0.001406 -0.006358 0.023655 0.002429
# 6 0.000776 0.000054 0.002135 -0.000006 0.002429 0.024910
#
#
# Mechanical properties :
#
#
# Convention : Reuss Voigt Hill
#
# Bulk Modulus (GPa) = 50.05708 58.10632 54.08170
# Shear Modulus (GPa) = 34.92558 38.94578 36.93568
#
# Velocity S-wave (km/s) = 4.01870 4.24369 4.13273
# Velocity P-wave (km/s) = 6.68433 7.13308 6.91235
#
# Compressibility (1/GPa) = 0.01997720
#
# Stress axis : x y z
#
# Youngs Moduli (GPa) = 93.83765 86.28417 61.60647
#
# Poissons Ratio (x) = 0.27113 0.19893
# Poissons Ratio (y) = 0.29487 0.17738
# Poissons Ratio (z) = 0.30300 0.24844
#
# Static dielectric constant tensor:
#      x y z
#    x 1.868580 0.000230 -0.083930 
#    y 0.000230 1.813870 -0.069800 
#    z -0.083930 -0.069800 1.871560 
# 
# From -- ./inp_files/599793.got.cif
#   From: 2010.05.17/outbox.cif.g08.bks.cpg/sg2_300_cif.got.tgz:599793.got - 2010.06.03 11:33:40.
