data_PCOD9110789
_publ_section_title
;
Structure prediction by ZEFSAII (Michael W. Deem and Ramdas Pophale) SiO2 
 PCOD9110789
Probable space group: P -1
;
_chemical_formula_sum "Si O2"
_cell_formula_units_Z 16
_cell_length_a 9.086807
_cell_length_b 11.600355
_cell_length_c 16.933200
_cell_angle_alpha 32.096329
_cell_angle_beta 132.532429
_cell_angle_gamma 132.490189
_cell_volume 674.372663
_symmetry_space_group_name_H-M "P -1"
_symmetry_group_IT_number 2
_symmetry_cell_setting 'triclinic'
loop_
_space_group_symop_operation_xyz
x,y,z
-x,-y,-z
loop_
_atom_site_type_symbol
_atom_site_label
_atom_site_fract_x
_atom_site_fract_y
_atom_site_fract_z
Si Si1 0.022658 0.953936 0.252249
Si Si2 0.967418 0.289147 0.169257
Si Si3 0.568636 0.177132 0.492007
Si Si4 0.792167 0.804168 0.547789
Si Si5 0.292233 0.641718 0.277066
Si Si6 0.567386 0.681477 0.197463
Si Si7 0.498114 0.136470 0.099764
Si Si8 0.103720 0.210848 0.972466
O O1 0.202878 0.828508 0.396242
O O2 0.802787 0.796238 0.239926
O O3 0.082601 0.136273 0.098552
O O4 0.998631 0.080500 0.250550
O O5 0.736427 0.222012 0.159812
O O6 0.135347 0.328772 0.275663
O O7 0.000000 0.500000 0.000000
O O8 0.400597 0.113442 0.538196
O O9 0.562341 0.426841 0.320298
O O10 0.500000 0.000000 0.500000
O O11 0.718762 0.620307 0.558164
O O12 0.000000 0.000000 0.500000
O O13 0.427729 0.690446 0.217715
O O14 0.397085 0.869220 0.231744
O O15 0.048994 0.633219 0.187602
O O16 0.504470 0.810350 0.025785
O O17 0.344310 0.271190 0.002872
O O18 0.000000 0.000000 0.000000
#
# Coordination Sequence:
#
# PCOD9110789 Si02
#       8
#     2   2   2   2   2   2   2   2
#     4  12  22  42  66  93 134 170 223 264 326 394
#     4  12  25  43  70 100 130 174 225 267 330 396
#     4  11  25  44  62  93 132 176 221 263 329 395
#     4  11  26  47  64  93 137 177 215 270 334 395
#     4  10  20  42  66  92 127 170 213 266 329 385
#     4  11  21  40  68  94 128 171 217 275 320 395
#     4  11  22  39  69  98 128 162 222 277 329 376
#     4  10  21  38  63 101 127 162 211 280 326 378
#
# _framework density 23.725753000000001
#
# number of rings (size 3 to 8) (size 9 to 14) (size 15 to 20)
#    0.000    1.000    5.000    3.750    1.750    1.000 
#    0.000    1.875    0.000    0.000    0.000    0.000 
#    0.000    0.000    0.000    0.000    0.000    0.000 
#
# Total GULP energy -89483.363738 kJ/mol
# GULP energy per Si atom -5592.710234 kJ/mol
# Density = 2.367175 g / cm^3
# Si number density = 23.725753 Si / 1000 Ang^3
#
#
#
# Elastic Constant Matrix: (Units=GPa)
#
#
# Indices 1 2 3 4 5 6 
#
# 1 127.1545 15.3200 7.6082 2.9745 33.7785 31.7170
# 2 15.3200 74.3150 10.0763 3.4492 8.3232 20.8167
# 3 7.6082 10.0763 65.1933 -2.8444 17.3877 6.8953
# 4 2.9745 3.4492 -2.8444 43.2325 5.8371 8.6003
# 5 33.7785 8.3232 17.3877 5.8371 42.6876 3.3414
# 6 31.7170 20.8167 6.8953 8.6003 3.3414 46.0465
#
#
#
# Elastic Compliance Matrix: (Units=1/GPa)
#
#
# Indices 1 2 3 4 5 6 
#
# 1 0.012721 0.000704 0.002358 0.002494 -0.010791 -0.009116
# 2 0.000704 0.015792 -0.001000 0.000457 -0.002715 -0.007363
# 3 0.002358 -0.001000 0.018217 0.003119 -0.009219 -0.003813
# 4 0.002494 0.000457 0.003119 0.025300 -0.006271 -0.006662
# 5 -0.010791 -0.002715 -0.009219 -0.006271 0.036436 0.008568
# 6 -0.009116 -0.007363 -0.003813 -0.006662 0.008568 0.032519
#
#
# Mechanical properties :
#
#
# Convention : Reuss Voigt Hill
#
# Bulk Modulus (GPa) = 19.66437 36.96351 28.31394
# Shear Modulus (GPa) = 32.50729 41.97053 37.23891
#
# Velocity S-wave (km/s) = 3.70554 4.21049 3.96606
# Velocity P-wave (km/s) = 5.15890 6.26506 5.73869
#
# Compressibility (1/GPa) = 0.05085339
#
# Stress axis : x y z
#
# Youngs Moduli (GPa) = 78.61158 63.32321 54.89497
#
# Poissons Ratio (x) = -0.04460 -0.12943
# Poissons Ratio (y) = -0.05537 0.05490
# Poissons Ratio (z) = -0.18534 0.06333
#
# Static dielectric constant tensor:
#      x y z
#    x 1.911890 -0.015190 -0.004070 
#    y -0.015190 1.900480 -0.032470 
#    z -0.004070 -0.032470 1.985680 
# 
# From -- ./inp_files/403508.got.cif
#   From: 2010.05.17/outbox.cif.g08.bks.cpg/sg2_202_cif.got.tgz:403508.got - 2010.06.03 11:33:40.
