data_PCOD9110663
_publ_section_title
;
Structure prediction by ZEFSAII (Michael W. Deem and Ramdas Pophale) SiO2 
 PCOD9110663
Probable space group: P -1
;
_chemical_formula_sum "Si O2"
_cell_formula_units_Z 10
_cell_length_a 12.103351
_cell_length_b 7.297374
_cell_length_c 8.800495
_cell_angle_alpha 73.781891
_cell_angle_beta 37.340087
_cell_angle_gamma 57.632111
_cell_volume 381.614773
_symmetry_space_group_name_H-M "P -1"
_symmetry_group_IT_number 2
_symmetry_cell_setting 'triclinic'
loop_
_space_group_symop_operation_xyz
x,y,z
-x,-y,-z
loop_
_atom_site_type_symbol
_atom_site_label
_atom_site_fract_x
_atom_site_fract_y
_atom_site_fract_z
Si Si1 0.313126 0.482613 0.409531
Si Si2 0.037605 0.117645 0.136610
Si Si3 0.315115 0.053734 0.567319
Si Si4 0.633295 0.824356 0.030188
Si Si5 0.784692 0.345855 0.856824
O O1 0.261848 0.288299 0.497118
O O2 0.237583 0.633535 0.304915
O O3 0.182067 0.642242 0.656042
O O4 0.569759 0.369040 0.157461
O O5 0.129066 0.087840 0.874713
O O6 0.206879 0.121860 0.068818
O O7 0.976436 0.096161 0.749710
O O8 0.500000 0.000000 0.500000
O O9 0.449742 0.858760 0.341599
O O10 0.771454 0.568944 0.877727
O O11 0.500000 0.000000 0.000000
#
# Coordination Sequence:
#
# PCOD9110663 Si02
#       5
#     2   2   2   2   2
#     4  11  21  42  66  89 128 165 202 255 310 363
#     4  11  24  42  64  93 125 164 206 253 307 368
#     4  10  20  42  65  87 126 169 198 251 318 359
#     4  11  21  41  67  89 127 165 202 254 309 364
#     4  11  22  40  65  93 124 161 207 256 304 363
#
# _framework density 26.204440000000002
#
# number of rings (size 3 to 8) (size 9 to 14) (size 15 to 20)
#    0.000    1.200    6.000    2.400    0.000    1.600 
#    3.600    1.000    0.000    0.000    0.000    0.000 
#    0.000    0.000    0.000    0.000    0.000    0.000 
#
# Total GULP energy -56054.617416 kJ/mol
# GULP energy per Si atom -5605.461742 kJ/mol
# Density = 2.614480 g / cm^3
# Si number density = 26.204440 Si / 1000 Ang^3
#
#
#
# Elastic Constant Matrix: (Units=GPa)
#
#
# Indices 1 2 3 4 5 6 
#
# 1 81.9325 -2.6924 7.8640 -8.7465 -8.1140 10.6773
# 2 -2.6924 81.6888 -3.6733 2.3037 -6.4398 28.1003
# 3 7.8640 -3.6733 133.4148 10.1309 10.3283 -3.1090
# 4 -8.7465 2.3037 10.1309 40.1049 3.3174 4.5698
# 5 -8.1140 -6.4398 10.3283 3.3174 38.7628 -2.0608
# 6 10.6773 28.1003 -3.1090 4.5698 -2.0608 33.7429
#
#
#
# Elastic Compliance Matrix: (Units=1/GPa)
#
#
# Indices 1 2 3 4 5 6 
#
# 1 0.014160 0.003141 -0.001462 0.003879 0.003141 -0.007565
# 2 0.003141 0.018034 -0.000381 0.001345 0.002786 -0.016059
# 3 -0.001462 -0.000381 0.007957 -0.002318 -0.002201 0.001692
# 4 0.003879 0.001345 -0.002318 0.027088 -0.001000 -0.006291
# 5 0.003141 0.002786 -0.002201 -0.001000 0.027500 -0.001702
# 6 -0.007565 -0.016059 0.001692 -0.006291 -0.001702 0.046307
#
#
# Mechanical properties :
#
#
# Convention : Reuss Voigt Hill
#
# Bulk Modulus (GPa) = 23.39293 33.33698 28.36496
# Shear Modulus (GPa) = 32.74427 42.22465 37.48446
#
# Velocity S-wave (km/s) = 3.53876 4.01852 3.78625
# Velocity P-wave (km/s) = 5.06395 5.85499 5.47378
#
# Compressibility (1/GPa) = 0.04274796
#
# Stress axis : x y z
#
# Youngs Moduli (GPa) = 70.62251 55.45083 125.67618
#
# Poissons Ratio (x) = -0.17420 0.18376
# Poissons Ratio (y) = -0.22186 0.04784
# Poissons Ratio (z) = 0.10326 0.02111
#
# Static dielectric constant tensor:
#      x y z
#    x 2.123210 -0.003970 -0.101490 
#    y -0.003970 2.032950 0.009710 
#    z -0.101490 0.009710 2.032570 
# 
# From -- ./inp_files/144160.got.cif
#   From: 2010.05.17/outbox.cif.g08.bks.cpg/sg2_73_cif.got.tgz:144160.got - 2010.06.03 11:33:40.
