data_PCOD9110120
_publ_section_title
;
Structure prediction by ZEFSAII (Michael W. Deem and Ramdas Pophale) SiO2 
 PCOD9110120
Probable space group: P -1
;
_chemical_formula_sum "Si O2"
_cell_formula_units_Z 16
_cell_length_a 13.715117
_cell_length_b 7.944775
_cell_length_c 10.092928
_cell_angle_alpha 114.743796
_cell_angle_beta 43.945811
_cell_angle_gamma 94.139132
_cell_volume 645.687621
_symmetry_space_group_name_H-M "P -1"
_symmetry_group_IT_number 2
_symmetry_cell_setting 'triclinic'
loop_
_space_group_symop_operation_xyz
x,y,z
-x,-y,-z
loop_
_atom_site_type_symbol
_atom_site_label
_atom_site_fract_x
_atom_site_fract_y
_atom_site_fract_z
Si Si1 0.789012 0.104882 0.470795
Si Si2 0.439548 0.211690 0.250193
Si Si3 0.491971 0.105534 0.684480
Si Si4 0.322310 0.535068 0.669386
Si Si5 0.999762 0.297001 0.007650
Si Si6 0.804375 0.568283 0.967514
Si Si7 0.263634 0.997873 0.211308
Si Si8 0.033862 0.695767 0.500521
O O1 0.625681 0.190257 0.591806
O O2 0.866305 0.263123 0.469146
O O3 0.777053 0.042653 0.614441
O O4 0.884888 0.903255 0.235343
O O5 0.328678 0.408326 0.489622
O O6 0.354657 0.147442 0.194058
O O7 0.472023 0.058931 0.291100
O O8 0.606053 0.196925 0.038891
O O9 0.331409 0.271663 0.925117
O O10 0.500000 0.000000 0.500000
O O11 0.500000 0.500000 0.500000
O O12 0.277101 0.457483 0.825588
O O13 0.165434 0.718177 0.851189
O O14 0.073160 0.332570 0.084037
O O15 0.000000 0.500000 0.000000
O O16 0.879604 0.365074 0.746034
O O17 0.115310 0.109223 0.309961
O O18 0.000000 0.500000 0.500000
#
# Coordination Sequence:
#
# PCOD9110120 Si02
#       8
#     2   2   2   2   2   2   2   2
#     4  11  24  42  73 100 132 188 233 279 348 417
#     4  10  21  38  65  97 127 173 218 281 334 410
#     4  11  19  42  66  98 131 175 228 280 348 405
#     4  11  23  36  61 102 133 166 228 276 335 402
#     4  10  20  41  69  99 131 176 232 279 342 406
#     4  11  22  43  69  89 137 184 215 290 343 405
#     4  10  21  41  68  94 132 173 228 275 342 411
#     4  12  27  45  64 101 141 182 232 288 347 412
#
# _framework density 24.779786000000001
#
# number of rings (size 3 to 8) (size 9 to 14) (size 15 to 20)
#    0.000    1.250    2.500    5.625    3.500    0.500 
#    4.500    0.625    0.000    0.000    0.000    0.000 
#    0.000    0.000    0.000    0.000    0.000    0.000 
#
# Total GULP energy -89421.667602 kJ/mol
# GULP energy per Si atom -5588.854225 kJ/mol
# Density = 2.472339 g / cm^3
# Si number density = 24.779786 Si / 1000 Ang^3
#
#
#
# Elastic Constant Matrix: (Units=GPa)
#
#
# Indices 1 2 3 4 5 6 
#
# 1 147.2434 24.2654 28.1306 -7.2729 -22.0869 24.4347
# 2 24.2654 45.4072 13.3443 -9.0240 -2.2541 15.1434
# 3 28.1306 13.3443 118.7294 -6.9404 -4.7504 3.4285
# 4 -7.2729 -9.0240 -6.9404 35.3416 5.8710 -3.4892
# 5 -22.0869 -2.2541 -4.7504 5.8710 54.1155 2.4815
# 6 24.4347 15.1434 3.4285 -3.4892 2.4815 32.9743
#
#
#
# Elastic Compliance Matrix: (Units=1/GPa)
#
#
# Indices 1 2 3 4 5 6 
#
# 1 0.008964 -0.002277 -0.001567 -0.000228 0.003714 -0.005737
# 2 -0.002277 0.028433 -0.002038 0.005349 -0.000019 -0.010591
# 3 -0.001567 -0.002038 0.009045 0.001077 -0.000106 0.001279
# 4 -0.000228 0.005349 0.001077 0.030450 -0.003128 0.001058
# 5 0.003714 -0.000019 -0.000106 -0.003128 0.020535 -0.004609
# 6 -0.005737 -0.010591 0.001279 0.001058 -0.004609 0.039768
#
#
# Mechanical properties :
#
#
# Convention : Reuss Voigt Hill
#
# Bulk Modulus (GPa) = 28.83794 49.20673 39.02233
# Shear Modulus (GPa) = 31.14891 40.86224 36.00557
#
# Velocity S-wave (km/s) = 3.54931 4.06521 3.81599
# Velocity P-wave (km/s) = 5.33477 6.47575 5.93275
#
# Compressibility (1/GPa) = 0.03467655
#
# Stress axis : x y z
#
# Youngs Moduli (GPa) = 111.55589 35.17022 110.56238
#
# Poissons Ratio (x) = 0.08010 0.17325
# Poissons Ratio (y) = 0.25405 0.22537
# Poissons Ratio (z) = 0.17480 0.07169
#
# Static dielectric constant tensor:
#      x y z
#    x 2.029040 0.000400 -0.023700 
#    y 0.000400 2.094630 -0.072940 
#    z -0.023700 -0.072940 2.012640 
# 
# From -- ./inp_files/447998.got.cif
#   From: 2010.05.17/outbox.cif.g08.bks.cpg/sg2_224_cif.got.tgz:447998.got - 2010.06.03 11:33:40.
