data_PCOD9110894
_publ_section_title
;
Structure prediction by ZEFSAII (Michael W. Deem and Ramdas Pophale) SiO2 
 PCOD9110894
Probable space group: P -1
;
_chemical_formula_sum "Si O2"
_cell_formula_units_Z 16
_cell_length_a 13.591244
_cell_length_b 14.554091
_cell_length_c 13.726694
_cell_angle_alpha 150.533789
_cell_angle_beta 146.059735
_cell_angle_gamma 41.502455
_cell_volume 742.225379
_symmetry_space_group_name_H-M "P -1"
_symmetry_group_IT_number 2
_symmetry_cell_setting 'triclinic'
loop_
_space_group_symop_operation_xyz
x,y,z
-x,-y,-z
loop_
_atom_site_type_symbol
_atom_site_label
_atom_site_fract_x
_atom_site_fract_y
_atom_site_fract_z
Si Si1 0.573453 0.021070 0.328401
Si Si2 0.284867 0.802533 0.803979
Si Si3 0.835268 0.409721 0.329713
Si Si4 0.932020 0.081420 0.764013
Si Si5 0.409299 0.240374 0.579750
Si Si6 0.023165 0.278975 0.834597
Si Si7 0.235449 0.890434 0.147298
Si Si8 0.723076 0.081409 0.304536
O O1 0.770506 0.968561 0.485947
O O2 0.484343 0.168099 0.469511
O O3 0.600300 0.104583 0.320168
O O4 0.445357 0.858406 0.055529
O O5 0.197942 0.624702 0.614385
O O6 0.351544 0.816856 0.760663
O O7 0.118813 0.960782 0.811904
O O8 0.666257 0.546841 0.285376
O O9 0.000000 0.500000 0.500000
O O10 0.834299 0.205967 0.092779
O O11 0.877769 0.151857 0.891032
O O12 0.949012 0.242584 0.847808
O O13 0.564517 0.194007 0.741947
O O14 0.252869 0.110066 0.353929
O O15 0.897684 0.183629 0.567335
O O16 0.207949 0.141745 0.854745
O O17 0.000000 0.500000 0.000000
#
# Coordination Sequence:
#
# PCOD9110894 Si02
#       8
#     2   2   2   2   2   2   2   2
#     4  10  20  42  67  87 124 167 207 255 310 362
#     4  11  22  41  64  91 130 163 203 258 312 367
#     4  12  26  39  60  97 125 160 210 259 314 378
#     4   9  21  38  66  92 117 169 209 249 314 374
#     4  10  22  42  65  87 122 161 213 257 307 374
#     4   9  18  38  63  93 126 160 208 257 301 368
#     4  10  21  43  64  85 122 166 203 258 316 361
#     4   9  20  39  61  91 126 164 207 249 311 371
#
# _framework density 21.556795000000001
#
# number of rings (size 3 to 8) (size 9 to 14) (size 15 to 20)
#    0.000    2.000    1.250    2.250    1.750    2.000 
#   11.250    1.875    0.000    0.000    0.000    0.000 
#    0.000    0.000    0.000    0.000    0.000    0.000 
#
# Total GULP energy -89214.362989 kJ/mol
# GULP energy per Si atom -5575.897687 kJ/mol
# Density = 2.150773 g / cm^3
# Si number density = 21.556795 Si / 1000 Ang^3
#
#
#
# Elastic Constant Matrix: (Units=GPa)
#
#
# Indices 1 2 3 4 5 6 
#
# 1 102.1906 9.5812 23.6276 -7.1048 3.2336 21.7816
# 2 9.5812 78.3454 18.4641 10.1195 10.0922 15.7668
# 3 23.6276 18.4641 51.5539 3.8106 6.2745 7.1659
# 4 -7.1048 10.1195 3.8106 26.2058 2.6914 3.7515
# 5 3.2336 10.0922 6.2745 2.6914 26.9922 -1.8154
# 6 21.7816 15.7668 7.1659 3.7515 -1.8154 26.1171
#
#
#
# Elastic Compliance Matrix: (Units=1/GPa)
#
#
# Indices 1 2 3 4 5 6 
#
# 1 0.013967 0.001548 -0.005419 0.005958 -0.002401 -0.012118
# 2 0.001548 0.016839 -0.004368 -0.003394 -0.005812 -0.010174
# 3 -0.005419 -0.004368 0.023911 -0.003080 -0.002913 0.000836
# 4 0.005958 -0.003394 -0.003080 0.043123 -0.003602 -0.008520
# 5 -0.002401 -0.005812 -0.002913 -0.003602 0.041196 0.009691
# 6 -0.012118 -0.010174 0.000836 -0.008520 0.009691 0.056206
#
#
# Mechanical properties :
#
#
# Convention : Reuss Voigt Hill
#
# Bulk Modulus (GPa) = 26.15188 37.27063 31.71125
# Shear Modulus (GPa) = 22.27508 27.89083 25.08295
#
# Velocity S-wave (km/s) = 3.21802 3.60089 3.41482
# Velocity P-wave (km/s) = 5.09563 5.88350 5.50368
#
# Compressibility (1/GPa) = 0.03823817
#
# Stress axis : x y z
#
# Youngs Moduli (GPa) = 71.59871 59.38712 41.82165
#
# Poissons Ratio (x) = -0.09191 0.22663
# Poissons Ratio (y) = -0.11081 0.18266
# Poissons Ratio (z) = 0.38800 0.25938
#
# Static dielectric constant tensor:
#      x y z
#    x 1.846890 0.019900 0.011290 
#    y 0.019900 1.762940 -0.032470 
#    z 0.011290 -0.032470 1.815390 
# 
# From -- ./inp_files/525683.got.cif
#   From: 2010.05.17/outbox.cif.g08.bks.cpg/sg2_263_cif.got.tgz:525683.got - 2010.06.03 11:33:40.
