data_PCOD9110691
_publ_section_title
;
Structure prediction by ZEFSAII (Michael W. Deem and Ramdas Pophale) SiO2 
 PCOD9110691
Probable space group: P -1
;
_chemical_formula_sum "Si O2"
_cell_formula_units_Z 14
_cell_length_a 8.975561
_cell_length_b 13.810865
_cell_length_c 12.165481
_cell_angle_alpha 137.026859
_cell_angle_beta 36.780798
_cell_angle_gamma 138.168364
_cell_volume 566.815808
_symmetry_space_group_name_H-M "P -1"
_symmetry_group_IT_number 2
_symmetry_cell_setting 'triclinic'
loop_
_space_group_symop_operation_xyz
x,y,z
-x,-y,-z
loop_
_atom_site_type_symbol
_atom_site_label
_atom_site_fract_x
_atom_site_fract_y
_atom_site_fract_z
Si Si1 0.031911 0.073251 0.200828
Si Si2 0.670748 0.584729 0.767758
Si Si3 0.936862 0.598472 0.021460
Si Si4 0.800998 0.826602 0.436122
Si Si5 0.610168 0.027957 0.218635
Si Si6 0.934797 0.464722 0.334226
Si Si7 0.098438 0.786360 0.406766
O O1 0.243285 0.246016 0.192666
O O2 0.911366 0.080610 0.396060
O O3 0.197635 0.967438 0.992955
O O4 0.792032 0.037111 0.225123
O O5 0.368002 0.506623 0.923079
O O6 0.704545 0.478346 0.560557
O O7 0.882888 0.595413 0.747161
O O8 0.915510 0.753382 0.210396
O O9 0.000000 0.500000 0.000000
O O10 0.119299 0.613810 0.818745
O O11 0.828989 0.730458 0.446046
O O12 0.519569 0.845334 0.600915
O O13 0.000000 0.000000 0.500000
O O14 0.358436 0.863883 0.241448
O O15 0.105899 0.646702 0.357466
#
# Coordination Sequence:
#
# PCOD9110691 Si02
#       7
#     2   2   2   2   2   2   2
#     4  10  22  41  66  94 125 169 218 267 324 378
#     4  10  24  42  67  99 132 162 218 278 319 389
#     4  12  24  43  69  96 127 179 218 262 332 385
#     4  10  24  43  63  94 133 169 218 266 317 388
#     4  10  22  41  64  91 129 171 218 262 318 388
#     4  10  22  43  68  97 130 166 217 271 328 378
#     4  10  20  42  65  91 130 170 211 272 316 379
#
# _framework density 24.699380999999999
#
# number of rings (size 3 to 8) (size 9 to 14) (size 15 to 20)
#    0.000    1.714    1.429    1.714    8.000    1.143 
#   10.286    0.000    0.000    0.000    0.000    0.000 
#    0.000    0.000    0.000    0.000    0.000    0.000 
#
# Total GULP energy -78275.485672 kJ/mol
# GULP energy per Si atom -5591.106119 kJ/mol
# Density = 2.464316 g / cm^3
# Si number density = 24.699381 Si / 1000 Ang^3
#
#
#
# Elastic Constant Matrix: (Units=GPa)
#
#
# Indices 1 2 3 4 5 6 
#
# 1 68.6365 -1.4471 68.1044 2.6474 8.5998 -5.8751
# 2 -1.4471 61.4534 10.5072 18.2165 -13.9927 -6.2809
# 3 68.1044 10.5072 196.2789 21.7276 3.8889 -8.8766
# 4 2.6474 18.2165 21.7276 41.5631 1.2812 -0.3025
# 5 8.5998 -13.9927 3.8889 1.2812 29.8828 -3.4812
# 6 -5.8751 -6.2809 -8.8766 -0.3025 -3.4812 25.4866
#
#
#
# Elastic Compliance Matrix: (Units=1/GPa)
#
#
# Indices 1 2 3 4 5 6 
#
# 1 0.023567 -0.000024 -0.008320 0.003046 -0.005632 0.001796
# 2 -0.000024 0.022769 0.000015 -0.010302 0.011938 0.007119
# 3 -0.008320 0.000015 0.008438 -0.003929 0.001612 0.001198
# 4 0.003046 -0.010302 -0.003929 0.030621 -0.006943 -0.003790
# 5 -0.005632 0.011938 0.001612 -0.006943 0.041673 0.007814
# 6 0.001796 0.007119 0.001198 -0.003790 0.007814 0.042844
#
#
# Mechanical properties :
#
#
# Convention : Reuss Voigt Hill
#
# Bulk Modulus (GPa) = 26.23602 53.41085 39.82344
# Shear Modulus (GPa) = 25.09097 36.00013 30.54555
#
# Velocity S-wave (km/s) = 3.19070 3.82191 3.52048
# Velocity P-wave (km/s) = 4.92131 6.41461 5.71693
#
# Compressibility (1/GPa) = 0.03811554
#
# Stress axis : x y z
#
# Youngs Moduli (GPa) = 42.43308 43.91971 118.51111
#
# Poissons Ratio (x) = 0.00106 0.98603
# Poissons Ratio (y) = 0.00103 -0.00182
# Poissons Ratio (z) = 0.35305 -0.00067
#
# Static dielectric constant tensor:
#      x y z
#    x 1.960770 0.014360 -0.001290 
#    y 0.014360 2.007860 0.055260 
#    z -0.001290 0.055260 1.956600 
# 
# From -- ./inp_files/399527.got.cif
#   From: 2010.05.17/outbox.cif.g08.bks.cpg/sg2_200_cif.got.tgz:399527.got - 2010.06.03 11:33:40.
