data_PCOD9110231
_publ_section_title
;
Structure prediction by ZEFSAII (Michael W. Deem and Ramdas Pophale) SiO2 
 PCOD9110231
Probable space group: P -1
;
_chemical_formula_sum "Si O2"
_cell_formula_units_Z 16
_cell_length_a 9.400560
_cell_length_b 15.036480
_cell_length_c 8.191674
_cell_angle_alpha 77.454081
_cell_angle_beta 50.385867
_cell_angle_gamma 105.689670
_cell_volume 730.693385
_symmetry_space_group_name_H-M "P -1"
_symmetry_group_IT_number 2
_symmetry_cell_setting 'triclinic'
loop_
_space_group_symop_operation_xyz
x,y,z
-x,-y,-z
loop_
_atom_site_type_symbol
_atom_site_label
_atom_site_fract_x
_atom_site_fract_y
_atom_site_fract_z
Si Si1 0.347653 0.816092 0.641987
Si Si2 0.703339 0.743239 0.885305
Si Si3 0.367475 0.069635 0.074879
Si Si4 0.141720 0.773493 0.475067
Si Si5 0.644054 0.356474 0.116654
Si Si6 0.027937 0.410409 0.596538
Si Si7 0.529946 0.518425 0.278007
Si Si8 0.383076 0.958729 0.827993
O O1 0.176670 0.753030 0.645866
O O2 0.439340 0.743051 0.657862
O O3 0.262768 0.851834 0.846117
O O4 0.529598 0.934738 0.389361
O O5 0.515680 0.688173 0.905421
O O6 0.944604 0.791654 0.618115
O O7 0.704858 0.845922 0.911767
O O8 0.645497 0.643879 0.088646
O O9 0.615076 0.135376 0.795781
O O10 0.251350 0.972241 0.067108
O O11 0.413323 0.043456 0.234232
O O12 0.071986 0.683224 0.426422
O O13 0.647010 0.459581 0.142847
O O14 0.882294 0.381926 0.877321
O O15 0.281165 0.454520 0.417676
O O16 0.000000 0.500000 0.500000
O O17 0.500000 0.500000 0.500000
#
# Coordination Sequence:
#
# PCOD9110231 Si02
#       8
#     2   2   2   2   2   2   2   2
#     4  10  22  39  66  99 126 166 216 269 321 372
#     4  12  23  44  64  96 131 173 211 260 322 382
#     4  10  20  41  71  90 125 177 210 259 331 379
#     4  11  23  39  66  95 130 164 220 263 315 383
#     4  12  24  42  69  91 132 175 211 260 321 378
#     4  12  23  42  66  90 128 178 219 257 316 382
#     4  12  29  43  63  99 133 167 218 266 311 382
#     4   9  19  40  68  92 126 167 215 266 321 384
#
# _framework density 21.897010000000002
#
# number of rings (size 3 to 8) (size 9 to 14) (size 15 to 20)
#    0.000    1.000    5.000    1.125    7.000    0.500 
#    0.000    6.250    0.000    0.000    0.000    0.000 
#    0.000    0.000    0.000    0.000    0.000    0.000 
#
# Total GULP energy -89256.872599 kJ/mol
# GULP energy per Si atom -5578.554537 kJ/mol
# Density = 2.184717 g / cm^3
# Si number density = 21.897010 Si / 1000 Ang^3
#
#
#
# Elastic Constant Matrix: (Units=GPa)
#
#
# Indices 1 2 3 4 5 6 
#
# 1 49.7670 38.0872 25.6434 -5.8787 17.7394 -10.4981
# 2 38.0872 141.5879 26.1986 30.7699 14.9823 -30.2160
# 3 25.6434 26.1986 71.5035 9.2960 0.9109 -18.7182
# 4 -5.8787 30.7699 9.2960 26.9463 -7.6719 8.5507
# 5 17.7394 14.9823 0.9109 -7.6719 36.1639 -3.2796
# 6 -10.4981 -30.2160 -18.7182 8.5507 -3.2796 43.7684
#
#
#
# Elastic Compliance Matrix: (Units=1/GPa)
#
#
# Indices 1 2 3 4 5 6 
#
# 1 0.066988 -0.037530 -0.030699 0.079440 -0.003197 -0.038730
# 2 -0.037530 0.040624 0.019838 -0.078040 -0.011676 0.041899
# 3 -0.030699 0.019838 0.032099 -0.050428 -0.001967 0.029764
# 4 0.079440 -0.078040 -0.050428 0.198542 0.028314 -0.093054
# 5 -0.003197 -0.011676 -0.001967 0.028314 0.039000 -0.012278
# 6 -0.038730 0.041899 0.029764 -0.093054 -0.012278 0.072471
#
#
# Mechanical properties :
#
#
# Convention : Reuss Voigt Hill
#
# Bulk Modulus (GPa) = 23.29440 49.19075 36.24257
# Shear Modulus (GPa) = 8.91556 32.90434 20.90995
#
# Velocity S-wave (km/s) = 2.02001 3.88066 3.09353
# Velocity P-wave (km/s) = 4.01271 6.52631 5.41731
#
# Compressibility (1/GPa) = 0.04292877
#
# Stress axis : x y z
#
# Youngs Moduli (GPa) = 14.92810 24.61569 31.15342
#
# Poissons Ratio (x) = 0.92383 0.95637
# Poissons Ratio (y) = 0.56026 -0.61801
# Poissons Ratio (z) = 0.45827 -0.48832
#
# Static dielectric constant tensor:
#      x y z
#    x 1.840250 0.012110 0.081060 
#    y 0.012110 1.762380 -0.002240 
#    z 0.081060 -0.002240 1.931620 
# 
# From -- ./inp_files/206220.got.cif
#   From: 2010.05.17/outbox.cif.g08.bks.cpg/sg2_104_cif.got.tgz:206220.got - 2010.06.03 11:33:40.
