data_PCOD9110354
_publ_section_title
;
Structure prediction by ZEFSAII (Michael W. Deem and Ramdas Pophale) SiO2 
 PCOD9110354
Probable space group: P -1
;
_chemical_formula_sum "Si O2"
_cell_formula_units_Z 15
_cell_length_a 11.468494
_cell_length_b 4.912987
_cell_length_c 13.622714
_cell_angle_alpha 105.413939
_cell_angle_beta 97.635028
_cell_angle_gamma 55.753768
_cell_volume 611.533828
_symmetry_space_group_name_H-M "P -1"
_symmetry_group_IT_number 2
_symmetry_cell_setting 'triclinic'
loop_
_space_group_symop_operation_xyz
x,y,z
-x,-y,-z
loop_
_atom_site_type_symbol
_atom_site_label
_atom_site_fract_x
_atom_site_fract_y
_atom_site_fract_z
Si Si1 0.486133 0.918544 0.125526
Si Si2 0.249608 0.237928 0.639155
Si Si3 0.171544 0.510374 0.450489
Si Si4 0.148049 0.936838 0.761350
Si Si5 0.500000 0.000000 0.500000
Si Si6 0.337893 0.863223 0.932679
Si Si7 0.591979 0.150773 0.673979
Si Si8 0.875421 0.014294 0.668256
O O1 0.602488 0.525859 0.073138
O O2 0.553521 0.132806 0.132060
O O3 0.443309 0.917434 0.231244
O O4 0.356338 0.026769 0.047667
O O5 0.152696 0.474667 0.558378
O O6 0.242167 0.527340 0.733256
O O7 0.394057 0.992144 0.576065
O O8 0.191466 0.065594 0.684197
O O9 0.337887 0.213744 0.418070
O O10 0.100629 0.353257 0.365188
O O11 0.131000 0.856595 0.431248
O O12 0.191208 0.039206 0.875654
O O13 0.987081 0.044099 0.744090
O O14 0.521864 0.663660 0.403929
O O15 0.711279 0.230994 0.703695
#
# Coordination Sequence:
#
# PCOD9110354 Si02
#       8
#     2   2   2   2   1   2   2   2
#     4  10  21  40  64  83 118 144 193 230 304 330
#     4  11  24  37  60  83 116 159 184 243 283 333
#     4   9  21  38  52  85 111 155 197 219 284 332
#     4  12  23  38  59  86 117 150 195 233 292 327
#     4  10  20  42  52  90 112 144 198 228 274 350
#     4  10  22  38  60  92 109 148 188 248 275 356
#     4   9  21  37  60  82 115 156 181 240 283 338
#     4  10  22  38  56  82 120 152 195 233 272 349
#
# _framework density 24.528487999999999
#
# number of rings (size 3 to 8) (size 9 to 14) (size 15 to 20)
#    0.800    1.067    0.000    4.000    1.867    3.733 
#    2.400    0.667    0.000    0.800    0.000    0.000 
#    0.000    0.000    0.000    0.000    0.000    0.000 
#
# Total GULP energy -83523.956957 kJ/mol
# GULP energy per Si atom -5568.263797 kJ/mol
# Density = 2.447266 g / cm^3
# Si number density = 24.528488 Si / 1000 Ang^3
#
#
#
# Elastic Constant Matrix: (Units=GPa)
#
#
# Indices 1 2 3 4 5 6 
#
# 1 125.4648 27.3192 51.9919 -15.7787 28.7252 14.8131
# 2 27.3192 89.0121 5.6911 -21.0405 -2.0017 24.3478
# 3 51.9919 5.6911 135.3362 -12.8617 35.9116 14.5033
# 4 -15.7787 -21.0405 -12.8617 20.1089 1.3528 -4.9148
# 5 28.7252 -2.0017 35.9116 1.3528 47.7899 -2.9361
# 6 14.8131 24.3478 14.5033 -4.9148 -2.9361 28.6760
#
#
#
# Elastic Compliance Matrix: (Units=1/GPa)
#
#
# Indices 1 2 3 4 5 6 
#
# 1 0.011562 -0.001067 -0.001795 0.006311 -0.006051 -0.003697
# 2 -0.001067 0.019893 0.003749 0.018826 -0.002815 -0.015297
# 3 -0.001795 0.003749 0.011772 0.008755 -0.008322 -0.007561
# 4 0.006311 0.018826 0.008755 0.077989 -0.012503 -0.011586
# 5 -0.006051 -0.002815 -0.008322 -0.012503 0.031717 0.010830
# 6 -0.003697 -0.015297 -0.007561 -0.011586 0.010830 0.052717
#
#
# Mechanical properties :
#
#
# Convention : Reuss Voigt Hill
#
# Bulk Modulus (GPa) = 22.22211 57.75748 39.98979
# Shear Modulus (GPa) = 22.84389 36.96902 29.90646
#
# Velocity S-wave (km/s) = 3.05507 3.88646 3.49557
# Velocity P-wave (km/s) = 4.63939 6.61345 5.71234
#
# Compressibility (1/GPa) = 0.04500023
#
# Stress axis : x y z
#
# Youngs Moduli (GPa) = 86.48848 50.26826 84.95043
#
# Poissons Ratio (x) = 0.05363 0.15252
# Poissons Ratio (y) = 0.09227 -0.31846
# Poissons Ratio (z) = 0.15528 -0.18845
#
# Static dielectric constant tensor:
#      x y z
#    x 2.164500 -0.077800 0.143950 
#    y -0.077800 2.023110 -0.001590 
#    z 0.143950 -0.001590 2.017500 
# 
# From -- ./inp_files/408513.got.cif
#   From: 2010.05.17/outbox.cif.g08.bks.cpg/sg2_205_cif.got.tgz:408513.got - 2010.06.03 11:33:40.
