data_PCOD9110396
_publ_section_title
;
Structure prediction by ZEFSAII (Michael W. Deem and Ramdas Pophale) SiO2 
 PCOD9110396
Probable space group: P -1
;
_chemical_formula_sum "Si O2"
_cell_formula_units_Z 16
_cell_length_a 15.016400
_cell_length_b 14.810946
_cell_length_c 5.152675
_cell_angle_alpha 131.257253
_cell_angle_beta 115.838065
_cell_angle_gamma 45.763824
_cell_volume 616.619905
_symmetry_space_group_name_H-M "P -1"
_symmetry_group_IT_number 2
_symmetry_cell_setting 'triclinic'
loop_
_space_group_symop_operation_xyz
x,y,z
-x,-y,-z
loop_
_atom_site_type_symbol
_atom_site_label
_atom_site_fract_x
_atom_site_fract_y
_atom_site_fract_z
Si Si1 0.455292 0.921957 0.621928
Si Si2 0.602911 0.569345 0.533835
Si Si3 0.139735 0.617120 0.774792
Si Si4 0.883645 0.610608 0.884304
Si Si5 0.980385 0.793033 0.386659
Si Si6 0.368582 0.211808 0.812810
Si Si7 0.665466 0.333188 0.549216
Si Si8 0.251759 0.869239 0.252442
O O1 0.582855 0.783024 0.393013
O O2 0.353847 0.896803 0.502169
O O3 0.388963 0.053889 0.562173
O O4 0.500000 0.000000 0.000000
O O5 0.716030 0.472966 0.294621
O O6 0.659962 0.471369 0.685838
O O7 0.475349 0.590682 0.386476
O O8 0.562627 0.738465 0.827609
O O9 0.122187 0.484538 0.527731
O O10 0.055077 0.715442 0.602607
O O11 0.081311 0.723553 0.153107
O O12 0.893367 0.744026 0.091897
O O13 0.768933 0.668716 0.037637
O O14 0.000000 0.500000 0.000000
O O15 0.884702 0.972347 0.642940
O O16 0.746747 0.223062 0.680038
O O17 0.702558 0.227220 0.138977
#
# Coordination Sequence:
#
# PCOD9110396 Si02
#       8
#     2   2   2   2   2   2   2   2
#     4  11  23  36  64  97 135 168 215 269 342 402
#     4  10  23  47  70  97 136 175 233 281 335 397
#     4  10  23  40  67  96 131 174 226 271 331 395
#     4   9  19  37  59  90 128 172 209 263 327 398
#     4  11  22  42  64  96 134 178 216 274 331 404
#     4  10  20  42  60  96 130 167 215 270 329 398
#     4  11  26  46  71  99 131 183 226 286 334 393
#     4  12  25  45  69  99 138 177 231 271 346 399
#
# _framework density 25.947911000000001
#
# number of rings (size 3 to 8) (size 9 to 14) (size 15 to 20)
#    0.000    1.500    2.500    1.875    1.750    6.000 
#   18.000    3.750    0.000    0.000    0.000    0.000 
#    0.000    0.000    0.000    0.000    0.000    0.000 
#
# Total GULP energy -89418.749562 kJ/mol
# GULP energy per Si atom -5588.671848 kJ/mol
# Density = 2.588885 g / cm^3
# Si number density = 25.947911 Si / 1000 Ang^3
#
#
#
# Elastic Constant Matrix: (Units=GPa)
#
#
# Indices 1 2 3 4 5 6 
#
# 1 107.0693 6.2488 35.0111 10.0807 -10.6307 6.0974
# 2 6.2488 95.4547 37.0510 8.1854 -3.9015 15.5448
# 3 35.0111 37.0510 145.9935 4.6073 -18.7211 8.5741
# 4 10.0807 8.1854 4.6073 42.3686 10.1298 -2.9370
# 5 -10.6307 -3.9015 -18.7211 10.1298 40.9904 11.7540
# 6 6.0974 15.5448 8.5741 -2.9370 11.7540 38.6657
#
#
#
# Elastic Compliance Matrix: (Units=1/GPa)
#
#
# Indices 1 2 3 4 5 6 
#
# 1 0.010859 0.001077 -0.002097 -0.003678 0.003760 -0.003103
# 2 0.001077 0.012822 -0.002697 -0.003519 0.002815 -0.005850
# 3 -0.002097 -0.002697 0.008674 -0.000981 0.003911 -0.001772
# 4 -0.003678 -0.003519 -0.000981 0.028421 -0.010970 0.007706
# 5 0.003760 0.002815 0.003911 -0.010970 0.034090 -0.013788
# 6 -0.003103 -0.005850 -0.001772 0.007706 -0.013788 0.033874
#
#
# Mechanical properties :
#
#
# Convention : Reuss Voigt Hill
#
# Bulk Modulus (GPa) = 40.12635 56.12660 48.12648
# Shear Modulus (GPa) = 34.60711 42.41871 38.51291
#
# Velocity S-wave (km/s) = 3.65597 4.04761 3.85676
# Velocity P-wave (km/s) = 5.77228 6.59709 6.19842
#
# Compressibility (1/GPa) = 0.02492128
#
# Stress axis : x y z
#
# Youngs Moduli (GPa) = 92.09081 77.99195 115.29291
#
# Poissons Ratio (x) = -0.08403 0.24179
# Poissons Ratio (y) = -0.09923 0.31092
# Poissons Ratio (z) = 0.19313 0.21033
#
# Static dielectric constant tensor:
#      x y z
#    x 2.097650 0.002480 0.109810 
#    y 0.002480 2.335180 -0.116840 
#    z 0.109810 -0.116840 2.194510 
# 
# From -- ./inp_files/72367.got.cif
#   From: 2010.05.17/outbox.cif.g08.bks.cpg/sg2_37_cif.got.tgz:72367.got - 2010.06.03 11:33:40.
