data_PCOD9110939
_publ_section_title
;
Structure prediction by ZEFSAII (Michael W. Deem and Ramdas Pophale) SiO2 
 PCOD9110939
Probable space group: P -1
;
_chemical_formula_sum "Si O2"
_cell_formula_units_Z 15
_cell_length_a 23.696819
_cell_length_b 8.441634
_cell_length_c 6.752111
_cell_angle_alpha 79.943491
_cell_angle_beta 68.219192
_cell_angle_gamma 133.166569
_cell_volume 708.500331
_symmetry_space_group_name_H-M "P -1"
_symmetry_group_IT_number 2
_symmetry_cell_setting 'triclinic'
loop_
_space_group_symop_operation_xyz
x,y,z
-x,-y,-z
loop_
_atom_site_type_symbol
_atom_site_label
_atom_site_fract_x
_atom_site_fract_y
_atom_site_fract_z
Si Si1 0.660626 0.807610 0.249879
Si Si2 0.727538 0.517285 0.754920
Si Si3 0.846860 0.017650 0.779412
Si Si4 0.121302 0.313005 0.794729
Si Si5 0.500000 0.000000 0.000000
Si Si6 0.216203 0.628199 0.995896
Si Si7 0.932337 0.539029 0.446875
Si Si8 0.472266 0.320594 0.891779
O O1 0.568681 0.531143 0.560323
O O2 0.619859 0.792592 0.095674
O O3 0.753505 0.884173 0.066630
O O4 0.709547 0.067388 0.241907
O O5 0.801790 0.626383 0.452898
O O6 0.718321 0.348986 0.956207
O O7 0.791995 0.787658 0.738972
O O8 0.611687 0.310356 0.875515
O O9 0.904777 0.292261 0.535486
O O10 0.942938 0.157249 0.755841
O O11 0.119619 0.488172 0.666248
O O12 0.163834 0.415482 0.936566
O O13 0.000000 0.000000 0.000000
O O14 0.546304 0.906410 0.974250
O O15 0.125269 0.509863 0.275752
O O16 0.500000 0.500000 0.000000
#
# Coordination Sequence:
#
# PCOD9110939 Si02
#       8
#     2   2   2   2   1   2   2   2
#     4  10  23  44  67  95 130 177 225 268 346 400
#     4  11  24  42  63  96 138 171 225 280 339 399
#     4  10  20  42  67  94 133 175 211 287 334 405
#     4  11  23  39  65  95 128 175 221 271 337 408
#     4  12  26  44  68 102 132 184 232 272 344 408
#     4  10  21  41  66  92 133 174 214 278 334 400
#     4   9  21  40  66  95 131 168 222 268 346 401
#     4  11  25  46  69  97 136 179 228 288 334 402
#
# _framework density 21.171479999999999
#
# number of rings (size 3 to 8) (size 9 to 14) (size 15 to 20)
#    0.000    1.600    1.333    2.400    1.867    5.333 
#    0.000   14.667    0.000    0.000    0.000    0.000 
#    0.000    0.000    0.000    0.000    0.000    0.000 
#
# Total GULP energy -83523.305386 kJ/mol
# GULP energy per Si atom -5568.220359 kJ/mol
# Density = 2.112329 g / cm^3
# Si number density = 21.171480 Si / 1000 Ang^3
#
#
#
# Elastic Constant Matrix: (Units=GPa)
#
#
# Indices 1 2 3 4 5 6 
#
# 1 59.8282 46.4729 26.4700 14.5233 -18.2210 2.3218
# 2 46.4729 105.3221 -9.8407 0.3669 -0.2032 22.0760
# 3 26.4700 -9.8407 8.6894 -8.1196 8.5823 22.4459
# 4 14.5233 0.3669 -8.1196 20.1661 11.8229 2.5205
# 5 -18.2210 -0.2032 8.5823 11.8229 14.1821 -17.6015
# 6 2.3218 22.0760 22.4459 2.5205 -17.6015 39.8858
#
#
#
# Elastic Compliance Matrix: (Units=1/GPa)
#
#
# Indices 1 2 3 4 5 6 
#
# 1 0.009525 -0.001173 0.009928 0.004316 -0.010035 -0.010193
# 2 -0.001173 0.009301 -0.004432 -0.006340 0.008582 0.001602
# 3 0.009928 -0.004432 0.014767 -0.018853 0.028662 0.007405
# 4 0.004316 -0.006340 -0.018853 0.036670 0.001389 0.012163
# 5 -0.010035 0.008582 0.028662 0.001389 0.030821 -0.006782
# 6 -0.010193 0.001602 0.007405 0.012163 -0.006782 0.016849
#
#
# Mechanical properties :
#
#
# Convention : Reuss Voigt Hill
#
# Bulk Modulus (GPa) = 23.67518 33.33822 28.50670
# Shear Modulus (GPa) = 40.52889 22.22931 31.37910
#
# Velocity S-wave (km/s) = 4.38004 3.24383 3.85403
# Velocity P-wave (km/s) = 6.06519 5.45993 5.77050
#
# Compressibility (1/GPa) = 0.04223833
#
# Stress axis : x y z
#
# Youngs Moduli (GPa) = 104.98196 107.51380 67.71869
#
# Poissons Ratio (x) = 0.12615 -0.67229
# Poissons Ratio (y) = 0.12318 0.30013
# Poissons Ratio (z) = -1.04223 0.47650
#
# Static dielectric constant tensor:
#      x y z
#    x 1.821400 -0.029160 0.041930 
#    y -0.029160 1.745580 -0.030480 
#    z 0.041930 -0.030480 1.761290 
# 
# From -- ./inp_files/36568.got.cif
#   From: 2010.05.17/outbox.cif.g08.bks.cpg/sg2_19_cif.got.tgz:36568.got - 2010.06.03 11:33:40.
