data_PCOD9110634
_publ_section_title
;
Structure prediction by ZEFSAII (Michael W. Deem and Ramdas Pophale) SiO2 
 PCOD9110634
Probable space group: P -1
;
_chemical_formula_sum "Si O2"
_cell_formula_units_Z 14
_cell_length_a 8.107372
_cell_length_b 15.013947
_cell_length_c 12.299112
_cell_angle_alpha 29.768825
_cell_angle_beta 132.367526
_cell_angle_gamma 125.421673
_cell_volume 549.125878
_symmetry_space_group_name_H-M "P -1"
_symmetry_group_IT_number 2
_symmetry_cell_setting 'triclinic'
loop_
_space_group_symop_operation_xyz
x,y,z
-x,-y,-z
loop_
_atom_site_type_symbol
_atom_site_label
_atom_site_fract_x
_atom_site_fract_y
_atom_site_fract_z
Si Si1 0.293113 0.602775 0.101384
Si Si2 0.965387 0.302187 0.558392
Si Si3 0.710119 0.369700 0.594124
Si Si4 0.805142 0.487534 0.091259
Si Si5 0.749712 0.986088 0.354086
Si Si6 0.672099 0.857050 0.682057
Si Si7 0.143051 0.984827 0.856004
O O1 0.474381 0.471000 0.373796
O O2 0.048990 0.566522 0.081595
O O3 0.288801 0.568944 0.006252
O O4 0.345477 0.812850 0.911668
O O5 0.120215 0.476098 0.454915
O O6 0.804040 0.306066 0.585792
O O7 0.839907 0.328446 0.360151
O O8 0.104923 0.118935 0.797090
O O9 0.723499 0.194207 0.860937
O O10 0.669933 0.645558 0.924725
O O11 0.755257 0.914179 0.310679
O O12 0.643590 0.872138 0.522550
O O13 0.000000 0.000000 0.500000
O O14 0.907523 0.916134 0.776378
O O15 0.500000 0.000000 0.500000
#
# Coordination Sequence:
#
# PCOD9110634 Si02
#       7
#     2   2   2   2   2   2   2
#     4  11  24  42  70  97 141 177 227 283 341 403
#     4  11  25  45  71  96 140 183 225 285 339 400
#     4  11  26  47  67 102 142 180 227 281 344 407
#     4  11  23  44  68 102 134 176 231 283 336 406
#     4  10  20  42  64  97 133 174 221 280 331 395
#     4  11  24  40  71 103 139 172 229 289 341 397
#     4  11  23  47  69  97 141 180 227 281 337 411
#
# _framework density 25.495063999999999
#
# number of rings (size 3 to 8) (size 9 to 14) (size 15 to 20)
#    0.000    1.143    4.286    2.143    6.000    2.857 
#    2.571    1.429    0.000    0.000    0.000    0.000 
#    0.000    0.000    0.000    0.000    0.000    0.000 
#
# Total GULP energy -78473.690695 kJ/mol
# GULP energy per Si atom -5605.263621 kJ/mol
# Density = 2.543704 g / cm^3
# Si number density = 25.495064 Si / 1000 Ang^3
#
#
#
# Elastic Constant Matrix: (Units=GPa)
#
#
# Indices 1 2 3 4 5 6 
#
# 1 62.0206 30.3434 27.8880 10.0072 12.3581 -15.9376
# 2 30.3434 89.1681 30.0661 -5.2079 11.9506 -11.7480
# 3 27.8880 30.0661 162.8180 -0.5824 21.7118 -5.2454
# 4 10.0072 -5.2079 -0.5824 45.7891 -7.5669 6.2145
# 5 12.3581 11.9506 21.7118 -7.5669 47.7112 -0.5993
# 6 -15.9376 -11.7480 -5.2454 6.2145 -0.5993 34.7910
#
#
#
# Elastic Compliance Matrix: (Units=1/GPa)
#
#
# Indices 1 2 3 4 5 6 
#
# 1 0.025324 -0.006292 -0.002169 -0.008579 -0.005224 0.010592
# 2 -0.006292 0.014259 -0.001390 0.002668 -0.000871 0.001232
# 3 -0.002169 -0.001390 0.007062 0.000088 -0.002295 -0.000453
# 4 -0.008579 0.002668 0.000088 0.025959 0.005536 -0.007557
# 5 -0.005224 -0.000871 -0.002295 0.005536 0.024408 -0.003602
# 6 0.010592 0.001232 -0.000453 -0.007557 -0.003602 0.035230
#
#
# Mechanical properties :
#
#
# Convention : Reuss Voigt Hill
#
# Bulk Modulus (GPa) = 37.11398 54.51129 45.81264
# Shear Modulus (GPa) = 31.07041 40.70553 35.88797
#
# Velocity S-wave (km/s) = 3.49475 4.00009 3.75593
# Velocity P-wave (km/s) = 5.55638 6.53925 6.06775
#
# Compressibility (1/GPa) = 0.02694403
#
# Stress axis : x y z
#
# Youngs Moduli (GPa) = 39.48844 70.12941 141.60746
#
# Poissons Ratio (x) = 0.44124 0.30708
# Poissons Ratio (y) = 0.24845 0.19685
# Poissons Ratio (z) = 0.08563 0.09749
#
# Static dielectric constant tensor:
#      x y z
#    x 2.071360 0.049550 0.015120 
#    y 0.049550 2.022050 -0.002480 
#    z 0.015120 -0.002480 1.945590 
# 
# From -- ./inp_files/154989.got.cif
#   From: 2010.05.17/outbox.cif.g08.bks.cpg/sg2_78_cif.got.tgz:154989.got - 2010.06.03 11:33:40.
