data_PCOD9110429
_publ_section_title
;
Structure prediction by ZEFSAII (Michael W. Deem and Ramdas Pophale) SiO2 
 PCOD9110429
Probable space group: P -1
;
_chemical_formula_sum "Si O2"
_cell_formula_units_Z 16
_cell_length_a 20.082639
_cell_length_b 7.718164
_cell_length_c 6.370140
_cell_angle_alpha 116.068155
_cell_angle_beta 95.223725
_cell_angle_gamma 53.185389
_cell_volume 689.384223
_symmetry_space_group_name_H-M "P -1"
_symmetry_group_IT_number 2
_symmetry_cell_setting 'triclinic'
loop_
_space_group_symop_operation_xyz
x,y,z
-x,-y,-z
loop_
_atom_site_type_symbol
_atom_site_label
_atom_site_fract_x
_atom_site_fract_y
_atom_site_fract_z
Si Si1 0.320626 0.087221 0.072759
Si Si2 0.773040 0.150059 0.023343
Si Si3 0.824999 0.587479 0.092465
Si Si4 0.053093 0.614924 0.356923
Si Si5 0.628843 0.695201 0.440936
Si Si6 0.912429 0.138131 0.180522
Si Si7 0.469381 0.916328 0.759565
Si Si8 0.135379 0.162315 0.472028
O O1 0.254282 0.319155 0.027021
O O2 0.341090 0.185421 0.331096
O O3 0.271082 0.979917 0.051646
O O4 0.404979 0.892918 0.853391
O O5 0.703768 0.421236 0.239792
O O6 0.862620 0.026148 0.107875
O O7 0.806990 0.100058 0.766236
O O8 0.907830 0.464467 0.903759
O O9 0.847207 0.389936 0.165437
O O10 0.811023 0.810569 0.333092
O O11 0.073113 0.786472 0.554726
O O12 0.100330 0.374767 0.394760
O O13 0.952603 0.757622 0.416145
O O14 0.556211 0.704147 0.550564
O O15 0.584760 0.871818 0.319419
O O16 0.000000 0.000000 0.000000
O O17 0.500000 0.000000 0.000000
#
# Coordination Sequence:
#
# PCOD9110429 Si02
#       8
#     2   2   2   2   2   2   2   2
#     4  11  24  43  70 101 136 172 222 268 335 401
#     4  12  24  42  65 102 133 175 221 279 334 388
#     4  11  23  40  66  90 130 180 224 281 333 394
#     4  10  20  42  62  83 127 180 228 277 337 382
#     4  10  23  47  75  98 141 169 210 273 334 398
#     4  11  24  42  61  91 136 177 232 287 329 385
#     4   9  21  47  75 103 132 177 209 261 335 405
#     4  10  22  38  61  91 127 171 225 282 330 385
#
# _framework density 23.209116999999999
#
# number of rings (size 3 to 8) (size 9 to 14) (size 15 to 20)
#    0.000    1.500    2.500    1.875    3.500    2.000 
#    9.000    5.625    0.000    0.000    0.000    0.000 
#    0.000    0.000    0.000    0.000    0.000    0.000 
#
# Total GULP energy -89446.362152 kJ/mol
# GULP energy per Si atom -5590.397634 kJ/mol
# Density = 2.315629 g / cm^3
# Si number density = 23.209117 Si / 1000 Ang^3
#
#
#
# Elastic Constant Matrix: (Units=GPa)
#
#
# Indices 1 2 3 4 5 6 
#
# 1 140.8827 29.5063 50.4232 16.5387 -10.2604 -21.8744
# 2 29.5063 64.9277 44.2661 -9.2814 10.3140 -14.6003
# 3 50.4232 44.2661 154.2318 14.9003 1.0590 -16.7698
# 4 16.5387 -9.2814 14.9003 45.6803 -16.4367 -1.9120
# 5 -10.2604 10.3140 1.0590 -16.4367 53.1700 6.0733
# 6 -21.8744 -14.6003 -16.7698 -1.9120 6.0733 29.0457
#
#
#
# Elastic Compliance Matrix: (Units=1/GPa)
#
#
# Indices 1 2 3 4 5 6 
#
# 1 0.009308 -0.002811 -0.001488 -0.002925 0.000971 0.004342
# 2 -0.002811 0.023909 -0.005705 0.006660 -0.003906 0.007863
# 3 -0.001488 -0.005705 0.009103 -0.003780 -0.000662 0.001157
# 4 -0.002925 0.006660 -0.003780 0.028010 0.006952 -0.000646
# 5 0.000971 -0.003906 -0.000662 0.006952 0.022587 -0.005880
# 6 0.004342 0.007863 0.001157 -0.000646 -0.005880 0.043505
#
#
# Mechanical properties :
#
#
# Convention : Reuss Voigt Hill
#
# Bulk Modulus (GPa) = 44.81963 67.60371 56.21167
# Shear Modulus (GPa) = 30.51228 41.30233 35.90730
#
# Velocity S-wave (km/s) = 3.62977 4.22308 3.93761
# Velocity P-wave (km/s) = 6.07619 7.27808 6.70412
#
# Compressibility (1/GPa) = 0.02231165
#
# Stress axis : x y z
#
# Youngs Moduli (GPa) = 107.43808 41.82452 109.85234
#
# Poissons Ratio (x) = 0.11758 0.16348
# Poissons Ratio (y) = 0.30204 0.62669
# Poissons Ratio (z) = 0.15989 0.23860
#
# Static dielectric constant tensor:
#      x y z
#    x 1.947650 0.032370 -0.008920 
#    y 0.032370 1.894630 0.017180 
#    z -0.008920 0.017180 1.875940 
# 
# From -- ./inp_files/117408.got.cif
#   From: 2010.05.17/outbox.cif.g08.bks.cpg/sg2_59_cif.got.tgz:117408.got - 2010.06.03 11:33:40.
