data_PCOD9110710
_publ_section_title
;
Structure prediction by ZEFSAII (Michael W. Deem and Ramdas Pophale) SiO2 
 PCOD9110710
Probable space group: P -1
;
_chemical_formula_sum "Si O2"
_cell_formula_units_Z 16
_cell_length_a 7.660034
_cell_length_b 7.408117
_cell_length_c 14.863299
_cell_angle_alpha 94.678230
_cell_angle_beta 68.329951
_cell_angle_gamma 125.459813
_cell_volume 628.565845
_symmetry_space_group_name_H-M "P -1"
_symmetry_group_IT_number 2
_symmetry_cell_setting 'triclinic'
loop_
_space_group_symop_operation_xyz
x,y,z
-x,-y,-z
loop_
_atom_site_type_symbol
_atom_site_label
_atom_site_fract_x
_atom_site_fract_y
_atom_site_fract_z
Si Si1 0.603498 0.533346 0.775710
Si Si2 0.102048 0.354389 0.656664
Si Si3 0.365389 0.809918 0.592104
Si Si4 0.166193 0.834068 0.982804
Si Si5 0.275236 0.121849 0.722387
Si Si6 0.162414 0.543589 0.841705
Si Si7 0.823289 0.818110 0.915602
Si Si8 0.802873 0.905132 0.610778
O O1 0.506144 0.290601 0.744796
O O2 0.370324 0.521800 0.815074
O O3 0.692569 0.611017 0.863436
O O4 0.780569 0.727385 0.678205
O O5 0.198402 0.555568 0.575329
O O6 0.258009 0.268384 0.654085
O O7 0.088404 0.477943 0.750367
O O8 0.869514 0.123493 0.661413
O O9 0.500000 0.000000 0.500000
O O10 0.267100 0.916831 0.675859
O O11 0.554914 0.798636 0.609010
O O12 0.265128 0.784555 0.876372
O O13 0.931544 0.782421 0.979661
O O14 0.070522 0.641350 0.067022
O O15 0.300601 0.073476 0.016604
O O16 0.045133 0.016602 0.823404
O O17 0.000000 0.000000 0.500000
#
# Coordination Sequence:
#
# PCOD9110710 Si02
#       8
#     2   2   2   2   2   2   2   2
#     4  11  23  43  69  94 136 180 220 267 346 394
#     4  11  23  48  70  91 143 176 217 276 339 395
#     4  12  28  43  70 103 128 176 229 279 335 402
#     4  10  21  38  66  95 136 165 231 276 317 402
#     4  11  23  45  69  95 136 178 222 272 339 398
#     4  10  20  42  65  95 128 185 214 271 340 385
#     4  11  22  40  64 100 131 178 217 280 330 386
#     4  12  26  45  72 100 132 180 223 275 336 402
#
# _framework density 25.454771999999998
#
# number of rings (size 3 to 8) (size 9 to 14) (size 15 to 20)
#    0.000    1.000    6.250    1.500    1.750    4.500 
#    0.000    0.000    0.000    0.000    0.000    0.000 
#    0.000    0.000    0.000    0.000    0.000    0.000 
#
# Total GULP energy -89404.697450 kJ/mol
# GULP energy per Si atom -5587.793591 kJ/mol
# Density = 2.539684 g / cm^3
# Si number density = 25.454772 Si / 1000 Ang^3
#
#
#
# Elastic Constant Matrix: (Units=GPa)
#
#
# Indices 1 2 3 4 5 6 
#
# 1 23.5414 10.3807 5.2497 8.9528 -5.2013 -10.2928
# 2 10.3807 133.2697 7.8725 0.3242 0.2863 -8.6848
# 3 5.2497 7.8725 72.3511 3.0623 -4.4455 -6.2336
# 4 8.9528 0.3242 3.0623 34.8780 -5.8422 3.8106
# 5 -5.2013 0.2863 -4.4455 -5.8422 34.8022 7.8383
# 6 -10.2928 -8.6848 -6.2336 3.8106 7.8383 39.3153
#
#
#
# Elastic Compliance Matrix: (Units=1/GPa)
#
#
# Indices 1 2 3 4 5 6 
#
# 1 0.057480 -0.003360 -0.001690 -0.015833 0.002342 0.015106
# 2 -0.003360 0.007856 -0.000610 0.000629 -0.000729 0.000844
# 3 -0.001690 -0.000610 0.014244 -0.000797 0.001091 0.001541
# 4 -0.015833 0.000629 -0.000797 0.034613 0.005260 -0.008536
# 5 0.002342 -0.000729 0.001091 0.005260 0.031501 -0.006165
# 6 0.015106 0.000844 0.001541 -0.008536 -0.006165 0.031877
#
#
# Mechanical properties :
#
#
# Convention : Reuss Voigt Hill
#
# Bulk Modulus (GPa) = 14.64932 30.68532 22.66732
# Shear Modulus (GPa) = 23.62460 35.50972 29.56716
#
# Velocity S-wave (km/s) = 3.04978 3.73904 3.41186
# Velocity P-wave (km/s) = 4.26252 5.54270 4.94422
#
# Compressibility (1/GPa) = 0.06826255
#
# Stress axis : x y z
#
# Youngs Moduli (GPa) = 17.39733 127.28635 70.20509
#
# Poissons Ratio (x) = 0.42763 0.11862
# Poissons Ratio (y) = 0.05845 0.04281
# Poissons Ratio (z) = 0.02939 0.07762
#
# Static dielectric constant tensor:
#      x y z
#    x 2.018590 -0.024850 -0.013200 
#    y -0.024850 2.138100 -0.031740 
#    z -0.013200 -0.031740 2.123590 
# 
# From -- ./inp_files/495191.got.cif
#   From: 2010.05.17/outbox.cif.g08.bks.cpg/sg2_248_cif.got.tgz:495191.got - 2010.06.03 11:33:40.
