data_PCOD9110110
_publ_section_title
;
Structure prediction by ZEFSAII (Michael W. Deem and Ramdas Pophale) SiO2 
 PCOD9110110
Probable space group: P -1
;
_chemical_formula_sum "Si O2"
_cell_formula_units_Z 16
_cell_length_a 9.519084
_cell_length_b 5.396316
_cell_length_c 17.082324
_cell_angle_alpha 66.266087
_cell_angle_beta 54.840624
_cell_angle_gamma 70.809651
_cell_volume 651.185321
_symmetry_space_group_name_H-M "P -1"
_symmetry_group_IT_number 2
_symmetry_cell_setting 'triclinic'
loop_
_space_group_symop_operation_xyz
x,y,z
-x,-y,-z
loop_
_atom_site_type_symbol
_atom_site_label
_atom_site_fract_x
_atom_site_fract_y
_atom_site_fract_z
Si Si1 0.060640 0.711929 0.331207
Si Si2 0.395968 0.836523 0.716672
Si Si3 0.353255 0.201046 0.977647
Si Si4 0.484602 0.399298 0.604596
Si Si5 0.133395 0.452607 0.891658
Si Si6 0.090743 0.252616 0.185529
Si Si7 0.382808 0.414463 0.184329
Si Si8 0.875319 0.279243 0.509379
O O1 0.241853 0.650132 0.235427
O O2 0.109076 0.649879 0.413419
O O3 0.925576 0.489161 0.399137
O O4 0.994448 0.022554 0.288435
O O5 0.446025 0.646447 0.647824
O O6 0.228855 0.719282 0.818267
O O7 0.545232 0.767512 0.742731
O O8 0.364549 0.160171 0.676422
O O9 0.285229 0.218300 0.905945
O O10 0.446730 0.476914 0.919768
O O11 0.183675 0.159648 0.086259
O O12 0.500000 0.000000 0.000000
O O13 0.500000 0.500000 0.500000
O O14 0.677047 0.243645 0.572730
O O15 0.028237 0.468746 0.840676
O O16 0.000000 0.500000 0.000000
O O17 0.257434 0.288011 0.180875
O O18 0.000000 0.000000 0.500000
#
# Coordination Sequence:
#
# PCOD9110110 Si02
#       8
#     2   2   2   2   2   2   2   2
#     4  11  22  38  67  91 134 173 231 285 356 414
#     4  11  25  48  74 104 149 194 244 301 369 443
#     4  10  20  41  69  97 139 180 228 291 352 441
#     4  12  27  46  74 105 144 194 249 304 367 435
#     4   9  23  45  69 107 147 181 237 301 369 434
#     4  11  22  40  68  99 139 179 232 290 362 423
#     4  11  22  40  67 102 131 184 238 284 350 436
#     4  11  25  43  65  99 133 181 236 303 355 422
#
# _framework density 24.570578000000001
#
# number of rings (size 3 to 8) (size 9 to 14) (size 15 to 20)
#    0.000    1.250    2.500    3.000    3.500    2.000 
#    0.000    1.250    0.000    0.000    0.000    0.000 
#    0.000    0.000    0.000    0.000    0.000    0.000 
#
# Total GULP energy -89107.591154 kJ/mol
# GULP energy per Si atom -5569.224447 kJ/mol
# Density = 2.451465 g / cm^3
# Si number density = 24.570578 Si / 1000 Ang^3
#
#
#
# Elastic Constant Matrix: (Units=GPa)
#
#
# Indices 1 2 3 4 5 6 
#
# 1 94.7921 23.2733 53.6076 -9.6046 18.0256 -1.5393
# 2 23.2733 41.3533 36.6296 -11.1265 14.5732 -6.8766
# 3 53.6076 36.6296 149.8801 -30.4714 15.1455 -1.0080
# 4 -9.6046 -11.1265 -30.4714 30.1512 -14.8092 -4.1179
# 5 18.0256 14.5732 15.1455 -14.8092 45.1638 0.8825
# 6 -1.5393 -6.8766 -1.0080 -4.1179 0.8825 23.2863
#
#
#
# Elastic Compliance Matrix: (Units=1/GPa)
#
#
# Indices 1 2 3 4 5 6 
#
# 1 0.014470 -0.003703 -0.004574 -0.003549 -0.004195 -0.000804
# 2 -0.003703 0.037352 -0.006083 0.004453 -0.007301 0.011586
# 3 -0.004574 -0.006083 0.011372 0.009259 0.003013 -0.000083
# 4 -0.003549 0.004453 0.009259 0.050980 0.013396 0.009989
# 5 -0.004195 -0.007301 0.003013 0.013396 0.029575 -0.001055
# 6 -0.000804 0.011586 -0.000083 0.009989 -0.001055 0.048115
#
#
# Mechanical properties :
#
#
# Convention : Reuss Voigt Hill
#
# Bulk Modulus (GPa) = 29.00686 57.00517 43.00601
# Shear Modulus (GPa) = 21.54484 31.22126 26.38305
#
# Velocity S-wave (km/s) = 2.96439 3.56852 3.28039
# Velocity P-wave (km/s) = 4.85262 6.34272 5.64704
#
# Compressibility (1/GPa) = 0.03447461
#
# Stress axis : x y z
#
# Youngs Moduli (GPa) = 69.10818 26.77257 87.93491
#
# Poissons Ratio (x) = 0.09913 0.40219
# Poissons Ratio (y) = 0.25589 0.53492
# Poissons Ratio (z) = 0.31608 0.16286
#
# Static dielectric constant tensor:
#      x y z
#    x 1.761220 0.032420 0.018470 
#    y 0.032420 2.134300 -0.023220 
#    z 0.018470 -0.023220 1.938440 
# 
# From -- ./inp_files/553236.got.cif
#   From: 2010.05.17/outbox.cif.g08.bks.cpg/sg2_277_cif.got.tgz:553236.got - 2010.06.03 11:33:40.
