data_PCOD9110506
_publ_section_title
;
Structure prediction by ZEFSAII (Michael W. Deem and Ramdas Pophale) SiO2 
 PCOD9110506
Probable space group: P -1
;
_chemical_formula_sum "Si O2"
_cell_formula_units_Z 16
_cell_length_a 11.465890
_cell_length_b 15.016803
_cell_length_c 11.226775
_cell_angle_alpha 124.781106
_cell_angle_beta 82.781790
_cell_angle_gamma 142.334987
_cell_volume 737.746695
_symmetry_space_group_name_H-M "P -1"
_symmetry_group_IT_number 2
_symmetry_cell_setting 'triclinic'
loop_
_space_group_symop_operation_xyz
x,y,z
-x,-y,-z
loop_
_atom_site_type_symbol
_atom_site_label
_atom_site_fract_x
_atom_site_fract_y
_atom_site_fract_z
Si Si1 0.718777 0.237519 0.800804
Si Si2 0.684399 0.390700 0.616476
Si Si3 0.026754 0.778317 0.682255
Si Si4 0.940908 0.374463 0.640754
Si Si5 0.342056 0.567114 0.087004
Si Si6 0.527083 0.102785 0.965068
Si Si7 0.100746 0.023391 0.685224
Si Si8 0.901472 0.081582 0.654804
O O1 0.586244 0.087131 0.821810
O O2 0.762884 0.208169 0.651173
O O3 0.000000 0.500000 0.000000
O O4 0.106866 0.336553 0.863932
O O5 0.722878 0.490681 0.809278
O O6 0.388422 0.126506 0.444632
O O7 0.792536 0.546981 0.612693
O O8 0.842480 0.408595 0.625940
O O9 0.064120 0.722677 0.528838
O O10 0.276640 0.968187 0.875336
O O11 0.006960 0.878509 0.699249
O O12 0.227080 0.624849 0.835817
O O13 0.599410 0.714880 0.139717
O O14 0.402776 0.743912 0.194416
O O15 0.500000 0.000000 0.000000
O O16 0.068321 0.926631 0.493989
O O17 0.965436 0.025996 0.680216
#
# Coordination Sequence:
#
# PCOD9110506 Si02
#       8
#     2   2   2   2   2   2   2   2
#     4   9  20  36  57  93 122 155 210 238 300 376
#     4  10  23  40  59  97 126 161 213 245 316 380
#     4  12  24  40  62  92 132 164 203 259 308 380
#     4  10  23  40  59  91 130 169 201 249 314 371
#     4  10  20  42  63  90 123 163 207 262 307 361
#     4  11  22  38  58  89 129 167 202 249 298 372
#     4  10  23  42  65  96 116 158 223 258 307 371
#     4  10  23  43  68  88 121 164 208 270 312 356
#
# _framework density 21.687660000000001
#
# number of rings (size 3 to 8) (size 9 to 14) (size 15 to 20)
#    0.000    1.750    2.500    0.750    3.500    5.000 
#    0.000    0.625    0.000    0.000    0.000    0.000 
#    0.000    0.000    0.000    0.000    0.000    0.000 
#
# Total GULP energy -89491.667206 kJ/mol
# GULP energy per Si atom -5593.229200 kJ/mol
# Density = 2.163830 g / cm^3
# Si number density = 21.687660 Si / 1000 Ang^3
#
#
#
# Elastic Constant Matrix: (Units=GPa)
#
#
# Indices 1 2 3 4 5 6 
#
# 1 74.4287 20.8039 12.7259 -0.6887 10.9461 -20.0688
# 2 20.8039 149.0306 24.3793 -12.3019 -2.7953 -28.8408
# 3 12.7259 24.3793 121.9267 21.4134 9.1828 3.4656
# 4 -0.6887 -12.3019 21.4134 26.0430 2.3614 11.0987
# 5 10.9461 -2.7953 9.1828 2.3614 28.5680 -3.2996
# 6 -20.0688 -28.8408 3.4656 11.0987 -3.2996 31.6935
#
#
#
# Elastic Compliance Matrix: (Units=1/GPa)
#
#
# Indices 1 2 3 4 5 6 
#
# 1 0.017515 -0.000389 -0.001147 -0.003245 -0.004784 0.011500
# 2 -0.000389 0.008924 -0.002674 0.003042 0.002480 0.007359
# 3 -0.001147 -0.002674 0.010727 -0.009296 -0.002658 -0.001354
# 4 -0.003245 0.003042 -0.009296 0.055171 -0.002088 -0.017807
# 5 -0.004784 0.002480 -0.002658 -0.002088 0.038600 0.004268
# 6 0.011500 0.007359 -0.001354 -0.017807 0.004268 0.052359
#
#
# Mechanical properties :
#
#
# Convention : Reuss Voigt Hill
#
# Bulk Modulus (GPa) = 34.78829 51.24491 43.01660
# Shear Modulus (GPa) = 24.83876 36.42603 30.63239
#
# Velocity S-wave (km/s) = 3.38789 4.10271 3.76231
# Velocity P-wave (km/s) = 5.60171 6.79138 6.22503
#
# Compressibility (1/GPa) = 0.02874531
#
# Stress axis : x y z
#
# Youngs Moduli (GPa) = 57.09380 112.06224 93.22048
#
# Poissons Ratio (x) = 0.04364 0.10692
# Poissons Ratio (y) = 0.02224 0.24927
# Poissons Ratio (z) = 0.06548 0.29965
#
# Static dielectric constant tensor:
#      x y z
#    x 1.804010 -0.021010 0.017250 
#    y -0.021010 1.802460 -0.011760 
#    z 0.017250 -0.011760 1.828980 
# 
# From -- ./inp_files/434227.got.cif
#   From: 2010.05.17/outbox.cif.g08.bks.cpg/sg2_218_cif.got.tgz:434227.got - 2010.06.03 11:33:40.
