data_PCOD9110961
_publ_section_title
;
Structure prediction by ZEFSAII (Michael W. Deem and Ramdas Pophale) SiO2 
 PCOD9110961
Probable space group: P -1
;
_chemical_formula_sum "Si O2"
_cell_formula_units_Z 16
_cell_length_a 11.915054
_cell_length_b 18.929829
_cell_length_c 6.547215
_cell_angle_alpha 49.284977
_cell_angle_beta 98.689862
_cell_angle_gamma 131.420102
_cell_volume 730.045861
_symmetry_space_group_name_H-M "P -1"
_symmetry_group_IT_number 2
_symmetry_cell_setting 'triclinic'
loop_
_space_group_symop_operation_xyz
x,y,z
-x,-y,-z
loop_
_atom_site_type_symbol
_atom_site_label
_atom_site_fract_x
_atom_site_fract_y
_atom_site_fract_z
Si Si1 0.101108 0.966092 0.260075
Si Si2 0.745073 0.754064 0.357018
Si Si3 0.103946 0.794761 0.863995
Si Si4 0.401829 0.638520 0.486608
Si Si5 0.383305 0.065822 0.900431
Si Si6 0.930747 0.557605 0.943418
Si Si7 0.793996 0.592145 0.464398
Si Si8 0.541349 0.999933 0.281981
O O1 0.149426 0.921047 0.530180
O O2 0.897193 0.839763 0.404597
O O3 0.179886 0.118081 0.013386
O O4 0.193454 0.986166 0.038387
O O5 0.562496 0.675924 0.541074
O O6 0.722907 0.642719 0.447886
O O7 0.254706 0.852197 0.945078
O O8 0.065516 0.695960 0.862992
O O9 0.934435 0.704305 0.120847
O O10 0.489223 0.792924 0.197198
O O11 0.341727 0.555294 0.416257
O O12 0.242175 0.551241 0.760026
O O13 0.454859 0.101090 0.623975
O O14 0.405396 0.976456 0.162959
O O15 0.884920 0.589722 0.672010
O O16 0.000000 0.500000 0.000000
O O17 0.500000 0.000000 0.500000
#
# Coordination Sequence:
#
# PCOD9110961 Si02
#       8
#     2   2   2   2   2   2   2   2
#     4  10  20  42  67  98 129 169 209 273 335 378
#     4  10  21  43  71  92 134 166 217 273 320 389
#     4  11  24  41  66  99 129 169 223 260 333 390
#     4  10  25  43  65  97 127 177 219 261 323 381
#     4  10  23  40  61  97 135 166 214 268 324 385
#     4  11  27  43  67  94 133 175 217 270 318 381
#     4  11  24  44  67  94 130 176 217 270 316 386
#     4  11  23  36  65  95 133 172 209 269 325 391
#
# _framework density 21.916430999999999
#
# number of rings (size 3 to 8) (size 9 to 14) (size 15 to 20)
#    0.000    1.500    2.500    1.125    5.250    2.000 
#    2.250    0.000    0.000    0.000    0.000    0.000 
#    0.000    0.000    0.000    0.000    0.000    0.000 
#
# Total GULP energy -89258.643562 kJ/mol
# GULP energy per Si atom -5578.665223 kJ/mol
# Density = 2.186655 g / cm^3
# Si number density = 21.916431 Si / 1000 Ang^3
#
#
#
# Elastic Constant Matrix: (Units=GPa)
#
#
# Indices 1 2 3 4 5 6 
#
# 1 132.7765 43.3878 19.5120 1.0508 -3.0313 -6.8514
# 2 43.3878 111.0867 9.3593 -2.0626 2.0736 3.4252
# 3 19.5120 9.3593 32.2062 5.0001 3.0585 -3.1949
# 4 1.0508 -2.0626 5.0001 24.2229 5.9512 -2.9543
# 5 -3.0313 2.0736 3.0585 5.9512 25.5390 -2.3480
# 6 -6.8514 3.4252 -3.1949 -2.9543 -2.3480 31.9917
#
#
#
# Elastic Compliance Matrix: (Units=1/GPa)
#
#
# Indices 1 2 3 4 5 6 
#
# 1 0.009505 -0.003416 -0.004765 0.000002 0.002167 0.002085
# 2 -0.003416 0.010562 -0.001269 0.001470 -0.001635 -0.001973
# 3 -0.004765 -0.001269 0.035764 -0.006291 -0.003107 0.001878
# 4 0.000002 0.001470 -0.006291 0.045420 -0.009702 0.002697
# 5 0.002167 -0.001635 -0.003107 -0.009702 0.042413 0.002546
# 6 0.002085 -0.001973 0.001878 0.002697 0.002546 0.032539
#
#
# Mechanical properties :
#
#
# Convention : Reuss Voigt Hill
#
# Bulk Modulus (GPa) = 27.07747 46.73196 36.90472
# Shear Modulus (GPa) = 24.10671 29.93807 27.02239
#
# Velocity S-wave (km/s) = 3.32013 3.69997 3.51518
# Velocity P-wave (km/s) = 5.20378 6.29461 5.77501
#
# Compressibility (1/GPa) = 0.03693107
#
# Stress axis : x y z
#
# Youngs Moduli (GPa) = 105.20908 94.68280 27.96130
#
# Poissons Ratio (x) = 0.32340 0.13324
# Poissons Ratio (y) = 0.35935 0.03547
# Poissons Ratio (z) = 0.50135 0.12012
#
# Static dielectric constant tensor:
#      x y z
#    x 1.845950 -0.013780 -0.006500 
#    y -0.013780 1.867090 0.022740 
#    z -0.006500 0.022740 1.846360 
# 
# From -- ./inp_files/81233.got.cif
#   From: 2010.05.17/outbox.cif.g08.bks.cpg/sg2_41_cif.got.tgz:81233.got - 2010.06.03 11:33:40.
