data_PCOD9110018
_publ_section_title
;
Structure prediction by ZEFSAII (Michael W. Deem and Ramdas Pophale) SiO2 
 PCOD9110018
Probable space group: P -1
;
_chemical_formula_sum "Si O2"
_cell_formula_units_Z 14
_cell_length_a 9.145742
_cell_length_b 9.599677
_cell_length_c 11.806229
_cell_angle_alpha 144.130158
_cell_angle_beta 89.234681
_cell_angle_gamma 87.771269
_cell_volume 605.113110
_symmetry_space_group_name_H-M "P -1"
_symmetry_group_IT_number 2
_symmetry_cell_setting 'triclinic'
loop_
_space_group_symop_operation_xyz
x,y,z
-x,-y,-z
loop_
_atom_site_type_symbol
_atom_site_label
_atom_site_fract_x
_atom_site_fract_y
_atom_site_fract_z
Si Si1 0.619298 0.771335 0.724243
Si Si2 0.055649 0.801332 0.960774
Si Si3 0.134371 0.152249 0.386473
Si Si4 0.531365 0.663812 0.212261
Si Si5 0.255453 0.987876 0.505437
Si Si6 0.138743 0.553260 0.351864
Si Si7 0.623701 0.309117 0.174407
O O1 0.705379 0.773926 0.606183
O O2 0.734856 0.609314 0.692976
O O3 0.457948 0.692888 0.704904
O O4 0.610608 0.046490 0.947336
O O5 0.097198 0.932814 0.161677
O O6 0.203542 0.669254 0.819920
O O7 0.932445 0.617128 0.850965
O O8 0.000000 0.000000 0.000000
O O9 0.997843 0.348518 0.504122
O O10 0.144050 0.081230 0.470784
O O11 0.395393 0.859832 0.353886
O O12 0.545388 0.505114 0.221085
O O13 0.680299 0.795098 0.285590
O O14 0.500000 0.500000 0.000000
O O15 0.198963 0.786551 0.452272
#
# Coordination Sequence:
#
# PCOD9110018 Si02
#       7
#     2   2   2   2   2   2   2
#     4  10  21  40  69 100 135 185 230 283 345 407
#     4  11  23  41  69 103 140 186 229 281 346 408
#     4  11  24  43  68 101 146 181 231 282 351 405
#     4  11  23  45  74  97 141 181 227 290 348 412
#     4  11  26  44  67 106 135 182 235 281 349 415
#     4  12  23  45  69 100 146 180 234 287 340 417
#     4  10  20  41  69 100 136 177 234 287 334 409
#
# _framework density 23.136168000000001
#
# number of rings (size 3 to 8) (size 9 to 14) (size 15 to 20)
#    0.000    1.143    4.286    3.429    0.000    1.714 
#    0.000    5.714    0.000    0.000    0.000    0.000 
#    0.000    0.000    0.000    0.000    0.000    0.000 
#
# Total GULP energy -78296.182021 kJ/mol
# GULP energy per Si atom -5592.584430 kJ/mol
# Density = 2.308351 g / cm^3
# Si number density = 23.136168 Si / 1000 Ang^3
#
#
#
# Elastic Constant Matrix: (Units=GPa)
#
#
# Indices 1 2 3 4 5 6 
#
# 1 92.6494 49.0832 40.2783 3.5857 -34.3958 4.4615
# 2 49.0832 162.4652 50.7764 22.0461 -49.4142 19.2478
# 3 40.2783 50.7764 136.0761 -0.6243 -23.1992 15.3263
# 4 3.5857 22.0461 -0.6243 31.0282 4.3389 -2.0367
# 5 -34.3958 -49.4142 -23.1992 4.3389 138.1244 -11.1696
# 6 4.4615 19.2478 15.3263 -2.0367 -11.1696 44.9171
#
#
#
# Elastic Compliance Matrix: (Units=1/GPa)
#
#
# Indices 1 2 3 4 5 6 
#
# 1 0.014355 -0.002959 -0.002937 0.000178 0.002129 0.001382
# 2 -0.002959 0.009730 -0.002053 -0.007137 0.002388 -0.002905
# 3 -0.002937 -0.002053 0.009185 0.001877 -0.000137 -0.001911
# 4 0.000178 -0.007137 0.001877 0.037973 -0.003116 0.003347
# 5 0.002129 0.002388 -0.000137 -0.003116 0.008768 0.000851
# 6 0.001382 -0.002905 -0.001911 0.003347 0.000851 0.024386
#
#
# Mechanical properties :
#
#
# Convention : Reuss Voigt Hill
#
# Bulk Modulus (GPa) = 57.56598 74.60740 66.08669
# Shear Modulus (GPa) = 39.65576 59.55078 49.60327
#
# Velocity S-wave (km/s) = 4.14456 5.07889 4.63533
# Velocity P-wave (km/s) = 6.91654 8.16766 7.56800
#
# Compressibility (1/GPa) = 0.01737137
#
# Stress axis : x y z
#
# Youngs Moduli (GPa) = 69.66356 102.77485 108.87582
#
# Poissons Ratio (x) = 0.30414 0.31972
# Poissons Ratio (y) = 0.20616 0.22354
# Poissons Ratio (z) = 0.20457 0.21101
#
# Static dielectric constant tensor:
#      x y z
#    x 1.895140 0.036660 0.035990 
#    y 0.036660 1.838600 0.021210 
#    z 0.035990 0.021210 1.902340 
# 
# From -- ./inp_files/383694.got.cif
#   From: 2010.05.17/outbox.cif.g08.bks.cpg/sg2_192_cif.got.tgz:383694.got - 2010.06.03 11:33:40.
