data_PCOD9110522
_publ_section_title
;
Structure prediction by ZEFSAII (Michael W. Deem and Ramdas Pophale) SiO2 
 PCOD9110522
Probable space group: P -1
;
_chemical_formula_sum "Si O2"
_cell_formula_units_Z 12
_cell_length_a 5.243131
_cell_length_b 15.268223
_cell_length_c 9.488387
_cell_angle_alpha 42.556252
_cell_angle_beta 121.721775
_cell_angle_gamma 112.631319
_cell_volume 436.965189
_symmetry_space_group_name_H-M "P -1"
_symmetry_group_IT_number 2
_symmetry_cell_setting 'triclinic'
loop_
_space_group_symop_operation_xyz
x,y,z
-x,-y,-z
loop_
_atom_site_type_symbol
_atom_site_label
_atom_site_fract_x
_atom_site_fract_y
_atom_site_fract_z
Si Si1 0.281931 0.331377 0.728417
Si Si2 0.224445 0.907900 0.490070
Si Si3 0.940272 0.682220 0.859019
Si Si4 0.776047 0.137507 0.079307
Si Si5 0.602014 0.549014 0.686117
Si Si6 0.798852 0.130476 0.786774
O O1 0.323331 0.451002 0.704585
O O2 0.377269 0.377953 0.544053
O O3 0.965457 0.266547 0.694530
O O4 0.494299 0.210400 0.981373
O O5 0.126881 0.777166 0.695754
O O6 0.075034 0.001665 0.685670
O O7 0.313658 0.872494 0.399284
O O8 0.500000 0.000000 0.500000
O O9 0.951437 0.766427 0.907493
O O10 0.656273 0.635526 0.738382
O O11 0.120615 0.552756 0.105467
O O12 0.644283 0.124937 0.898691
O O13 0.000000 0.000000 0.000000
#
# Coordination Sequence:
#
# PCOD9110522 Si02
#       6
#     2   2   2   2   2   2
#     4  10  20  43  67  90 126 164 210 254 306 372
#     4  11  24  41  64  93 130 162 200 268 316 359
#     4  10  20  42  63  93 127 162 210 250 310 374
#     4  10  24  39  67  97 120 163 212 251 317 368
#     4   9  20  37  69  87 122 175 200 251 311 360
#     4  10  23  41  62  94 127 162 203 260 313 364
#
# _framework density 27.462140000000002
#
# number of rings (size 3 to 8) (size 9 to 14) (size 15 to 20)
#    0.000    2.000    1.667    0.500    9.333    4.000 
#    0.000    8.333    3.667    0.000    0.000    0.000 
#    0.000    0.000    0.000    0.000    0.000    0.000 
#
# Total GULP energy -66972.416858 kJ/mol
# GULP energy per Si atom -5581.034738 kJ/mol
# Density = 2.739963 g / cm^3
# Si number density = 27.462140 Si / 1000 Ang^3
#
#
#
# Elastic Constant Matrix: (Units=GPa)
#
#
# Indices 1 2 3 4 5 6 
#
# 1 55.7283 47.9812 37.4412 -7.7952 0.5954 5.0924
# 2 47.9812 260.5112 59.2147 30.6414 -7.2289 21.4535
# 3 37.4412 59.2147 95.8238 4.6187 12.4887 -13.6976
# 4 -7.7952 30.6414 4.6187 55.7230 -8.3631 9.9576
# 5 0.5954 -7.2289 12.4887 -8.3631 32.6065 -11.8453
# 6 5.0924 21.4535 -13.6976 9.9576 -11.8453 56.8603
#
#
#
# Elastic Compliance Matrix: (Units=1/GPa)
#
#
# Indices 1 2 3 4 5 6 
#
# 1 0.029979 -0.003504 -0.011074 0.008397 0.003324 -0.004809
# 2 -0.003504 0.005485 -0.002214 -0.002915 0.000794 -0.001613
# 3 -0.011074 -0.002214 0.017893 -0.003715 -0.006089 0.005519
# 4 0.008397 -0.002915 -0.003715 0.022410 0.005135 -0.003402
# 5 0.003324 0.000794 -0.006089 0.005135 0.036088 0.004554
# 6 -0.004809 -0.001613 0.005519 -0.003402 0.004554 0.021500
#
#
# Mechanical properties :
#
#
# Convention : Reuss Voigt Hill
#
# Bulk Modulus (GPa) = 50.57295 77.92638 64.24967
# Shear Modulus (GPa) = 28.81341 46.86636 37.83988
#
# Velocity S-wave (km/s) = 3.24266 4.13556 3.71602
# Velocity P-wave (km/s) = 5.69871 7.15831 6.46980
#
# Compressibility (1/GPa) = 0.01977342
#
# Stress axis : x y z
#
# Youngs Moduli (GPa) = 33.35616 182.31629 55.88926
#
# Poissons Ratio (x) = 0.63882 0.61891
# Poissons Ratio (y) = 0.11688 0.12374
# Poissons Ratio (z) = 0.36938 0.40364
#
# Static dielectric constant tensor:
#      x y z
#    x 2.235380 0.004730 -0.025110 
#    y 0.004730 2.185960 0.114550 
#    z -0.025110 0.114550 2.275000 
# 
# From -- ./inp_files/133902.got.cif
#   From: 2010.05.17/outbox.cif.g08.bks.cpg/sg2_67_cif.got.tgz:133902.got - 2010.06.03 11:33:40.
