data_PCOD9110517
_publ_section_title
;
Structure prediction by ZEFSAII (Michael W. Deem and Ramdas Pophale) SiO2 
 PCOD9110517
Probable space group: P -1
;
_chemical_formula_sum "Si O2"
_cell_formula_units_Z 16
_cell_length_a 8.483527
_cell_length_b 7.854393
_cell_length_c 16.806842
_cell_angle_alpha 125.702131
_cell_angle_beta 60.619121
_cell_angle_gamma 124.092933
_cell_volume 730.519832
_symmetry_space_group_name_H-M "P -1"
_symmetry_group_IT_number 2
_symmetry_cell_setting 'triclinic'
loop_
_space_group_symop_operation_xyz
x,y,z
-x,-y,-z
loop_
_atom_site_type_symbol
_atom_site_label
_atom_site_fract_x
_atom_site_fract_y
_atom_site_fract_z
Si Si1 0.508842 0.430623 0.069572
Si Si2 0.974957 0.067413 0.434390
Si Si3 0.850247 0.292063 0.929855
Si Si4 0.912017 0.831891 0.822261
Si Si5 0.334702 0.059110 0.790126
Si Si6 0.821854 0.417800 0.633158
Si Si7 0.590650 0.861862 0.385254
Si Si8 0.244995 0.854451 0.256399
O O1 0.288451 0.315008 0.123691
O O2 0.628296 0.674137 0.146599
O O3 0.500000 0.500000 0.000000
O O4 0.634654 0.276669 0.003949
O O5 0.932051 0.296918 0.517008
O O6 0.785217 0.877205 0.386915
O O7 0.000000 0.000000 0.500000
O O8 0.160850 0.050621 0.339563
O O9 0.853947 0.310717 0.837806
O O10 0.890975 0.066712 0.872117
O O11 0.000000 0.500000 0.000000
O O12 0.924165 0.679659 0.702603
O O13 0.121914 0.905628 0.833988
O O14 0.348956 0.014236 0.680786
O O15 0.520177 0.042542 0.783914
O O16 0.600728 0.367509 0.644155
O O17 0.795176 0.283583 0.688089
O O18 0.500000 0.000000 0.500000
#
# Coordination Sequence:
#
# PCOD9110517 Si02
#       8
#     2   2   2   2   2   2   2   2
#     4  12  24  48  68  93 133 173 222 279 332 396
#     4   9  18  33  65  98 128 174 216 261 331 392
#     4  12  25  42  64  99 133 174 221 279 333 391
#     4  12  24  42  69  99 133 171 226 276 332 396
#     4  11  22  41  68  93 133 173 224 268 333 387
#     4   9  19  40  65  96 130 172 223 265 330 399
#     4   9  17  36  65  92 129 175 211 265 330 383
#     4  10  20  42  63  91 136 173 217 276 324 394
#
# _framework density 21.902213
#
# number of rings (size 3 to 8) (size 9 to 14) (size 15 to 20)
#    0.000    1.500    5.000    1.875    0.000    0.500 
#    2.250    8.750    0.000    0.000    0.000    0.000 
#    0.000    0.000    0.000    0.000    0.000    0.000 
#
# Total GULP energy -89253.738985 kJ/mol
# GULP energy per Si atom -5578.358687 kJ/mol
# Density = 2.185236 g / cm^3
# Si number density = 21.902213 Si / 1000 Ang^3
#
#
#
# Elastic Constant Matrix: (Units=GPa)
#
#
# Indices 1 2 3 4 5 6 
#
# 1 144.0248 43.4720 52.3157 12.9812 -12.3480 26.2337
# 2 43.4720 80.4904 37.7459 23.0916 -4.4089 21.2661
# 3 52.3157 37.7459 129.8046 16.9570 -10.8479 14.8042
# 4 12.9812 23.0916 16.9570 26.7896 -4.4070 1.7801
# 5 -12.3480 -4.4089 -10.8479 -4.4070 53.9966 -1.3697
# 6 26.2337 21.2661 14.8042 1.7801 -1.3697 30.7522
#
#
#
# Elastic Compliance Matrix: (Units=1/GPa)
#
#
# Indices 1 2 3 4 5 6 
#
# 1 0.009693 -0.002511 -0.002403 -0.000437 0.001359 -0.005290
# 2 -0.002511 0.022370 -0.002160 -0.016070 -0.000782 -0.011392
# 3 -0.002403 -0.002160 0.009890 -0.003005 0.000990 -0.001000
# 4 -0.000437 -0.016070 -0.003005 0.053053 0.002567 0.009975
# 5 0.001359 -0.000782 0.000990 0.002567 0.019165 -0.000390
# 6 -0.005290 -0.011392 -0.001000 0.009975 -0.000390 0.044796
#
#
# Mechanical properties :
#
#
# Convention : Reuss Voigt Hill
#
# Bulk Modulus (GPa) = 35.96308 69.04299 52.50304
# Shear Modulus (GPa) = 27.41489 37.02676 32.22082
#
# Velocity S-wave (km/s) = 3.54177 4.11609 3.83968
# Velocity P-wave (km/s) = 5.76029 7.36080 6.60917
#
# Compressibility (1/GPa) = 0.02780629
#
# Stress axis : x y z
#
# Youngs Moduli (GPa) = 103.16291 44.70203 101.11697
#
# Poissons Ratio (x) = 0.11226 0.24294
# Poissons Ratio (y) = 0.25907 0.21838
# Poissons Ratio (z) = 0.24786 0.09654
#
# Static dielectric constant tensor:
#      x y z
#    x 1.750880 0.034280 -0.140050 
#    y 0.034280 1.813980 0.026990 
#    z -0.140050 0.026990 1.605170 
# 
# From -- ./inp_files/217161.got.cif
#   From: 2010.05.17/outbox.cif.g08.bks.cpg/sg2_109_cif.got.tgz:217161.got - 2010.06.03 11:33:40.
