data_PCOD9110167
_publ_section_title
;
Structure prediction by ZEFSAII (Michael W. Deem and Ramdas Pophale) SiO2 
 PCOD9110167
Probable space group: P -1
;
_chemical_formula_sum "Si O2"
_cell_formula_units_Z 16
_cell_length_a 30.319262
_cell_length_b 15.301301
_cell_length_c 8.747863
_cell_angle_alpha 134.823047
_cell_angle_beta 38.074413
_cell_angle_gamma 161.433450
_cell_volume 779.036428
_symmetry_space_group_name_H-M "P -1"
_symmetry_group_IT_number 2
_symmetry_cell_setting 'triclinic'
loop_
_space_group_symop_operation_xyz
x,y,z
-x,-y,-z
loop_
_atom_site_type_symbol
_atom_site_label
_atom_site_fract_x
_atom_site_fract_y
_atom_site_fract_z
Si Si1 0.292986 0.978986 0.936009
Si Si2 0.400194 0.346176 0.326256
Si Si3 0.473087 0.222108 0.168163
Si Si4 0.861341 0.663756 0.138049
Si Si5 0.215097 0.288077 0.869830
Si Si6 0.269557 0.991115 0.685303
Si Si7 0.439480 0.768319 0.376341
Si Si8 0.041586 0.460273 0.212190
O O1 0.209866 0.856645 0.847875
O O2 0.456664 0.151650 0.689317
O O3 0.173513 0.726722 0.069255
O O4 0.354797 0.202297 0.118737
O O5 0.410430 0.256882 0.318245
O O6 0.260792 0.231678 0.589260
O O7 0.574894 0.683647 0.288724
O O8 0.645466 0.489300 0.110610
O O9 0.342193 0.996828 0.382635
O O10 0.507072 0.197964 0.893740
O O11 0.782589 0.596413 0.114584
O O12 0.746884 0.522539 0.419078
O O13 0.887954 0.557721 0.934926
O O14 0.038086 0.000969 0.073213
O O15 0.121074 0.821406 0.788967
O O16 0.500000 0.000000 0.500000
O O17 0.000000 0.500000 0.500000
#
# Coordination Sequence:
#
# PCOD9110167 Si02
#       8
#     2   2   2   2   2   2   2   2
#     4  11  23  41  66  95 127 165 213 262 317 376
#     4  10  20  41  70  94 127 163 210 263 319 373
#     4  10  21  39  64  94 120 164 210 255 313 370
#     4  11  23  40  64  87 133 164 205 261 315 381
#     4  10  21  41  64 100 122 160 212 262 316 368
#     4  11  22  39  66  97 122 161 219 267 306 376
#     4  11  22  41  60  87 128 171 202 247 317 381
#     4  12  24  43  64  92 128 172 210 261 324 376
#
# _framework density 20.538195000000002
#
# number of rings (size 3 to 8) (size 9 to 14) (size 15 to 20)
#    0.000    1.250    1.250    7.500    0.000    1.500 
#    2.250    3.750    0.000    0.000    0.000    0.000 
#    0.000    0.000    0.000    0.000    0.000    0.000 
#
# Total GULP energy -89277.830383 kJ/mol
# GULP energy per Si atom -5579.864399 kJ/mol
# Density = 2.049145 g / cm^3
# Si number density = 20.538195 Si / 1000 Ang^3
#
#
#
# Elastic Constant Matrix: (Units=GPa)
#
#
# Indices 1 2 3 4 5 6 
#
# 1 131.0551 31.4379 73.8329 12.9780 3.0150 5.2515
# 2 31.4379 63.8457 50.3163 -14.0794 5.4505 -3.3198
# 3 73.8329 50.3163 120.6099 -9.9249 -5.3367 -10.4146
# 4 12.9780 -14.0794 -9.9249 33.6687 -3.3592 -1.7343
# 5 3.0150 5.4505 -5.3367 -3.3592 31.3167 -6.2478
# 6 5.2515 -3.3198 -10.4146 -1.7343 -6.2478 27.7737
#
#
#
# Elastic Compliance Matrix: (Units=1/GPa)
#
#
# Indices 1 2 3 4 5 6 
#
# 1 0.015856 -0.001468 -0.011098 -0.011105 -0.006235 -0.009431
# 2 -0.001468 0.026220 -0.009693 0.008087 -0.005392 -0.000931
# 3 -0.011098 -0.009693 0.021207 0.008021 0.009531 0.011537
# 4 -0.011105 0.008087 0.008021 0.041007 0.007486 0.010319
# 5 -0.006235 -0.005392 0.009531 0.007486 0.038540 0.013246
# 6 -0.009431 -0.000931 0.011537 0.010319 0.013246 0.045627
#
#
# Mechanical properties :
#
#
# Convention : Reuss Voigt Hill
#
# Bulk Modulus (GPa) = 53.29384 69.63165 61.46274
# Shear Modulus (GPa) = 20.90027 29.21340 25.05683
#
# Velocity S-wave (km/s) = 3.19349 3.77556 3.49666
# Velocity P-wave (km/s) = 6.29308 7.27898 6.80391
#
# Compressibility (1/GPa) = 0.01876389
#
# Stress axis : x y z
#
# Youngs Moduli (GPa) = 63.06765 38.13838 47.15468
#
# Poissons Ratio (x) = 0.05600 0.52332
# Poissons Ratio (y) = 0.09261 0.45708
# Poissons Ratio (z) = 0.69992 0.36968
#
# Static dielectric constant tensor:
#      x y z
#    x 1.750000 -0.016760 0.030960 
#    y -0.016760 1.761800 -0.013640 
#    z 0.030960 -0.013640 1.774900 
# 
# From -- ./inp_files/358867.got.cif
#   From: 2010.05.17/outbox.cif.g08.bks.cpg/sg2_180_cif.got.tgz:358867.got - 2010.06.03 11:33:40.
