data_PCOD9110817
_publ_section_title
;
Structure prediction by ZEFSAII (Michael W. Deem and Ramdas Pophale) SiO2 
 PCOD9110817
Probable space group: P -1
;
_chemical_formula_sum "Si O2"
_cell_formula_units_Z 16
_cell_length_a 5.512906
_cell_length_b 12.201826
_cell_length_c 14.170516
_cell_angle_alpha 113.095797
_cell_angle_beta 127.177916
_cell_angle_gamma 79.790084
_cell_volume 696.285426
_symmetry_space_group_name_H-M "P -1"
_symmetry_group_IT_number 2
_symmetry_cell_setting 'triclinic'
loop_
_space_group_symop_operation_xyz
x,y,z
-x,-y,-z
loop_
_atom_site_type_symbol
_atom_site_label
_atom_site_fract_x
_atom_site_fract_y
_atom_site_fract_z
Si Si1 0.458612 0.135957 0.510431
Si Si2 0.753188 0.745214 0.049150
Si Si3 0.805518 0.405710 0.361584
Si Si4 0.867020 0.992546 0.073112
Si Si5 0.850649 0.231666 0.471852
Si Si6 0.177493 0.425685 0.143681
Si Si7 0.009913 0.673081 0.265078
Si Si8 0.052558 0.747876 0.815641
O O1 0.114794 0.162968 0.462220
O O2 0.679569 0.239316 0.651518
O O3 0.594546 0.153066 0.442787
O O4 0.500000 0.000000 0.500000
O O5 0.880259 0.626634 0.992146
O O6 0.412613 0.747129 0.927825
O O7 0.762697 0.729178 0.158569
O O8 0.929247 0.870237 0.099187
O O9 0.533054 0.458774 0.259755
O O10 0.012989 0.345030 0.314630
O O11 0.000000 0.500000 0.500000
O O12 0.699928 0.305191 0.379688
O O13 0.000523 0.120272 0.185984
O O14 0.500000 0.000000 0.000000
O O15 0.000000 0.000000 0.000000
O O16 0.008297 0.313948 0.621700
O O17 0.017589 0.536075 0.187439
O O18 0.107607 0.304606 0.146805
#
# Coordination Sequence:
#
# PCOD9110817 Si02
#       8
#     2   2   2   2   2   2   2   2
#     4  10  23  46  68  96 136 177 225 278 337 405
#     4  10  22  42  62 100 134 178 217 282 337 410
#     4  11  24  41  67  96 139 177 232 283 344 401
#     4  10  20  42  66  94 131 168 221 276 330 397
#     4  10  24  43  67  98 133 176 226 280 334 398
#     4  11  22  41  65  98 131 181 225 282 340 405
#     4  10  24  39  67  98 138 177 228 270 343 405
#     4  10  23  38  67  95 134 175 226 281 344 401
#
# _framework density 22.979084
#
# number of rings (size 3 to 8) (size 9 to 14) (size 15 to 20)
#    0.750    1.000    1.250    2.250    1.750    4.500 
#    0.000    0.000    0.000    0.000    0.000    0.000 
#    0.000    0.000    0.000    0.000    0.000    0.000 
#
# Total GULP energy -89206.720358 kJ/mol
# GULP energy per Si atom -5575.420022 kJ/mol
# Density = 2.292678 g / cm^3
# Si number density = 22.979084 Si / 1000 Ang^3
#
#
#
# Elastic Constant Matrix: (Units=GPa)
#
#
# Indices 1 2 3 4 5 6 
#
# 1 92.4010 12.5165 4.7757 -0.4962 -11.2172 0.5348
# 2 12.5165 86.5995 2.0970 5.7816 8.0668 -5.5186
# 3 4.7757 2.0970 53.8536 -3.4401 -8.4694 -6.2300
# 4 -0.4962 5.7816 -3.4401 34.9920 10.9296 -4.1873
# 5 -11.2172 8.0668 -8.4694 10.9296 23.4584 5.3884
# 6 0.5348 -5.5186 -6.2300 -4.1873 5.3884 27.1356
#
#
#
# Elastic Compliance Matrix: (Units=1/GPa)
#
#
# Indices 1 2 3 4 5 6 
#
# 1 0.012205 -0.002568 -0.000137 -0.002390 0.008435 -0.002838
# 2 -0.002568 0.012819 -0.000901 0.000432 -0.007063 0.003920
# 3 -0.000137 -0.000901 0.020042 0.000459 0.006533 0.003195
# 4 -0.002390 0.000432 0.000459 0.035980 -0.020138 0.009791
# 5 0.008435 -0.007063 0.006533 -0.020138 0.064512 -0.016021
# 6 -0.002838 0.003920 0.003195 0.009791 -0.016021 0.043131
#
#
# Mechanical properties :
#
#
# Convention : Reuss Voigt Hill
#
# Bulk Modulus (GPa) = 26.41643 30.18138 28.29891
# Shear Modulus (GPa) = 23.97863 31.34818 27.66341
#
# Velocity S-wave (km/s) = 3.23383 3.69752 3.47342
# Velocity P-wave (km/s) = 5.04622 5.60283 5.33179
#
# Compressibility (1/GPa) = 0.03785522
#
# Stress axis : x y z
#
# Youngs Moduli (GPa) = 81.93434 78.00764 49.89426
#
# Poissons Ratio (x) = 0.20030 0.00682
# Poissons Ratio (y) = 0.21038 0.04496
# Poissons Ratio (z) = 0.01121 0.07030
#
# Static dielectric constant tensor:
#      x y z
#    x 1.884150 0.036580 -0.000630 
#    y 0.036580 1.990410 -0.019530 
#    z -0.000630 -0.019530 1.883410 
# 
# From -- ./inp_files/481704.got.cif
#   From: 2010.05.17/outbox.cif.g08.bks.cpg/sg2_241_cif.got.tgz:481704.got - 2010.06.03 11:33:40.
