data_PCOD9110360
_publ_section_title
;
Structure prediction by ZEFSAII (Michael W. Deem and Ramdas Pophale) SiO2 
 PCOD9110360
Probable space group: P -1
;
_chemical_formula_sum "Si O2"
_cell_formula_units_Z 12
_cell_length_a 12.233872
_cell_length_b 9.951970
_cell_length_c 7.932676
_cell_angle_alpha 52.691974
_cell_angle_beta 50.407746
_cell_angle_gamma 35.834859
_cell_volume 427.079977
_symmetry_space_group_name_H-M "P -1"
_symmetry_group_IT_number 2
_symmetry_cell_setting 'triclinic'
loop_
_space_group_symop_operation_xyz
x,y,z
-x,-y,-z
loop_
_atom_site_type_symbol
_atom_site_label
_atom_site_fract_x
_atom_site_fract_y
_atom_site_fract_z
Si Si1 0.641950 0.987332 0.182737
Si Si2 0.368050 0.267970 0.859332
Si Si3 0.970632 0.149365 0.646053
Si Si4 0.791503 0.338603 0.044281
Si Si5 0.615989 0.321978 0.708337
Si Si6 0.802388 0.765263 0.528265
O O1 0.406795 0.157389 0.313448
O O2 0.714772 0.748676 0.213610
O O3 0.757304 0.919720 0.292215
O O4 0.673061 0.115226 0.929187
O O5 0.222776 0.468250 0.989397
O O6 0.510309 0.314306 0.660674
O O7 0.500000 0.000000 0.000000
O O8 0.814681 0.262249 0.562544
O O9 0.132596 0.159924 0.445839
O O10 0.853254 0.293904 0.823563
O O11 0.078180 0.890607 0.795042
O O12 0.569487 0.449225 0.185012
O O13 0.000000 0.500000 0.500000
#
# Coordination Sequence:
#
# PCOD9110360 Si02
#       6
#     2   2   2   2   2   2
#     4  10  20  42  57  83 118 153 194 228 285 350
#     4   8  18  37  60  87 115 152 184 233 295 340
#     4  11  20  36  57  94 111 147 200 235 285 337
#     4   9  19  33  60  89 117 145 184 247 285 330
#     4   9  19  36  64  88 114 145 187 245 288 331
#     4  11  25  38  59  80 118 159 192 236 280 340
#
# _framework density 28.09778
#
# number of rings (size 3 to 8) (size 9 to 14) (size 15 to 20)
#    1.000    1.333    0.000    3.500    0.000    2.667 
#    3.000    4.167    0.000    0.000    0.000    0.000 
#    0.000    0.000    0.000    0.000    0.000    0.000 
#
# Total GULP energy -67084.832087 kJ/mol
# GULP energy per Si atom -5590.402674 kJ/mol
# Density = 2.803383 g / cm^3
# Si number density = 28.097780 Si / 1000 Ang^3
#
#
#
# Elastic Constant Matrix: (Units=GPa)
#
#
# Indices 1 2 3 4 5 6 
#
# 1 140.3420 38.5551 6.8548 14.0728 -14.1098 -29.5957
# 2 38.5551 161.5007 9.9309 9.6211 -3.4571 16.9034
# 3 6.8548 9.9309 52.6448 14.5105 -0.7217 5.6753
# 4 14.0728 9.6211 14.5105 36.1257 4.7764 -2.1268
# 5 -14.1098 -3.4571 -0.7217 4.7764 38.2234 7.3479
# 6 -29.5957 16.9034 5.6753 -2.1268 7.3479 54.8943
#
#
#
# Elastic Compliance Matrix: (Units=1/GPa)
#
#
# Indices 1 2 3 4 5 6 
#
# 1 0.009590 -0.002616 -0.000540 -0.002834 0.002575 0.005577
# 2 -0.002616 0.007304 -0.000327 -0.001087 0.000544 -0.003741
# 3 -0.000540 -0.000327 0.021950 -0.008949 0.001892 -0.003060
# 4 -0.002834 -0.001087 -0.008949 0.033550 -0.005855 0.001816
# 5 0.002575 0.000544 0.001892 -0.005855 0.028509 -0.003018
# 6 0.005577 -0.003741 -0.003060 0.001816 -0.003018 0.023166
#
#
# Mechanical properties :
#
#
# Convention : Reuss Voigt Hill
#
# Bulk Modulus (GPa) = 31.36925 51.68545 41.52735
# Shear Modulus (GPa) = 35.29552 45.79181 40.54366
#
# Velocity S-wave (km/s) = 3.54809 4.04137 3.80274
# Velocity P-wave (km/s) = 5.28903 6.34127 5.83890
#
# Compressibility (1/GPa) = 0.03187836
#
# Stress axis : x y z
#
# Youngs Moduli (GPa) = 104.27886 136.90314 45.55869
#
# Poissons Ratio (x) = 0.35812 0.02460
# Poissons Ratio (y) = 0.27278 0.01489
# Poissons Ratio (z) = 0.05630 0.04476
#
# Static dielectric constant tensor:
#      x y z
#    x 2.266150 0.049350 0.008060 
#    y 0.049350 2.189140 -0.011980 
#    z 0.008060 -0.011980 2.303550 
# 
# From -- ./inp_files/449730.got.cif
#   From: 2010.05.17/outbox.cif.g08.bks.cpg/sg2_225_cif.got.tgz:449730.got - 2010.06.03 11:33:40.
