data_PCOD9110690
_publ_section_title
;
Structure prediction by ZEFSAII (Michael W. Deem and Ramdas Pophale) SiO2 
 PCOD9110690
Probable space group: P -1
;
_chemical_formula_sum "Si O2"
_cell_formula_units_Z 16
_cell_length_a 12.964289
_cell_length_b 17.046922
_cell_length_c 9.212047
_cell_angle_alpha 90.519381
_cell_angle_beta 98.582044
_cell_angle_gamma 24.973130
_cell_volume 810.137364
_symmetry_space_group_name_H-M "P -1"
_symmetry_group_IT_number 2
_symmetry_cell_setting 'triclinic'
loop_
_space_group_symop_operation_xyz
x,y,z
-x,-y,-z
loop_
_atom_site_type_symbol
_atom_site_label
_atom_site_fract_x
_atom_site_fract_y
_atom_site_fract_z
Si Si1 0.190538 0.821489 0.140264
Si Si2 0.239745 0.514758 0.763438
Si Si3 0.204683 0.639123 0.039029
Si Si4 0.944410 0.957144 0.403484
Si Si5 0.980617 0.276115 0.566035
Si Si6 0.236049 0.389556 0.000236
Si Si7 0.398770 0.392976 0.273589
Si Si8 0.666676 0.960633 0.093218
O O1 0.459896 0.681067 0.223078
O O2 0.237990 0.707759 0.065216
O O3 0.051073 0.896614 0.262974
O O4 0.000000 0.000000 0.000000
O O5 0.197310 0.611521 0.875896
O O6 0.046942 0.661118 0.591687
O O7 0.209163 0.454866 0.844715
O O8 0.443139 0.436673 0.177651
O O9 0.931264 0.800447 0.059061
O O10 0.635328 0.173478 0.351381
O O11 0.000000 0.000000 0.500000
O O12 0.039672 0.804352 0.464406
O O13 0.742312 0.474315 0.615052
O O14 0.229341 0.120739 0.719975
O O15 0.235044 0.453754 0.129371
O O16 0.000000 0.500000 0.000000
O O17 0.486312 0.161534 0.047209
O O18 0.500000 0.000000 0.000000
#
# Coordination Sequence:
#
# PCOD9110690 Si02
#       8
#     2   2   2   2   2   2   2   2
#     4  12  23  39  62  97 137 180 231 266 323 405
#     4  11  25  39  64  99 134 172 226 284 333 386
#     4  10  21  40  62  91 133 176 222 272 329 394
#     4  12  25  39  64  95 139 186 216 266 342 393
#     4  11  24  44  64 101 141 170 229 281 334 394
#     4  11  22  45  71  94 124 176 225 274 339 406
#     4  10  20  42  65  91 129 180 223 260 328 407
#     4  11  21  44  73  96 127 180 226 274 333 412
#
# _framework density 19.749735999999999
#
# number of rings (size 3 to 8) (size 9 to 14) (size 15 to 20)
#    0.000    1.000    3.750    5.625    3.500    1.000 
#    2.250    5.000    0.000    0.000    0.000    0.000 
#    0.000    0.000    0.000    0.000    0.000    0.000 
#
# Total GULP energy -89195.380268 kJ/mol
# GULP energy per Si atom -5574.711267 kJ/mol
# Density = 1.970478 g / cm^3
# Si number density = 19.749736 Si / 1000 Ang^3
#
#
#
# Elastic Constant Matrix: (Units=GPa)
#
#
# Indices 1 2 3 4 5 6 
#
# 1 90.0148 32.6821 33.4087 -14.3427 -11.4406 19.6624
# 2 32.6821 113.2087 34.0883 -0.8643 -15.3452 19.2417
# 3 33.4087 34.0883 131.6892 -6.9616 -15.1180 16.4220
# 4 -14.3427 -0.8643 -6.9616 28.4622 4.7324 4.1647
# 5 -11.4406 -15.3452 -15.1180 4.7324 17.6146 1.2177
# 6 19.6624 19.2417 16.4220 4.1647 1.2177 33.6072
#
#
#
# Elastic Compliance Matrix: (Units=1/GPa)
#
#
# Indices 1 2 3 4 5 6 
#
# 1 0.016375 -0.001854 -0.001393 0.008141 0.006265 -0.009074
# 2 -0.001854 0.011771 -0.000960 -0.001530 0.009005 -0.005322
# 3 -0.001393 -0.000960 0.009425 0.001051 0.006314 -0.003600
# 4 0.008141 -0.001530 0.001051 0.041769 -0.005718 -0.009369
# 5 0.006265 0.009005 0.006314 -0.005718 0.076607 -0.013974
# 6 -0.009074 -0.005322 -0.003600 -0.009369 -0.013974 0.041538
#
#
# Mechanical properties :
#
#
# Convention : Reuss Voigt Hill
#
# Bulk Modulus (GPa) = 34.29797 59.47455 46.88626
# Shear Modulus (GPa) = 23.18917 31.58570 27.38744
#
# Velocity S-wave (km/s) = 3.43031 4.00346 3.72791
# Velocity P-wave (km/s) = 5.75268 7.17981 6.50550
#
# Compressibility (1/GPa) = 0.02915624
#
# Stress axis : x y z
#
# Youngs Moduli (GPa) = 61.06897 84.95314 106.10158
#
# Poissons Ratio (x) = 0.15752 0.14782
# Poissons Ratio (y) = 0.11324 0.10186
# Poissons Ratio (z) = 0.08508 0.08155
#
# Static dielectric constant tensor:
#      x y z
#    x 1.659480 -0.067920 0.019050 
#    y -0.067920 1.771030 -0.067930 
#    z 0.019050 -0.067930 1.789610 
# 
# From -- ./inp_files/273190.got.cif
#   From: 2010.05.17/outbox.cif.g08.bks.cpg/sg2_137_cif.got.tgz:273190.got - 2010.06.03 11:33:40.
