data_PCOD9110381
_publ_section_title
;
Structure prediction by ZEFSAII (Michael W. Deem and Ramdas Pophale) SiO2 
 PCOD9110381
Probable space group: P -1
;
_chemical_formula_sum "Si O2"
_cell_formula_units_Z 15
_cell_length_a 8.978396
_cell_length_b 9.315084
_cell_length_c 15.424588
_cell_angle_alpha 38.394449
_cell_angle_beta 65.091351
_cell_angle_gamma 82.307412
_cell_volume 681.151463
_symmetry_space_group_name_H-M "P -1"
_symmetry_group_IT_number 2
_symmetry_cell_setting 'triclinic'
loop_
_space_group_symop_operation_xyz
x,y,z
-x,-y,-z
loop_
_atom_site_type_symbol
_atom_site_label
_atom_site_fract_x
_atom_site_fract_y
_atom_site_fract_z
Si Si1 0.437661 0.108395 0.328045
Si Si2 0.772112 0.193660 0.096599
Si Si3 0.000000 0.500000 0.500000
Si Si4 0.307131 0.977898 0.161806
Si Si5 0.321022 0.084941 0.914480
Si Si6 0.146413 0.070683 0.642573
Si Si7 0.447208 0.665654 0.629878
Si Si8 0.821656 0.750820 0.789705
O O1 0.569085 0.104092 0.220607
O O2 0.556040 0.285295 0.289936
O O3 0.290022 0.207731 0.282690
O O4 0.361560 0.835459 0.517664
O O5 0.793601 0.041332 0.080099
O O6 0.869496 0.133516 0.183792
O O7 0.822988 0.477360 0.925242
O O8 0.800965 0.289108 0.647367
O O9 0.922251 0.722026 0.402939
O O10 0.508554 0.998210 0.096003
O O11 0.273501 0.181814 0.134646
O O12 0.245048 0.996932 0.069722
O O13 0.377230 0.380293 0.759104
O O14 0.346881 0.204786 0.503823
O O15 0.019075 0.942426 0.655451
#
# Coordination Sequence:
#
# PCOD9110381 Si02
#       8
#     2   2   1   2   2   2   2   2
#     4  10  22  38  64  92 124 169 209 261 317 367
#     4  11  23  39  63  94 125 167 214 260 310 375
#     4  10  20  42  60  88 128 166 200 252 322 378
#     4  10  22  37  63  93 122 168 205 260 311 367
#     4  11  22  37  64  94 124 161 214 262 304 368
#     4  10  23  39  62  89 128 171 206 260 321 368
#     4  10  22  41  61  95 131 157 213 267 309 377
#     4  11  22  40  61  88 126 170 213 253 314 384
#
# _framework density 22.021533999999999
#
# number of rings (size 3 to 8) (size 9 to 14) (size 15 to 20)
#    0.000    1.600    2.667    1.600    3.733    4.800 
#    0.000    4.000    0.000    1.600    0.000    0.000 
#    0.000    0.000    0.000    0.000    0.000    0.000 
#
# Total GULP energy -83579.174254 kJ/mol
# GULP energy per Si atom -5571.944950 kJ/mol
# Density = 2.197141 g / cm^3
# Si number density = 22.021534 Si / 1000 Ang^3
#
#
#
# Elastic Constant Matrix: (Units=GPa)
#
#
# Indices 1 2 3 4 5 6 
#
# 1 48.8905 1.4849 19.9658 -8.7761 21.2056 -8.3398
# 2 1.4849 105.6764 52.7261 -18.6712 5.0465 -2.0662
# 3 19.9658 52.7261 87.1986 -31.8237 23.4024 4.9458
# 4 -8.7761 -18.6712 -31.8237 40.3703 -7.2426 2.6371
# 5 21.2056 5.0465 23.4024 -7.2426 25.4295 -3.8890
# 6 -8.3398 -2.0662 4.9458 2.6371 -3.8890 24.8476
#
#
#
# Elastic Compliance Matrix: (Units=1/GPa)
#
#
# Indices 1 2 3 4 5 6 
#
# 1 0.033715 0.002315 -0.002347 0.001592 -0.024748 0.007933
# 2 0.002315 0.015143 -0.012377 -0.001380 0.006939 0.005732
# 3 -0.002347 -0.012377 0.032157 0.015920 -0.022705 -0.013461
# 4 0.001592 -0.001380 0.015920 0.036358 -0.006517 -0.007628
# 5 -0.024748 0.006939 -0.022705 -0.006517 0.079132 0.009867
# 6 0.007933 0.005732 -0.013461 -0.007628 0.009867 0.048418
#
#
# Mechanical properties :
#
#
# Convention : Reuss Voigt Hill
#
# Bulk Modulus (GPa) = 17.79455 43.34656 30.57056
# Shear Modulus (GPa) = 17.33268 29.30207 23.31737
#
# Velocity S-wave (km/s) = 2.80854 3.65171 3.25752
# Velocity P-wave (km/s) = 4.31454 6.12425 5.29725
#
# Compressibility (1/GPa) = 0.05619697
#
# Stress axis : x y z
#
# Youngs Moduli (GPa) = 29.66041 66.03792 31.09766
#
# Poissons Ratio (x) = -0.15290 0.07298
# Poissons Ratio (y) = -0.06867 0.38491
# Poissons Ratio (z) = 0.06961 0.81738
#
# Static dielectric constant tensor:
#      x y z
#    x 1.831970 -0.003710 -0.009010 
#    y -0.003710 1.813740 0.049930 
#    z -0.009010 0.049930 1.778420 
# 
# From -- ./inp_files/494256.got.cif
#   From: 2010.05.17/outbox.cif.g08.bks.cpg/sg2_248_cif.got.tgz:494256.got - 2010.06.03 11:33:40.
