data_PCOD9110701
_publ_section_title
;
Structure prediction by ZEFSAII (Michael W. Deem and Ramdas Pophale) SiO2 
 PCOD9110701
Probable space group: P -1
;
_chemical_formula_sum "Si O2"
_cell_formula_units_Z 16
_cell_length_a 18.271412
_cell_length_b 7.462404
_cell_length_c 7.533089
_cell_angle_alpha 120.764371
_cell_angle_beta 44.286311
_cell_angle_gamma 108.117662
_cell_volume 613.648027
_symmetry_space_group_name_H-M "P -1"
_symmetry_group_IT_number 2
_symmetry_cell_setting 'triclinic'
loop_
_space_group_symop_operation_xyz
x,y,z
-x,-y,-z
loop_
_atom_site_type_symbol
_atom_site_label
_atom_site_fract_x
_atom_site_fract_y
_atom_site_fract_z
Si Si1 0.188199 0.836867 0.472759
Si Si2 0.396286 0.855812 0.938432
Si Si3 0.881972 0.594681 0.532209
Si Si4 0.204342 0.220723 0.863743
Si Si5 0.423483 0.168224 0.606420
Si Si6 0.660331 0.676494 0.825229
Si Si7 0.079142 0.795396 0.260232
Si Si8 0.280583 0.619207 0.718173
O O1 0.147516 0.640494 0.541014
O O2 0.137912 0.812895 0.354039
O O3 0.157507 0.056704 0.732136
O O4 0.315213 0.812308 0.211693
O O5 0.517435 0.776492 0.649313
O O6 0.346950 0.752359 0.798822
O O7 0.389958 0.108190 0.064088
O O8 0.784671 0.711794 0.651421
O O9 0.000494 0.616237 0.282503
O O10 0.868617 0.688523 0.802592
O O11 0.310336 0.104884 0.709683
O O12 0.242181 0.419175 0.791182
O O13 0.500000 0.000000 0.500000
O O14 0.389842 0.343036 0.902319
O O15 0.655935 0.477427 0.607855
O O16 0.172605 0.762638 0.940648
O O17 0.000000 0.000000 0.500000
#
# Coordination Sequence:
#
# PCOD9110701 Si02
#       8
#     2   2   2   2   2   2   2   2
#     4  11  23  41  66  97 133 172 219 275 329 385
#     4  10  20  42  65  93 136 171 219 271 323 387
#     4  11  23  43  64  97 133 168 222 274 325 389
#     4  11  23  42  66  96 133 178 214 272 334 378
#     4   9  22  42  67  97 134 174 220 272 323 392
#     4  10  22  42  65  95 136 174 213 277 329 387
#     4  11  25  45  69  98 134 174 217 276 330 390
#     4  11  23  41  68  95 131 175 222 270 330 397
#
# _framework density 26.073578000000001
#
# number of rings (size 3 to 8) (size 9 to 14) (size 15 to 20)
#    0.000    1.500    3.750    1.875    0.000    6.500 
#    0.000    0.000    0.000    0.000    0.000    0.000 
#    0.000    0.000    0.000    0.000    0.000    0.000 
#
# Total GULP energy -89523.808311 kJ/mol
# GULP energy per Si atom -5595.238019 kJ/mol
# Density = 2.601423 g / cm^3
# Si number density = 26.073578 Si / 1000 Ang^3
#
#
#
# Elastic Constant Matrix: (Units=GPa)
#
#
# Indices 1 2 3 4 5 6 
#
# 1 50.1483 -0.1105 32.2648 7.6961 8.9132 4.0156
# 2 -0.1105 92.1664 34.3460 2.5403 -1.4836 14.3529
# 3 32.2648 34.3460 110.5304 31.3849 13.1616 26.2717
# 4 7.6961 2.5403 31.3849 36.3798 13.5311 -3.0811
# 5 8.9132 -1.4836 13.1616 13.5311 46.6307 4.7530
# 6 4.0156 14.3529 26.2717 -3.0811 4.7530 30.4860
#
#
#
# Elastic Compliance Matrix: (Units=1/GPa)
#
#
# Indices 1 2 3 4 5 6 
#
# 1 0.026608 0.003097 -0.011416 0.006067 -0.004151 0.006136
# 2 0.003097 0.013077 -0.005389 0.002649 0.000757 -0.001771
# 3 -0.011416 -0.005389 0.024266 -0.021000 0.003243 -0.019498
# 4 0.006067 0.002649 -0.021000 0.050623 -0.012189 0.023067
# 5 -0.004151 0.000757 0.003243 -0.012189 0.025683 -0.007840
# 6 0.006136 -0.001771 -0.019498 0.023067 -0.007840 0.053184
#
#
# Mechanical properties :
#
#
# Convention : Reuss Voigt Hill
#
# Bulk Modulus (GPa) = 27.37223 42.87176 35.12200
# Shear Modulus (GPa) = 21.45592 35.12229 28.28911
#
# Velocity S-wave (km/s) = 2.87173 3.67419 3.29747
# Velocity P-wave (km/s) = 4.63861 5.87179 5.29125
#
# Compressibility (1/GPa) = 0.03653338
#
# Stress axis : x y z
#
# Youngs Moduli (GPa) = 37.58255 76.47161 41.21061
#
# Poissons Ratio (x) = -0.23680 0.47047
# Poissons Ratio (y) = -0.11638 0.22208
# Poissons Ratio (z) = 0.42905 0.41210
#
# Static dielectric constant tensor:
#      x y z
#    x 2.081250 -0.072780 -0.049000 
#    y -0.072780 2.101720 -0.006770 
#    z -0.049000 -0.006770 2.066280 
# 
# From -- ./inp_files/342983.got.cif
#   From: 2010.05.17/outbox.cif.g08.bks.cpg/sg2_172_cif.got.tgz:342983.got - 2010.06.03 11:33:40.
