data_PCOD9110281
_publ_section_title
;
Structure prediction by ZEFSAII (Michael W. Deem and Ramdas Pophale) SiO2 
 PCOD9110281
Probable space group: P -1
;
_chemical_formula_sum "Si O2"
_cell_formula_units_Z 16
_cell_length_a 8.878446
_cell_length_b 16.833538
_cell_length_c 10.413752
_cell_angle_alpha 133.302428
_cell_angle_beta 125.932281
_cell_angle_gamma 90.886957
_cell_volume 646.499578
_symmetry_space_group_name_H-M "P -1"
_symmetry_group_IT_number 2
_symmetry_cell_setting 'triclinic'
loop_
_space_group_symop_operation_xyz
x,y,z
-x,-y,-z
loop_
_atom_site_type_symbol
_atom_site_label
_atom_site_fract_x
_atom_site_fract_y
_atom_site_fract_z
Si Si1 0.844623 0.043064 0.648703
Si Si2 0.647262 0.042431 0.812699
Si Si3 0.038315 0.367151 0.796309
Si Si4 0.974542 0.878506 0.578626
Si Si5 0.955538 0.609840 0.616520
Si Si6 0.536736 0.812524 0.710075
Si Si7 0.196209 0.377273 0.169818
Si Si8 0.385024 0.350528 0.619893
O O1 0.805704 0.043596 0.782804
O O2 0.614567 0.016988 0.442707
O O3 0.814815 0.903830 0.449920
O O4 0.107560 0.214852 0.931268
O O5 0.569502 0.922260 0.744299
O O6 0.816981 0.217029 0.135794
O O7 0.986979 0.219535 0.577658
O O8 0.775520 0.318657 0.563695
O O9 0.105479 0.398338 0.016736
O O10 0.312195 0.518660 0.035770
O O11 0.814405 0.781531 0.521053
O O12 0.251248 0.057025 0.936723
O O13 0.952435 0.633219 0.793478
O O14 0.699207 0.563309 0.374530
O O15 0.000000 0.500000 0.500000
O O16 0.617477 0.733413 0.594824
O O17 0.500000 0.500000 0.500000
#
# Coordination Sequence:
#
# PCOD9110281 Si02
#       8
#     2   2   2   2   2   2   2   2
#     4  10  22  41  70 104 136 188 243 297 351 428
#     4  10  20  41  72 103 135 183 248 295 350 429
#     4  12  28  47  68 112 151 193 242 300 374 432
#     4  12  26  46  76 105 152 192 249 302 357 438
#     4  11  25  45  74 108 142 186 247 302 363 433
#     4  12  23  49  74 106 145 197 246 299 363 437
#     4  11  23  46  71 101 147 192 236 298 372 426
#     4  12  25  49  75 107 148 199 242 298 370 441
#
# _framework density 24.748664000000002
#
# number of rings (size 3 to 8) (size 9 to 14) (size 15 to 20)
#    0.000    0.750    5.000    3.000    1.750    0.500 
#    6.750    0.000    0.000    0.000    0.000    0.000 
#    0.000    0.000    0.000    0.000    0.000    0.000 
#
# Total GULP energy -89554.737006 kJ/mol
# GULP energy per Si atom -5597.171063 kJ/mol
# Density = 2.469233 g / cm^3
# Si number density = 24.748664 Si / 1000 Ang^3
#
#
#
# Elastic Constant Matrix: (Units=GPa)
#
#
# Indices 1 2 3 4 5 6 
#
# 1 88.8036 33.2051 45.3160 11.4556 -8.9914 -25.2009
# 2 33.2051 77.9042 10.2134 22.0808 -3.8308 -20.0570
# 3 45.3160 10.2134 107.6981 16.7285 20.0930 0.4275
# 4 11.4556 22.0808 16.7285 35.8123 -10.8686 -12.9932
# 5 -8.9914 -3.8308 20.0930 -10.8686 45.9690 10.0941
# 6 -25.2009 -20.0570 0.4275 -12.9932 10.0941 32.3378
#
#
#
# Elastic Compliance Matrix: (Units=1/GPa)
#
#
# Indices 1 2 3 4 5 6 
#
# 1 0.025236 -0.007499 -0.013560 0.011903 0.009303 0.017073
# 2 -0.007499 0.019385 0.004122 -0.011978 -0.005124 0.002911
# 3 -0.013560 0.004122 0.019089 -0.014471 -0.011791 -0.010397
# 4 0.011903 -0.011978 -0.014471 0.049120 0.015554 0.016920
# 5 0.009303 -0.005124 -0.011791 0.015554 0.031861 0.000532
# 6 0.017073 0.002911 -0.010397 0.016920 0.000532 0.052804
#
#
# Mechanical properties :
#
#
# Convention : Reuss Voigt Hill
#
# Bulk Modulus (GPa) = 33.51716 50.20834 41.86275
# Shear Modulus (GPa) = 20.72008 35.20190 27.96099
#
# Velocity S-wave (km/s) = 2.89661 3.77553 3.36489
# Velocity P-wave (km/s) = 4.97590 6.27196 5.66114
#
# Compressibility (1/GPa) = 0.02983546
#
# Stress axis : x y z
#
# Youngs Moduli (GPa) = 39.62644 51.58702 52.38751
#
# Poissons Ratio (x) = 0.38687 0.71035
# Poissons Ratio (y) = 0.29717 -0.21595
# Poissons Ratio (z) = 0.53731 -0.21265
#
# Static dielectric constant tensor:
#      x y z
#    x 1.995030 0.022230 0.033510 
#    y 0.022230 1.951840 -0.045840 
#    z 0.033510 -0.045840 2.017900 
# 
# From -- ./inp_files/186051.got.cif
#   From: 2010.05.17/outbox.cif.g08.bks.cpg/sg2_94_cif.got.tgz:186051.got - 2010.06.03 11:33:40.
