data_PCOD9110862
_publ_section_title
;
Structure prediction by ZEFSAII (Michael W. Deem and Ramdas Pophale) SiO2 
 PCOD9110862
Probable space group: P -1
;
_chemical_formula_sum "Si O2"
_cell_formula_units_Z 16
_cell_length_a 14.787497
_cell_length_b 11.004889
_cell_length_c 8.408497
_cell_angle_alpha 86.263052
_cell_angle_beta 124.691635
_cell_angle_gamma 134.324011
_cell_volume 663.962356
_symmetry_space_group_name_H-M "P -1"
_symmetry_group_IT_number 2
_symmetry_cell_setting 'triclinic'
loop_
_space_group_symop_operation_xyz
x,y,z
-x,-y,-z
loop_
_atom_site_type_symbol
_atom_site_label
_atom_site_fract_x
_atom_site_fract_y
_atom_site_fract_z
Si Si1 0.973098 0.774339 0.354433
Si Si2 0.309841 0.182728 0.520877
Si Si3 0.803106 0.983504 0.927396
Si Si4 0.048849 0.504809 0.727504
Si Si5 0.388507 0.402570 0.060897
Si Si6 0.451158 0.820612 0.601968
Si Si7 0.454825 0.850186 0.232456
Si Si8 0.106172 0.384529 0.357105
O O1 0.022826 0.697509 0.308315
O O2 0.958115 0.721019 0.526911
O O3 0.773656 0.642186 0.109001
O O4 0.129763 0.016401 0.466955
O O5 0.231457 0.104328 0.271620
O O6 0.454194 0.419851 0.669781
O O7 0.426280 0.163779 0.678993
O O8 0.721459 0.817290 0.987684
O O9 0.667624 0.979063 0.805456
O O10 0.011937 0.212080 0.150253
O O11 0.000000 0.500000 0.500000
O O12 0.966857 0.541718 0.746295
O O13 0.270303 0.695396 0.957325
O O14 0.500000 0.500000 0.000000
O O15 0.397618 0.793214 0.366866
O O16 0.326688 0.597849 0.555748
O O17 0.428516 0.920407 0.677334
#
# Coordination Sequence:
#
# PCOD9110862 Si02
#       8
#     2   2   2   2   2   2   2   2
#     4  11  25  44  65  97 130 173 219 264 326 385
#     4  11  25  44  69  96 130 169 217 274 323 383
#     4  11  25  42  66 100 128 171 222 264 321 384
#     4  10  21  40  63  98 134 167 212 261 317 391
#     4  12  26  46  69  92 129 174 219 273 325 383
#     4  10  22  39  67  97 136 170 208 267 319 386
#     4  10  20  42  66  99 133 170 213 261 329 385
#     4  11  23  41  65  98 134 170 213 265 323 387
#
# _framework density 24.097752
#
# number of rings (size 3 to 8) (size 9 to 14) (size 15 to 20)
#    0.000    1.250    2.500    2.625    1.750    4.000 
#    0.000    2.500    0.000    0.000    0.000    0.000 
#    0.000    0.000    0.000    0.000    0.000    0.000 
#
# Total GULP energy -89568.983287 kJ/mol
# GULP energy per Si atom -5598.061455 kJ/mol
# Density = 2.404290 g / cm^3
# Si number density = 24.097752 Si / 1000 Ang^3
#
#
#
# Elastic Constant Matrix: (Units=GPa)
#
#
# Indices 1 2 3 4 5 6 
#
# 1 34.4093 -0.3186 1.3143 -1.5094 5.0005 -4.7999
# 2 -0.3186 61.7851 12.6717 9.1112 4.9968 -4.9739
# 3 1.3143 12.6717 96.8976 19.6671 -4.5231 -2.9556
# 4 -1.5094 9.1112 19.6671 41.1425 -1.9622 -0.1629
# 5 5.0005 4.9968 -4.5231 -1.9622 25.7543 9.0422
# 6 -4.7999 -4.9739 -2.9556 -0.1629 9.0422 28.7331
#
#
#
# Elastic Compliance Matrix: (Units=1/GPa)
#
#
# Indices 1 2 3 4 5 6 
#
# 1 0.031737 0.001709 -0.001014 0.000847 -0.009598 0.008518
# 2 0.001709 0.017974 -0.001833 -0.003317 -0.006198 0.005140
# 3 -0.001014 -0.001833 0.011718 -0.005127 0.002223 -0.000010
# 4 0.000847 -0.003317 -0.005127 0.027621 0.002209 -0.001499
# 5 -0.009598 -0.006198 0.002223 0.002209 0.048688 -0.017757
# 6 0.008518 0.005140 -0.000010 -0.001499 -0.017757 0.042694
#
#
# Mechanical properties :
#
#
# Convention : Reuss Voigt Hill
#
# Bulk Modulus (GPa) = 16.90566 24.49189 20.69877
# Shear Modulus (GPa) = 24.70038 31.08760 27.89399
#
# Velocity S-wave (km/s) = 3.20505 3.59564 3.40595
# Velocity P-wave (km/s) = 4.55270 5.23677 4.90667
#
# Compressibility (1/GPa) = 0.05915178
#
# Stress axis : x y z
#
# Youngs Moduli (GPa) = 31.50930 55.63566 85.34133
#
# Poissons Ratio (x) = -0.09507 0.08653
# Poissons Ratio (y) = -0.05384 0.15644
# Poissons Ratio (z) = 0.03195 0.10198
#
# Static dielectric constant tensor:
#      x y z
#    x 1.941960 -0.037130 -0.009020 
#    y -0.037130 1.933590 0.009940 
#    z -0.009020 0.009940 1.900980 
# 
# From -- ./inp_files/273510.got.cif
#   From: 2010.05.17/outbox.cif.g08.bks.cpg/sg2_137_cif.got.tgz:273510.got - 2010.06.03 11:33:40.
