data_PCOD9110041
_publ_section_title
;
Structure prediction by ZEFSAII (Michael W. Deem and Ramdas Pophale) SiO2 
 PCOD9110041
Probable space group: P -1
;
_chemical_formula_sum "Si O2"
_cell_formula_units_Z 15
_cell_length_a 16.737632
_cell_length_b 12.870857
_cell_length_c 10.066395
_cell_angle_alpha 134.865164
_cell_angle_beta 33.852814
_cell_angle_gamma 150.300677
_cell_volume 597.518843
_symmetry_space_group_name_H-M "P -1"
_symmetry_group_IT_number 2
_symmetry_cell_setting 'triclinic'
loop_
_space_group_symop_operation_xyz
x,y,z
-x,-y,-z
loop_
_atom_site_type_symbol
_atom_site_label
_atom_site_fract_x
_atom_site_fract_y
_atom_site_fract_z
Si Si1 0.072660 0.801041 0.993422
Si Si2 0.904765 0.677690 0.833487
Si Si3 0.532366 0.567703 0.167852
Si Si4 0.714050 0.213116 0.673666
Si Si5 0.789123 0.456028 0.305188
Si Si6 0.500000 0.000000 0.500000
Si Si7 0.218360 0.795758 0.130325
Si Si8 0.772369 0.892939 0.742225
O O1 0.250161 0.819045 0.719223
O O2 0.934253 0.728500 0.993448
O O3 0.920056 0.644927 0.182941
O O4 0.206985 0.034920 0.070235
O O5 0.796895 0.440325 0.748262
O O6 0.126542 0.805740 0.582615
O O7 0.770107 0.711857 0.995795
O O8 0.420479 0.637511 0.423572
O O9 0.402138 0.356574 0.246820
O O10 0.500000 0.500000 0.000000
O O11 0.681187 0.176010 0.844245
O O12 0.558851 0.083186 0.649005
O O13 0.967486 0.593613 0.297004
O O14 0.734712 0.281031 0.125126
O O15 0.265493 0.995981 0.200189
O O16 0.000000 0.000000 0.500000
#
# Coordination Sequence:
#
# PCOD9110041 Si02
#       8
#     2   2   2   2   2   1   2   2
#     4  10  20  43  66 100 144 185 242 299 367 419
#     4  10  22  38  71 100 140 191 246 299 359 444
#     4  12  25  46  72 106 143 200 249 296 371 448
#     4  10  20  41  69 105 145 192 244 307 366 428
#     4  10  21  41  72 105 146 191 244 299 363 439
#     4  10  22  38  66 106 148 190 242 304 360 436
#     4  10  20  41  74 100 143 192 244 300 368 431
#     4  11  23  45  70 103 147 191 237 309 372 430
#
# _framework density 25.103811
#
# number of rings (size 3 to 8) (size 9 to 14) (size 15 to 20)
#    0.000    1.600    4.000    1.600    0.000    0.533 
#    9.600    6.667    2.933    0.000    0.000    0.000 
#    0.000    0.000    0.000    0.000    0.000    0.000 
#
# Total GULP energy -83535.924401 kJ/mol
# GULP energy per Si atom -5569.061627 kJ/mol
# Density = 2.504667 g / cm^3
# Si number density = 25.103811 Si / 1000 Ang^3
#
#
#
# Elastic Constant Matrix: (Units=GPa)
#
#
# Indices 1 2 3 4 5 6 
#
# 1 147.2642 17.9614 27.7062 -1.5103 2.0194 50.4237
# 2 17.9614 38.0398 -9.5158 6.7251 4.3966 7.2881
# 3 27.7062 -9.5158 145.5371 -13.6556 -18.0525 13.4763
# 4 -1.5103 6.7251 -13.6556 38.5568 3.0536 -3.3294
# 5 2.0194 4.3966 -18.0525 3.0536 35.6399 -7.2906
# 6 50.4237 7.2881 13.4763 -3.3294 -7.2906 38.0921
#
#
#
# Elastic Compliance Matrix: (Units=1/GPa)
#
#
# Indices 1 2 3 4 5 6 
#
# 1 0.013673 -0.002759 -0.001809 -0.000781 -0.004955 -0.017948
# 2 -0.002759 0.029989 0.002035 -0.004715 -0.002879 -0.003769
# 3 -0.001809 0.002035 0.008004 0.002119 0.003740 0.000075
# 4 -0.000781 -0.004715 0.002119 0.027787 0.000061 0.003627
# 5 -0.004955 -0.002879 0.003740 0.000061 0.033063 0.012121
# 6 -0.017948 -0.003769 0.000075 0.003627 0.012121 0.053342
#
#
# Mechanical properties :
#
#
# Convention : Reuss Voigt Hill
#
# Bulk Modulus (GPa) = 21.45931 44.79386 33.12659
# Shear Modulus (GPa) = 26.81595 42.10370 34.45982
#
# Velocity S-wave (km/s) = 3.27188 4.09979 3.70901
# Velocity P-wave (km/s) = 4.77916 6.34769 5.61843
#
# Compressibility (1/GPa) = 0.04659982
#
# Stress axis : x y z
#
# Youngs Moduli (GPa) = 73.13810 33.34604 124.93089
#
# Poissons Ratio (x) = 0.09200 0.22605
# Poissons Ratio (y) = 0.20179 -0.25429
# Poissons Ratio (z) = 0.13233 -0.06787
#
# Static dielectric constant tensor:
#      x y z
#    x 2.073250 -0.116090 -0.082280 
#    y -0.116090 2.106160 -0.015630 
#    z -0.082280 -0.015630 2.063770 
# 
# From -- ./inp_files/465618.got.cif
#   From: 2010.05.17/outbox.cif.g08.bks.cpg/sg2_233_cif.got.tgz:465618.got - 2010.06.03 11:33:40.
