data_PCOD9110830
_publ_section_title
;
Structure prediction by ZEFSAII (Michael W. Deem and Ramdas Pophale) SiO2 
 PCOD9110830
Probable space group: P -1
;
_chemical_formula_sum "Si O2"
_cell_formula_units_Z 15
_cell_length_a 14.722222
_cell_length_b 6.380513
_cell_length_c 26.301023
_cell_angle_alpha 120.484844
_cell_angle_beta 161.685485
_cell_angle_gamma 57.531194
_cell_volume 654.962164
_symmetry_space_group_name_H-M "P -1"
_symmetry_group_IT_number 2
_symmetry_cell_setting 'triclinic'
loop_
_space_group_symop_operation_xyz
x,y,z
-x,-y,-z
loop_
_atom_site_type_symbol
_atom_site_label
_atom_site_fract_x
_atom_site_fract_y
_atom_site_fract_z
Si Si1 0.306731 0.723307 0.718796
Si Si2 0.099261 0.018741 0.834259
Si Si3 0.195982 0.371980 0.409550
Si Si4 0.656722 0.754888 0.154597
Si Si5 0.269335 0.522821 0.997944
Si Si6 0.761276 0.921710 0.746006
Si Si7 0.500000 0.500000 0.500000
Si Si8 0.305244 0.408444 0.586009
O O1 0.364535 0.627989 0.680396
O O2 0.995863 0.663693 0.563515
O O3 0.293215 0.011633 0.757320
O O4 0.559199 0.573025 0.871468
O O5 0.126749 0.298459 0.873587
O O6 0.954977 0.866730 0.697194
O O7 0.927884 0.997951 0.793753
O O8 0.432110 0.866436 0.004597
O O9 0.475536 0.328102 0.516826
O O10 0.254525 0.471514 0.507571
O O11 0.964424 0.580230 0.280348
O O12 0.498277 0.590035 0.087023
O O13 0.014529 0.766931 0.897351
O O14 0.568272 0.727682 0.600599
O O15 0.565202 0.165674 0.695993
#
# Coordination Sequence:
#
# PCOD9110830 Si02
#       8
#     2   2   2   2   2   2   1   2
#     4  10  23  46  65  95 131 168 226 272 303 390
#     4   9  22  39  65  95 132 163 221 265 319 396
#     4  11  22  40  67  99 130 174 207 268 334 384
#     4  10  20  42  66  95 128 170 221 266 322 377
#     4  10  21  43  66  92 132 177 214 268 314 382
#     4  10  23  40  63  98 131 171 211 264 328 389
#     4  10  24  40  62  98 136 162 212 262 322 402
#     4  11  24  42  67  97 131 172 216 267 330 375
#
# _framework density 22.902086000000001
#
# number of rings (size 3 to 8) (size 9 to 14) (size 15 to 20)
#    0.000    1.867    1.333    1.200    3.733    2.667 
#    4.800    6.000    0.000    0.000    0.000    0.000 
#    0.000    0.000    0.000    0.000    0.000    0.000 
#
# Total GULP energy -83727.477226 kJ/mol
# GULP energy per Si atom -5581.831815 kJ/mol
# Density = 2.284996 g / cm^3
# Si number density = 22.902086 Si / 1000 Ang^3
#
#
#
# Elastic Constant Matrix: (Units=GPa)
#
#
# Indices 1 2 3 4 5 6 
#
# 1 62.8157 18.4540 17.4666 1.9263 -22.9404 -5.2679
# 2 18.4540 97.4991 36.4580 0.5755 -13.0009 -3.2163
# 3 17.4666 36.4580 71.3256 -1.0808 -2.5657 -5.2161
# 4 1.9263 0.5755 -1.0808 52.4367 0.2387 1.8666
# 5 -22.9404 -13.0009 -2.5657 0.2387 20.7609 8.3791
# 6 -5.2679 -3.2163 -5.2161 1.8666 8.3791 36.2805
#
#
#
# Elastic Compliance Matrix: (Units=1/GPa)
#
#
# Indices 1 2 3 4 5 6 
#
# 1 0.029898 0.001560 -0.007214 -0.001261 0.034981 -0.004572
# 2 0.001560 0.014024 -0.007325 -0.000340 0.010398 -0.001967
# 3 -0.007214 -0.007325 0.019396 0.000665 -0.011685 0.003756
# 4 -0.001261 -0.000340 0.000665 0.019168 -0.001432 -0.000773
# 5 0.034981 0.010398 -0.011685 -0.001432 0.099396 -0.018561
# 6 -0.004572 -0.001967 0.003756 -0.000773 -0.018561 0.031591
#
#
# Mechanical properties :
#
#
# Convention : Reuss Voigt Hill
#
# Bulk Modulus (GPa) = 26.76770 41.82199 34.29485
# Shear Modulus (GPa) = 19.85032 32.51308 26.18170
#
# Velocity S-wave (km/s) = 2.94725 3.77192 3.38479
# Velocity P-wave (km/s) = 4.82649 6.10497 5.50298
#
# Compressibility (1/GPa) = 0.03735845
#
# Stress axis : x y z
#
# Youngs Moduli (GPa) = 33.44737 71.30570 51.55812
#
# Poissons Ratio (x) = -0.11122 0.37194
# Poissons Ratio (y) = -0.05217 0.37768
# Poissons Ratio (z) = 0.24129 0.52234
#
# Static dielectric constant tensor:
#      x y z
#    x 1.852690 -0.011680 0.074920 
#    y -0.011680 1.843810 -0.071990 
#    z 0.074920 -0.071990 2.016710 
# 
# From -- ./inp_files/67565.got.cif
#   From: 2010.05.17/outbox.cif.g08.bks.cpg/sg2_34_cif.got.tgz:67565.got - 2010.06.03 11:33:40.
