data_PCOD9110556
_publ_section_title
;
Structure prediction by ZEFSAII (Michael W. Deem and Ramdas Pophale) SiO2 
 PCOD9110556
Probable space group: P -1
;
_chemical_formula_sum "Si O2"
_cell_formula_units_Z 16
_cell_length_a 23.281949
_cell_length_b 16.875276
_cell_length_c 11.238024
_cell_angle_alpha 140.871510
_cell_angle_beta 31.908946
_cell_angle_gamma 160.062077
_cell_volume 789.728356
_symmetry_space_group_name_H-M "P -1"
_symmetry_group_IT_number 2
_symmetry_cell_setting 'triclinic'
loop_
_space_group_symop_operation_xyz
x,y,z
-x,-y,-z
loop_
_atom_site_type_symbol
_atom_site_label
_atom_site_fract_x
_atom_site_fract_y
_atom_site_fract_z
Si Si1 0.808576 0.662242 0.943424
Si Si2 0.349144 0.966419 0.755329
Si Si3 0.416088 0.688987 0.867074
Si Si4 0.567523 0.435364 0.863800
Si Si5 0.813902 0.919297 0.384383
Si Si6 0.272842 0.843882 0.020189
Si Si7 0.024921 0.233731 0.586780
Si Si8 0.089317 0.414115 0.920882
O O1 0.699072 0.450955 0.969270
O O2 0.821194 0.790321 0.162036
O O3 0.661969 0.553669 0.965377
O O4 0.026395 0.850421 0.715444
O O5 0.338892 0.949404 0.896090
O O6 0.500000 0.000000 0.500000
O O7 0.417200 0.171394 0.834010
O O8 0.120249 0.728492 0.832250
O O9 0.588537 0.755854 0.602886
O O10 0.241998 0.523731 0.882389
O O11 0.553483 0.946372 0.948882
O O12 0.746082 0.556904 0.609588
O O13 0.500000 0.500000 0.000000
O O14 0.902939 0.008285 0.466027
O O15 0.208121 0.637613 0.899538
O O16 0.075204 0.738753 0.261639
O O17 0.021597 0.242035 0.744552
#
# Coordination Sequence:
#
# PCOD9110556 Si02
#       8
#     2   2   2   2   2   2   2   2
#     4  10  21  42  62  91 129 176 221 256 342 399
#     4  11  22  42  67  93 129 175 216 265 335 396
#     4  11  22  40  64  92 130 167 219 272 336 382
#     4  11  23  39  66  98 133 166 220 282 320 387
#     4   9  21  39  67  81 126 179 206 267 330 399
#     4  10  20  42  64  86 127 174 216 262 330 398
#     4   9  20  40  62  88 123 171 208 261 335 379
#     4  11  23  38  64  97 126 165 229 272 316 396
#
# _framework density 20.260131999999999
#
# number of rings (size 3 to 8) (size 9 to 14) (size 15 to 20)
#    0.000    1.750    1.250    3.750    1.750    3.000 
#    2.250    3.750    0.000    0.000    0.000    0.000 
#    0.000    0.000    0.000    0.000    0.000    0.000 
#
# Total GULP energy -89164.163941 kJ/mol
# GULP energy per Si atom -5572.760246 kJ/mol
# Density = 2.021402 g / cm^3
# Si number density = 20.260132 Si / 1000 Ang^3
#
#
#
# Elastic Constant Matrix: (Units=GPa)
#
#
# Indices 1 2 3 4 5 6 
#
# 1 106.3460 40.3250 38.9996 -16.4877 -10.3793 10.0837
# 2 40.3250 85.8776 42.4095 -14.5095 -12.5557 6.8470
# 3 38.9996 42.4095 98.7370 -15.6555 5.6869 6.0425
# 4 -16.4877 -14.5095 -15.6555 33.1258 5.8017 -2.7531
# 5 -10.3793 -12.5557 5.6869 5.8017 9.2521 2.1312
# 6 10.0837 6.8470 6.0425 -2.7531 2.1312 37.7477
#
#
#
# Elastic Compliance Matrix: (Units=1/GPa)
#
#
# Indices 1 2 3 4 5 6 
#
# 1 0.014234 -0.000123 -0.006524 -0.000005 0.020715 -0.003906
# 2 -0.000123 0.024769 -0.013529 -0.004001 0.045487 -0.005154
# 3 -0.006524 -0.013529 0.022549 0.009995 -0.046717 0.003954
# 4 -0.000005 -0.004001 0.009995 0.040105 -0.037690 0.004180
# 5 0.020715 0.045487 -0.046717 -0.037690 0.250748 -0.023212
# 6 -0.003906 -0.005154 0.003954 0.004180 -0.023212 0.029452
#
#
# Mechanical properties :
#
#
# Convention : Reuss Voigt Hill
#
# Bulk Modulus (GPa) = 47.17038 59.38097 53.27567
# Shear Modulus (GPa) = 11.64754 27.30687 19.47721
#
# Velocity S-wave (km/s) = 2.40031 3.67524 3.10394
# Velocity P-wave (km/s) = 5.56910 6.88351 6.26090
#
# Compressibility (1/GPa) = 0.02119974
#
# Stress axis : x y z
#
# Youngs Moduli (GPa) = 70.25612 40.37382 44.34698
#
# Poissons Ratio (x) = 0.00495 0.28933
# Poissons Ratio (y) = 0.00861 0.59997
# Poissons Ratio (z) = 0.45837 0.54622
#
# Static dielectric constant tensor:
#      x y z
#    x 1.824330 -0.214430 -0.048860 
#    y -0.214430 2.137800 0.107500 
#    z -0.048860 0.107500 1.779280 
# 
# From -- ./inp_files/216727.got.cif
#   From: 2010.05.17/outbox.cif.g08.bks.cpg/sg2_109_cif.got.tgz:216727.got - 2010.06.03 11:33:40.
