data_PCOD9110864
_publ_section_title
;
Structure prediction by ZEFSAII (Michael W. Deem and Ramdas Pophale) SiO2 
 PCOD9110864
Probable space group: P -1
;
_chemical_formula_sum "Si O2"
_cell_formula_units_Z 14
_cell_length_a 11.451970
_cell_length_b 15.976980
_cell_length_c 8.205620
_cell_angle_alpha 124.703095
_cell_angle_beta 64.347648
_cell_angle_gamma 153.282323
_cell_volume 543.190191
_symmetry_space_group_name_H-M "P -1"
_symmetry_group_IT_number 2
_symmetry_cell_setting 'triclinic'
loop_
_space_group_symop_operation_xyz
x,y,z
-x,-y,-z
loop_
_atom_site_type_symbol
_atom_site_label
_atom_site_fract_x
_atom_site_fract_y
_atom_site_fract_z
Si Si1 0.593838 0.930785 0.475867
Si Si2 0.804357 0.059582 0.939815
Si Si3 0.292957 0.175298 0.459768
Si Si4 0.784833 0.347696 0.201354
Si Si5 0.274342 0.589057 0.036443
Si Si6 0.107099 0.745770 0.588230
Si Si7 0.355039 0.423156 0.833585
O O1 0.621085 0.854107 0.495913
O O2 0.473912 0.801931 0.240471
O O3 0.375532 0.863852 0.588798
O O4 0.850292 0.167466 0.515535
O O5 0.726895 0.885905 0.776084
O O6 0.513008 0.899801 0.886689
O O7 0.042596 0.223551 0.846908
O O8 0.907632 0.182141 0.177991
O O9 0.427278 0.377716 0.623986
O O10 0.000000 0.000000 0.500000
O O11 0.011481 0.417174 0.121779
O O12 0.881781 0.503517 0.439699
O O13 0.796593 0.414761 0.097968
O O14 0.415398 0.578351 0.918371
O O15 0.500000 0.500000 0.000000
#
# Coordination Sequence:
#
# PCOD9110864 Si02
#       7
#     2   2   2   2   2   2   2
#     4  10  20  42  66  99 135 170 216 266 334 399
#     4  11  25  44  66 101 133 166 226 281 319 390
#     4  10  24  41  62  91 133 173 221 265 321 392
#     4  10  23  41  68 103 131 163 221 274 336 383
#     4  10  21  42  69  98 132 174 214 269 330 404
#     4  10  23  39  70  99 132 171 210 279 336 380
#     4  11  24  43  68  89 131 184 218 260 335 386
#
# _framework density 25.773658999999999
#
# number of rings (size 3 to 8) (size 9 to 14) (size 15 to 20)
#    0.000    1.714    2.857    0.000    8.000    2.286 
#    0.000   10.000    0.000    0.000    0.000    0.000 
#    0.000    0.000    0.000    0.000    0.000    0.000 
#
# Total GULP energy -78122.413158 kJ/mol
# GULP energy per Si atom -5580.172368 kJ/mol
# Density = 2.571500 g / cm^3
# Si number density = 25.773659 Si / 1000 Ang^3
#
#
#
# Elastic Constant Matrix: (Units=GPa)
#
#
# Indices 1 2 3 4 5 6 
#
# 1 124.7251 10.4376 53.4522 -5.8882 -30.5304 -9.5867
# 2 10.4376 96.1186 7.2823 3.6223 3.9020 5.9255
# 3 53.4522 7.2823 206.3980 9.1701 -33.2120 1.0246
# 4 -5.8882 3.6223 9.1701 30.4103 4.8274 5.5227
# 5 -30.5304 3.9020 -33.2120 4.8274 49.8777 0.1569
# 6 -9.5867 5.9255 1.0246 5.5227 0.1569 10.1523
#
#
#
# Elastic Compliance Matrix: (Units=1/GPa)
#
#
# Indices 1 2 3 4 5 6 
#
# 1 0.011389 -0.002063 -0.002007 -0.000057 0.005764 0.012102
# 2 -0.002063 0.011255 -0.000196 0.000240 -0.002270 -0.008593
# 3 -0.002007 -0.000196 0.005968 -0.002441 0.003001 -0.001101
# 4 -0.000057 0.000240 -0.002441 0.038169 -0.005309 -0.020629
# 5 0.005764 -0.002270 0.003001 -0.005309 0.026238 0.008947
# 6 0.012102 -0.008593 -0.001101 -0.020629 0.008947 0.126138
#
#
# Mechanical properties :
#
#
# Convention : Reuss Voigt Hill
#
# Bulk Modulus (GPa) = 49.79712 63.28733 56.54223
# Shear Modulus (GPa) = 21.33262 41.82602 31.57932
#
# Velocity S-wave (km/s) = 2.88008 4.03279 3.50416
# Velocity P-wave (km/s) = 5.51568 6.80389 6.19337
#
# Compressibility (1/GPa) = 0.02008148
#
# Stress axis : x y z
#
# Youngs Moduli (GPa) = 87.80707 88.84552 167.54747
#
# Poissons Ratio (x) = 0.18325 0.33622
# Poissons Ratio (y) = 0.18111 0.03288
# Poissons Ratio (z) = 0.17620 0.01743
#
# Static dielectric constant tensor:
#      x y z
#    x 2.107730 -0.091570 -0.031380 
#    y -0.091570 2.219890 0.008010 
#    z -0.031380 0.008010 2.085590 
# 
# From -- ./inp_files/279811.got.cif
#   From: 2010.05.17/outbox.cif.g08.bks.cpg/sg2_140_cif.got.tgz:279811.got - 2010.06.03 11:33:40.
