data_PCOD9110316
_publ_section_title
;
Structure prediction by ZEFSAII (Michael W. Deem and Ramdas Pophale) SiO2 
 PCOD9110316
Probable space group: P -1
;
_chemical_formula_sum "Si O2"
_cell_formula_units_Z 16
_cell_length_a 15.449679
_cell_length_b 9.497810
_cell_length_c 20.090201
_cell_angle_alpha 135.490955
_cell_angle_beta 161.520374
_cell_angle_gamma 45.897060
_cell_volume 652.499789
_symmetry_space_group_name_H-M "P -1"
_symmetry_group_IT_number 2
_symmetry_cell_setting 'triclinic'
loop_
_space_group_symop_operation_xyz
x,y,z
-x,-y,-z
loop_
_atom_site_type_symbol
_atom_site_label
_atom_site_fract_x
_atom_site_fract_y
_atom_site_fract_z
Si Si1 0.360462 0.150928 0.187159
Si Si2 0.769243 0.001266 0.554871
Si Si3 0.843225 0.301908 0.341027
Si Si4 0.776805 0.569120 0.082394
Si Si5 0.246136 0.666577 0.559641
Si Si6 0.624926 0.775356 0.499604
Si Si7 0.923057 0.141097 0.054504
Si Si8 0.798933 0.440057 0.731853
O O1 0.527525 0.068434 0.347908
O O2 0.573831 0.177353 0.293586
O O3 0.188317 0.364069 0.147362
O O4 0.149976 0.982117 0.974949
O O5 0.804722 0.214913 0.688996
O O6 0.721740 0.825527 0.512824
O O7 0.016026 0.901924 0.657302
O O8 0.848270 0.284914 0.418708
O O9 0.000000 0.500000 0.500000
O O10 0.522116 0.317996 0.094067
O O11 0.712803 0.333496 0.956237
O O12 0.974145 0.635837 0.307702
O O13 0.960043 0.583479 0.154624
O O14 0.445166 0.455223 0.635290
O O15 0.813297 0.751360 0.694849
O O16 0.500000 0.000000 0.500000
O O17 0.000000 0.000000 0.000000
O O18 0.500000 0.500000 0.500000
#
# Coordination Sequence:
#
# PCOD9110316 Si02
#       8
#     2   2   2   2   2   2   2   2
#     4  11  22  44  72 105 146 178 238 302 366 428
#     4  11  23  44  69 100 139 187 233 296 358 415
#     4  12  27  48  71 102 149 190 252 298 341 441
#     4  11  24  46  72 105 144 194 234 292 368 429
#     4  11  25  47  72 104 140 194 238 297 368 420
#     4  11  24  40  70 103 139 183 239 295 364 432
#     4  11  23  39  68 106 144 185 231 290 369 434
#     4  10  20  41  73 102 144 182 227 301 371 418
#
# _framework density 24.521080999999999
#
# number of rings (size 3 to 8) (size 9 to 14) (size 15 to 20)
#    0.000    1.000    5.000    2.250    5.250    2.500 
#    2.250    1.875    0.000    0.000    0.000    0.000 
#    0.000    0.000    0.000    0.000    0.000    0.000 
#
# Total GULP energy -89284.171451 kJ/mol
# GULP energy per Si atom -5580.260716 kJ/mol
# Density = 2.446527 g / cm^3
# Si number density = 24.521081 Si / 1000 Ang^3
#
#
#
# Elastic Constant Matrix: (Units=GPa)
#
#
# Indices 1 2 3 4 5 6 
#
# 1 115.9113 16.1104 38.2696 -0.8093 18.9943 12.8193
# 2 16.1104 83.8939 36.7126 -7.2351 20.0587 6.9899
# 3 38.2696 36.7126 75.4011 -15.7975 15.0515 -1.4428
# 4 -0.8093 -7.2351 -15.7975 41.2671 5.3211 20.2144
# 5 18.9943 20.0587 15.0515 5.3211 36.6445 0.7977
# 6 12.8193 6.9899 -1.4428 20.2144 0.7977 48.0228
#
#
#
# Elastic Compliance Matrix: (Units=1/GPa)
#
#
# Indices 1 2 3 4 5 6 
#
# 1 0.011415 0.001751 -0.005634 0.000793 -0.004595 -0.003729
# 2 0.001751 0.017243 -0.007040 0.003624 -0.007881 -0.004583
# 3 -0.005634 -0.007040 0.021726 0.007309 -0.003215 0.000158
# 4 0.000793 0.003624 0.007309 0.036774 -0.010392 -0.015826
# 5 -0.004595 -0.007881 -0.003215 -0.010392 0.036683 0.006042
# 6 -0.003729 -0.004583 0.000158 -0.015826 0.006042 0.029052
#
#
# Mechanical properties :
#
#
# Convention : Reuss Voigt Hill
#
# Bulk Modulus (GPa) = 35.04022 50.82129 42.93075
# Shear Modulus (GPa) = 27.13692 37.46113 32.29903
#
# Velocity S-wave (km/s) = 3.33029 3.91283 3.63325
# Velocity P-wave (km/s) = 5.39524 6.41750 5.92844
#
# Compressibility (1/GPa) = 0.02853864
#
# Stress axis : x y z
#
# Youngs Moduli (GPa) = 87.60350 57.99500 46.02829
#
# Poissons Ratio (x) = -0.10157 0.25934
# Poissons Ratio (y) = -0.15342 0.32402
# Poissons Ratio (z) = 0.49358 0.40826
#
# Static dielectric constant tensor:
#      x y z
#    x 1.925140 -0.110340 0.011560 
#    y -0.110340 1.653380 0.056680 
#    z 0.011560 0.056680 2.189700 
# 
# From -- ./inp_files/597448.got.cif
#   From: 2010.05.17/outbox.cif.g08.bks.cpg/sg2_299_cif.got.tgz:597448.got - 2010.06.03 11:33:40.
