data_PCOD9110707
_publ_section_title
;
Structure prediction by ZEFSAII (Michael W. Deem and Ramdas Pophale) SiO2 
 PCOD9110707
Probable space group: P -1
;
_chemical_formula_sum "Si O2"
_cell_formula_units_Z 16
_cell_length_a 12.672320
_cell_length_b 23.389209
_cell_length_c 6.600268
_cell_angle_alpha 117.885926
_cell_angle_beta 51.923043
_cell_angle_gamma 150.273190
_cell_volume 751.988244
_symmetry_space_group_name_H-M "P -1"
_symmetry_group_IT_number 2
_symmetry_cell_setting 'triclinic'
loop_
_space_group_symop_operation_xyz
x,y,z
-x,-y,-z
loop_
_atom_site_type_symbol
_atom_site_label
_atom_site_fract_x
_atom_site_fract_y
_atom_site_fract_z
Si Si1 0.954695 0.055454 0.212842
Si Si2 0.911351 0.555698 0.135933
Si Si3 0.680301 0.714502 0.120169
Si Si4 0.466686 0.059132 0.716854
Si Si5 0.909383 0.235439 0.740014
Si Si6 0.900753 0.111441 0.774262
Si Si7 0.567494 0.592368 0.697124
Si Si8 0.835416 0.449996 0.419086
O O1 0.961848 0.082710 0.482458
O O2 0.151581 0.177085 0.055034
O O3 0.680306 0.961581 0.312171
O O4 0.000000 0.000000 0.000000
O O5 0.630489 0.435887 0.197245
O O6 0.901229 0.541734 0.367210
O O7 0.995453 0.658219 0.116895
O O8 0.097859 0.579512 0.865458
O O9 0.445155 0.659928 0.373892
O O10 0.856040 0.771793 0.195612
O O11 0.571997 0.607304 0.957939
O O12 0.733375 0.184707 0.682342
O O13 0.500000 0.000000 0.500000
O O14 0.291327 0.992586 0.009223
O O15 0.789419 0.133847 0.856831
O O16 0.146208 0.290355 0.487599
O O17 0.500000 0.500000 0.500000
O O18 0.000000 0.500000 0.500000
#
# Coordination Sequence:
#
# PCOD9110707 Si02
#       8
#     2   2   2   2   2   2   2   2
#     4  11  26  44  69 101 136 181 232 283 343 414
#     4  10  24  42  63  95 133 169 222 279 325 411
#     4  11  23  42  70  96 131 182 222 278 343 401
#     4  11  23  43  66 102 135 175 225 280 343 404
#     4  11  21  41  67  95 129 177 215 279 341 396
#     4  11  23  43  71  95 139 177 223 285 346 407
#     4  10  20  42  65  94 132 169 220 273 331 399
#     4  11  23  42  63  91 132 176 218 268 333 400
#
# _framework density 21.27693
#
# number of rings (size 3 to 8) (size 9 to 14) (size 15 to 20)
#    0.000    1.250    3.750    1.875    0.000    5.000 
#    6.750    3.750    0.000    0.000    0.000    0.000 
#    0.000    0.000    0.000    0.000    0.000    0.000 
#
# Total GULP energy -89103.416022 kJ/mol
# GULP energy per Si atom -5568.963501 kJ/mol
# Density = 2.122850 g / cm^3
# Si number density = 21.276930 Si / 1000 Ang^3
#
#
#
# Elastic Constant Matrix: (Units=GPa)
#
#
# Indices 1 2 3 4 5 6 
#
# 1 75.8089 34.5794 33.9964 20.0938 -9.3639 20.4662
# 2 34.5794 78.5407 34.4494 8.2116 -5.4793 21.8557
# 3 33.9964 34.4494 116.0621 15.1401 -2.3687 5.2327
# 4 20.0938 8.2116 15.1401 32.3017 5.7357 -7.0944
# 5 -9.3639 -5.4793 -2.3687 5.7357 33.0260 2.9695
# 6 20.4662 21.8557 5.2327 -7.0944 2.9695 46.9236
#
#
#
# Elastic Compliance Matrix: (Units=1/GPa)
#
#
# Indices 1 2 3 4 5 6 
#
# 1 0.026058 -0.003808 -0.003308 -0.018407 0.010857 -0.012693
# 2 -0.003808 0.018462 -0.003635 -0.002686 0.002829 -0.007118
# 3 -0.003308 -0.003635 0.010778 -0.001573 -0.000651 0.001738
# 4 -0.018407 -0.002686 -0.001573 0.050693 -0.016213 0.018145
# 5 0.010857 0.002829 -0.000651 -0.016213 0.037568 -0.010809
# 6 -0.012693 -0.007118 0.001738 0.018145 -0.010809 0.033397
#
#
# Mechanical properties :
#
#
# Convention : Reuss Voigt Hill
#
# Bulk Modulus (GPa) = 29.58899 52.94023 41.26461
# Shear Modulus (GPa) = 23.84100 33.60936 28.72518
#
# Velocity S-wave (km/s) = 3.35103 3.97875 3.67831
# Velocity P-wave (km/s) = 5.37674 6.78548 6.12177
#
# Compressibility (1/GPa) = 0.03379635
#
# Stress axis : x y z
#
# Youngs Moduli (GPa) = 38.37572 54.16415 92.78587
#
# Poissons Ratio (x) = 0.20625 0.30689
# Poissons Ratio (y) = 0.14613 0.33732
# Poissons Ratio (z) = 0.12693 0.19691
#
# Static dielectric constant tensor:
#      x y z
#    x 1.813710 -0.052100 0.053920 
#    y -0.052100 2.119690 -0.075160 
#    z 0.053920 -0.075160 1.844270 
# 
# From -- ./inp_files/84416.got.cif
#   From: 2010.05.17/outbox.cif.g08.bks.cpg/sg2_43_cif.got.tgz:84416.got - 2010.06.03 11:33:40.
