data_PCOD9110059
_publ_section_title
;
Structure prediction by ZEFSAII (Michael W. Deem and Ramdas Pophale) SiO2 
 PCOD9110059
Probable space group: P -1
;
_chemical_formula_sum "Si O2"
_cell_formula_units_Z 16
_cell_length_a 9.436898
_cell_length_b 14.890376
_cell_length_c 11.858359
_cell_angle_alpha 148.045242
_cell_angle_beta 65.364326
_cell_angle_gamma 99.068563
_cell_volume 732.031290
_symmetry_space_group_name_H-M "P -1"
_symmetry_group_IT_number 2
_symmetry_cell_setting 'triclinic'
loop_
_space_group_symop_operation_xyz
x,y,z
-x,-y,-z
loop_
_atom_site_type_symbol
_atom_site_label
_atom_site_fract_x
_atom_site_fract_y
_atom_site_fract_z
Si Si1 0.702398 0.507867 0.811586
Si Si2 0.314192 0.510091 0.552495
Si Si3 0.769407 0.738446 0.857958
Si Si4 0.496193 0.900270 0.574839
Si Si5 0.900629 0.219035 0.259403
Si Si6 0.790749 0.603187 0.298614
Si Si7 0.900414 0.317478 0.761633
Si Si8 0.359735 0.834854 0.312141
O O1 0.782360 0.642819 0.873692
O O2 0.772215 0.323427 0.514646
O O3 0.771915 0.454172 0.856588
O O4 0.500136 0.633357 0.009636
O O5 0.500000 0.500000 0.500000
O O6 0.318589 0.361149 0.298006
O O7 0.198402 0.708538 0.747440
O O8 0.241027 0.459921 0.636035
O O9 0.949412 0.707807 0.713904
O O10 0.651654 0.953435 0.143753
O O11 0.616823 0.730459 0.428842
O O12 0.412761 0.850390 0.439882
O O13 0.606616 0.009700 0.604523
O O14 0.000000 0.000000 0.000000
O O15 0.912649 0.715321 0.379797
O O16 0.879789 0.421668 0.998019
O O17 0.829012 0.158679 0.626556
#
# Coordination Sequence:
#
# PCOD9110059 Si02
#       8
#     2   2   2   2   2   2   2   2
#     4  10  20  41  69  91 129 171 228 271 328 385
#     4  11  26  47  69  95 136 184 219 272 346 403
#     4  10  23  43  68  95 133 175 224 278 325 399
#     4  10  23  41  66 100 133 171 224 283 322 395
#     4  11  25  43  70 101 127 174 233 281 322 393
#     4  11  25  42  63  97 140 178 217 265 347 406
#     4  11  23  39  66  95 130 182 217 272 333 406
#     4  10  22  40  66  99 130 173 226 275 327 384
#
# _framework density 21.856991000000001
#
# number of rings (size 3 to 8) (size 9 to 14) (size 15 to 20)
#    0.000    1.500    1.250    3.375    8.750    1.000 
#    2.250    0.000    0.000    0.000    0.000    0.000 
#    0.000    0.000    0.000    0.000    0.000    0.000 
#
# Total GULP energy -89479.288180 kJ/mol
# GULP energy per Si atom -5592.455511 kJ/mol
# Density = 2.180724 g / cm^3
# Si number density = 21.856991 Si / 1000 Ang^3
#
#
#
# Elastic Constant Matrix: (Units=GPa)
#
#
# Indices 1 2 3 4 5 6 
#
# 1 111.4260 35.5591 22.4155 3.4297 7.8460 19.3257
# 2 35.5591 89.7720 40.1416 -19.6893 -0.5897 1.8443
# 3 22.4155 40.1416 87.8999 6.3966 -6.5775 -1.7482
# 4 3.4297 -19.6893 6.3966 28.2289 -0.4807 -2.8490
# 5 7.8460 -0.5897 -6.5775 -0.4807 25.3295 5.8983
# 6 19.3257 1.8443 -1.7482 -2.8490 5.8983 39.4827
#
#
#
# Elastic Compliance Matrix: (Units=1/GPa)
#
#
# Indices 1 2 3 4 5 6 
#
# 1 0.012361 -0.006070 -0.000246 -0.006315 -0.002800 -0.005815
# 2 -0.006070 0.021923 -0.009790 0.018534 -0.000481 0.002923
# 3 -0.000246 -0.009790 0.016984 -0.010582 0.004067 -0.000042
# 4 -0.006315 0.018534 -0.010582 0.052072 -0.000680 0.005616
# 5 -0.002800 -0.000481 0.004067 -0.000680 0.042503 -0.004826
# 6 -0.005815 0.002923 -0.000042 0.005616 -0.004826 0.029162
#
#
# Mechanical properties :
#
#
# Convention : Reuss Voigt Hill
#
# Bulk Modulus (GPa) = 52.47813 53.92559 53.20186
# Shear Modulus (GPa) = 23.41149 31.34035 27.37592
#
# Velocity S-wave (km/s) = 3.27635 3.79077 3.54291
# Velocity P-wave (km/s) = 6.19472 6.62461 6.41327
#
# Compressibility (1/GPa) = 0.01905556
#
# Stress axis : x y z
#
# Youngs Moduli (GPa) = 80.89728 45.61325 58.87932
#
# Poissons Ratio (x) = 0.27689 0.01447
# Poissons Ratio (y) = 0.49108 0.57645
# Poissons Ratio (z) = 0.01988 0.44657
#
# Static dielectric constant tensor:
#      x y z
#    x 1.790370 0.037160 -0.000080 
#    y 0.037160 1.845910 0.021150 
#    z -0.000080 0.021150 1.809600 
# 
# From -- ./inp_files/399955.got.cif
#   From: 2010.05.17/outbox.cif.g08.bks.cpg/sg2_200_cif.got.tgz:399955.got - 2010.06.03 11:33:40.
