data_PCOD9110022
_publ_section_title
;
Structure prediction by ZEFSAII (Michael W. Deem and Ramdas Pophale) SiO2 
 PCOD9110022
Probable space group: P -1
;
_chemical_formula_sum "Si O2"
_cell_formula_units_Z 14
_cell_length_a 11.905272
_cell_length_b 10.896379
_cell_length_c 11.815278
_cell_angle_alpha 139.034389
_cell_angle_beta 53.104808
_cell_angle_gamma 96.274483
_cell_volume 606.427710
_symmetry_space_group_name_H-M "P -1"
_symmetry_group_IT_number 2
_symmetry_cell_setting 'triclinic'
loop_
_space_group_symop_operation_xyz
x,y,z
-x,-y,-z
loop_
_atom_site_type_symbol
_atom_site_label
_atom_site_fract_x
_atom_site_fract_y
_atom_site_fract_z
Si Si1 0.570394 0.398238 0.643794
Si Si2 0.907340 0.137931 0.397521
Si Si3 0.836906 0.383540 0.000946
Si Si4 0.409369 0.895677 0.031122
Si Si5 0.741709 0.076183 0.097596
Si Si6 0.103541 0.388644 0.686111
Si Si7 0.881178 0.590660 0.749194
O O1 0.719594 0.205394 0.512661
O O2 0.648675 0.283661 0.392556
O O3 0.360064 0.507041 0.854674
O O4 0.551546 0.638749 0.830313
O O5 0.858405 0.389461 0.647416
O O6 0.022635 0.908564 0.254959
O O7 0.045053 0.052290 0.147238
O O8 0.946087 0.425443 0.880734
O O9 0.802729 0.532461 0.240298
O O10 0.244963 0.109159 0.359627
O O11 0.500000 0.000000 0.000000
O O12 0.340832 0.848365 0.926618
O O13 0.722446 0.881110 0.022668
O O14 0.003810 0.562134 0.758101
O O15 0.000000 0.500000 0.500000
#
# Coordination Sequence:
#
# PCOD9110022 Si02
#       7
#     2   2   2   2   2   2   2
#     4  12  25  42  68 107 137 179 233 279 340 417
#     4  11  23  42  68 100 139 182 224 281 345 400
#     4  11  26  47  70 100 136 192 227 275 344 408
#     4  12  24  39  67 102 136 176 225 285 338 403
#     4  11  22  41  65 101 142 173 224 287 340 395
#     4  11  24  47  71  94 145 183 227 286 340 408
#     4  10  20  41  69 101 131 181 225 277 349 397
#
# _framework density 23.086016000000001
#
# number of rings (size 3 to 8) (size 9 to 14) (size 15 to 20)
#    0.000    0.857    4.286    3.429    4.000    2.286 
#    0.000   10.714    0.000    0.000    0.000    0.000 
#    0.000    0.000    0.000    0.000    0.000    0.000 
#
# Total GULP energy -78277.279131 kJ/mol
# GULP energy per Si atom -5591.234224 kJ/mol
# Density = 2.303347 g / cm^3
# Si number density = 23.086016 Si / 1000 Ang^3
#
#
#
# Elastic Constant Matrix: (Units=GPa)
#
#
# Indices 1 2 3 4 5 6 
#
# 1 105.6527 13.7077 15.4123 1.4852 -22.7615 -2.5528
# 2 13.7077 49.3997 2.4058 8.2694 -7.9238 -0.7769
# 3 15.4123 2.4058 71.2691 13.8444 -5.6403 -5.7392
# 4 1.4852 8.2694 13.8444 33.3534 -2.2048 0.3053
# 5 -22.7615 -7.9238 -5.6403 -2.2048 34.6449 -0.4675
# 6 -2.5528 -0.7769 -5.7392 0.3053 -0.4675 32.1097
#
#
#
# Elastic Compliance Matrix: (Units=1/GPa)
#
#
# Indices 1 2 3 4 5 6 
#
# 1 0.011521 -0.002219 -0.002094 0.001351 0.006815 0.000574
# 2 -0.002219 0.022325 0.001163 -0.005695 0.003484 0.000676
# 3 -0.002094 0.001163 0.016085 -0.006824 0.001113 0.002818
# 4 0.001351 -0.005695 -0.006824 0.034222 0.000631 -0.001566
# 5 0.006815 0.003484 0.001113 0.000631 0.034378 0.001320
# 6 0.000574 0.000676 0.002818 -0.001566 0.001320 0.031743
#
#
# Mechanical properties :
#
#
# Convention : Reuss Voigt Hill
#
# Bulk Modulus (GPa) = 22.91902 32.15255 27.53579
# Shear Modulus (GPa) = 29.21952 33.00799 31.11376
#
# Velocity S-wave (km/s) = 3.56150 3.78535 3.67513
# Velocity P-wave (km/s) = 5.18282 5.75002 5.47377
#
# Compressibility (1/GPa) = 0.04363189
#
# Stress axis : x y z
#
# Youngs Moduli (GPa) = 86.79550 44.79284 62.16809
#
# Poissons Ratio (x) = 0.09940 0.13015
# Poissons Ratio (y) = 0.19261 -0.07229
# Poissons Ratio (z) = 0.18171 -0.05208
#
# Static dielectric constant tensor:
#      x y z
#    x 1.987430 0.039430 0.024140 
#    y 0.039430 1.863900 0.040520 
#    z 0.024140 0.040520 1.871680 
# 
# From -- ./inp_files/417993.got.cif
#   From: 2010.05.17/outbox.cif.g08.bks.cpg/sg2_209_cif.got.tgz:417993.got - 2010.06.03 11:33:40.
