data_PCOD9110839
_publ_section_title
;
Structure prediction by ZEFSAII (Michael W. Deem and Ramdas Pophale) SiO2 
 PCOD9110839
Probable space group: P -1
;
_chemical_formula_sum "Si O2"
_cell_formula_units_Z 14
_cell_length_a 16.372988
_cell_length_b 9.288737
_cell_length_c 9.530883
_cell_angle_alpha 31.437617
_cell_angle_beta 47.195679
_cell_angle_gamma 48.434698
_cell_volume 541.234017
_symmetry_space_group_name_H-M "P -1"
_symmetry_group_IT_number 2
_symmetry_cell_setting 'triclinic'
loop_
_space_group_symop_operation_xyz
x,y,z
-x,-y,-z
loop_
_atom_site_type_symbol
_atom_site_label
_atom_site_fract_x
_atom_site_fract_y
_atom_site_fract_z
Si Si1 0.287397 0.927026 0.348530
Si Si2 0.589611 0.680732 0.298644
Si Si3 0.166813 0.934032 0.219688
Si Si4 0.680996 0.343774 0.949638
Si Si5 0.401084 0.020530 0.423729
Si Si6 0.973097 0.519921 0.177233
Si Si7 0.073491 0.683638 0.177683
O O1 0.305690 0.587586 0.584252
O O2 0.180570 0.030794 0.283166
O O3 0.306792 0.985323 0.441623
O O4 0.376551 0.093947 0.033963
O O5 0.500000 0.500000 0.500000
O O6 0.522811 0.854896 0.360080
O O7 0.285354 0.753977 0.166877
O O8 0.075298 0.739532 0.492404
O O9 0.128058 0.195505 0.941796
O O10 0.605393 0.653394 0.808431
O O11 0.803649 0.348679 0.872155
O O12 0.629916 0.122923 0.280863
O O13 0.075440 0.577918 0.103711
O O14 0.000000 0.500000 0.000000
O O15 0.000000 0.500000 0.500000
O O16 0.000000 0.000000 0.000000
#
# Coordination Sequence:
#
# PCOD9110839 Si02
#       7
#     2   2   2   2   2   2   2
#     4  11  23  41  68  94 128 168 208 263 317 375
#     4  10  20  42  66  96 127 163 210 263 316 369
#     4  12  26  45  61  96 135 167 202 265 331 364
#     4  12  24  41  63  94 129 164 210 262 310 378
#     4  11  23  39  68  94 121 163 218 258 303 379
#     4  12  26  44  66  93 130 168 215 266 309 377
#     4  12  23  44  66  90 125 174 212 249 319 373
#
# _framework density 25.866814000000002
#
# number of rings (size 3 to 8) (size 9 to 14) (size 15 to 20)
#    0.000    0.571    2.857    7.286    4.000    0.000 
#    0.000    4.286    0.000    0.000    0.000    0.000 
#    0.000    0.000    0.000    0.000    0.000    0.000 
#
# Total GULP energy -78411.602892 kJ/mol
# GULP energy per Si atom -5600.828778 kJ/mol
# Density = 2.580794 g / cm^3
# Si number density = 25.866814 Si / 1000 Ang^3
#
#
#
# Elastic Constant Matrix: (Units=GPa)
#
#
# Indices 1 2 3 4 5 6 
#
# 1 92.0508 -1.1191 2.6857 -6.9609 5.4312 28.2159
# 2 -1.1191 130.6180 29.0212 -1.1878 6.3639 22.9315
# 3 2.6857 29.0212 142.7672 -11.5902 -7.9748 1.1665
# 4 -6.9609 -1.1878 -11.5902 45.2845 2.1075 9.1161
# 5 5.4312 6.3639 -7.9748 2.1075 34.7302 5.5227
# 6 28.2159 22.9315 1.1665 9.1161 5.5227 41.0434
#
#
#
# Elastic Compliance Matrix: (Units=1/GPa)
#
#
# Indices 1 2 3 4 5 6 
#
# 1 0.015307 0.002582 -0.000370 0.004979 -0.001203 -0.012899
# 2 0.002582 0.009438 -0.001857 0.001682 -0.001522 -0.007164
# 3 -0.000370 -0.001857 0.007631 0.001667 0.001980 0.000439
# 4 0.004979 0.001682 0.001667 0.025353 -0.000660 -0.009952
# 5 -0.001203 -0.001522 0.001980 -0.000660 0.030118 -0.002285
# 6 -0.012899 -0.007164 0.000439 -0.009952 -0.002285 0.039740
#
#
# Mechanical properties :
#
#
# Convention : Reuss Voigt Hill
#
# Bulk Modulus (GPa) = 30.22510 47.40130 38.81320
# Shear Modulus (GPa) = 36.25631 46.53480 41.39556
#
# Velocity S-wave (km/s) = 3.74793 4.24608 4.00476
# Velocity P-wave (km/s) = 5.51720 6.51183 6.03504
#
# Compressibility (1/GPa) = 0.03308509
#
# Stress axis : x y z
#
# Youngs Moduli (GPa) = 65.32914 105.95656 131.04113
#
# Poissons Ratio (x) = -0.27357 0.04854
# Poissons Ratio (y) = -0.16867 0.24334
# Poissons Ratio (z) = 0.02420 0.19676
#
# Static dielectric constant tensor:
#      x y z
#    x 2.149290 -0.078710 0.077030 
#    y -0.078710 2.143110 -0.075900 
#    z 0.077030 -0.075900 1.953330 
# 
# From -- ./inp_files/201232.got.cif
#   From: 2010.05.17/outbox.cif.g08.bks.cpg/sg2_101_cif.got.tgz:201232.got - 2010.06.03 11:33:40.
