data_PCOD9110477
_publ_section_title
;
Structure prediction by ZEFSAII (Michael W. Deem and Ramdas Pophale) SiO2 
 PCOD9110477
Probable space group: P -1
;
_chemical_formula_sum "Si O2"
_cell_formula_units_Z 16
_cell_length_a 13.976425
_cell_length_b 9.580250
_cell_length_c 7.802639
_cell_angle_alpha 77.536668
_cell_angle_beta 110.417761
_cell_angle_gamma 56.539832
_cell_volume 696.704469
_symmetry_space_group_name_H-M "P -1"
_symmetry_group_IT_number 2
_symmetry_cell_setting 'triclinic'
loop_
_space_group_symop_operation_xyz
x,y,z
-x,-y,-z
loop_
_atom_site_type_symbol
_atom_site_label
_atom_site_fract_x
_atom_site_fract_y
_atom_site_fract_z
Si Si1 0.594128 0.295568 0.373272
Si Si2 0.912244 0.730461 0.872329
Si Si3 0.067573 0.081453 0.843401
Si Si4 0.147077 0.278178 0.662530
Si Si5 0.360404 0.066155 0.536767
Si Si6 0.588798 0.983091 0.904830
Si Si7 0.634270 0.269971 0.817778
Si Si8 0.905298 0.020352 0.581491
O O1 0.618482 0.282675 0.598042
O O2 0.467194 0.523501 0.206240
O O3 0.740207 0.191075 0.401250
O O4 0.568084 0.157456 0.342990
O O5 0.748322 0.844600 0.713778
O O6 0.938972 0.826165 0.716230
O O7 0.941686 0.797552 0.039817
O O8 0.000000 0.500000 0.000000
O O9 0.103488 0.154540 0.690639
O O10 0.938377 0.100947 0.734671
O O11 0.204913 0.853848 0.010277
O O12 0.245030 0.205411 0.577591
O O13 0.000000 0.500000 0.500000
O O14 0.251067 0.221565 0.900486
O O15 0.489801 0.047904 0.660053
O O16 0.599999 0.142442 0.888983
O O17 0.500000 0.000000 0.000000
O O18 0.000000 0.000000 0.500000
#
# Coordination Sequence:
#
# PCOD9110477 Si02
#       8
#     2   2   2   2   2   2   2   2
#     4  10  22  41  65  92 129 172 217 271 334 387
#     4  11  23  40  64 101 138 175 224 285 344 399
#     4  11  21  41  66  97 131 175 225 282 335 397
#     4  10  21  39  65  94 134 178 217 276 342 398
#     4  10  20  42  62  94 132 172 223 277 325 402
#     4   9  21  40  64  92 129 174 216 267 333 397
#     4  10  21  41  64  94 128 173 215 267 337 392
#     4  11  24  44  69  97 133 179 231 281 335 406
#
# _framework density 22.965259
#
# number of rings (size 3 to 8) (size 9 to 14) (size 15 to 20)
#    0.000    1.750    2.500    2.625    0.000    3.500 
#    2.250   15.000    0.000    0.000    0.000    0.000 
#    0.000    0.000    0.000    0.000    0.000    0.000 
#
# Total GULP energy -89305.822694 kJ/mol
# GULP energy per Si atom -5581.613918 kJ/mol
# Density = 2.291299 g / cm^3
# Si number density = 22.965259 Si / 1000 Ang^3
#
#
#
# Elastic Constant Matrix: (Units=GPa)
#
#
# Indices 1 2 3 4 5 6 
#
# 1 118.6096 29.8151 23.1747 -14.5824 11.5181 0.4087
# 2 29.8151 130.2190 49.4405 -35.3652 16.2803 -7.6425
# 3 23.1747 49.4405 85.7858 -12.5861 13.9587 8.6301
# 4 -14.5824 -35.3652 -12.5861 50.2233 -6.9758 4.6473
# 5 11.5181 16.2803 13.9587 -6.9758 36.9982 17.5758
# 6 0.4087 -7.6425 8.6301 4.6473 17.5758 27.1594
#
#
#
# Elastic Compliance Matrix: (Units=1/GPa)
#
#
# Indices 1 2 3 4 5 6 
#
# 1 0.009334 -0.000774 -0.001647 0.001276 -0.002423 0.001515
# 2 -0.000774 0.013136 -0.006390 0.005749 -0.006213 0.008776
# 3 -0.001647 -0.006390 0.016411 -0.000097 0.000615 -0.007369
# 4 0.001276 0.005749 -0.000097 0.025479 0.004636 -0.005731
# 5 -0.002423 -0.006213 0.000615 0.004636 0.046842 -0.033014
# 6 0.001515 0.008776 -0.007369 -0.005731 -0.033014 0.063953
#
#
# Mechanical properties :
#
#
# Convention : Reuss Voigt Hill
#
# Bulk Modulus (GPa) = 47.03412 59.94166 53.48789
# Shear Modulus (GPa) = 25.01722 38.35511 31.68616
#
# Velocity S-wave (km/s) = 3.30411 4.09116 3.71852
# Velocity P-wave (km/s) = 5.92294 6.96236 6.46358
#
# Compressibility (1/GPa) = 0.02126116
#
# Stress axis : x y z
#
# Youngs Moduli (GPa) = 107.13296 76.12920 60.93337
#
# Poissons Ratio (x) = 0.05889 0.10034
# Poissons Ratio (y) = 0.08287 0.38935
# Poissons Ratio (z) = 0.17641 0.48645
#
# Static dielectric constant tensor:
#      x y z
#    x 1.850110 -0.062070 -0.081360 
#    y -0.062070 1.887300 0.132020 
#    z -0.081360 0.132020 2.007480 
# 
# From -- ./inp_files/298344.got.cif
#   From: 2010.05.17/outbox.cif.g08.bks.cpg/sg2_150_cif.got.tgz:298344.got - 2010.06.03 11:33:40.
