data_PCOD9110571
_publ_section_title
;
Structure prediction by ZEFSAII (Michael W. Deem and Ramdas Pophale) SiO2 
 PCOD9110571
Probable space group: P -1
;
_chemical_formula_sum "Si O2"
_cell_formula_units_Z 16
_cell_length_a 9.439801
_cell_length_b 24.194193
_cell_length_c 8.601407
_cell_angle_alpha 50.691950
_cell_angle_beta 80.557491
_cell_angle_gamma 40.858824
_cell_volume 778.279154
_symmetry_space_group_name_H-M "P -1"
_symmetry_group_IT_number 2
_symmetry_cell_setting 'triclinic'
loop_
_space_group_symop_operation_xyz
x,y,z
-x,-y,-z
loop_
_atom_site_type_symbol
_atom_site_label
_atom_site_fract_x
_atom_site_fract_y
_atom_site_fract_z
Si Si1 0.159794 0.502743 0.911891
Si Si2 0.586422 0.808155 0.140605
Si Si3 0.239019 0.770103 0.576052
Si Si4 0.861287 0.032344 0.624858
Si Si5 0.333137 0.182172 0.537770
Si Si6 0.687915 0.232191 0.777143
Si Si7 0.313721 0.051720 0.582416
Si Si8 0.853048 0.493229 0.462910
O O1 0.193409 0.480405 0.760216
O O2 0.962318 0.653408 0.717724
O O3 0.453753 0.381114 0.158945
O O4 0.000000 0.500000 0.000000
O O5 0.578444 0.841117 0.258699
O O6 0.455139 0.784423 0.204356
O O7 0.906932 0.667926 0.278729
O O8 0.422392 0.929716 0.840856
O O9 0.193363 0.873085 0.435506
O O10 0.205537 0.778295 0.382121
O O11 0.009612 0.823273 0.615972
O O12 0.563708 0.122685 0.495934
O O13 0.000000 0.000000 0.500000
O O14 0.065925 0.891550 0.928771
O O15 0.328840 0.102856 0.626818
O O16 0.445040 0.384239 0.621726
O O17 0.500000 0.000000 0.500000
O O18 0.000000 0.500000 0.500000
#
# Coordination Sequence:
#
# PCOD9110571 Si02
#       8
#     2   2   2   2   2   2   2   2
#     4  11  21  39  67  96 131 163 214 272 317 383
#     4  10  20  42  64  89 128 169 214 266 315 385
#     4  12  23  42  65  94 131 169 211 267 326 381
#     4  12  22  37  64  93 126 162 217 274 311 367
#     4  11  24  41  63  92 126 172 214 255 326 380
#     4  11  21  38  66  97 126 163 218 271 322 377
#     4  12  27  42  62  92 133 173 213 261 323 386
#     4   9  20  35  61  97 125 161 206 265 327 367
#
# _framework density 20.558176
#
# number of rings (size 3 to 8) (size 9 to 14) (size 15 to 20)
#    0.000    1.000    3.750    4.500    0.000    2.500 
#    0.000    0.000    0.000    3.750    0.000    0.000 
#    0.000    0.000    0.000    0.000    0.000    0.000 
#
# Total GULP energy -89435.316305 kJ/mol
# GULP energy per Si atom -5589.707269 kJ/mol
# Density = 2.051138 g / cm^3
# Si number density = 20.558176 Si / 1000 Ang^3
#
#
#
# Elastic Constant Matrix: (Units=GPa)
#
#
# Indices 1 2 3 4 5 6 
#
# 1 54.9488 20.8488 4.4774 -7.0118 5.0401 -13.6479
# 2 20.8488 112.1999 49.7450 -13.4364 3.7528 -15.4528
# 3 4.4774 49.7450 101.9045 -4.6039 20.2438 -17.0232
# 4 -7.0118 -13.4364 -4.6039 22.4849 -3.7516 4.7376
# 5 5.0401 3.7528 20.2438 -3.7516 17.9059 -6.3957
# 6 -13.6479 -15.4528 -17.0232 4.7376 -6.3957 36.0199
#
#
#
# Elastic Compliance Matrix: (Units=1/GPa)
#
#
# Indices 1 2 3 4 5 6 
#
# 1 0.022133 -0.004272 0.003655 0.002583 -0.006501 0.006787
# 2 -0.004272 0.013856 -0.007847 0.006562 0.009029 0.001358
# 3 0.003655 -0.007847 0.017648 -0.003826 -0.018884 0.003509
# 4 0.002583 0.006562 -0.003826 0.050961 0.011975 -0.002591
# 5 -0.006501 0.009029 -0.018884 0.011975 0.081571 0.005394
# 6 0.006787 0.001358 0.003509 -0.002591 0.005394 0.033873
#
#
# Mechanical properties :
#
#
# Convention : Reuss Voigt Hill
#
# Bulk Modulus (GPa) = 27.24061 46.57728 36.90894
# Shear Modulus (GPa) = 20.06365 28.21427 24.13896
#
# Velocity S-wave (km/s) = 3.12740 3.70863 3.43035
# Velocity P-wave (km/s) = 5.13031 6.40656 5.80363
#
# Compressibility (1/GPa) = 0.03670990
#
# Stress axis : x y z
#
# Youngs Moduli (GPa) = 45.18077 72.17042 56.66454
#
# Poissons Ratio (x) = 0.30828 -0.20709
# Poissons Ratio (y) = 0.19299 0.44463
# Poissons Ratio (z) = -0.16512 0.56630
#
# Static dielectric constant tensor:
#      x y z
#    x 1.673200 -0.226650 -0.037550 
#    y -0.226650 0.886770 -0.259230 
#    z -0.037550 -0.259230 1.653900 
# 
# From -- ./inp_files/226115.got.cif
#   From: 2010.05.17/outbox.cif.g08.bks.cpg/sg2_114_cif.got.tgz:226115.got - 2010.06.03 11:33:40.
