data_PCOD9110275
_publ_section_title
;
Structure prediction by ZEFSAII (Michael W. Deem and Ramdas Pophale) SiO2 
 PCOD9110275
Probable space group: P -1
;
_chemical_formula_sum "Si O2"
_cell_formula_units_Z 16
_cell_length_a 15.017905
_cell_length_b 17.981705
_cell_length_c 8.551500
_cell_angle_alpha 44.870995
_cell_angle_beta 44.454250
_cell_angle_gamma 28.183390
_cell_volume 741.443665
_symmetry_space_group_name_H-M "P -1"
_symmetry_group_IT_number 2
_symmetry_cell_setting 'triclinic'
loop_
_space_group_symop_operation_xyz
x,y,z
-x,-y,-z
loop_
_atom_site_type_symbol
_atom_site_label
_atom_site_fract_x
_atom_site_fract_y
_atom_site_fract_z
Si Si1 0.488676 0.797563 0.116896
Si Si2 0.529989 0.596624 0.891297
Si Si3 0.982697 0.769073 0.610265
Si Si4 0.352605 0.096572 0.686929
Si Si5 0.039246 0.614467 0.434784
Si Si6 0.358550 0.672126 0.335263
Si Si7 0.069025 0.510998 0.057999
Si Si8 0.560108 0.141708 0.559604
O O1 0.353980 0.781758 0.277239
O O2 0.696011 0.647062 0.996550
O O3 0.530799 0.780730 0.272411
O O4 0.390111 0.966114 0.929747
O O5 0.415316 0.761718 0.699438
O O6 0.755731 0.487144 0.749701
O O7 0.500000 0.500000 0.000000
O O8 0.455595 0.638657 0.097945
O O9 0.149357 0.751019 0.452478
O O10 0.004143 0.671577 0.870612
O O11 0.021526 0.687249 0.515857
O O12 0.767477 0.953268 0.600788
O O13 0.137739 0.240533 0.670613
O O14 0.421121 0.152264 0.620509
O O15 0.500000 0.000000 0.500000
O O16 0.014849 0.506918 0.671130
O O17 0.500000 0.500000 0.500000
O O18 0.000000 0.500000 0.000000
#
# Coordination Sequence:
#
# PCOD9110275 Si02
#       8
#     2   2   2   2   2   2   2   2
#     4  12  25  45  69 104 150 192 236 297 354 427
#     4  12  27  49  75 105 142 192 242 295 356 434
#     4  11  23  44  75 105 144 193 237 297 361 416
#     4  12  23  44  71 109 147 185 237 302 362 417
#     4  11  24  45  73 107 146 185 243 293 364 426
#     4  12  26  47  76 102 146 192 242 292 354 430
#     4  10  20  41  72 100 141 190 234 293 358 421
#     4  12  27  45  73 108 147 189 239 300 361 423
#
# _framework density 21.579522000000001
#
# number of rings (size 3 to 8) (size 9 to 14) (size 15 to 20)
#    0.000    0.500    5.000    4.125    0.000    4.500 
#    2.250    0.000    0.000    0.000    0.000    0.000 
#    0.000    0.000    0.000    0.000    0.000    0.000 
#
# Total GULP energy -89654.201182 kJ/mol
# GULP energy per Si atom -5603.387574 kJ/mol
# Density = 2.153041 g / cm^3
# Si number density = 21.579522 Si / 1000 Ang^3
#
#
#
# Elastic Constant Matrix: (Units=GPa)
#
#
# Indices 1 2 3 4 5 6 
#
# 1 128.7354 23.5713 46.2890 -6.1042 -19.4958 1.4680
# 2 23.5713 106.0892 45.1247 -7.0788 -13.0082 -22.7030
# 3 46.2890 45.1247 159.9224 -25.2410 -6.2513 -6.4941
# 4 -6.1042 -7.0788 -25.2410 43.1275 -5.2089 -4.9301
# 5 -19.4958 -13.0082 -6.2513 -5.2089 40.3161 1.1268
# 6 1.4680 -22.7030 -6.4941 -4.9301 1.1268 44.8822
#
#
#
# Elastic Compliance Matrix: (Units=1/GPa)
#
#
# Indices 1 2 3 4 5 6 
#
# 1 0.009385 -0.000837 -0.002346 0.000164 0.003958 -0.001151
# 2 -0.000837 0.012552 -0.002698 0.001448 0.003244 0.006064
# 3 -0.002346 -0.002698 0.008354 0.004136 -0.000186 0.000380
# 4 0.000164 0.001448 0.004136 0.026894 0.004546 0.004165
# 5 0.003958 0.003244 -0.000186 0.004546 0.028288 0.001274
# 6 -0.001151 0.006064 0.000380 0.004165 0.001274 0.025866
#
#
# Mechanical properties :
#
#
# Convention : Reuss Voigt Hill
#
# Bulk Modulus (GPa) = 53.97215 69.41302 61.69258
# Shear Modulus (GPa) = 38.67668 44.31595 41.49632
#
# Velocity S-wave (km/s) = 4.23813 4.53660 4.38990
# Velocity P-wave (km/s) = 7.00101 7.72508 7.37194
#
# Compressibility (1/GPa) = 0.01852807
#
# Stress axis : x y z
#
# Youngs Moduli (GPa) = 106.55125 79.67149 119.69930
#
# Poissons Ratio (x) = 0.06671 0.28086
# Poissons Ratio (y) = 0.08922 0.32291
# Poissons Ratio (z) = 0.25001 0.21493
#
# Static dielectric constant tensor:
#      x y z
#    x 1.775260 0.009680 0.012350 
#    y 0.009680 1.783420 -0.004630 
#    z 0.012350 -0.004630 1.757640 
# 
# From -- ./inp_files/317956.got.cif
#   From: 2010.05.17/outbox.cif.g08.bks.cpg/sg2_159_cif.got.tgz:317956.got - 2010.06.03 11:33:40.
