data_PCOD9110235
_publ_section_title
;
Structure prediction by ZEFSAII (Michael W. Deem and Ramdas Pophale) SiO2 
 PCOD9110235
Probable space group: P -1
;
_chemical_formula_sum "Si O2"
_cell_formula_units_Z 12
_cell_length_a 10.888813
_cell_length_b 7.053847
_cell_length_c 9.368437
_cell_angle_alpha 107.408587
_cell_angle_beta 55.611966
_cell_angle_gamma 73.805831
_cell_volume 466.036133
_symmetry_space_group_name_H-M "P -1"
_symmetry_group_IT_number 2
_symmetry_cell_setting 'triclinic'
loop_
_space_group_symop_operation_xyz
x,y,z
-x,-y,-z
loop_
_atom_site_type_symbol
_atom_site_label
_atom_site_fract_x
_atom_site_fract_y
_atom_site_fract_z
Si Si1 0.677349 0.122607 0.671658
Si Si2 0.402043 0.329346 0.679779
Si Si3 0.570010 0.249300 0.248406
Si Si4 0.655394 0.596005 0.827047
Si Si5 0.888644 0.783633 0.074486
Si Si6 0.011987 0.377025 0.720140
O O1 0.588780 0.114769 0.580345
O O2 0.724807 0.320412 0.676880
O O3 0.843411 0.847382 0.523833
O O4 0.511596 0.258969 0.921058
O O5 0.442394 0.334367 0.489554
O O6 0.386896 0.565440 0.800646
O O7 0.253129 0.289671 0.820313
O O8 0.445250 0.239558 0.209194
O O9 0.764355 0.031621 0.128870
O O10 0.829830 0.541190 0.784594
O O11 0.974205 0.762377 0.169604
O O12 0.032402 0.582426 0.822008
#
# Coordination Sequence:
#
# PCOD9110235 Si02
#       6
#     2   2   2   2   2   2
#     4  10  20  41  71  91 132 184 214 266 340 390
#     4  10  20  42  71  93 129 184 221 260 332 395
#     4  10  22  40  71  99 127 178 226 270 323 391
#     4  10  22  41  67  98 134 171 222 278 328 384
#     4  11  23  42  68  96 137 177 215 273 330 394
#     4  11  23  40  65 101 132 179 217 268 337 394
#
# _framework density 25.749077
#
# number of rings (size 3 to 8) (size 9 to 14) (size 15 to 20)
#    0.000    1.667    3.333    1.000    0.000    0.667 
#    0.000    8.333    0.000    0.000    0.000    0.000 
#    0.000    0.000    0.000    0.000    0.000    0.000 
#
# Total GULP energy -66890.034260 kJ/mol
# GULP energy per Si atom -5574.169522 kJ/mol
# Density = 2.569047 g / cm^3
# Si number density = 25.749077 Si / 1000 Ang^3
#
#
#
# Elastic Constant Matrix: (Units=GPa)
#
#
# Indices 1 2 3 4 5 6 
#
# 1 54.2966 6.6879 4.4389 -19.4607 17.0923 -29.4687
# 2 6.6879 82.0506 10.3088 8.9954 2.2458 -26.6175
# 3 4.4389 10.3088 102.7601 15.3456 8.3438 -12.6097
# 4 -19.4607 8.9954 15.3456 47.1704 -13.5197 3.0648
# 5 17.0923 2.2458 8.3438 -13.5197 28.1122 -2.6041
# 6 -29.4687 -26.6175 -12.6097 3.0648 -2.6041 64.9638
#
#
#
# Elastic Compliance Matrix: (Units=1/GPa)
#
#
# Indices 1 2 3 4 5 6 
#
# 1 0.034442 0.001653 0.000266 0.008300 -0.015740 0.015330
# 2 0.001653 0.014739 0.000084 -0.003540 -0.003276 0.006841
# 3 0.000266 0.000084 0.011292 -0.005428 -0.005911 0.002366
# 4 0.008300 -0.003540 -0.005428 0.030331 0.011461 0.000290
# 5 -0.015740 -0.003276 -0.005911 0.011461 0.051920 -0.008089
# 6 0.015330 0.006841 0.002366 0.000290 -0.008089 0.025271
#
#
# Mechanical properties :
#
#
# Convention : Reuss Voigt Hill
#
# Bulk Modulus (GPa) = 15.50876 31.33094 23.41985
# Shear Modulus (GPa) = 26.95665 42.56072 34.75869
#
# Velocity S-wave (km/s) = 3.23909 4.07000 3.67808
# Velocity P-wave (km/s) = 4.47494 5.85498 5.21084
#
# Compressibility (1/GPa) = 0.06447969
#
# Stress axis : x y z
#
# Youngs Moduli (GPa) = 29.03452 67.84614 88.55522
#
# Poissons Ratio (x) = -0.11216 -0.02356
# Poissons Ratio (y) = -0.04800 -0.00744
# Poissons Ratio (z) = -0.00772 -0.00570
#
# Static dielectric constant tensor:
#      x y z
#    x 2.104740 0.001670 0.008450 
#    y 0.001670 2.094690 0.048550 
#    z 0.008450 0.048550 2.165920 
# 
# From -- ./inp_files/232310.got.cif
#   From: 2010.05.17/outbox.cif.g08.bks.cpg/sg2_117_cif.got.tgz:232310.got - 2010.06.03 11:33:40.
