data_PCOD9110162
_publ_section_title
;
Structure prediction by ZEFSAII (Michael W. Deem and Ramdas Pophale) SiO2 
 PCOD9110162
Probable space group: P -1
;
_chemical_formula_sum "Si O2"
_cell_formula_units_Z 10
_cell_length_a 7.456939
_cell_length_b 14.493243
_cell_length_c 11.407197
_cell_angle_alpha 30.393205
_cell_angle_beta 67.494553
_cell_angle_gamma 87.706977
_cell_volume 451.749929
_symmetry_space_group_name_H-M "P -1"
_symmetry_group_IT_number 2
_symmetry_cell_setting 'triclinic'
loop_
_space_group_symop_operation_xyz
x,y,z
-x,-y,-z
loop_
_atom_site_type_symbol
_atom_site_label
_atom_site_fract_x
_atom_site_fract_y
_atom_site_fract_z
Si Si1 0.157916 0.693020 0.646349
Si Si2 0.731274 0.693962 0.651108
Si Si3 0.894243 0.732707 0.323859
Si Si4 0.623247 0.045203 0.294304
Si Si5 0.124649 0.528056 0.592788
O O1 0.404244 0.915720 0.397449
O O2 0.975379 0.739807 0.589445
O O3 0.231336 0.611335 0.605307
O O4 0.000000 0.500000 0.000000
O O5 0.704362 0.623823 0.598970
O O6 0.749891 0.921472 0.399841
O O7 0.500000 0.500000 0.000000
O O8 0.113727 0.717882 0.322556
O O9 0.789339 0.580861 0.397648
O O10 0.000000 0.000000 0.000000
O O11 0.500000 0.000000 0.500000
O O12 0.836459 0.312943 0.924658
#
# Coordination Sequence:
#
# PCOD9110162 Si02
#       5
#     2   2   2   2   2
#     4  11  22  41  65  98 135 171 222 270 326 397
#     4  11  22  40  69  95 132 173 218 272 327 388
#     4  10  20  41  70  92 132 179 214 270 334 386
#     4  12  22  40  67  97 134 171 217 276 325 384
#     4  10  22  41  66  95 135 174 214 278 328 381
#
# _framework density 22.136142
#
# number of rings (size 3 to 8) (size 9 to 14) (size 15 to 20)
#    0.000    1.200    6.000    1.200    0.000    0.800 
#    0.000   10.000    0.000    0.000    0.000    0.000 
#    0.000    0.000    0.000    0.000    0.000    0.000 
#
# Total GULP energy -55875.620304 kJ/mol
# GULP energy per Si atom -5587.562030 kJ/mol
# Density = 2.208576 g / cm^3
# Si number density = 22.136142 Si / 1000 Ang^3
#
#
#
# Elastic Constant Matrix: (Units=GPa)
#
#
# Indices 1 2 3 4 5 6 
#
# 1 97.2038 40.3514 23.6943 -14.8681 10.3457 8.7767
# 2 40.3514 227.3857 32.2795 12.4612 1.4542 4.9143
# 3 23.6943 32.2795 83.3276 -6.2014 6.1505 -4.4997
# 4 -14.8681 12.4612 -6.2014 44.0256 -8.6463 0.3066
# 5 10.3457 1.4542 6.1505 -8.6463 34.1079 -18.8468
# 6 8.7767 4.9143 -4.4997 0.3066 -18.8468 42.2634
#
#
#
# Elastic Compliance Matrix: (Units=1/GPa)
#
#
# Indices 1 2 3 4 5 6 
#
# 1 0.013413 -0.002061 -0.002620 0.003700 -0.005501 -0.005305
# 2 -0.002061 0.005129 -0.001590 -0.002393 -0.000120 -0.000374
# 3 -0.002620 -0.001590 0.013589 0.001459 -0.000029 0.002153
# 4 0.003700 -0.002393 0.001459 0.026147 0.006708 0.002467
# 5 -0.005501 -0.000120 -0.000029 0.006708 0.044199 0.020815
# 6 -0.005305 -0.000374 0.002153 0.002467 0.020815 0.034300
#
#
# Mechanical properties :
#
#
# Convention : Reuss Voigt Hill
#
# Bulk Modulus (GPa) = 51.05444 66.72974 58.89209
# Shear Modulus (GPa) = 32.08233 44.85218 38.46725
#
# Velocity S-wave (km/s) = 3.81112 4.50621 4.17316
# Velocity P-wave (km/s) = 6.51768 7.56870 7.06277
#
# Compressibility (1/GPa) = 0.01958694
#
# Stress axis : x y z
#
# Youngs Moduli (GPa) = 74.55730 194.95763 73.58936
#
# Poissons Ratio (x) = 0.40183 0.19284
# Poissons Ratio (y) = 0.15367 0.11703
# Poissons Ratio (z) = 0.19537 0.31005
#
# Static dielectric constant tensor:
#      x y z
#    x 1.819060 -0.011230 0.080760 
#    y -0.011230 1.885320 0.002110 
#    z 0.080760 0.002110 2.037920 
# 
# From -- ./inp_files/172586.got.cif
#   From: 2010.05.17/outbox.cif.g08.bks.cpg/sg2_87_cif.got.tgz:172586.got - 2010.06.03 11:33:40.
