data_PCOD9110631
_publ_section_title
;
Structure prediction by ZEFSAII (Michael W. Deem and Ramdas Pophale) SiO2 
 PCOD9110631
Probable space group: P -1
;
_chemical_formula_sum "Si O2"
_cell_formula_units_Z 16
_cell_length_a 7.373314
_cell_length_b 8.838524
_cell_length_c 21.439686
_cell_angle_alpha 141.392398
_cell_angle_beta 125.540023
_cell_angle_gamma 47.789099
_cell_volume 640.946103
_symmetry_space_group_name_H-M "P -1"
_symmetry_group_IT_number 2
_symmetry_cell_setting 'triclinic'
loop_
_space_group_symop_operation_xyz
x,y,z
-x,-y,-z
loop_
_atom_site_type_symbol
_atom_site_label
_atom_site_fract_x
_atom_site_fract_y
_atom_site_fract_z
Si Si1 0.509856 0.281456 0.572083
Si Si2 0.033524 0.717091 0.389696
Si Si3 0.167472 0.867636 0.723639
Si Si4 0.831926 0.641667 0.573989
Si Si5 0.703374 0.794565 0.239127
Si Si6 0.602780 0.920401 0.063063
Si Si7 0.307690 0.644560 0.064981
Si Si8 0.067121 0.236256 0.068985
O O1 0.760365 0.319646 0.633455
O O2 0.324798 0.545095 0.657716
O O3 0.428422 0.309516 0.491627
O O4 0.500000 0.000000 0.500000
O O5 0.110543 0.514662 0.398987
O O6 0.789879 0.751381 0.314120
O O7 0.000000 0.000000 0.500000
O O8 0.200686 0.025695 0.839955
O O9 0.888860 0.900167 0.674127
O O10 0.254902 0.969511 0.711981
O O11 0.000000 0.500000 0.500000
O O12 0.428498 0.822204 0.178709
O O13 0.895584 0.520348 0.155969
O O14 0.346966 0.125386 0.112021
O O15 0.500000 0.000000 0.000000
O O16 0.656565 0.612273 0.971896
O O17 0.500000 0.500000 0.000000
O O18 0.030025 0.749010 0.017027
O O19 0.000000 0.000000 0.000000
#
# Coordination Sequence:
#
# PCOD9110631 Si02
#       8
#     2   2   2   2   2   2   2   2
#     4  11  23  45  71  98 131 176 227 280 347 407
#     4  12  24  41  69 101 130 173 228 282 341 411
#     4  11  22  44  67  95 136 178 219 285 344 401
#     4  10  23  41  64  92 135 170 213 276 337 402
#     4  11  22  41  71  97 128 176 232 278 341 400
#     4  12  25  40  66 101 143 176 226 283 340 401
#     4  10  20  42  64  97 132 176 228 276 331 399
#     4  11  20  41  71  92 130 184 227 274 338 397
#
# _framework density 24.963097999999999
#
# number of rings (size 3 to 8) (size 9 to 14) (size 15 to 20)
#    0.000    1.000    5.000    4.875    1.750    0.500 
#    0.000    1.250    0.000    0.000    0.000    0.000 
#    0.000    0.000    0.000    0.000    0.000    0.000 
#
# Total GULP energy -89189.724860 kJ/mol
# GULP energy per Si atom -5574.357804 kJ/mol
# Density = 2.490628 g / cm^3
# Si number density = 24.963098 Si / 1000 Ang^3
#
#
#
# Elastic Constant Matrix: (Units=GPa)
#
#
# Indices 1 2 3 4 5 6 
#
# 1 38.1852 -1.0675 18.2739 2.6283 6.2869 11.9002
# 2 -1.0675 135.7558 36.5512 -5.3450 16.4639 43.3086
# 3 18.2739 36.5512 104.0253 -18.7420 27.6824 11.5892
# 4 2.6283 -5.3450 -18.7420 60.8041 -2.8620 7.1100
# 5 6.2869 16.4639 27.6824 -2.8620 41.3248 2.0657
# 6 11.9002 43.3086 11.5892 7.1100 2.0657 48.5535
#
#
#
# Elastic Compliance Matrix: (Units=1/GPa)
#
#
# Indices 1 2 3 4 5 6 
#
# 1 0.033549 0.005946 -0.006216 -0.001611 -0.002836 -0.011686
# 2 0.005946 0.012446 -0.003055 0.001134 -0.003145 -0.011862
# 3 -0.006216 -0.003055 0.014361 0.004025 -0.007206 0.000538
# 4 -0.001611 0.001134 0.004025 0.018279 -0.001427 -0.004194
# 5 -0.002836 -0.003145 -0.007206 -0.001427 0.030404 0.004136
# 6 -0.011686 -0.011862 0.000538 -0.004194 0.004136 0.034350
#
#
# Mechanical properties :
#
#
# Convention : Reuss Voigt Hill
#
# Bulk Modulus (GPa) = 18.61984 42.83125 30.72555
# Shear Modulus (GPa) = 29.77228 45.08371 37.42800
#
# Velocity S-wave (km/s) = 3.45723 4.25433 3.87632
# Velocity P-wave (km/s) = 4.83856 6.42865 5.68943
#
# Compressibility (1/GPa) = 0.05370616
#
# Stress axis : x y z
#
# Youngs Moduli (GPa) = 29.80709 80.34964 69.63255
#
# Poissons Ratio (x) = -0.47777 0.43286
# Poissons Ratio (y) = -0.17724 0.21271
# Poissons Ratio (z) = 0.18529 0.24544
#
# Static dielectric constant tensor:
#      x y z
#    x 3.202690 -0.018660 -0.288040 
#    y -0.018660 1.932040 -0.047260 
#    z -0.288040 -0.047260 2.023330 
# 
# From -- ./inp_files/606944.got.cif
#   From: 2010.05.17/outbox.cif.g08.bks.cpg/sg2_304_cif.got.tgz:606944.got - 2010.06.03 11:33:40.
