data_PCOD9110971
_publ_section_title
;
Structure prediction by ZEFSAII (Michael W. Deem and Ramdas Pophale) SiO2 
 PCOD9110971
Probable space group: P -1
;
_chemical_formula_sum "Si O2"
_cell_formula_units_Z 15
_cell_length_a 5.315456
_cell_length_b 11.780055
_cell_length_c 17.692880
_cell_angle_alpha 32.507234
_cell_angle_beta 114.191293
_cell_angle_gamma 111.123403
_cell_volume 542.841085
_symmetry_space_group_name_H-M "P -1"
_symmetry_group_IT_number 2
_symmetry_cell_setting 'triclinic'
loop_
_space_group_symop_operation_xyz
x,y,z
-x,-y,-z
loop_
_atom_site_type_symbol
_atom_site_label
_atom_site_fract_x
_atom_site_fract_y
_atom_site_fract_z
Si Si1 0.481769 0.717534 0.716644
Si Si2 0.500000 0.000000 0.000000
Si Si3 0.926255 0.026100 0.562446
Si Si4 0.229445 0.361428 0.658228
Si Si5 0.468702 0.748020 0.866157
Si Si6 0.800192 0.565565 0.587145
Si Si7 0.230329 0.293867 0.869875
Si Si8 0.100589 0.902933 0.870382
O O1 0.338005 0.816022 0.569066
O O2 0.379330 0.800189 0.739211
O O3 0.417088 0.468441 0.839077
O O4 0.794299 0.809875 0.700215
O O5 0.294491 0.049462 0.026280
O O6 0.234698 0.875187 0.985374
O O7 0.146513 0.186882 0.535776
O O8 0.000000 0.000000 0.500000
O O9 0.484773 0.500653 0.584569
O O10 0.966207 0.487961 0.578906
O O11 0.340286 0.266158 0.808763
O O12 0.145641 0.152063 0.722554
O O13 0.254481 0.798096 0.877514
O O14 0.775672 0.843940 0.865178
O O15 0.500000 0.500000 0.000000
O O16 0.955467 0.426310 0.748514
#
# Coordination Sequence:
#
# PCOD9110971 Si02
#       8
#     2   1   2   2   2   2   2   2
#     4  10  22  41  64 103 139 183 228 284 350 422
#     4  10  20  42  68 100 124 172 246 292 332 392
#     4  10  21  37  70 103 135 180 235 289 348 400
#     4   9  18  37  61  90 123 165 219 282 328 391
#     4  12  27  47  66  99 148 188 225 277 360 432
#     4   9  18  34  59  94 127 157 213 287 338 387
#     4   8  18  34  58  94 125 166 213 283 332 391
#     4  11  25  44  67  96 134 185 233 285 345 413
#
# _framework density 27.632397999999998
#
# number of rings (size 3 to 8) (size 9 to 14) (size 15 to 20)
#    0.800    1.333    0.000    2.800    3.733    0.533 
#   12.000    0.000    0.000    4.800    0.000    0.000 
#    0.000    0.000    0.000    0.000    0.000    0.000 
#
# Total GULP energy -83673.504930 kJ/mol
# GULP energy per Si atom -5578.233662 kJ/mol
# Density = 2.756951 g / cm^3
# Si number density = 27.632398 Si / 1000 Ang^3
#
#
#
# Elastic Constant Matrix: (Units=GPa)
#
#
# Indices 1 2 3 4 5 6 
#
# 1 148.4243 72.8283 6.3011 -2.5872 -3.0304 7.6649
# 2 72.8283 204.8635 51.3353 -22.0600 1.5838 -5.2319
# 3 6.3011 51.3353 83.3401 14.3631 11.1751 8.4310
# 4 -2.5872 -22.0600 14.3631 44.3738 -8.4236 6.8263
# 5 -3.0304 1.5838 11.1751 -8.4236 39.3834 5.0489
# 6 7.6649 -5.2319 8.4310 6.8263 5.0489 70.1697
#
#
#
# Elastic Compliance Matrix: (Units=1/GPa)
#
#
# Indices 1 2 3 4 5 6 
#
# 1 0.008555 -0.003826 0.002178 -0.001920 -0.000051 -0.001291
# 2 -0.003826 0.008589 -0.006554 0.006478 0.002472 0.001038
# 3 0.002178 -0.006554 0.018714 -0.010268 -0.006885 -0.001481
# 4 -0.001920 0.006478 -0.010268 0.031017 0.009366 -0.001765
# 5 -0.000051 0.002472 -0.006885 0.009366 0.029504 -0.002017
# 6 -0.001291 0.001038 -0.001481 -0.001765 -0.002017 0.014964
#
#
# Mechanical properties :
#
#
# Convention : Reuss Voigt Hill
#
# Bulk Modulus (GPa) = 51.40447 77.50639 64.45543
# Shear Modulus (GPa) = 37.24909 51.19627 44.22268
#
# Velocity S-wave (km/s) = 3.67553 4.30904 4.00483
# Velocity P-wave (km/s) = 6.05442 7.27098 6.69041
#
# Compressibility (1/GPa) = 0.01945356
#
# Stress axis : x y z
#
# Youngs Moduli (GPa) = 116.89622 116.43026 53.43536
#
# Poissons Ratio (x) = 0.44550 -0.11640
# Poissons Ratio (y) = 0.44728 0.35022
# Poissons Ratio (z) = -0.25465 0.76310
#
# Static dielectric constant tensor:
#      x y z
#    x 2.556050 0.058810 0.022730 
#    y 0.058810 2.155000 0.149820 
#    z 0.022730 0.149820 2.858420 
# 
# From -- ./inp_files/408946.got.cif
#   From: 2010.05.17/outbox.cif.g08.bks.cpg/sg2_205_cif.got.tgz:408946.got - 2010.06.03 11:33:40.
