data_PCOD9110962
_publ_section_title
;
Structure prediction by ZEFSAII (Michael W. Deem and Ramdas Pophale) SiO2 
 PCOD9110962
Probable space group: P -1
;
_chemical_formula_sum "Si O2"
_cell_formula_units_Z 12
_cell_length_a 10.185246
_cell_length_b 10.672135
_cell_length_c 12.462664
_cell_angle_alpha 134.513444
_cell_angle_beta 80.380588
_cell_angle_gamma 130.668240
_cell_volume 618.677586
_symmetry_space_group_name_H-M "P -1"
_symmetry_group_IT_number 2
_symmetry_cell_setting 'triclinic'
loop_
_space_group_symop_operation_xyz
x,y,z
-x,-y,-z
loop_
_atom_site_type_symbol
_atom_site_label
_atom_site_fract_x
_atom_site_fract_y
_atom_site_fract_z
Si Si1 0.032936 0.584969 0.924770
Si Si2 0.554147 0.859813 0.858728
Si Si3 0.756701 0.771723 0.926615
Si Si4 0.140529 0.526029 0.649943
Si Si5 0.592577 0.255394 0.707040
Si Si6 0.229396 0.945839 0.732769
O O1 0.078734 0.498364 0.766181
O O2 0.821398 0.456065 0.838531
O O3 0.000000 0.500000 0.000000
O O4 0.237658 0.906670 0.094516
O O5 0.622342 0.780211 0.885163
O O6 0.346718 0.616883 0.676139
O O7 0.500000 0.000000 0.000000
O O8 0.629268 0.464097 0.754767
O O9 0.764624 0.858227 0.096865
O O10 0.000000 0.000000 0.000000
O O11 0.188063 0.757498 0.718641
O O12 0.953814 0.256098 0.448400
O O13 0.500000 0.000000 0.500000
O O14 0.439867 0.126056 0.749757
#
# Coordination Sequence:
#
# PCOD9110962 Si02
#       6
#     2   2   2   2   2   2
#     4  11  21  39  66 100 134 179 229 277 338 410
#     4  10  20  42  67  98 133 182 228 276 344 408
#     4  12  24  45  71 102 141 183 232 282 347 417
#     4  10  21  40  69  99 133 183 226 274 353 399
#     4  12  25  43  68 106 139 180 234 283 346 412
#     4  11  22  42  70  99 141 178 228 289 337 415
#
# _framework density 19.39621
#
# number of rings (size 3 to 8) (size 9 to 14) (size 15 to 20)
#    0.000    1.000    6.667    1.500    4.667    0.000 
#    0.000    3.333    0.000    0.000    0.000    0.000 
#    0.000    0.000    0.000    0.000    0.000    0.000 
#
# Total GULP energy -66840.428261 kJ/mol
# GULP energy per Si atom -5570.035688 kJ/mol
# Density = 1.935206 g / cm^3
# Si number density = 19.396210 Si / 1000 Ang^3
#
#
#
# Elastic Constant Matrix: (Units=GPa)
#
#
# Indices 1 2 3 4 5 6 
#
# 1 124.7588 41.9784 46.2735 9.5547 25.1138 6.7576
# 2 41.9784 115.4249 52.4917 2.2662 -2.3107 7.5896
# 3 46.2735 52.4917 75.0397 4.4066 3.6736 5.8032
# 4 9.5547 2.2662 4.4066 33.6266 -0.1986 3.3400
# 5 25.1138 -2.3107 3.6736 -0.1986 40.7728 4.8863
# 6 6.7576 7.5896 5.8032 3.3400 4.8863 45.1929
#
#
#
# Elastic Compliance Matrix: (Units=1/GPa)
#
#
# Indices 1 2 3 4 5 6 
#
# 1 0.012525 -0.002022 -0.005806 -0.002726 -0.007345 0.000208
# 2 -0.002022 0.013196 -0.008080 0.000886 0.002876 -0.001253
# 3 -0.005806 -0.008080 0.022600 -0.000686 0.001169 -0.000753
# 4 -0.002726 0.000886 -0.000686 0.030771 0.002200 -0.002165
# 5 -0.007345 0.002876 0.001169 0.002200 0.029464 -0.002883
# 6 0.000208 -0.001253 -0.000753 -0.002165 -0.002883 0.022875
#
#
# Mechanical properties :
#
#
# Convention : Reuss Voigt Hill
#
# Bulk Modulus (GPa) = 60.58547 66.30119 63.44333
# Shear Modulus (GPa) = 29.62998 35.55044 32.59021
#
# Velocity S-wave (km/s) = 3.91271 4.28583 4.10352
# Velocity P-wave (km/s) = 7.19138 7.66472 7.43182
#
# Compressibility (1/GPa) = 0.01650561
#
# Stress axis : x y z
#
# Youngs Moduli (GPa) = 79.83945 75.77994 44.24865
#
# Poissons Ratio (x) = 0.15324 0.25689
# Poissons Ratio (y) = 0.16145 0.35752
# Poissons Ratio (z) = 0.46351 0.61229
#
# Static dielectric constant tensor:
#      x y z
#    x 1.758730 -0.117000 0.016630 
#    y -0.117000 2.079240 -0.106960 
#    z 0.016630 -0.106960 1.765010 
# 
# From -- ./inp_files/158001.got.cif
#   From: 2010.05.17/outbox.cif.g08.bks.cpg/sg2_80_cif.got.tgz:158001.got - 2010.06.03 11:33:40.
