data_PCOD9110596
_publ_section_title
;
Structure prediction by ZEFSAII (Michael W. Deem and Ramdas Pophale) SiO2 
 PCOD9110596
Probable space group: P -1
;
_chemical_formula_sum "Si O2"
_cell_formula_units_Z 16
_cell_length_a 8.721043
_cell_length_b 23.918102
_cell_length_c 8.650564
_cell_angle_alpha 53.896512
_cell_angle_beta 119.843622
_cell_angle_gamma 150.718127
_cell_volume 712.457582
_symmetry_space_group_name_H-M "P -1"
_symmetry_group_IT_number 2
_symmetry_cell_setting 'triclinic'
loop_
_space_group_symop_operation_xyz
x,y,z
-x,-y,-z
loop_
_atom_site_type_symbol
_atom_site_label
_atom_site_fract_x
_atom_site_fract_y
_atom_site_fract_z
Si Si1 0.753607 0.378145 0.972144
Si Si2 0.365837 0.955113 0.333146
Si Si3 0.303028 0.075557 0.930641
Si Si4 0.503907 0.721417 0.684259
Si Si5 0.861452 0.746075 0.212417
Si Si6 0.110402 0.935972 0.772509
Si Si7 0.303328 0.503948 0.849219
Si Si8 0.919896 0.332249 0.668372
O O1 0.558795 0.276964 0.171453
O O2 0.502381 0.348014 0.816908
O O3 0.000000 0.500000 0.000000
O O4 0.971341 0.401693 0.938826
O O5 0.011197 0.818243 0.333837
O O6 0.500000 0.000000 0.500000
O O7 0.561062 0.966220 0.306292
O O8 0.418046 0.045734 0.130870
O O9 0.620557 0.219457 0.814504
O O10 0.154284 0.010387 0.795600
O O11 0.000000 0.000000 0.000000
O O12 0.479800 0.631690 0.778999
O O13 0.239148 0.671864 0.533290
O O14 0.863778 0.859492 0.633401
O O15 0.934450 0.690703 0.294126
O O16 0.021901 0.842464 0.994558
O O17 0.194512 0.460693 0.688552
O O18 0.500000 0.500000 0.000000
#
# Coordination Sequence:
#
# PCOD9110596 Si02
#       8
#     2   2   2   2   2   2   2   2
#     4   9  20  42  68  89 121 166 220 263 328 391
#     4  11  23  40  63  94 131 172 225 267 319 392
#     4  11  25  40  64  97 130 176 216 266 336 390
#     4  10  24  40  65  97 127 173 220 267 321 386
#     4  10  20  42  64  92 128 178 207 267 333 387
#     4  10  20  44  64  86 136 171 217 263 327 388
#     4  11  24  44  68  93 127 172 216 270 333 389
#     4  12  23  41  66  94 137 168 217 274 326 384
#
# _framework density 22.457474999999999
#
# number of rings (size 3 to 8) (size 9 to 14) (size 15 to 20)
#    0.000    1.500    2.500    3.375    7.000    1.500 
#    0.000    6.875    0.000    0.000    0.000    0.000 
#    0.000    0.000    0.000    0.000    0.000    0.000 
#
# Total GULP energy -89223.203132 kJ/mol
# GULP energy per Si atom -5576.450196 kJ/mol
# Density = 2.240636 g / cm^3
# Si number density = 22.457475 Si / 1000 Ang^3
#
#
#
# Elastic Constant Matrix: (Units=GPa)
#
#
# Indices 1 2 3 4 5 6 
#
# 1 128.4641 36.5931 42.1579 20.4804 4.9148 10.4175
# 2 36.5931 116.2322 33.5012 46.5891 3.6927 1.7909
# 3 42.1579 33.5012 91.4222 38.9054 13.9855 -7.2118
# 4 20.4804 46.5891 38.9054 45.7478 2.7277 -1.1100
# 5 4.9148 3.6927 13.9855 2.7277 24.7898 13.2969
# 6 10.4175 1.7909 -7.2118 -1.1100 13.2969 34.6078
#
#
#
# Elastic Compliance Matrix: (Units=1/GPa)
#
#
# Indices 1 2 3 4 5 6 
#
# 1 0.010474 -0.002767 -0.006359 0.003099 0.004854 -0.006100
# 2 -0.002767 0.015457 0.003383 -0.017212 -0.002353 0.001090
# 3 -0.006359 0.003383 0.025333 -0.020714 -0.018470 0.013450
# 4 0.003099 -0.017212 -0.020714 0.054771 0.011343 -0.006960
# 5 0.004854 -0.002353 -0.018470 0.011343 0.064853 -0.029742
# 6 -0.006100 0.001090 0.013450 -0.006960 -0.029742 0.044682
#
#
# Mechanical properties :
#
#
# Convention : Reuss Voigt Hill
#
# Bulk Modulus (GPa) = 25.14006 62.29145 43.71575
# Shear Modulus (GPa) = 20.80600 35.95350 28.37975
#
# Velocity S-wave (km/s) = 3.04709 4.00554 3.55873
# Velocity P-wave (km/s) = 4.85783 7.01357 6.03277
#
# Compressibility (1/GPa) = 0.03977715
#
# Stress axis : x y z
#
# Youngs Moduli (GPa) = 95.47326 64.69662 39.47490
#
# Poissons Ratio (x) = 0.17904 0.25101
# Poissons Ratio (y) = 0.26420 -0.13354
# Poissons Ratio (z) = 0.60708 -0.21886
#
# Static dielectric constant tensor:
#      x y z
#    x 1.834370 0.054330 0.029020 
#    y 0.054330 1.926360 -0.009690 
#    z 0.029020 -0.009690 1.879890 
# 
# From -- ./inp_files/203812.got.cif
#   From: 2010.05.17/outbox.cif.g08.bks.cpg/sg2_102_cif.got.tgz:203812.got - 2010.06.03 11:33:40.
