data_PCOD9110435
_publ_section_title
;
Structure prediction by ZEFSAII (Michael W. Deem and Ramdas Pophale) SiO2 
 PCOD9110435
Probable space group: P -1
;
_chemical_formula_sum "Si O2"
_cell_formula_units_Z 13
_cell_length_a 9.051979
_cell_length_b 11.621060
_cell_length_c 6.117225
_cell_angle_alpha 123.190085
_cell_angle_beta 86.346442
_cell_angle_gamma 90.720347
_cell_volume 537.226548
_symmetry_space_group_name_H-M "P -1"
_symmetry_group_IT_number 2
_symmetry_cell_setting 'triclinic'
loop_
_space_group_symop_operation_xyz
x,y,z
-x,-y,-z
loop_
_atom_site_type_symbol
_atom_site_label
_atom_site_fract_x
_atom_site_fract_y
_atom_site_fract_z
Si Si1 0.500000 0.500000 0.500000
Si Si2 0.127830 0.938790 0.766528
Si Si3 0.357546 0.920940 0.110465
Si Si4 0.144235 0.728453 0.191125
Si Si5 0.629366 0.789136 0.722750
Si Si6 0.333844 0.476189 0.074425
Si Si7 0.158533 0.227659 0.944582
O O1 0.556292 0.645534 0.533311
O O2 0.353282 0.502065 0.357811
O O3 0.088154 0.805290 0.495236
O O4 0.157777 0.064832 0.729867
O O5 0.268895 0.908212 0.875206
O O6 0.000000 0.000000 0.000000
O O7 0.268055 0.828491 0.187993
O O8 0.366106 0.084682 0.316348
O O9 0.519298 0.854297 0.989040
O O10 0.223936 0.584146 0.082906
O O11 0.007461 0.718232 0.029241
O O12 0.786411 0.767495 0.804421
O O13 0.268386 0.324649 0.902608
O O14 0.500000 0.500000 0.000000
#
# Coordination Sequence:
#
# PCOD9110435 Si02
#       7
#     1   2   2   2   2   2   2
#     4  10  20  42  62  86 126 164 210 256 316 372
#     4  11  23  42  66  97 132 172 219 273 323 386
#     4  10  21  40  64  94 131 167 218 267 319 387
#     4  12  23  40  71  95 130 176 215 267 338 382
#     4   9  20  39  66  93 131 173 213 269 318 385
#     4  11  25  45  66  97 130 171 217 272 324 395
#     4  10  22  42  64  96 134 166 219 267 325 393
#
# _framework density 24.198359
#
# number of rings (size 3 to 8) (size 9 to 14) (size 15 to 20)
#    0.000    1.538    1.538    3.692    0.000    1.231 
#    5.538    9.231    0.000    0.000    0.000    0.000 
#    0.000    0.000    0.000    0.000    0.000    0.000 
#
# Total GULP energy -72398.135572 kJ/mol
# GULP energy per Si atom -5569.087352 kJ/mol
# Density = 2.414328 g / cm^3
# Si number density = 24.198359 Si / 1000 Ang^3
#
#
#
# Elastic Constant Matrix: (Units=GPa)
#
#
# Indices 1 2 3 4 5 6 
#
# 1 104.4736 33.8215 30.9856 4.3753 -1.8699 -2.0980
# 2 33.8215 151.1324 26.0927 24.8817 -9.5737 6.8521
# 3 30.9856 26.0927 54.0267 15.9384 5.7389 -6.1759
# 4 4.3753 24.8817 15.9384 22.4066 11.0594 11.2889
# 5 -1.8699 -9.5737 5.7389 11.0594 26.6896 -5.4638
# 6 -2.0980 6.8521 -6.1759 11.2889 -5.4638 63.2719
#
#
#
# Elastic Compliance Matrix: (Units=1/GPa)
#
#
# Indices 1 2 3 4 5 6 
#
# 1 0.012534 -0.002881 -0.008359 0.008823 -0.002397 -0.001869
# 2 -0.002881 0.011148 0.001598 -0.021303 0.013055 0.003781
# 3 -0.008359 0.001598 0.031932 -0.031252 0.007898 0.008924
# 4 0.008823 -0.021303 -0.031252 0.134476 -0.062129 -0.029809
# 5 -0.002397 0.013055 0.007898 -0.062129 0.069376 0.016354
# 6 -0.001869 0.003781 0.008924 -0.029809 0.016354 0.022935
#
#
# Mechanical properties :
#
#
# Convention : Reuss Voigt Hill
#
# Bulk Modulus (GPa) = 27.52499 54.60358 41.06428
# Shear Modulus (GPa) = 15.93396 37.05583 26.49490
#
# Velocity S-wave (km/s) = 2.56886 3.91747 3.31252
# Velocity P-wave (km/s) = 4.49423 6.56324 5.62469
#
# Compressibility (1/GPa) = 0.03633062
#
# Stress axis : x y z
#
# Youngs Moduli (GPa) = 79.78458 89.70018 31.31651
#
# Poissons Ratio (x) = 0.25846 0.26177
# Poissons Ratio (y) = 0.22989 -0.05006
# Poissons Ratio (z) = 0.66690 -0.14337
#
# Static dielectric constant tensor:
#      x y z
#    x 1.891020 0.051060 -0.096890 
#    y 0.051060 1.935490 -0.004820 
#    z -0.096890 -0.004820 1.836350 
# 
# From -- ./inp_files/166252.got.cif
#   From: 2010.05.17/outbox.cif.g08.bks.cpg/sg2_84_cif.got.tgz:166252.got - 2010.06.03 11:33:40.
