data_PCOD9110037
_publ_section_title
;
Structure prediction by ZEFSAII (Michael W. Deem and Ramdas Pophale) SiO2 
 PCOD9110037
Probable space group: P -1
;
_chemical_formula_sum "Si O2"
_cell_formula_units_Z 16
_cell_length_a 10.726795
_cell_length_b 7.304310
_cell_length_c 9.315331
_cell_angle_alpha 89.342258
_cell_angle_beta 90.839406
_cell_angle_gamma 118.762795
_cell_volume 639.744192
_symmetry_space_group_name_H-M "P -1"
_symmetry_group_IT_number 2
_symmetry_cell_setting 'triclinic'
loop_
_space_group_symop_operation_xyz
x,y,z
-x,-y,-z
loop_
_atom_site_type_symbol
_atom_site_label
_atom_site_fract_x
_atom_site_fract_y
_atom_site_fract_z
Si Si1 0.638605 0.185978 0.142134
Si Si2 0.306165 0.428471 0.325543
Si Si3 0.160217 0.046077 0.518583
Si Si4 0.771273 0.743817 0.980545
Si Si5 0.616674 0.753134 0.246242
Si Si6 0.660224 0.010378 0.849151
Si Si7 0.938495 0.572714 0.133241
Si Si8 0.169984 0.689822 0.384784
O O1 0.493418 0.191970 0.168878
O O2 0.785154 0.384857 0.179042
O O3 0.616304 0.971361 0.215133
O O4 0.645939 0.149844 0.972956
O O5 0.255999 0.199330 0.390678
O O6 0.474032 0.588506 0.325580
O O7 0.213011 0.511534 0.411276
O O8 0.260747 0.402106 0.157654
O O9 0.241802 0.174088 0.658050
O O10 0.153881 0.820718 0.512084
O O11 0.000000 0.000000 0.500000
O O12 0.645305 0.675226 0.095725
O O13 0.902348 0.747534 0.066859
O O14 0.776163 0.950663 0.911874
O O15 0.698298 0.140220 0.705599
O O16 0.041216 0.626386 0.270722
O O17 0.000000 0.500000 0.000000
#
# Coordination Sequence:
#
# PCOD9110037 Si02
#       8
#     2   2   2   2   2   2   2   2
#     4  10  22  40  68 103 149 179 238 299 361 428
#     4  12  25  48  81 107 142 189 247 304 364 429
#     4  12  30  53  70 104 152 196 243 297 360 445
#     4  11  24  41  76 112 146 183 237 308 364 421
#     4  11  26  48  74 109 144 190 242 300 369 429
#     4  10  20  41  69 104 143 184 232 305 359 420
#     4  12  24  38  64 108 147 187 238 291 361 427
#     4  12  25  48  72 105 144 196 244 295 364 430
#
# _framework density 25.009996999999998
#
# number of rings (size 3 to 8) (size 9 to 14) (size 15 to 20)
#    0.000    0.750    5.000    1.500    7.000    1.500 
#    2.250    0.000    0.000    0.000    0.000    0.000 
#    0.000    0.000    0.000    0.000    0.000    0.000 
#
# Total GULP energy -89529.347444 kJ/mol
# GULP energy per Si atom -5595.584215 kJ/mol
# Density = 2.495307 g / cm^3
# Si number density = 25.009997 Si / 1000 Ang^3
#
#
#
# Elastic Constant Matrix: (Units=GPa)
#
#
# Indices 1 2 3 4 5 6 
#
# 1 104.5522 29.5224 7.7719 6.0236 8.9468 9.4292
# 2 29.5224 83.6576 14.4535 -0.8874 2.6084 13.7718
# 3 7.7719 14.4535 69.2438 11.1488 2.6703 11.6523
# 4 6.0236 -0.8874 11.1488 35.9283 -2.1509 9.3387
# 5 8.9468 2.6084 2.6703 -2.1509 29.5651 4.8356
# 6 9.4292 13.7718 11.6523 9.3387 4.8356 49.0134
#
#
#
# Elastic Compliance Matrix: (Units=1/GPa)
#
#
# Indices 1 2 3 4 5 6 
#
# 1 0.011042 -0.003769 0.000061 -0.002050 -0.003101 -0.000383
# 2 -0.003769 0.014251 -0.002458 0.002650 0.000835 -0.003282
# 3 0.000061 -0.002458 0.016095 -0.004580 -0.001237 -0.002153
# 4 -0.002050 0.002650 -0.004580 0.031367 0.004003 -0.005633
# 5 -0.003101 0.000835 -0.001237 0.004003 0.035685 -0.003627
# 6 -0.000383 -0.003282 -0.002153 -0.005633 -0.003627 0.023341
#
#
# Mechanical properties :
#
#
# Convention : Reuss Voigt Hill
#
# Bulk Modulus (GPa) = 34.41575 40.10548 37.26062
# Shear Modulus (GPa) = 32.50993 36.61508 34.56250
#
# Velocity S-wave (km/s) = 3.60929 3.83040 3.72149
# Velocity P-wave (km/s) = 5.58211 5.96936 5.77898
#
# Compressibility (1/GPa) = 0.02905646
#
# Stress axis : x y z
#
# Youngs Moduli (GPa) = 90.56000 70.17192 62.12995
#
# Poissons Ratio (x) = 0.26450 -0.00382
# Poissons Ratio (y) = 0.34136 0.15272
# Poissons Ratio (z) = -0.00557 0.17249
#
# Static dielectric constant tensor:
#      x y z
#    x 2.008410 -0.015710 -0.018820 
#    y -0.015710 1.983360 0.008180 
#    z -0.018820 0.008180 1.972000 
# 
# From -- ./inp_files/417399.got.cif
#   From: 2010.05.17/outbox.cif.g08.bks.cpg/sg2_209_cif.got.tgz:417399.got - 2010.06.03 11:33:40.
