data_PCOD9110776
_publ_section_title
;
Structure prediction by ZEFSAII (Michael W. Deem and Ramdas Pophale) SiO2 
 PCOD9110776
Probable space group: P -1
;
_chemical_formula_sum "Si O2"
_cell_formula_units_Z 14
_cell_length_a 9.726063
_cell_length_b 7.845094
_cell_length_c 10.252532
_cell_angle_alpha 120.117647
_cell_angle_beta 122.052216
_cell_angle_gamma 82.437909
_cell_volume 563.765338
_symmetry_space_group_name_H-M "P -1"
_symmetry_group_IT_number 2
_symmetry_cell_setting 'triclinic'
loop_
_space_group_symop_operation_xyz
x,y,z
-x,-y,-z
loop_
_atom_site_type_symbol
_atom_site_label
_atom_site_fract_x
_atom_site_fract_y
_atom_site_fract_z
Si Si1 0.718442 0.710415 0.747045
Si Si2 0.871506 0.714486 0.094925
Si Si3 0.543604 0.435985 0.762252
Si Si4 0.486487 0.959456 0.294571
Si Si5 0.321061 0.691311 0.873567
Si Si6 0.210754 0.904115 0.661527
Si Si7 0.033665 0.523381 0.307093
O O1 0.576795 0.552116 0.687303
O O2 0.815903 0.593740 0.653123
O O3 0.640371 0.888936 0.719284
O O4 0.851796 0.778407 0.959005
O O5 0.707587 0.544200 0.963096
O O6 0.018133 0.613569 0.187493
O O7 0.855727 0.901727 0.249844
O O8 0.532188 0.199343 0.658420
O O9 0.391479 0.500601 0.783921
O O10 0.673396 0.060060 0.393826
O O11 0.434740 0.809021 0.087296
O O12 0.321333 0.840822 0.809448
O O13 0.134376 0.623046 0.799668
O O14 0.068133 0.714324 0.491352
#
# Coordination Sequence:
#
# PCOD9110776 Si02
#       7
#     2   2   2   2   2   2   2
#     4  10  23  44  65  98 129 172 211 268 315 392
#     4  10  20  42  66  91 128 167 221 257 315 382
#     4  10  21  40  74  93 118 167 234 261 298 378
#     4  12  20  41  74  91 122 174 229 251 313 387
#     4  12  20  43  65  95 126 172 221 265 302 393
#     4  12  23  40  66 100 127 173 213 270 319 382
#     4  12  26  39  63  98 142 162 203 277 341 356
#
# _framework density 24.833027999999999
#
# number of rings (size 3 to 8) (size 9 to 14) (size 15 to 20)
#    0.857    0.000    5.714    3.000    0.000    1.143 
#    2.571    0.714    0.000    0.000    0.000    0.000 
#    0.000    0.000    0.000    0.000    0.000    0.000 
#
# Total GULP energy -78369.964505 kJ/mol
# GULP energy per Si atom -5597.854607 kJ/mol
# Density = 2.477651 g / cm^3
# Si number density = 24.833028 Si / 1000 Ang^3
#
#
#
# Elastic Constant Matrix: (Units=GPa)
#
#
# Indices 1 2 3 4 5 6 
#
# 1 68.5202 32.4239 7.3381 13.6448 8.6569 -13.0674
# 2 32.4239 150.0525 5.3444 13.4082 -9.1239 -36.9947
# 3 7.3381 5.3444 54.7684 -4.1088 -11.4783 0.2106
# 4 13.6448 13.4082 -4.1088 35.7026 5.5784 -2.6903
# 5 8.6569 -9.1239 -11.4783 5.5784 17.9840 4.7902
# 6 -13.0674 -36.9947 0.2106 -2.6903 4.7902 38.0737
#
#
#
# Elastic Compliance Matrix: (Units=1/GPa)
#
#
# Indices 1 2 3 4 5 6 
#
# 1 0.020825 -0.003497 -0.006109 -0.004475 -0.015761 0.005450
# 2 -0.003497 0.009823 0.000506 -0.002647 0.005834 0.007420
# 3 -0.006109 0.000506 0.023030 0.001617 0.018444 -0.003939
# 4 -0.004475 -0.002647 0.001617 0.032065 -0.007874 -0.000860
# 5 -0.015761 0.005834 0.018444 -0.007874 0.083262 -0.010875
# 6 0.005450 0.007420 -0.003939 -0.000860 -0.010875 0.036674
#
#
# Mechanical properties :
#
#
# Convention : Reuss Voigt Hill
#
# Bulk Modulus (GPa) = 28.18759 40.39488 34.29124
# Shear Modulus (GPa) = 21.21292 33.56771 27.39032
#
# Velocity S-wave (km/s) = 2.92588 3.68059 3.32472
# Velocity P-wave (km/s) = 4.77387 5.86210 5.34575
#
# Compressibility (1/GPa) = 0.03547661
#
# Stress axis : x y z
#
# Youngs Moduli (GPa) = 48.01884 101.80551 43.42232
#
# Poissons Ratio (x) = 0.35603 0.26526
# Poissons Ratio (y) = 0.16793 -0.02196
# Poissons Ratio (z) = 0.29334 -0.05148
#
# Static dielectric constant tensor:
#      x y z
#    x 1.893100 0.047300 -0.066340 
#    y 0.047300 1.959660 -0.062170 
#    z -0.066340 -0.062170 2.001540 
# 
# From -- ./inp_files/378150.got.cif
#   From: 2010.05.17/outbox.cif.g08.bks.cpg/sg2_190_cif.got.tgz:378150.got - 2010.06.03 11:33:40.
