data_PCOD9110483
_publ_section_title
;
Structure prediction by ZEFSAII (Michael W. Deem and Ramdas Pophale) SiO2 
 PCOD9110483
Probable space group: P -1
;
_chemical_formula_sum "Si O2"
_cell_formula_units_Z 14
_cell_length_a 8.989532
_cell_length_b 14.896760
_cell_length_c 9.275680
_cell_angle_alpha 121.265919
_cell_angle_beta 97.231533
_cell_angle_gamma 130.368462
_cell_volume 570.084227
_symmetry_space_group_name_H-M "P -1"
_symmetry_group_IT_number 2
_symmetry_cell_setting 'triclinic'
loop_
_space_group_symop_operation_xyz
x,y,z
-x,-y,-z
loop_
_atom_site_type_symbol
_atom_site_label
_atom_site_fract_x
_atom_site_fract_y
_atom_site_fract_z
Si Si1 0.110162 0.559516 0.395817
Si Si2 0.186382 0.055370 0.885170
Si Si3 0.922167 0.231950 0.429876
Si Si4 0.814024 0.645933 0.139821
Si Si5 0.643925 0.319318 0.911498
Si Si6 0.153426 0.022081 0.411118
Si Si7 0.437929 0.583408 0.589699
O O1 0.300819 0.569648 0.433658
O O2 0.000000 0.500000 0.500000
O O3 0.239166 0.753205 0.556153
O O4 0.881412 0.409188 0.117080
O O5 0.412035 0.205393 0.909877
O O6 0.893129 0.925773 0.683218
O O7 0.302887 0.197493 0.141462
O O8 0.191456 0.933175 0.812308
O O9 0.999668 0.227789 0.589240
O O10 0.209708 0.439119 0.569006
O O11 0.970750 0.810449 0.181602
O O12 0.500000 0.500000 0.000000
O O13 0.786496 0.505370 0.014387
O O14 0.454941 0.166719 0.628502
O O15 0.000000 0.000000 0.500000
O O16 0.500000 0.500000 0.500000
#
# Coordination Sequence:
#
# PCOD9110483 Si02
#       7
#     2   2   2   2   2   2   2
#     4   9  18  35  51  75 101 135 172 214 258 296
#     4  11  18  31  53  80 109 130 168 212 261 300
#     4  10  19  31  53  79 101 131 172 212 258 300
#     4  11  14  24  45  77 112 131 154 199 264 306
#     4  10  17  28  48  77 111 127 160 212 258 304
#     4  10  17  25  46  82 112 127 154 210 270 301
#     4  11  23  39  52  69 104 143 177 211 250 304
#
# _framework density 24.557773999999998
#
# number of rings (size 3 to 8) (size 9 to 14) (size 15 to 20)
#    0.000    1.714   10.000    0.000    0.000    1.143 
#    0.000    0.000    0.000    0.857    0.000   21.000 
#    0.000    1.143    0.000    0.000    0.000    0.000 
#
# Total GULP energy -78033.005181 kJ/mol
# GULP energy per Si atom -5573.786084 kJ/mol
# Density = 2.450188 g / cm^3
# Si number density = 24.557774 Si / 1000 Ang^3
#
#
#
# Elastic Constant Matrix: (Units=GPa)
#
#
# Indices 1 2 3 4 5 6 
#
# 1 101.4452 52.1001 61.2747 -10.4291 11.9743 -39.1995
# 2 52.1001 74.7260 33.1967 4.3518 -3.2906 -26.7596
# 3 61.2747 33.1967 151.8758 8.5824 10.2574 -36.2127
# 4 -10.4291 4.3518 8.5824 42.7337 -18.5479 2.3369
# 5 11.9743 -3.2906 10.2574 -18.5479 28.1340 -7.8750
# 6 -39.1995 -26.7596 -36.2127 2.3369 -7.8750 52.9102
#
#
#
# Elastic Compliance Matrix: (Units=1/GPa)
#
#
# Indices 1 2 3 4 5 6 
#
# 1 0.022298 -0.011457 -0.005040 0.005818 -0.003331 0.006523
# 2 -0.011457 0.023397 0.000272 -0.002321 0.007305 0.004721
# 3 -0.005040 0.000272 0.009763 -0.005095 -0.003981 0.002718
# 4 0.005818 -0.002321 -0.005095 0.036137 0.023362 0.001531
# 5 -0.003331 0.007305 -0.003981 0.023362 0.056308 0.005851
# 6 0.006523 0.004721 0.002718 0.001531 0.005851 0.028783
#
#
# Mechanical properties :
#
#
# Convention : Reuss Voigt Hill
#
# Bulk Modulus (GPa) = 43.46578 69.02113 56.24345
# Shear Modulus (GPa) = 23.06210 36.85395 29.95803
#
# Velocity S-wave (km/s) = 3.06779 3.87809 3.49650
# Velocity P-wave (km/s) = 5.50330 6.94402 6.26521
#
# Compressibility (1/GPa) = 0.02300660
#
# Stress axis : x y z
#
# Youngs Moduli (GPa) = 44.84716 42.74090 102.42394
#
# Poissons Ratio (x) = 0.48968 0.51626
# Poissons Ratio (y) = 0.51381 -0.02782
# Poissons Ratio (z) = 0.22605 -0.01161
#
# Static dielectric constant tensor:
#      x y z
#    x 2.108720 0.075590 -0.029190 
#    y 0.075590 2.040560 -0.034450 
#    z -0.029190 -0.034450 1.998690 
# 
# From -- ./inp_files/251329.got.cif
#   From: 2010.05.17/outbox.cif.g08.bks.cpg/sg2_126_cif.got.tgz:251329.got - 2010.06.03 11:33:40.
