data_PCOD9110130
_publ_section_title
;
Structure prediction by ZEFSAII (Michael W. Deem and Ramdas Pophale) SiO2 
 PCOD9110130
Probable space group: P -1
;
_chemical_formula_sum "Si O2"
_cell_formula_units_Z 13
_cell_length_a 13.762976
_cell_length_b 8.427435
_cell_length_c 7.118924
_cell_angle_alpha 93.847126
_cell_angle_beta 49.559489
_cell_angle_gamma 123.849718
_cell_volume 461.918158
_symmetry_space_group_name_H-M "P -1"
_symmetry_group_IT_number 2
_symmetry_cell_setting 'triclinic'
loop_
_space_group_symop_operation_xyz
x,y,z
-x,-y,-z
loop_
_atom_site_type_symbol
_atom_site_label
_atom_site_fract_x
_atom_site_fract_y
_atom_site_fract_z
Si Si1 0.371507 0.857855 0.368232
Si Si2 0.946610 0.563376 0.362626
Si Si3 0.318100 0.729235 0.849191
Si Si4 0.169740 0.309021 0.826911
Si Si5 0.500000 0.500000 0.500000
Si Si6 0.947441 0.106258 0.450882
Si Si7 0.574289 0.713422 0.031409
O O1 0.343453 0.835181 0.625113
O O2 0.436177 0.737771 0.223597
O O3 0.181477 0.696375 0.507564
O O4 0.465221 0.888762 0.829116
O O5 0.941514 0.664420 0.562664
O O6 0.906599 0.644125 0.238954
O O7 0.136685 0.651841 0.122943
O O8 0.313208 0.538590 0.785980
O O9 0.318143 0.313122 0.579247
O O10 0.019389 0.144050 0.151390
O O11 0.599128 0.678994 0.212557
O O12 0.000000 0.000000 0.500000
O O13 0.742804 0.933964 0.739327
O O14 0.500000 0.500000 0.000000
#
# Coordination Sequence:
#
# PCOD9110130 Si02
#       7
#     2   2   2   2   1   2   2
#     4  10  20  41  70 100 134 183 228 288 340 408
#     4  11  23  45  73  98 141 183 232 287 348 409
#     4  10  21  43  73 101 139 183 237 284 347 413
#     4  11  25  43  72 103 138 188 230 285 352 416
#     4  12  24  44  72 100 138 186 234 280 348 418
#     4  12  26  43  68 104 143 179 232 293 344 415
#     4  12  25  46  69 102 141 182 231 291 346 412
#
# _framework density 28.143516000000002
#
# number of rings (size 3 to 8) (size 9 to 14) (size 15 to 20)
#    0.000    0.923    6.154    2.769    0.000    2.462 
#    0.000    2.308    0.000    0.000    0.000    0.000 
#    0.000    0.000    0.000    0.000    0.000    0.000 
#
# Total GULP energy -72602.615416 kJ/mol
# GULP energy per Si atom -5584.816570 kJ/mol
# Density = 2.807946 g / cm^3
# Si number density = 28.143516 Si / 1000 Ang^3
#
#
#
# Elastic Constant Matrix: (Units=GPa)
#
#
# Indices 1 2 3 4 5 6 
#
# 1 95.7545 21.5539 64.1012 -14.2103 42.5224 25.4375
# 2 21.5539 130.2778 23.8751 -2.9424 1.3239 31.7196
# 3 64.1012 23.8751 197.2391 -26.2202 25.4679 20.4678
# 4 -14.2103 -2.9424 -26.2202 49.2076 1.6112 -8.3091
# 5 42.5224 1.3239 25.4679 1.6112 58.4595 -12.5173
# 6 25.4375 31.7196 20.4678 -8.3091 -12.5173 28.2636
#
#
#
# Elastic Compliance Matrix: (Units=1/GPa)
#
#
# Indices 1 2 3 4 5 6 
#
# 1 0.083350 0.020218 -0.003930 0.003654 -0.087890 -0.132711
# 2 0.020218 0.016152 -0.000487 -0.000608 -0.024949 -0.047198
# 3 -0.003930 -0.000487 0.006772 0.002418 -0.000189 -0.000193
# 4 0.003654 -0.000608 0.002418 0.022850 -0.004222 0.000491
# 5 -0.087890 -0.024949 -0.000189 -0.004222 0.115443 0.157124
# 6 -0.132711 -0.047198 -0.000193 0.000491 0.157124 0.277663
#
#
# Mechanical properties :
#
#
# Convention : Reuss Voigt Hill
#
# Bulk Modulus (GPa) = 7.25289 71.37019 39.31154
# Shear Modulus (GPa) = 9.31815 48.10223 28.71019
#
# Velocity S-wave (km/s) = 1.82157 4.13870 3.19742
# Velocity P-wave (km/s) = 2.64705 6.94643 5.25641
#
# Compressibility (1/GPa) = 0.13787612
#
# Stress axis : x y z
#
# Youngs Moduli (GPa) = 11.99753 61.91267 147.66763
#
# Poissons Ratio (x) = -1.25175 0.58029
# Poissons Ratio (y) = -0.24257 0.07197
# Poissons Ratio (z) = 0.04715 0.03017
#
# Static dielectric constant tensor:
#      x y z
#    x 2.039500 0.110840 0.139110 
#    y 0.110840 2.245040 -0.225320 
#    z 0.139110 -0.225320 2.090550 
# 
# From -- ./inp_files/91609.got.cif
#   From: 2010.05.17/outbox.cif.g08.bks.cpg/sg2_46_cif.got.tgz:91609.got - 2010.06.03 11:33:40.
