data_PCOD9110456
_publ_section_title
;
Structure prediction by ZEFSAII (Michael W. Deem and Ramdas Pophale) SiO2 
 PCOD9110456
Probable space group: P -1
;
_chemical_formula_sum "Si O2"
_cell_formula_units_Z 15
_cell_length_a 6.679853
_cell_length_b 17.989397
_cell_length_c 8.234565
_cell_angle_alpha 86.211260
_cell_angle_beta 76.207233
_cell_angle_gamma 47.203234
_cell_volume 698.726502
_symmetry_space_group_name_H-M "P -1"
_symmetry_group_IT_number 2
_symmetry_cell_setting 'triclinic'
loop_
_space_group_symop_operation_xyz
x,y,z
-x,-y,-z
loop_
_atom_site_type_symbol
_atom_site_label
_atom_site_fract_x
_atom_site_fract_y
_atom_site_fract_z
Si Si1 0.951857 0.485210 0.828364
Si Si2 0.947394 0.072293 0.765681
Si Si3 0.500000 0.000000 0.500000
Si Si4 0.411510 0.705496 0.318930
Si Si5 0.173097 0.058886 0.078238
Si Si6 0.363392 0.557680 0.261598
Si Si7 0.041768 0.609920 0.650686
Si Si8 0.046359 0.204389 0.340844
O O1 0.729756 0.474277 0.856631
O O2 0.253259 0.380746 0.721008
O O3 0.870033 0.577601 0.724675
O O4 0.000000 0.500000 0.000000
O O5 0.699692 0.188585 0.739018
O O6 0.220558 0.020431 0.610500
O O7 0.853719 0.009658 0.799846
O O8 0.036299 0.075262 0.929326
O O9 0.287849 0.106775 0.418093
O O10 0.328470 0.654966 0.228979
O O11 0.248876 0.728644 0.514441
O O12 0.031175 0.162033 0.184878
O O13 0.500000 0.000000 0.000000
O O14 0.159821 0.586168 0.448893
O O15 0.679311 0.465770 0.278802
O O16 0.888508 0.724738 0.705303
#
# Coordination Sequence:
#
# PCOD9110456 Si02
#       8
#     2   2   1   2   2   2   2   2
#     4  11  23  38  60  95 126 162 207 261 321 387
#     4  10  23  42  63  92 133 168 215 269 317 385
#     4  10  20  42  62  90 126 164 218 260 314 374
#     4   9  22  41  59  91 124 162 215 256 321 383
#     4  11  23  42  63  92 128 170 216 268 325 375
#     4   9  19  40  62  86 121 159 204 264 307 384
#     4   9  20  39  61  86 121 159 210 252 319 378
#     4  10  21  41  63  89 123 165 210 266 316 379
#
# _framework density 21.467628999999999
#
# number of rings (size 3 to 8) (size 9 to 14) (size 15 to 20)
#    0.000    2.133    1.333    1.200    0.000    8.533 
#   12.000    0.000    0.000    0.000    0.000    0.000 
#    0.000    0.000    0.000    0.000    0.000    0.000 
#
# Total GULP energy -83566.928566 kJ/mol
# GULP energy per Si atom -5571.128571 kJ/mol
# Density = 2.141877 g / cm^3
# Si number density = 21.467629 Si / 1000 Ang^3
#
#
#
# Elastic Constant Matrix: (Units=GPa)
#
#
# Indices 1 2 3 4 5 6 
#
# 1 110.6782 33.6011 32.2500 12.2628 -14.0328 16.5283
# 2 33.6011 61.6088 20.4601 5.4485 -17.6071 11.1410
# 3 32.2500 20.4601 41.3843 7.9434 -8.6300 6.6128
# 4 12.2628 5.4485 7.9434 24.2489 10.4356 -4.9001
# 5 -14.0328 -17.6071 -8.6300 10.4356 35.9177 -6.6833
# 6 16.5283 11.1410 6.6128 -4.9001 -6.6833 29.0167
#
#
#
# Elastic Compliance Matrix: (Units=1/GPa)
#
#
# Indices 1 2 3 4 5 6 
#
# 1 0.013799 -0.002771 -0.006441 -0.006870 0.003421 -0.005701
# 2 -0.002771 0.024283 -0.005119 -0.008193 0.010960 -0.005438
# 3 -0.006441 -0.005119 0.035380 -0.010309 0.005949 -0.002799
# 4 -0.006870 -0.008193 -0.010309 0.063588 -0.024974 0.014394
# 5 0.003421 0.010960 0.005949 -0.024974 0.042892 -0.001851
# 6 -0.005701 -0.005438 -0.002799 0.014394 -0.001851 0.042440
#
#
# Mechanical properties :
#
#
# Convention : Reuss Voigt Hill
#
# Bulk Modulus (GPa) = 22.32074 42.92152 32.62113
# Shear Modulus (GPa) = 18.79861 26.32732 22.56296
#
# Velocity S-wave (km/s) = 2.96239 3.50576 3.24547
# Velocity P-wave (km/s) = 4.70329 6.03524 5.41041
#
# Compressibility (1/GPa) = 0.04480137
#
# Stress axis : x y z
#
# Youngs Moduli (GPa) = 72.46650 41.18136 28.26435
#
# Poissons Ratio (x) = 0.11412 0.18204
# Poissons Ratio (y) = 0.20082 0.14468
# Poissons Ratio (z) = 0.46674 0.21080
#
# Static dielectric constant tensor:
#      x y z
#    x 1.775230 0.023490 0.002010 
#    y 0.023490 1.748440 0.008880 
#    z 0.002010 0.008880 1.818090 
# 
# From -- ./inp_files/105289.got.cif
#   From: 2010.05.17/outbox.cif.g08.bks.cpg/sg2_53_cif.got.tgz:105289.got - 2010.06.03 11:33:40.
