data_PCOD9110280
_publ_section_title
;
Structure prediction by ZEFSAII (Michael W. Deem and Ramdas Pophale) SiO2 
 PCOD9110280
Probable space group: P -1
;
_chemical_formula_sum "Si O2"
_cell_formula_units_Z 14
_cell_length_a 8.276627
_cell_length_b 22.718558
_cell_length_c 8.438762
_cell_angle_alpha 31.976235
_cell_angle_beta 53.152684
_cell_angle_gamma 41.617284
_cell_volume 555.398443
_symmetry_space_group_name_H-M "P -1"
_symmetry_group_IT_number 2
_symmetry_cell_setting 'triclinic'
loop_
_space_group_symop_operation_xyz
x,y,z
-x,-y,-z
loop_
_atom_site_type_symbol
_atom_site_label
_atom_site_fract_x
_atom_site_fract_y
_atom_site_fract_z
Si Si1 0.265942 0.324875 0.344630
Si Si2 0.817713 0.182911 0.839632
Si Si3 0.152663 0.134372 0.275403
Si Si4 0.584130 0.470639 0.202944
Si Si5 0.752664 0.092360 0.755145
Si Si6 0.924351 0.422142 0.604714
Si Si7 0.539475 0.841703 0.686148
O O1 0.484074 0.196857 0.608283
O O2 0.023676 0.406629 0.405733
O O3 0.280056 0.260628 0.316520
O O4 0.338407 0.429514 0.036880
O O5 0.776859 0.314964 0.485095
O O6 0.748989 0.118787 0.884309
O O7 0.628631 0.205717 0.035767
O O8 0.095728 0.068917 0.986310
O O9 0.302531 0.145672 0.302929
O O10 0.932713 0.127237 0.488362
O O11 0.341006 0.994148 0.395884
O O12 0.044580 0.269104 0.935257
O O13 0.359387 0.505573 0.365829
O O14 0.500000 0.500000 0.000000
O O15 0.000000 0.500000 0.500000
#
# Coordination Sequence:
#
# PCOD9110280 Si02
#       7
#     2   2   2   2   2   2   2
#     4  12  25  43  72 108 141 176 237 296 337 411
#     4  10  21  41  68  97 137 187 228 280 348 416
#     4  10  21  43  68  95 138 191 229 281 353 418
#     4  12  22  44  72 103 137 187 233 282 347 423
#     4  10  20  41  72 102 129 186 239 283 340 415
#     4  12  23  41  74 100 139 190 233 275 353 421
#     4  10  24  43  66 101 143 179 235 293 345 407
#
# _framework density 25.207129999999999
#
# number of rings (size 3 to 8) (size 9 to 14) (size 15 to 20)
#    0.000    1.143    4.286    1.714    0.000    4.571 
#    2.571    2.857    0.000    0.000    0.000    0.000 
#    0.000    0.000    0.000    0.000    0.000    0.000 
#
# Total GULP energy -78505.828085 kJ/mol
# GULP energy per Si atom -5607.559149 kJ/mol
# Density = 2.514976 g / cm^3
# Si number density = 25.207130 Si / 1000 Ang^3
#
#
#
# Elastic Constant Matrix: (Units=GPa)
#
#
# Indices 1 2 3 4 5 6 
#
# 1 45.6438 45.4160 36.9616 -1.9640 6.6924 -1.4250
# 2 45.4160 188.5154 58.0690 13.0596 -11.6822 3.8854
# 3 36.9616 58.0690 152.7445 -35.8007 -3.6487 -8.1088
# 4 -1.9640 13.0596 -35.8007 40.0698 -11.4731 -1.6435
# 5 6.6924 -11.6822 -3.6487 -11.4731 23.5137 -8.9728
# 6 -1.4250 3.8854 -8.1088 -1.6435 -8.9728 40.0845
#
#
#
# Elastic Compliance Matrix: (Units=1/GPa)
#
#
# Indices 1 2 3 4 5 6 
#
# 1 0.041175 -0.006881 -0.011579 -0.013871 -0.026242 -0.006654
# 2 -0.006881 0.008243 -0.002473 -0.004374 0.003147 -0.001019
# 3 -0.011579 -0.002473 0.015614 0.019304 0.016785 0.007535
# 4 -0.013871 -0.004374 0.019304 0.053998 0.036548 0.014231
# 5 -0.026242 0.003147 0.016785 0.036548 0.080248 0.021619
# 6 -0.006654 -0.001019 0.007535 0.014231 0.021619 0.031757
#
#
# Mechanical properties :
#
#
# Convention : Reuss Voigt Hill
#
# Bulk Modulus (GPa) = 43.16492 74.19966 58.68229
# Shear Modulus (GPa) = 17.81750 37.16406 27.49078
#
# Velocity S-wave (km/s) = 2.66154 3.84389 3.30600
# Velocity P-wave (km/s) = 5.15813 7.01431 6.15657
#
# Compressibility (1/GPa) = 0.02316696
#
# Stress axis : x y z
#
# Youngs Moduli (GPa) = 24.28662 121.31450 64.04370
#
# Poissons Ratio (x) = 0.83477 0.74156
# Poissons Ratio (y) = 0.16712 0.15836
# Poissons Ratio (z) = 0.28121 0.29997
#
# Static dielectric constant tensor:
#      x y z
#    x 1.984130 -0.090370 0.070060 
#    y -0.090370 1.901790 0.069940 
#    z 0.070060 0.069940 1.927860 
# 
# From -- ./inp_files/225788.got.cif
#   From: 2010.05.17/outbox.cif.g08.bks.cpg/sg2_113_cif.got.tgz:225788.got - 2010.06.03 11:33:40.
