data_PCOD9110644
_publ_section_title
;
Structure prediction by ZEFSAII (Michael W. Deem and Ramdas Pophale) SiO2 
 PCOD9110644
Probable space group: P -1
;
_chemical_formula_sum "Si O2"
_cell_formula_units_Z 15
_cell_length_a 9.286343
_cell_length_b 11.333391
_cell_length_c 17.822437
_cell_angle_alpha 149.411606
_cell_angle_beta 40.674873
_cell_angle_gamma 135.480125
_cell_volume 611.802793
_symmetry_space_group_name_H-M "P -1"
_symmetry_group_IT_number 2
_symmetry_cell_setting 'triclinic'
loop_
_space_group_symop_operation_xyz
x,y,z
-x,-y,-z
loop_
_atom_site_type_symbol
_atom_site_label
_atom_site_fract_x
_atom_site_fract_y
_atom_site_fract_z
Si Si1 0.589663 0.473208 0.535072
Si Si2 0.766731 0.665769 0.274482
Si Si3 0.650599 0.379686 0.697440
Si Si4 0.450192 0.237068 0.840966
Si Si5 0.000000 0.500000 0.500000
Si Si6 0.814533 0.001079 0.771553
Si Si7 0.618374 0.884422 0.040160
Si Si8 0.059422 0.812269 0.026374
O O1 0.500000 0.500000 0.500000
O O2 0.374414 0.352299 0.602791
O O3 0.804409 0.388735 0.445923
O O4 0.677563 0.748516 0.668645
O O5 0.583892 0.658392 0.276440
O O6 0.877205 0.430086 0.102309
O O7 0.972304 0.880543 0.295949
O O8 0.614372 0.215627 0.695510
O O9 0.837314 0.363071 0.553425
O O10 0.705801 0.643609 0.855367
O O11 0.440130 0.072615 0.827039
O O12 0.500000 0.500000 0.000000
O O13 0.200681 0.216456 0.899021
O O14 0.620193 0.155581 0.928712
O O15 0.878086 0.987064 0.825644
O O16 0.796384 0.097661 0.053988
#
# Coordination Sequence:
#
# PCOD9110644 Si02
#       8
#     2   2   2   2   1   2   2   2
#     4  11  27  49  68 100 140 184 242 287 339 420
#     4  11  21  40  72 100 135 179 225 287 349 413
#     4  10  20  42  64  98 139 180 232 277 343 421
#     4  10  22  36  57  99 144 177 217 281 347 416
#     4  10  24  46  76  90 134 200 226 286 346 402
#     4  12  23  42  71 103 132 180 226 286 359 409
#     4  11  22  37  64 106 138 173 220 284 361 411
#     4  12  20  38  67 101 141 172 221 283 353 426
#
# _framework density 24.517703999999998
#
# number of rings (size 3 to 8) (size 9 to 14) (size 15 to 20)
#    0.000    1.067    4.000    4.400    0.000    3.733 
#    4.800    2.667    0.000    0.000    0.000    0.000 
#    0.000    0.000    0.000    0.000    0.000    0.000 
#
# Total GULP energy -83539.242644 kJ/mol
# GULP energy per Si atom -5569.282843 kJ/mol
# Density = 2.446190 g / cm^3
# Si number density = 24.517704 Si / 1000 Ang^3
#
#
#
# Elastic Constant Matrix: (Units=GPa)
#
#
# Indices 1 2 3 4 5 6 
#
# 1 92.1150 15.6249 17.1636 -3.3681 25.5366 -13.2491
# 2 15.6249 140.6449 46.1551 -48.0363 11.5031 -33.5793
# 3 17.1636 46.1551 47.4382 -18.3134 7.0772 -13.7238
# 4 -3.3681 -48.0363 -18.3134 40.5113 -6.2231 9.5810
# 5 25.5366 11.5031 7.0772 -6.2231 35.7095 -14.7129
# 6 -13.2491 -33.5793 -13.7238 9.5810 -14.7129 46.0955
#
#
#
# Elastic Compliance Matrix: (Units=1/GPa)
#
#
# Indices 1 2 3 4 5 6 
#
# 1 0.014343 -0.000165 -0.004548 -0.002571 -0.009717 0.000081
# 2 -0.000165 0.016227 -0.008611 0.013991 0.001879 0.006901
# 3 -0.004548 -0.008611 0.033036 0.004082 0.000887 0.001690
# 4 -0.002571 0.013991 0.004082 0.042917 0.005437 0.003484
# 5 -0.009717 0.001879 0.000887 0.005437 0.039350 0.010270
# 6 0.000081 0.006901 0.001690 0.003484 0.010270 0.029802
#
#
# Mechanical properties :
#
#
# Convention : Reuss Voigt Hill
#
# Bulk Modulus (GPa) = 27.05776 48.67614 37.86695
# Shear Modulus (GPa) = 23.29448 37.88023 30.58736
#
# Velocity S-wave (km/s) = 3.08573 3.93493 3.53592
# Velocity P-wave (km/s) = 4.87397 6.36722 5.66997
#
# Compressibility (1/GPa) = 0.03695798
#
# Stress axis : x y z
#
# Youngs Moduli (GPa) = 69.72090 61.62632 30.26976
#
# Poissons Ratio (x) = 0.01015 0.13768
# Poissons Ratio (y) = 0.01148 0.26065
# Poissons Ratio (z) = 0.31712 0.53066
#
# Static dielectric constant tensor:
#      x y z
#    x 2.136130 -0.100850 -0.058930 
#    y -0.100850 1.934120 0.084840 
#    z -0.058930 0.084840 2.049200 
# 
# From -- ./inp_files/256589.got.cif
#   From: 2010.05.17/outbox.cif.g08.bks.cpg/sg2_129_cif.got.tgz:256589.got - 2010.06.03 11:33:40.
