data_PCOD9110150
_publ_section_title
;
Structure prediction by ZEFSAII (Michael W. Deem and Ramdas Pophale) SiO2 
 PCOD9110150
Probable space group: P -1
;
_chemical_formula_sum "Si O2"
_cell_formula_units_Z 16
_cell_length_a 24.793691
_cell_length_b 5.085095
_cell_length_c 15.431502
_cell_angle_alpha 78.888507
_cell_angle_beta 160.209421
_cell_angle_gamma 95.520841
_cell_volume 624.812090
_symmetry_space_group_name_H-M "P -1"
_symmetry_group_IT_number 2
_symmetry_cell_setting 'triclinic'
loop_
_space_group_symop_operation_xyz
x,y,z
-x,-y,-z
loop_
_atom_site_type_symbol
_atom_site_label
_atom_site_fract_x
_atom_site_fract_y
_atom_site_fract_z
Si Si1 0.163743 0.918198 0.032563
Si Si2 0.701030 0.560633 0.615883
Si Si3 0.860784 0.277638 0.253569
Si Si4 0.585083 0.110906 0.728447
Si Si5 0.006468 0.471269 0.305813
Si Si6 0.328417 0.027035 0.587896
Si Si7 0.325417 0.479783 0.699645
Si Si8 0.579371 0.649408 0.876628
O O1 0.047876 0.784267 0.804728
O O2 0.087249 0.244339 0.901028
O O3 0.185898 0.729579 0.163301
O O4 0.341877 0.881626 0.256811
O O5 0.594722 0.702914 0.529581
O O6 0.767960 0.782650 0.648392
O O7 0.565342 0.498805 0.349028
O O8 0.943079 0.474636 0.307907
O O9 0.718919 0.203755 0.985079
O O10 0.754577 0.433093 0.163396
O O11 0.000000 0.000000 0.500000
O O12 0.589934 0.810572 0.792643
O O13 0.196933 0.443594 0.580040
O O14 0.341655 0.222006 0.675982
O O15 0.257679 0.774345 0.529361
O O16 0.507444 0.876658 0.826146
O O17 0.500000 0.500000 0.000000
#
# Coordination Sequence:
#
# PCOD9110150 Si02
#       8
#     2   2   2   2   2   2   2   2
#     4  11  23  43  68 103 149 185 227 286 360 410
#     4  10  22  39  72 103 144 191 226 288 350 411
#     4  10  22  43  68 102 146 187 228 290 366 411
#     4   9  20  37  61 104 143 184 236 278 329 441
#     4  11  26  47  69 105 142 179 243 290 342 435
#     4  11  24  47  71 109 138 170 253 292 334 425
#     4  12  27  51  79  96 135 191 239 296 353 409
#     4  10  20  41  70 105 145 180 234 293 340 422
#
# _framework density 25.607699
#
# number of rings (size 3 to 8) (size 9 to 14) (size 15 to 20)
#    0.000    1.500    2.500    1.500    3.500    4.000 
#    6.750    3.750    0.000    0.000    0.000    0.000 
#    0.000    0.000    0.000    0.000    0.000    0.000 
#
# Total GULP energy -89579.283082 kJ/mol
# GULP energy per Si atom -5598.705193 kJ/mol
# Density = 2.554941 g / cm^3
# Si number density = 25.607699 Si / 1000 Ang^3
#
#
#
# Elastic Constant Matrix: (Units=GPa)
#
#
# Indices 1 2 3 4 5 6 
#
# 1 109.8501 28.4874 24.7997 -4.4276 20.3535 1.8487
# 2 28.4874 114.6043 13.8672 -10.3412 7.7529 1.1983
# 3 24.7997 13.8672 61.9913 -7.7114 3.9475 -3.0083
# 4 -4.4276 -10.3412 -7.7114 46.4680 6.1727 -0.0761
# 5 20.3535 7.7529 3.9475 6.1727 25.6726 -4.0279
# 6 1.8487 1.1983 -3.0083 -0.0761 -4.0279 54.0587
#
#
#
# Elastic Compliance Matrix: (Units=1/GPa)
#
#
# Indices 1 2 3 4 5 6 
#
# 1 0.012181 -0.001826 -0.003785 0.001325 -0.009040 -0.001258
# 2 -0.001826 0.009620 -0.001069 0.002033 -0.001836 -0.000344
# 3 -0.003785 -0.001069 0.018234 0.002413 0.000125 0.001181
# 4 0.001325 0.002033 0.002413 0.023531 -0.007772 -0.000502
# 5 -0.009040 -0.001836 0.000125 -0.007772 0.049152 0.004008
# 6 -0.001258 -0.000344 0.001181 -0.000502 0.004008 0.018913
#
#
# Mechanical properties :
#
#
# Convention : Reuss Voigt Hill
#
# Bulk Modulus (GPa) = 37.48639 46.75048 42.11844
# Shear Modulus (GPa) = 32.49271 39.85930 36.17601
#
# Velocity S-wave (km/s) = 3.56598 3.94958 3.76267
# Velocity P-wave (km/s) = 5.62365 6.25259 5.94644
#
# Compressibility (1/GPa) = 0.02667635
#
# Stress axis : x y z
#
# Youngs Moduli (GPa) = 82.09653 103.94988 54.84243
#
# Poissons Ratio (x) = 0.18977 0.20759
# Poissons Ratio (y) = 0.14987 0.05860
# Poissons Ratio (z) = 0.31075 0.11107
#
# Static dielectric constant tensor:
#      x y z
#    x 2.046700 -0.029580 -0.015470 
#    y -0.029580 2.040190 -0.011720 
#    z -0.015470 -0.011720 2.022280 
# 
# From -- ./inp_files/579465.got.cif
#   From: 2010.05.17/outbox.cif.g08.bks.cpg/sg2_290_cif.got.tgz:579465.got - 2010.06.03 11:33:40.
