data_PCOD9110026
_publ_section_title
;
Structure prediction by ZEFSAII (Michael W. Deem and Ramdas Pophale) SiO2 
 PCOD9110026
Probable space group: P -1
;
_chemical_formula_sum "Si O2"
_cell_formula_units_Z 12
_cell_length_a 8.472315
_cell_length_b 8.098768
_cell_length_c 9.121076
_cell_angle_alpha 64.123492
_cell_angle_beta 67.538556
_cell_angle_gamma 59.034870
_cell_volume 472.674328
_symmetry_space_group_name_H-M "P -1"
_symmetry_group_IT_number 2
_symmetry_cell_setting 'triclinic'
loop_
_space_group_symop_operation_xyz
x,y,z
-x,-y,-z
loop_
_atom_site_type_symbol
_atom_site_label
_atom_site_fract_x
_atom_site_fract_y
_atom_site_fract_z
Si Si1 0.898015 0.568443 0.856146
Si Si2 0.422899 0.270101 0.583667
Si Si3 0.760009 0.033677 0.350210
Si Si4 0.822219 0.209322 0.978114
Si Si5 0.921699 0.351051 0.507541
Si Si6 0.525493 0.773241 0.076971
O O1 0.992909 0.674191 0.678434
O O2 0.905690 0.369044 0.854989
O O3 0.681403 0.680595 0.932026
O O4 0.000000 0.500000 0.000000
O O5 0.327599 0.115545 0.631723
O O6 0.299165 0.496498 0.478135
O O7 0.418162 0.297769 0.749575
O O8 0.630958 0.153454 0.486646
O O9 0.972696 0.875939 0.378135
O O10 0.742880 0.205171 0.171279
O O11 0.663392 0.235199 0.908350
O O12 0.000000 0.000000 0.000000
O O13 0.000000 0.500000 0.500000
O O14 0.500000 0.000000 0.000000
#
# Coordination Sequence:
#
# PCOD9110026 Si02
#       6
#     2   2   2   2   2   2
#     4  12  25  46  71 103 140 184 239 290 350 418
#     4  10  20  41  69 101 137 188 226 285 354 422
#     4  10  22  42  70 101 141 181 234 285 355 415
#     4  12  26  46  69 106 141 182 238 294 348 418
#     4  10  21  40  70  99 136 187 227 280 357 413
#     4  12  23  43  72 102 142 184 235 287 353 418
#
# _framework density 25.387456
#
# number of rings (size 3 to 8) (size 9 to 14) (size 15 to 20)
#    0.000    1.000    3.333    4.500    4.667    0.000 
#    3.000    5.833    0.000    0.000    0.000    0.000 
#    0.000    0.000    0.000    0.000    0.000    0.000 
#
# Total GULP energy -67159.569733 kJ/mol
# GULP energy per Si atom -5596.630811 kJ/mol
# Density = 2.532967 g / cm^3
# Si number density = 25.387456 Si / 1000 Ang^3
#
#
#
# Elastic Constant Matrix: (Units=GPa)
#
#
# Indices 1 2 3 4 5 6 
#
# 1 64.2303 25.1355 -1.1873 -7.5807 10.0163 -11.3067
# 2 25.1355 118.5103 28.5820 7.2648 -0.4449 -30.5866
# 3 -1.1873 28.5820 122.9174 -5.4041 4.6099 -7.5402
# 4 -7.5807 7.2648 -5.4041 51.1614 -6.7516 -6.3986
# 5 10.0163 -0.4449 4.6099 -6.7516 36.0721 -2.2715
# 6 -11.3067 -30.5866 -7.5402 -6.3986 -2.2715 44.9610
#
#
#
# Elastic Compliance Matrix: (Units=1/GPa)
#
#
# Indices 1 2 3 4 5 6 
#
# 1 0.018672 -0.003897 0.001557 0.003183 -0.004677 0.002522
# 2 -0.003897 0.011602 -0.002472 -0.001469 0.001668 0.006373
# 3 0.001557 -0.002472 0.008855 0.001384 -0.001315 0.000326
# 4 0.003183 -0.001469 0.001384 0.021180 0.003087 0.003204
# 5 -0.004677 0.001668 -0.001315 0.003087 0.029894 0.001687
# 6 0.002522 0.006373 0.000326 0.003204 0.001687 0.027807
#
#
# Mechanical properties :
#
#
# Convention : Reuss Voigt Hill
#
# Bulk Modulus (GPa) = 33.89305 45.63538 39.76422
# Shear Modulus (GPa) = 36.37148 43.31408 39.84278
#
# Velocity S-wave (km/s) = 3.78915 4.13500 3.96585
# Velocity P-wave (km/s) = 5.70288 6.38845 6.05537
#
# Compressibility (1/GPa) = 0.02950458
#
# Stress axis : x y z
#
# Youngs Moduli (GPa) = 53.55642 86.19178 112.92467
#
# Poissons Ratio (x) = 0.33593 -0.17579
# Poissons Ratio (y) = 0.20873 0.27911
# Poissons Ratio (z) = -0.08337 0.21303
#
# Static dielectric constant tensor:
#      x y z
#    x 1.979880 -0.111160 -0.130580 
#    y -0.111160 1.745410 -0.237200 
#    z -0.130580 -0.237200 1.675550 
# 
# From -- ./inp_files/155140.got.cif
#   From: 2010.05.17/outbox.cif.g08.bks.cpg/sg2_78_cif.got.tgz:155140.got - 2010.06.03 11:33:40.
