data_PCOD9110744
_publ_section_title
;
Structure prediction by ZEFSAII (Michael W. Deem and Ramdas Pophale) SiO2 
 PCOD9110744
Probable space group: P -1
;
_chemical_formula_sum "Si O2"
_cell_formula_units_Z 11
_cell_length_a 4.945717
_cell_length_b 11.794466
_cell_length_c 8.902049
_cell_angle_alpha 54.045072
_cell_angle_beta 89.364529
_cell_angle_gamma 79.384186
_cell_volume 410.061276
_symmetry_space_group_name_H-M "P -1"
_symmetry_group_IT_number 2
_symmetry_cell_setting 'triclinic'
loop_
_space_group_symop_operation_xyz
x,y,z
-x,-y,-z
loop_
_atom_site_type_symbol
_atom_site_label
_atom_site_fract_x
_atom_site_fract_y
_atom_site_fract_z
Si Si1 0.434694 0.629970 0.082333
Si Si2 0.851755 0.322332 0.315844
Si Si3 0.872659 0.362124 0.622575
Si Si4 0.000000 0.500000 0.000000
Si Si5 0.776842 0.932937 0.135898
Si Si6 0.360998 0.909012 0.687837
O O1 0.691215 0.496211 0.138063
O O2 0.363530 0.625693 0.260721
O O3 0.153339 0.609241 0.019204
O O4 0.496301 0.777845 0.904661
O O5 0.136644 0.358365 0.230521
O O6 0.802039 0.181134 0.347936
O O7 0.782258 0.321103 0.490738
O O8 0.129037 0.234816 0.760850
O O9 0.000000 0.500000 0.500000
O O10 0.777920 0.973613 0.279246
O O11 0.500000 0.000000 0.000000
O O12 0.000000 0.000000 0.000000
O O13 0.500000 0.000000 0.500000
#
# Coordination Sequence:
#
# PCOD9110744 Si02
#       6
#     2   2   2   1   2   2
#     4  11  24  47  77 112 160 206 270 336 413 480
#     4  11  26  46  78 116 154 204 273 333 416 476
#     4  12  27  48  81 118 154 214 274 342 410 500
#     4  10  20  42  66 110 152 196 258 328 408 462
#     4  12  31  57  82 117 169 224 272 341 421 495
#     4  11  27  48  78 116 164 219 271 332 412 496
#
# _framework density 26.82526
#
# number of rings (size 3 to 8) (size 9 to 14) (size 15 to 20)
#    0.000    0.727    3.636    2.727    7.636    3.636 
#    0.000    0.000    0.000    0.000    0.000    0.000 
#    0.000    0.000    0.000    0.000    0.000    0.000 
#
# Total GULP energy -61384.751968 kJ/mol
# GULP energy per Si atom -5580.431997 kJ/mol
# Density = 2.676420 g / cm^3
# Si number density = 26.825260 Si / 1000 Ang^3
#
#
#
# Elastic Constant Matrix: (Units=GPa)
#
#
# Indices 1 2 3 4 5 6 
#
# 1 108.3229 55.5511 57.4316 -12.7383 -18.6581 1.3552
# 2 55.5511 183.0880 80.3516 13.3026 -33.4724 -4.2387
# 3 57.4316 80.3516 195.7338 7.4084 -55.1987 -2.6181
# 4 -12.7383 13.3026 7.4084 86.8228 -4.5214 -11.1253
# 5 -18.6581 -33.4724 -55.1987 -4.5214 64.0276 -6.2515
# 6 1.3552 -4.2387 -2.6181 -11.1253 -6.2515 45.3850
#
#
#
# Elastic Compliance Matrix: (Units=1/GPa)
#
#
# Indices 1 2 3 4 5 6 
#
# 1 0.012309 -0.002784 -0.002534 0.002433 0.000103 -0.000163
# 2 -0.002784 0.007464 -0.001756 -0.001247 0.001546 0.000586
# 3 -0.002534 -0.001756 0.008133 -0.000381 0.005429 0.001035
# 4 0.002433 -0.001247 -0.000381 0.012528 0.000905 0.002984
# 5 0.000103 0.001546 0.005429 0.000905 0.021556 0.003645
# 6 -0.000163 0.000586 0.001035 0.002984 0.003645 0.023387
#
#
# Mechanical properties :
#
#
# Convention : Reuss Voigt Hill
#
# Bulk Modulus (GPa) = 72.69157 97.09038 84.89097
# Shear Modulus (GPa) = 48.02549 58.83444 53.42997
#
# Velocity S-wave (km/s) = 4.23579 4.68829 4.46778
# Velocity P-wave (km/s) = 7.14700 8.09809 7.63736
#
# Compressibility (1/GPa) = 0.01375675
#
# Stress axis : x y z
#
# Youngs Moduli (GPa) = 81.24208 133.97311 122.96061
#
# Poissons Ratio (x) = 0.37303 0.31157
# Poissons Ratio (y) = 0.22621 0.21594
# Poissons Ratio (z) = 0.20586 0.23528
#
# Static dielectric constant tensor:
#      x y z
#    x 2.278860 -0.097150 0.036040 
#    y -0.097150 2.124580 0.032570 
#    z 0.036040 0.032570 2.394620 
# 
# From -- ./inp_files/63041.got.cif
#   From: 2010.05.17/outbox.cif.g08.bks.cpg/sg2_32_cif.got.tgz:63041.got - 2010.06.03 11:33:40.
