data_PCOD9110992
_publ_section_title
;
Structure prediction by ZEFSAII (Michael W. Deem and Ramdas Pophale) SiO2 
 PCOD9110992
Probable space group: P -1
;
_chemical_formula_sum "Si O2"
_cell_formula_units_Z 16
_cell_length_a 9.799244
_cell_length_b 17.330060
_cell_length_c 12.229381
_cell_angle_alpha 139.909830
_cell_angle_beta 77.543222
_cell_angle_gamma 133.156879
_cell_volume 737.461591
_symmetry_space_group_name_H-M "P -1"
_symmetry_group_IT_number 2
_symmetry_cell_setting 'triclinic'
loop_
_space_group_symop_operation_xyz
x,y,z
-x,-y,-z
loop_
_atom_site_type_symbol
_atom_site_label
_atom_site_fract_x
_atom_site_fract_y
_atom_site_fract_z
Si Si1 0.044411 0.323970 0.557779
Si Si2 0.005845 0.482667 0.352300
Si Si3 0.808292 0.745836 0.729374
Si Si4 0.993373 0.211640 0.035711
Si Si5 0.394770 0.526887 0.124495
Si Si6 0.420569 0.150249 0.416314
Si Si7 0.794778 0.452852 0.017242
Si Si8 0.490299 0.969597 0.338749
O O1 0.090811 0.241924 0.386561
O O2 0.145757 0.401615 0.747948
O O3 0.124040 0.498977 0.666090
O O4 0.758031 0.149483 0.435856
O O5 0.886610 0.270944 0.117192
O O6 0.292790 0.664271 0.465028
O O7 0.000000 0.500000 0.500000
O O8 0.500000 0.500000 0.500000
O O9 0.874989 0.717042 0.794993
O O10 0.000000 0.000000 0.000000
O O11 0.189343 0.335541 0.037757
O O12 0.756512 0.963969 0.780638
O O13 0.595479 0.741202 0.392394
O O14 0.500000 0.500000 0.000000
O O15 0.285821 0.548701 0.084478
O O16 0.355235 0.986927 0.324260
O O17 0.609629 0.234652 0.875128
O O18 0.000000 0.500000 0.000000
O O19 0.500000 0.000000 0.500000
#
# Coordination Sequence:
#
# PCOD9110992 Si02
#       8
#     2   2   2   2   2   2   2   2
#     4  11  25  42  72 104 141 196 241 303 377 441
#     4  10  20  42  68 104 134 173 235 299 371 429
#     4  12  32  54  75 104 148 203 259 305 360 444
#     4  11  25  46  72  98 143 183 237 307 361 440
#     4  11  26  41  66 102 139 186 239 298 368 442
#     4  10  22  41  66 100 139 181 230 293 373 432
#     4  12  22  41  72 102 146 185 241 307 376 450
#     4  11  20  39  66 107 144 178 236 304 372 446
#
# _framework density 21.696045000000002
#
# number of rings (size 3 to 8) (size 9 to 14) (size 15 to 20)
#    0.000    1.000    3.750    3.000    7.000    1.000 
#    0.000    0.000    0.000    0.000    0.000    0.000 
#    0.000    0.000    0.000    0.000    0.000    0.000 
#
# Total GULP energy -89105.715915 kJ/mol
# GULP energy per Si atom -5569.107245 kJ/mol
# Density = 2.164666 g / cm^3
# Si number density = 21.696045 Si / 1000 Ang^3
#
#
#
# Elastic Constant Matrix: (Units=GPa)
#
#
# Indices 1 2 3 4 5 6 
#
# 1 44.1881 2.9906 27.6441 -2.4016 -13.3677 7.0831
# 2 2.9906 58.5547 20.5676 -22.2332 -18.4564 8.3553
# 3 27.6441 20.5676 146.8206 -24.1793 -8.2511 12.2284
# 4 -2.4016 -22.2332 -24.1793 36.6808 1.2820 -10.5984
# 5 -13.3677 -18.4564 -8.2511 1.2820 32.7592 -13.4206
# 6 7.0831 8.3553 12.2284 -10.5984 -13.4206 30.0814
#
#
#
# Elastic Compliance Matrix: (Units=1/GPa)
#
#
# Indices 1 2 3 4 5 6 
#
# 1 0.029839 0.005069 -0.005404 0.001061 0.013739 0.000266
# 2 0.005069 0.030036 -0.001472 0.018852 0.020731 0.006953
# 3 -0.005404 -0.001472 0.008743 0.004280 -0.001406 -0.000992
# 4 0.001061 0.018852 0.004280 0.045758 0.017114 0.016531
# 5 0.013739 0.020731 -0.001406 0.017114 0.056053 0.022616
# 6 0.000266 0.006953 -0.000992 0.016531 0.022616 0.047567
#
#
# Mechanical properties :
#
#
# Convention : Reuss Voigt Hill
#
# Bulk Modulus (GPa) = 15.38298 39.10757 27.24528
# Shear Modulus (GPa) = 20.55266 33.12834 26.84050
#
# Velocity S-wave (km/s) = 3.08116 3.91183 3.52108
# Velocity P-wave (km/s) = 4.44564 6.20223 5.39589
#
# Compressibility (1/GPa) = 0.06500692
#
# Stress axis : x y z
#
# Youngs Moduli (GPa) = 33.51286 33.29292 114.37567
#
# Poissons Ratio (x) = -0.16877 0.61806
# Poissons Ratio (y) = -0.16989 0.16831
# Poissons Ratio (z) = 0.18110 0.04899
#
# Static dielectric constant tensor:
#      x y z
#    x 1.675080 0.105600 0.104540 
#    y 0.105600 1.639720 -0.075130 
#    z 0.104540 -0.075130 1.736240 
# 
# From -- ./inp_files/403377.got.cif
#   From: 2010.05.17/outbox.cif.g08.bks.cpg/sg2_202_cif.got.tgz:403377.got - 2010.06.03 11:33:40.
