data_PCOD9110567
_publ_section_title
;
Structure prediction by ZEFSAII (Michael W. Deem and Ramdas Pophale) SiO2 
 PCOD9110567
Probable space group: P -1
;
_chemical_formula_sum "Si O2"
_cell_formula_units_Z 16
_cell_length_a 14.577901
_cell_length_b 14.616058
_cell_length_c 13.812034
_cell_angle_alpha 29.230495
_cell_angle_beta 42.638204
_cell_angle_gamma 29.243540
_cell_volume 697.946030
_symmetry_space_group_name_H-M "P -1"
_symmetry_group_IT_number 2
_symmetry_cell_setting 'triclinic'
loop_
_space_group_symop_operation_xyz
x,y,z
-x,-y,-z
loop_
_atom_site_type_symbol
_atom_site_label
_atom_site_fract_x
_atom_site_fract_y
_atom_site_fract_z
Si Si1 0.494469 0.112168 0.226700
Si Si2 0.152934 0.518105 0.972696
Si Si3 0.699609 0.267718 0.862052
Si Si4 0.625756 0.160474 0.468132
Si Si5 0.773494 0.706952 0.089882
Si Si6 0.687199 0.449301 0.899593
Si Si7 0.547227 0.243615 0.667723
Si Si8 0.056177 0.958068 0.752096
O O1 0.338102 0.296950 0.094080
O O2 0.396790 0.274040 0.252870
O O3 0.510585 0.874811 0.428800
O O4 0.668285 0.082635 0.092391
O O5 0.191060 0.429980 0.913881
O O6 0.089025 0.791767 0.788278
O O7 0.976176 0.566194 0.102730
O O8 0.492216 0.539821 0.742536
O O9 0.767313 0.330644 0.841216
O O10 0.840182 0.166801 0.757819
O O11 0.658813 0.128560 0.586541
O O12 0.822841 0.975188 0.428798
O O13 0.658427 0.009732 0.876046
O O14 0.643942 0.690237 0.264825
O O15 0.500000 0.500000 0.000000
O O16 0.837320 0.238983 0.057055
O O17 0.500000 0.500000 0.500000
#
# Coordination Sequence:
#
# PCOD9110567 Si02
#       8
#     2   2   2   2   2   2   2   2
#     4  10  22  42  69  89 134 170 210 268 322 380
#     4  10  20  42  64  89 125 172 214 263 320 374
#     4  11  24  43  68  95 130 171 214 263 323 387
#     4  12  24  42  63 100 129 166 214 269 321 379
#     4  10  23  42  64  88 127 173 219 261 318 392
#     4   9  18  44  69  91 127 178 207 257 329 379
#     4  11  25  40  64  92 130 168 218 268 323 376
#     4  11  23  40  71  93 134 166 215 266 321 380
#
# _framework density 22.924409000000001
#
# number of rings (size 3 to 8) (size 9 to 14) (size 15 to 20)
#    0.000    1.500    5.000    1.125    3.500    1.500 
#    2.250    2.500    0.000    0.000    0.000    0.000 
#    0.000    0.000    0.000    0.000    0.000    0.000 
#
# Total GULP energy -89375.030063 kJ/mol
# GULP energy per Si atom -5585.939379 kJ/mol
# Density = 2.287223 g / cm^3
# Si number density = 22.924409 Si / 1000 Ang^3
#
#
#
# Elastic Constant Matrix: (Units=GPa)
#
#
# Indices 1 2 3 4 5 6 
#
# 1 64.9274 13.8948 20.0784 -3.0522 -17.9933 4.0123
# 2 13.8948 95.4301 31.7140 22.6917 -14.7821 4.2162
# 3 20.0784 31.7140 94.0568 4.5269 -22.9848 8.4701
# 4 -3.0522 22.6917 4.5269 29.9739 0.7745 -9.9611
# 5 -17.9933 -14.7821 -22.9848 0.7745 24.1562 -3.6531
# 6 4.0123 4.2162 8.4701 -9.9611 -3.6531 32.5261
#
#
#
# Elastic Compliance Matrix: (Units=1/GPa)
#
#
# Indices 1 2 3 4 5 6 
#
# 1 0.019650 -0.001272 -0.000718 0.002822 0.013124 0.000266
# 2 -0.001272 0.015850 -0.002518 -0.013462 0.006080 -0.004682
# 3 -0.000718 -0.002518 0.014793 -0.001570 0.011656 -0.002609
# 4 0.002822 -0.013462 -0.001570 0.049654 -0.006763 0.016252
# 5 0.013124 0.006080 0.011656 -0.006763 0.066189 -0.000080
# 6 0.000266 -0.004682 -0.002609 0.016252 -0.000080 0.036966
#
#
# Mechanical properties :
#
#
# Convention : Reuss Voigt Hill
#
# Bulk Modulus (GPa) = 24.22660 42.86541 33.54601
# Shear Modulus (GPa) = 22.13597 29.91304 26.02451
#
# Velocity S-wave (km/s) = 3.11079 3.61620 3.37297
# Velocity P-wave (km/s) = 4.84703 6.01457 5.46208
#
# Compressibility (1/GPa) = 0.04127694
#
# Stress axis : x y z
#
# Youngs Moduli (GPa) = 50.89186 63.08996 67.60016
#
# Poissons Ratio (x) = 0.08026 0.04855
# Poissons Ratio (y) = 0.06474 0.17019
# Poissons Ratio (z) = 0.03655 0.15883
#
# Static dielectric constant tensor:
#      x y z
#    x 1.868940 0.020050 -0.012080 
#    y 0.020050 1.888490 0.003670 
#    z -0.012080 0.003670 1.905640 
# 
# From -- ./inp_files/534103.got.cif
#   From: 2010.05.17/outbox.cif.g08.bks.cpg/sg2_268_cif.got.tgz:534103.got - 2010.06.03 11:33:40.
