data_PCOD9110318
_publ_section_title
;
Structure prediction by ZEFSAII (Michael W. Deem and Ramdas Pophale) SiO2 
 PCOD9110318
Probable space group: P -1
;
_chemical_formula_sum "Si O2"
_cell_formula_units_Z 16
_cell_length_a 6.941347
_cell_length_b 18.690922
_cell_length_c 7.742982
_cell_angle_alpha 123.586151
_cell_angle_beta 99.679295
_cell_angle_gamma 47.861462
_cell_volume 586.086992
_symmetry_space_group_name_H-M "P -1"
_symmetry_group_IT_number 2
_symmetry_cell_setting 'triclinic'
loop_
_space_group_symop_operation_xyz
x,y,z
-x,-y,-z
loop_
_atom_site_type_symbol
_atom_site_label
_atom_site_fract_x
_atom_site_fract_y
_atom_site_fract_z
Si Si1 0.970888 0.374209 0.884619
Si Si2 0.173013 0.232180 0.406621
Si Si3 0.032855 0.391398 0.301337
Si Si4 0.797743 0.956451 0.731879
Si Si5 0.234326 0.843023 0.937149
Si Si6 0.469778 0.614707 0.515929
Si Si7 0.516145 0.365200 0.845303
Si Si8 0.972548 0.107944 0.678997
O O1 0.093189 0.360545 0.068893
O O2 0.766386 0.509980 0.956568
O O3 0.192694 0.277769 0.648687
O O4 0.753679 0.365096 0.885104
O O5 0.211129 0.278148 0.305941
O O6 0.844372 0.316240 0.463211
O O7 0.314083 0.095547 0.263754
O O8 0.703076 0.470344 0.378670
O O9 0.000000 0.500000 0.500000
O O10 0.084242 0.888810 0.788140
O O11 0.847262 0.912108 0.480729
O O12 0.667301 0.091607 0.907415
O O13 0.449009 0.698212 0.762544
O O14 0.001981 0.888523 0.106621
O O15 0.544489 0.629948 0.358854
O O16 0.667486 0.238159 0.778093
O O17 0.000000 0.000000 0.500000
#
# Coordination Sequence:
#
# PCOD9110318 Si02
#       8
#     2   2   2   2   2   2   2   2
#     4   9  19  32  51  67 100 131 162 208 243 292
#     4  10  19  33  56  75  98 131 170 202 249 299
#     4  11  24  36  49  75 103 131 170 209 252 298
#     4   9  17  30  41  77 105 126 162 198 249 300
#     4   9  17  26  48  70 106 134 151 202 253 287
#     4   9  18  34  53  75 103 130 169 204 242 301
#     4   9  16  30  46  76 102 126 162 204 246 290
#     4  10  17  25  42  72 110 131 150 198 255 295
#
# _framework density 27.299700999999999
#
# number of rings (size 3 to 8) (size 9 to 14) (size 15 to 20)
#    0.000    2.500    3.750    1.125    5.250    0.500 
#    0.000    0.000    0.000    0.750    0.000    0.875 
#    0.000    0.000    0.000    0.000    0.000    0.000 
#
# Total GULP energy -89365.235749 kJ/mol
# GULP energy per Si atom -5585.327234 kJ/mol
# Density = 2.723757 g / cm^3
# Si number density = 27.299701 Si / 1000 Ang^3
#
#
#
# Elastic Constant Matrix: (Units=GPa)
#
#
# Indices 1 2 3 4 5 6 
#
# 1 68.5020 16.3089 19.1893 -4.2623 4.7011 2.2956
# 2 16.3089 121.7392 56.7611 5.6697 1.5447 20.8496
# 3 19.1893 56.7611 184.6068 -3.8739 -11.2052 6.2049
# 4 -4.2623 5.6697 -3.8739 47.4164 -3.9369 -5.4442
# 5 4.7011 1.5447 -11.2052 -3.9369 26.5046 -3.3432
# 6 2.2956 20.8496 6.2049 -5.4442 -3.3432 26.0500
#
#
#
# Elastic Compliance Matrix: (Units=1/GPa)
#
#
# Indices 1 2 3 4 5 6 
#
# 1 0.015610 -0.001491 -0.001324 0.001218 -0.003061 -0.000005
# 2 -0.001491 0.011885 -0.003460 -0.003250 -0.003597 -0.009698
# 3 -0.001324 -0.003460 0.006809 0.001399 0.003780 0.002042
# 4 0.001218 -0.003250 0.001399 0.022984 0.004937 0.007598
# 5 -0.003061 -0.003597 0.003780 0.004937 0.041906 0.008658
# 6 -0.000005 -0.009698 0.002042 0.007598 0.008658 0.048363
#
#
# Mechanical properties :
#
#
# Convention : Reuss Voigt Hill
#
# Bulk Modulus (GPa) = 45.96904 62.15184 54.06044
# Shear Modulus (GPa) = 29.87610 38.83344 34.35477
#
# Velocity S-wave (km/s) = 3.31172 3.77568 3.55128
# Velocity P-wave (km/s) = 5.61236 6.46711 6.05484
#
# Compressibility (1/GPa) = 0.02175377
#
# Stress axis : x y z
#
# Youngs Moduli (GPa) = 64.06104 84.13924 146.87320
#
# Poissons Ratio (x) = 0.12543 0.19451
# Poissons Ratio (y) = 0.09550 0.50817
# Poissons Ratio (z) = 0.08484 0.29111
#
# Static dielectric constant tensor:
#      x y z
#    x 2.370390 0.021710 0.041830 
#    y 0.021710 2.230640 0.007650 
#    z 0.041830 0.007650 2.130970 
# 
# From -- ./inp_files/215905.got.cif
#   From: 2010.05.17/outbox.cif.g08.bks.cpg/sg2_108_cif.got.tgz:215905.got - 2010.06.03 11:33:40.
