data_PCOD9110507
_publ_section_title
;
Structure prediction by ZEFSAII (Michael W. Deem and Ramdas Pophale) SiO2 
 PCOD9110507
Probable space group: P -1
;
_chemical_formula_sum "Si O2"
_cell_formula_units_Z 14
_cell_length_a 7.960335
_cell_length_b 8.254156
_cell_length_c 12.764013
_cell_angle_alpha 99.569083
_cell_angle_beta 72.225025
_cell_angle_gamma 52.204127
_cell_volume 557.183869
_symmetry_space_group_name_H-M "P -1"
_symmetry_group_IT_number 2
_symmetry_cell_setting 'triclinic'
loop_
_space_group_symop_operation_xyz
x,y,z
-x,-y,-z
loop_
_atom_site_type_symbol
_atom_site_label
_atom_site_fract_x
_atom_site_fract_y
_atom_site_fract_z
Si Si1 0.695062 0.249543 0.693938
Si Si2 0.413950 0.195355 0.146202
Si Si3 0.867765 0.740287 0.001990
Si Si4 0.134835 0.156936 0.510914
Si Si5 0.701927 0.222436 0.927036
Si Si6 0.192765 0.725431 0.799563
Si Si7 0.922208 0.463791 0.380556
O O1 0.660710 0.197216 0.810707
O O2 0.488258 0.524741 0.736705
O O3 0.958687 0.170661 0.625543
O O4 0.690202 0.099841 0.598907
O O5 0.258402 0.221444 0.081213
O O6 0.190398 0.366450 0.286751
O O7 0.597465 0.190477 0.042845
O O8 0.629128 0.950524 0.136695
O O9 0.085950 0.720606 0.927755
O O10 0.000000 0.500000 0.000000
O O11 0.965317 0.331599 0.463550
O O12 0.237815 0.263740 0.545460
O O13 0.500000 0.500000 0.000000
O O14 0.005828 0.002267 0.848030
O O15 0.152621 0.619249 0.702191
#
# Coordination Sequence:
#
# PCOD9110507 Si02
#       7
#     2   2   2   2   2   2   2
#     4  11  23  42  64  92 126 166 211 253 315 368
#     4   9  19  33  57  84 115 150 196 243 303 366
#     4   9  17  30  54  86 114 148 187 248 307 355
#     4  10  23  40  65  87 125 174 207 256 307 367
#     4  11  22  40  63  91 129 164 197 259 322 376
#     4  10  22  37  65  94 122 159 214 255 308 375
#     4  10  20  42  63  90 123 164 211 255 312 358
#
# _framework density 25.126353999999999
#
# number of rings (size 3 to 8) (size 9 to 14) (size 15 to 20)
#    0.000    2.000    1.429    2.571    2.000    1.714 
#    0.000    1.429    3.143    0.000    0.000    0.000 
#    0.000    0.000    0.000    0.000    0.000    0.000 
#
# Total GULP energy -77940.307791 kJ/mol
# GULP energy per Si atom -5567.164842 kJ/mol
# Density = 2.506917 g / cm^3
# Si number density = 25.126354 Si / 1000 Ang^3
#
#
#
# Elastic Constant Matrix: (Units=GPa)
#
#
# Indices 1 2 3 4 5 6 
#
# 1 60.0176 7.5677 22.0122 -2.0368 13.8619 -0.5802
# 2 7.5677 129.7859 35.4151 29.8457 -3.7013 -5.7568
# 3 22.0122 35.4151 115.1696 11.9486 11.2608 -2.0052
# 4 -2.0368 29.8457 11.9486 43.5805 8.3751 -8.5717
# 5 13.8619 -3.7013 11.2608 8.3751 37.1904 7.9085
# 6 -0.5802 -5.7568 -2.0052 -8.5717 7.9085 30.7566
#
#
#
# Elastic Compliance Matrix: (Units=1/GPa)
#
#
# Indices 1 2 3 4 5 6 
#
# 1 0.020201 -0.001673 -0.002977 0.005297 -0.008753 0.003601
# 2 -0.001673 0.010295 -0.002520 -0.007593 0.004446 -0.001528
# 3 -0.002977 -0.002520 0.010327 -0.000718 -0.002216 0.000515
# 4 0.005297 -0.007593 -0.000718 0.033128 -0.012319 0.011032
# 5 -0.008753 0.004446 -0.002216 -0.012319 0.036662 -0.012337
# 6 0.003601 -0.001528 0.000515 0.011032 -0.012337 0.038576
#
#
# Mechanical properties :
#
#
# Convention : Reuss Voigt Hill
#
# Bulk Modulus (GPa) = 37.76121 48.32922 43.04521
# Shear Modulus (GPa) = 29.00964 38.30404 33.65684
#
# Velocity S-wave (km/s) = 3.40155 3.90867 3.66389
# Velocity P-wave (km/s) = 5.52165 6.29654 5.92178
#
# Compressibility (1/GPa) = 0.02648220
#
# Stress axis : x y z
#
# Youngs Moduli (GPa) = 49.50253 97.13262 96.83567
#
# Poissons Ratio (x) = 0.16254 0.28832
# Poissons Ratio (y) = 0.08284 0.24398
# Poissons Ratio (z) = 0.14739 0.24473
#
# Static dielectric constant tensor:
#      x y z
#    x 2.067760 0.020420 0.051660 
#    y 0.020420 2.127070 0.104550 
#    z 0.051660 0.104550 2.016140 
# 
# From -- ./inp_files/495173.got.cif
#   From: 2010.05.17/outbox.cif.g08.bks.cpg/sg2_248_cif.got.tgz:495173.got - 2010.06.03 11:33:40.
