data_PCOD9110545
_publ_section_title
;
Structure prediction by ZEFSAII (Michael W. Deem and Ramdas Pophale) SiO2 
 PCOD9110545
Probable space group: P -1
;
_chemical_formula_sum "Si O2"
_cell_formula_units_Z 11
_cell_length_a 5.040693
_cell_length_b 8.656916
_cell_length_c 11.069419
_cell_angle_alpha 121.303902
_cell_angle_beta 100.584177
_cell_angle_gamma 98.639940
_cell_volume 387.952326
_symmetry_space_group_name_H-M "P -1"
_symmetry_group_IT_number 2
_symmetry_cell_setting 'triclinic'
loop_
_space_group_symop_operation_xyz
x,y,z
-x,-y,-z
loop_
_atom_site_type_symbol
_atom_site_label
_atom_site_fract_x
_atom_site_fract_y
_atom_site_fract_z
Si Si1 0.320268 0.835444 0.281107
Si Si2 0.500000 0.000000 0.000000
Si Si3 0.637971 0.603461 0.341527
Si Si4 0.085581 0.903845 0.646802
Si Si5 0.780884 0.371694 0.052519
Si Si6 0.194772 0.240435 0.196095
O O1 0.436154 0.736548 0.360065
O O2 0.085177 0.941905 0.323316
O O3 0.219304 0.668660 0.105363
O O4 0.598249 0.996770 0.324830
O O5 0.523734 0.198413 0.011013
O O6 0.286798 0.056778 0.101150
O O7 0.913870 0.721454 0.483211
O O8 0.726127 0.545648 0.192233
O O9 0.469893 0.412974 0.321641
O O10 0.055669 0.834626 0.756051
O O11 0.051687 0.332242 0.119084
#
# Coordination Sequence:
#
# PCOD9110545 Si02
#       6
#     2   1   2   2   2   2
#     4  12  28  48  76 105 149 196 240 294 364 435
#     4  10  20  42  64 114 132 194 226 308 346 434
#     4  11  28  47  71 109 147 191 239 304 359 429
#     4  12  28  49  76 105 148 195 244 292 364 436
#     4  11  24  42  75 104 146 181 248 293 363 420
#     4  11  25  43  79 105 147 183 250 299 365 419
#
# _framework density 28.353998000000001
#
# number of rings (size 3 to 8) (size 9 to 14) (size 15 to 20)
#    0.000    0.727    1.818    3.818   12.727    1.455 
#    0.000    0.000    0.000    0.000    0.000    0.000 
#    0.000    0.000    0.000    0.000    0.000    0.000 
#
# Total GULP energy -61566.882811 kJ/mol
# GULP energy per Si atom -5596.989346 kJ/mol
# Density = 2.828946 g / cm^3
# Si number density = 28.353998 Si / 1000 Ang^3
#
#
#
# Elastic Constant Matrix: (Units=GPa)
#
#
# Indices 1 2 3 4 5 6 
#
# 1 144.3320 23.1638 34.3146 17.1708 -10.6154 -9.2951
# 2 23.1638 100.8989 24.8735 23.8297 -0.9822 2.2656
# 3 34.3146 24.8735 136.7839 25.1601 0.6462 2.6074
# 4 17.1708 23.8297 25.1601 37.5599 11.6132 16.1458
# 5 -10.6154 -0.9822 0.6462 11.6132 44.9473 8.1004
# 6 -9.2951 2.2656 2.6074 16.1458 8.1004 54.6512
#
#
#
# Elastic Compliance Matrix: (Units=1/GPa)
#
#
# Indices 1 2 3 4 5 6 
#
# 1 0.008178 -0.000566 -0.001193 -0.004425 0.002650 0.002386
# 2 -0.000566 0.012143 -0.000565 -0.008380 0.002016 0.001604
# 3 -0.001193 -0.000565 0.008722 -0.005606 0.000861 0.000933
# 4 -0.004425 -0.008380 -0.005606 0.046345 -0.010921 -0.012211
# 5 0.002650 0.002016 0.000861 -0.010921 0.025776 -0.000268
# 6 0.002386 0.001604 0.000933 -0.012211 -0.000268 0.022240
#
#
# Mechanical properties :
#
#
# Convention : Reuss Voigt Hill
#
# Bulk Modulus (GPa) = 40.99076 60.74650 50.86863
# Shear Modulus (GPa) = 36.71543 47.40919 42.06231
#
# Velocity S-wave (km/s) = 3.60237 4.09350 3.85576
# Velocity P-wave (km/s) = 5.63834 6.61915 6.14834
#
# Compressibility (1/GPa) = 0.02439574
#
# Stress axis : x y z
#
# Youngs Moduli (GPa) = 122.28121 82.35356 114.65145
#
# Poissons Ratio (x) = 0.04661 0.13673
# Poissons Ratio (y) = 0.06921 0.06476
# Poissons Ratio (z) = 0.14583 0.04652
#
# Static dielectric constant tensor:
#      x y z
#    x 2.021910 0.120610 -0.102130 
#    y 0.120610 2.160390 -0.081330 
#    z -0.102130 -0.081330 2.219490 
# 
# From -- ./inp_files/17413.got.cif
#   From: 2010.05.17/outbox.cif.g08.bks.cpg/sg2_9_cif.got.tgz:17413.got - 2010.06.03 11:33:40.
