data_PCOD9110753
_publ_section_title
;
Structure prediction by ZEFSAII (Michael W. Deem and Ramdas Pophale) SiO2 
 PCOD9110753
Probable space group: P -1
;
_chemical_formula_sum "Si O2"
_cell_formula_units_Z 14
_cell_length_a 8.868142
_cell_length_b 9.414574
_cell_length_c 21.600669
_cell_angle_alpha 43.174396
_cell_angle_beta 146.895619
_cell_angle_gamma 124.119986
_cell_volume 667.888833
_symmetry_space_group_name_H-M "P -1"
_symmetry_group_IT_number 2
_symmetry_cell_setting 'triclinic'
loop_
_space_group_symop_operation_xyz
x,y,z
-x,-y,-z
loop_
_atom_site_type_symbol
_atom_site_label
_atom_site_fract_x
_atom_site_fract_y
_atom_site_fract_z
Si Si1 0.919110 0.184220 0.460890
Si Si2 0.961188 0.803345 0.006366
Si Si3 0.001096 0.592277 0.401049
Si Si4 0.168806 0.588540 0.847626
Si Si5 0.821777 0.017434 0.614364
Si Si6 0.470066 0.638923 0.820902
Si Si7 0.559057 0.219719 0.921217
O O1 0.087518 0.384462 0.456011
O O2 0.609455 0.272846 0.302431
O O3 0.926194 0.096328 0.559724
O O4 0.000000 0.000000 0.500000
O O5 0.175955 0.803604 0.024404
O O6 0.996997 0.596944 0.127917
O O7 0.665228 0.782292 0.878112
O O8 0.000000 0.000000 0.000000
O O9 0.699896 0.689712 0.240430
O O10 0.000000 0.500000 0.500000
O O11 0.163262 0.792313 0.393469
O O12 0.190876 0.632379 0.767973
O O13 0.024818 0.800202 0.763886
O O14 0.500000 0.500000 0.000000
O O15 0.500000 0.000000 0.500000
O O16 0.594313 0.397231 0.928501
O O17 0.500000 0.000000 0.000000
#
# Coordination Sequence:
#
# PCOD9110753 Si02
#       7
#     2   2   2   2   2   2   2
#     4  10  20  42  66  87 126 175 214 268 330 388
#     4  11  25  39  64  96 129 172 224 266 331 405
#     4   9  23  40  64  90 128 173 218 260 336 391
#     4  10  23  41  66  91 133 175 218 269 333 389
#     4  11  24  41  67  96 129 170 227 271 325 403
#     4  10  22  42  63  93 130 169 217 272 335 384
#     4  11  24  40  68  93 130 170 219 279 338 389
#
# _framework density 20.961572
#
# number of rings (size 3 to 8) (size 9 to 14) (size 15 to 20)
#    0.000    1.714    1.429    1.286   14.000    1.143 
#    0.000    0.714    0.000    0.000    0.000    0.000 
#    0.000    0.000    0.000    0.000    0.000    0.000 
#
# Total GULP energy -77946.469395 kJ/mol
# GULP energy per Si atom -5567.604957 kJ/mol
# Density = 2.091386 g / cm^3
# Si number density = 20.961572 Si / 1000 Ang^3
#
#
#
# Elastic Constant Matrix: (Units=GPa)
#
#
# Indices 1 2 3 4 5 6 
#
# 1 71.3909 43.9523 11.9170 -16.5656 8.2680 8.3199
# 2 43.9523 212.2773 52.0459 -27.8980 13.8535 -14.8984
# 3 11.9170 52.0459 91.8384 -19.5761 -14.3846 4.2125
# 4 -16.5656 -27.8980 -19.5761 39.8582 -5.8715 -0.7899
# 5 8.2680 13.8535 -14.3846 -5.8715 36.3086 -3.5157
# 6 8.3199 -14.8984 4.2125 -0.7899 -3.5157 38.9480
#
#
#
# Elastic Compliance Matrix: (Units=1/GPa)
#
#
# Indices 1 2 3 4 5 6 
#
# 1 0.018075 -0.003455 0.000545 0.004916 -0.002305 -0.005350
# 2 -0.003455 0.006968 -0.003858 0.001196 -0.002859 0.003587
# 3 0.000545 -0.003858 0.015819 0.006490 0.008431 -0.002410
# 4 0.004916 0.001196 0.006490 0.032064 0.006172 -0.000087
# 5 -0.002305 -0.002859 0.008431 0.006172 0.033655 0.001650
# 6 -0.005350 0.003587 -0.002410 -0.000087 0.001650 0.028598
#
#
# Mechanical properties :
#
#
# Convention : Reuss Voigt Hill
#
# Bulk Modulus (GPa) = 36.59642 65.70412 51.15027
# Shear Modulus (GPa) = 31.68128 40.86239 36.27183
#
# Velocity S-wave (km/s) = 3.89189 4.41999 4.16432
# Velocity P-wave (km/s) = 6.13942 7.58033 6.89760
#
# Compressibility (1/GPa) = 0.02732507
#
# Stress axis : x y z
#
# Youngs Moduli (GPa) = 55.32630 143.52349 63.21679
#
# Poissons Ratio (x) = 0.49587 -0.03444
# Poissons Ratio (y) = 0.19115 0.24387
# Poissons Ratio (z) = -0.03014 0.55367
#
# Static dielectric constant tensor:
#      x y z
#    x 1.765260 -0.012870 -0.096570 
#    y -0.012870 1.802880 -0.027850 
#    z -0.096570 -0.027850 1.913750 
# 
# From -- ./inp_files/200413.got.cif
#   From: 2010.05.17/outbox.cif.g08.bks.cpg/sg2_101_cif.got.tgz:200413.got - 2010.06.03 11:33:40.
