data_PCOD9110667
_publ_section_title
;
Structure prediction by ZEFSAII (Michael W. Deem and Ramdas Pophale) SiO2 
 PCOD9110667
Probable space group: P -1
;
_chemical_formula_sum "Si O2"
_cell_formula_units_Z 14
_cell_length_a 22.558031
_cell_length_b 9.589734
_cell_length_c 12.201448
_cell_angle_alpha 38.322721
_cell_angle_beta 152.198338
_cell_angle_gamma 134.805394
_cell_volume 762.859997
_symmetry_space_group_name_H-M "P -1"
_symmetry_group_IT_number 2
_symmetry_cell_setting 'triclinic'
loop_
_space_group_symop_operation_xyz
x,y,z
-x,-y,-z
loop_
_atom_site_type_symbol
_atom_site_label
_atom_site_fract_x
_atom_site_fract_y
_atom_site_fract_z
Si Si1 0.497397 0.499007 0.128341
Si Si2 0.215251 0.418048 0.807815
Si Si3 0.845837 0.980551 0.886871
Si Si4 0.724953 0.791277 0.369660
Si Si5 0.857881 0.927675 0.278514
Si Si6 0.742288 0.287453 0.706994
Si Si7 0.856159 0.079498 0.591733
O O1 0.575152 0.724210 0.157064
O O2 0.589621 0.302911 0.440413
O O3 0.500000 0.500000 0.000000
O O4 0.358162 0.468731 0.967650
O O5 0.211334 0.243780 0.009912
O O6 0.143542 0.287874 0.671088
O O7 0.154454 0.651933 0.593892
O O8 0.997816 0.980545 0.152749
O O9 0.791134 0.192551 0.730348
O O10 0.820581 0.996778 0.706828
O O11 0.776043 0.877267 0.283733
O O12 0.785832 0.546490 0.638222
O O13 0.767117 0.960012 0.429510
O O14 0.000000 0.000000 0.500000
O O15 0.793371 0.122948 0.983174
#
# Coordination Sequence:
#
# PCOD9110667 Si02
#       7
#     2   2   2   2   2   2   2
#     4  10  20  42  65  88 123 160 203 256 303 353
#     4  11  22  41  61  89 120 163 203 242 307 366
#     4  10  22  38  61  87 119 165 200 247 303 363
#     4  10  22  39  59  92 121 156 202 253 300 355
#     4  11  22  37  64  93 119 157 204 258 303 352
#     4   9  22  40  61  93 114 160 203 251 301 355
#     4  11  23  39  59  89 126 162 197 246 310 361
#
# _framework density 18.351991000000002
#
# number of rings (size 3 to 8) (size 9 to 14) (size 15 to 20)
#    0.857    0.857    1.429    3.857    0.000    8.571 
#    2.571    0.714    0.000    0.000    0.000    0.000 
#    0.000    0.000    0.000    0.000    0.000    0.000 
#
# Total GULP energy -78110.374957 kJ/mol
# GULP energy per Si atom -5579.312497 kJ/mol
# Density = 1.831022 g / cm^3
# Si number density = 18.351991 Si / 1000 Ang^3
#
#
#
# Elastic Constant Matrix: (Units=GPa)
#
#
# Indices 1 2 3 4 5 6 
#
# 1 72.4168 -34.1569 -44.3702 -2.5405 -14.6845 8.8004
# 2 -34.1569 243.1367 29.0922 -14.0574 -3.3528 -40.8797
# 3 -44.3702 29.0922 -0.3738 -14.7865 1.7790 -27.1868
# 4 -2.5405 -14.0574 -14.7865 15.4909 -1.0432 0.9344
# 5 -14.6845 -3.3528 1.7790 -1.0432 33.3620 1.0682
# 6 8.8004 -40.8797 -27.1868 0.9344 1.0682 31.7644
#
#
#
# Elastic Compliance Matrix: (Units=1/GPa)
#
#
# Indices 1 2 3 4 5 6 
#
# 1 0.009697 0.000415 -0.010482 -0.007033 0.005004 -0.011086
# 2 0.000415 0.005340 -0.002990 0.001866 0.000805 0.004116
# 3 -0.010482 -0.002990 -0.014941 -0.018194 -0.004269 -0.013053
# 4 -0.007033 0.001866 -0.018194 0.048488 -0.000017 -0.012649
# 5 0.005004 0.000805 -0.004269 -0.000017 0.032648 -0.005101
# 6 -0.011086 0.004116 -0.013053 -0.012649 -0.005101 0.029222
#
#
# Mechanical properties :
#
#
# Convention : Reuss Voigt Hill
#
# Bulk Modulus (GPa) = -38.43413 24.03444 -7.19985
# Shear Modulus (GPa) = 39.09378 40.43108 39.76243
#
# Velocity S-wave (km/s) = 4.62044 4.69880 4.65978
# Velocity P-wave (km/s) = 2.73430 6.52404 5.00197
#
# Compressibility (1/GPa) = -0.02601854
#
# Stress axis : x y z
#
# Youngs Moduli (GPa) = 103.12119 187.26412 -66.93125
#
# Poissons Ratio (x) = -0.07773 -0.70159
# Poissons Ratio (y) = -0.04280 -0.20015
# Poissons Ratio (z) = 1.08095 0.55999
#
# Static dielectric constant tensor:
#      x y z
#    x 1.622330 0.005330 -0.020560 
#    y 0.005330 1.627080 0.000230 
#    z -0.020560 0.000230 1.662560 
# 
# From -- ./inp_files/255580.got.cif
#   From: 2010.05.17/outbox.cif.g08.bks.cpg/sg2_128_cif.got.tgz:255580.got - 2010.06.03 11:33:40.
