data_PCOD9110129
_publ_section_title
;
Structure prediction by ZEFSAII (Michael W. Deem and Ramdas Pophale) SiO2 
 PCOD9110129
Probable space group: P -1
;
_chemical_formula_sum "Si O2"
_cell_formula_units_Z 14
_cell_length_a 10.046151
_cell_length_b 9.642225
_cell_length_c 10.262060
_cell_angle_alpha 97.746914
_cell_angle_beta 95.161303
_cell_angle_gamma 138.990219
_cell_volume 617.611583
_symmetry_space_group_name_H-M "P -1"
_symmetry_group_IT_number 2
_symmetry_cell_setting 'triclinic'
loop_
_space_group_symop_operation_xyz
x,y,z
-x,-y,-z
loop_
_atom_site_type_symbol
_atom_site_label
_atom_site_fract_x
_atom_site_fract_y
_atom_site_fract_z
Si Si1 0.143095 0.683261 0.651811
Si Si2 0.406512 0.140065 0.616517
Si Si3 0.834856 0.548583 0.809174
Si Si4 0.460488 0.709894 0.641458
Si Si5 0.121765 0.108520 0.252265
Si Si6 0.804480 0.736821 0.361710
Si Si7 0.262494 0.365553 0.936589
O O1 0.339645 0.739981 0.698690
O O2 0.000000 0.500000 0.500000
O O3 0.023951 0.617069 0.767968
O O4 0.225663 0.895032 0.625165
O O5 0.624430 0.289986 0.728578
O O6 0.452365 0.160674 0.471450
O O7 0.344516 0.249779 0.651540
O O8 0.831915 0.693262 0.747296
O O9 0.815941 0.584272 0.960712
O O10 0.664547 0.805833 0.740188
O O11 0.285644 0.444354 0.563282
O O12 0.035417 0.989693 0.374245
O O13 0.919376 0.902679 0.119150
O O14 0.751747 0.600358 0.210618
O O15 0.500000 0.500000 0.000000
#
# Coordination Sequence:
#
# PCOD9110129 Si02
#       7
#     2   2   2   2   2   2   2
#     4  12  28  44  64  98 136 181 218 263 334 400
#     4  12  24  42  70 100 127 179 223 270 327 396
#     4  12  22  43  70 100 130 177 224 269 324 393
#     4  12  25  42  65  97 143 167 222 272 331 390
#     4  10  23  39  69  99 133 171 212 279 335 366
#     4  10  23  40  67 104 126 168 219 276 330 376
#     4  10  20  41  70 100 133 165 227 271 323 391
#
# _framework density 22.667967999999998
#
# number of rings (size 3 to 8) (size 9 to 14) (size 15 to 20)
#    0.857    0.000    5.714    1.286    2.000    0.571 
#    0.000    1.429    0.000    0.000    0.000    0.000 
#    0.000    0.000    0.000    0.000    0.000    0.000 
#
# Total GULP energy -78106.916831 kJ/mol
# GULP energy per Si atom -5579.065488 kJ/mol
# Density = 2.261637 g / cm^3
# Si number density = 22.667968 Si / 1000 Ang^3
#
#
#
# Elastic Constant Matrix: (Units=GPa)
#
#
# Indices 1 2 3 4 5 6 
#
# 1 142.6863 9.0102 22.3023 -5.2853 -38.9706 26.7491
# 2 9.0102 88.6761 2.5642 13.3528 -2.1987 18.8866
# 3 22.3023 2.5642 40.9197 -0.8618 -23.1759 7.1109
# 4 -5.2853 13.3528 -0.8618 25.4706 9.6311 -1.0596
# 5 -38.9706 -2.1987 -23.1759 9.6311 36.0418 -6.8578
# 6 26.7491 18.8866 7.1109 -1.0596 -6.8578 35.6670
#
#
#
# Elastic Compliance Matrix: (Units=1/GPa)
#
#
# Indices 1 2 3 4 5 6 
#
# 1 0.011523 0.001195 0.002677 -0.003687 0.013858 -0.007253
# 2 0.001195 0.014380 0.002259 -0.009266 0.004506 -0.008370
# 3 0.002677 0.002259 0.041563 -0.011459 0.031730 -0.005729
# 4 -0.003687 -0.009266 -0.011459 0.052580 -0.024682 0.006773
# 5 0.013858 0.004506 0.031730 -0.024682 0.068744 -0.006621
# 6 -0.007253 -0.008370 -0.005729 0.006773 -0.006621 0.037980
#
#
# Mechanical properties :
#
#
# Convention : Reuss Voigt Hill
#
# Bulk Modulus (GPa) = 12.54276 37.78173 25.16224
# Shear Modulus (GPa) = 20.73965 35.32956 28.03461
#
# Velocity S-wave (km/s) = 3.02807 3.95215 3.52056
# Velocity P-wave (km/s) = 4.21555 6.12614 5.25835
#
# Compressibility (1/GPa) = 0.07972726
#
# Stress axis : x y z
#
# Youngs Moduli (GPa) = 86.78526 69.54127 24.05978
#
# Poissons Ratio (x) = -0.08313 -0.06440
# Poissons Ratio (y) = -0.10375 -0.05434
# Poissons Ratio (z) = -0.23230 -0.15707
#
# Static dielectric constant tensor:
#      x y z
#    x 1.824850 0.033940 -0.022650 
#    y 0.033940 1.872310 -0.014230 
#    z -0.022650 -0.014230 1.969650 
# 
# From -- ./inp_files/379575.got.cif
#   From: 2010.05.17/outbox.cif.g08.bks.cpg/sg2_190_cif.got.tgz:379575.got - 2010.06.03 11:33:40.
