data_PCOD9110804
_publ_section_title
;
Structure prediction by ZEFSAII (Michael W. Deem and Ramdas Pophale) SiO2 
 PCOD9110804
Probable space group: P -1
;
_chemical_formula_sum "Si O2"
_cell_formula_units_Z 15
_cell_length_a 11.644634
_cell_length_b 11.387270
_cell_length_c 9.626894
_cell_angle_alpha 56.234531
_cell_angle_beta 35.360840
_cell_angle_gamma 54.629439
_cell_volume 592.847766
_symmetry_space_group_name_H-M "P -1"
_symmetry_group_IT_number 2
_symmetry_cell_setting 'triclinic'
loop_
_space_group_symop_operation_xyz
x,y,z
-x,-y,-z
loop_
_atom_site_type_symbol
_atom_site_label
_atom_site_fract_x
_atom_site_fract_y
_atom_site_fract_z
Si Si1 0.211453 0.239395 0.181222
Si Si2 0.130401 0.493614 0.736573
Si Si3 0.198792 0.901953 0.605409
Si Si4 0.388860 0.684058 0.321857
Si Si5 0.984967 0.756483 0.145991
Si Si6 0.378638 0.119068 0.388073
Si Si7 0.000000 0.000000 0.500000
Si Si8 0.641801 0.331610 0.964393
O O1 0.004412 0.365816 0.303457
O O2 0.288299 0.210970 0.280398
O O3 0.384133 0.298478 0.892527
O O4 0.173510 0.096180 0.241929
O O5 0.124679 0.353431 0.748656
O O6 0.347031 0.532003 0.511049
O O7 0.000000 0.500000 0.000000
O O8 0.239871 0.815198 0.472224
O O9 0.016574 0.030200 0.636283
O O10 0.397808 0.954243 0.421402
O O11 0.110340 0.818011 0.864678
O O12 0.343079 0.700008 0.193679
O O13 0.149545 0.678010 0.150951
O O14 0.798780 0.870934 0.329362
O O15 0.547309 0.203463 0.208224
O O16 0.500000 0.500000 0.000000
#
# Coordination Sequence:
#
# PCOD9110804 Si02
#       8
#     2   2   2   2   2   2   1   2
#     4  10  22  40  66  97 130 175 223 273 333 399
#     4  12  23  42  64  99 134 172 226 277 340 398
#     4  11  24  45  66 104 133 178 230 274 339 401
#     4  11  23  44  67  99 134 174 225 277 336 395
#     4  12  24  44  70  95 139 178 222 284 334 401
#     4  10  24  44  67  95 136 175 226 277 338 404
#     4  10  20  42  66  92 138 168 224 270 324 398
#     4  11  25  45  68 101 133 178 227 276 342 409
#
# _framework density 25.301606
#
# number of rings (size 3 to 8) (size 9 to 14) (size 15 to 20)
#    0.000    1.067    2.667    3.600    1.867    7.467 
#    7.200    0.000    0.000    0.000    0.000    0.000 
#    0.000    0.000    0.000    0.000    0.000    0.000 
#
# Total GULP energy -83637.448915 kJ/mol
# GULP energy per Si atom -5575.829928 kJ/mol
# Density = 2.524402 g / cm^3
# Si number density = 25.301606 Si / 1000 Ang^3
#
#
#
# Elastic Constant Matrix: (Units=GPa)
#
#
# Indices 1 2 3 4 5 6 
#
# 1 92.2471 27.5469 47.2246 -10.1317 -11.5088 21.2745
# 2 27.5469 82.1279 34.6058 -9.3799 -6.5930 37.7919
# 3 47.2246 34.6058 160.2679 -23.8463 -14.1956 19.8316
# 4 -10.1317 -9.3799 -23.8463 46.9519 16.5516 -4.5345
# 5 -11.5088 -6.5930 -14.1956 16.5516 46.4041 -10.5898
# 6 21.2745 37.7919 19.8316 -4.5345 -10.5898 33.3514
#
#
#
# Elastic Compliance Matrix: (Units=1/GPa)
#
#
# Indices 1 2 3 4 5 6 
#
# 1 0.014213 -0.000335 -0.003171 0.000459 0.000869 -0.006463
# 2 -0.000335 0.027086 -0.001950 0.003135 -0.004898 -0.030448
# 3 -0.003171 -0.001950 0.008063 0.002889 0.000360 -0.000056
# 4 0.000459 0.003135 0.002889 0.026198 -0.009011 -0.004862
# 5 0.000869 -0.004898 0.000360 -0.009011 0.027174 0.012185
# 6 -0.006463 -0.030448 -0.000056 -0.004862 0.012185 0.071850
#
#
# Mechanical properties :
#
#
# Convention : Reuss Voigt Hill
#
# Bulk Modulus (GPa) = 26.00645 61.48861 43.74753
# Shear Modulus (GPa) = 25.21278 40.35918 32.78598
#
# Velocity S-wave (km/s) = 3.16015 3.99823 3.60364
# Velocity P-wave (km/s) = 4.85966 6.75792 5.88582
#
# Compressibility (1/GPa) = 0.03845199
#
# Stress axis : x y z
#
# Youngs Moduli (GPa) = 70.35789 36.91975 124.01569
#
# Poissons Ratio (x) = 0.01237 0.39321
# Poissons Ratio (y) = 0.02357 0.24177
# Poissons Ratio (z) = 0.22308 0.07198
#
# Static dielectric constant tensor:
#      x y z
#    x 2.151530 0.031160 0.065160 
#    y 0.031160 1.907970 -0.097200 
#    z 0.065160 -0.097200 2.082410 
# 
# From -- ./inp_files/256591.got.cif
#   From: 2010.05.17/outbox.cif.g08.bks.cpg/sg2_129_cif.got.tgz:256591.got - 2010.06.03 11:33:40.
