data_PCOD9110585
_publ_section_title
;
Structure prediction by ZEFSAII (Michael W. Deem and Ramdas Pophale) SiO2 
 PCOD9110585
Probable space group: P -1
;
_chemical_formula_sum "Si O2"
_cell_formula_units_Z 16
_cell_length_a 18.836345
_cell_length_b 6.799195
_cell_length_c 11.790726
_cell_angle_alpha 100.016552
_cell_angle_beta 25.721208
_cell_angle_gamma 99.733784
_cell_volume 645.095878
_symmetry_space_group_name_H-M "P -1"
_symmetry_group_IT_number 2
_symmetry_cell_setting 'triclinic'
loop_
_space_group_symop_operation_xyz
x,y,z
-x,-y,-z
loop_
_atom_site_type_symbol
_atom_site_label
_atom_site_fract_x
_atom_site_fract_y
_atom_site_fract_z
Si Si1 0.974379 0.619140 0.665600
Si Si2 0.639403 0.962264 0.440269
Si Si3 0.983850 0.203787 0.700660
Si Si4 0.921316 0.209934 0.042342
Si Si5 0.254676 0.947094 0.273859
Si Si6 0.451350 0.323155 0.143375
Si Si7 0.747854 0.585688 0.344704
Si Si8 0.301219 0.072940 0.914875
O O1 0.113727 0.787887 0.503981
O O2 0.000000 0.500000 0.500000
O O3 0.986190 0.441272 0.720118
O O4 0.802637 0.728767 0.917082
O O5 0.633183 0.728990 0.454144
O O6 0.664995 0.975154 0.270217
O O7 0.808488 0.052630 0.258037
O O8 0.476674 0.072460 0.722546
O O9 0.993878 0.139301 0.811686
O O10 0.128667 0.103794 0.411832
O O11 0.811624 0.111709 0.896358
O O12 0.780944 0.368076 0.230063
O O13 0.069325 0.315261 0.905696
O O14 0.354565 0.126341 0.213553
O O15 0.393339 0.783680 0.032302
O O16 0.332103 0.419840 0.416610
O O17 0.500000 0.500000 0.000000
#
# Coordination Sequence:
#
# PCOD9110585 Si02
#       8
#     2   2   2   2   2   2   2   2
#     4  11  24  40  65  94 126 174 223 270 315 380
#     4  10  21  41  63  94 130 163 213 267 317 386
#     4  10  20  42  64  90 130 167 213 262 324 388
#     4  10  22  39  63  96 126 166 210 264 328 376
#     4  10  23  41  64  90 125 175 218 259 324 383
#     4  11  24  43  64  94 133 175 215 264 329 385
#     4  11  23  39  63  97 125 167 215 261 318 392
#     4   9  22  40  64  92 127 171 208 265 332 371
#
# _framework density 24.802516000000001
#
# number of rings (size 3 to 8) (size 9 to 14) (size 15 to 20)
#    0.000    1.750    1.250    1.875    0.000    8.000 
#    6.750    3.750    0.000    0.000    0.000    0.000 
#    0.000    0.000    0.000    0.000    0.000    0.000 
#
# Total GULP energy -89181.588680 kJ/mol
# GULP energy per Si atom -5573.849292 kJ/mol
# Density = 2.474606 g / cm^3
# Si number density = 24.802516 Si / 1000 Ang^3
#
#
#
# Elastic Constant Matrix: (Units=GPa)
#
#
# Indices 1 2 3 4 5 6 
#
# 1 31.6936 19.7639 23.0233 -2.0831 -1.0357 4.2301
# 2 19.7639 166.8935 63.2748 12.8935 -7.1934 -1.9623
# 3 23.0233 63.2748 124.6377 29.1214 -24.2839 -2.4261
# 4 -2.0831 12.8935 29.1214 41.4646 -2.8459 1.6241
# 5 -1.0357 -7.1934 -24.2839 -2.8459 19.5160 13.6438
# 6 4.2301 -1.9623 -2.4261 1.6241 13.6438 32.3171
#
#
#
# Elastic Compliance Matrix: (Units=1/GPa)
#
#
# Indices 1 2 3 4 5 6 
#
# 1 0.041224 -0.002068 -0.010346 0.009605 -0.007530 -0.003602
# 2 -0.002068 0.007716 -0.004344 0.000178 -0.004154 0.002158
# 3 -0.010346 -0.004344 0.019642 -0.010846 0.026295 -0.007991
# 4 0.009605 0.000178 -0.010846 0.031608 -0.008172 -0.000199
# 5 -0.007530 -0.004154 0.026295 -0.008172 0.111595 -0.043995
# 6 -0.003602 0.002158 -0.007991 -0.000199 -0.043995 0.049530
#
#
# Mechanical properties :
#
#
# Convention : Reuss Voigt Hill
#
# Bulk Modulus (GPa) = 28.51901 59.48322 44.00111
# Shear Modulus (GPa) = 16.31212 33.13705 24.72459
#
# Velocity S-wave (km/s) = 2.56731 3.65915 3.16073
# Velocity P-wave (km/s) = 4.50683 6.47204 5.57668
#
# Compressibility (1/GPa) = 0.03506434
#
# Stress axis : x y z
#
# Youngs Moduli (GPa) = 24.25788 129.59431 50.91188
#
# Poissons Ratio (x) = 0.26801 0.52676
# Poissons Ratio (y) = 0.05017 0.22118
# Poissons Ratio (z) = 0.25098 0.56299
#
# Static dielectric constant tensor:
#      x y z
#    x 2.103230 -0.072950 -0.014650 
#    y -0.072950 2.072690 -0.063840 
#    z -0.014650 -0.063840 1.995100 
# 
# From -- ./inp_files/101061.got.cif
#   From: 2010.05.17/outbox.cif.g08.bks.cpg/sg2_51_cif.got.tgz:101061.got - 2010.06.03 11:33:40.
