data_PCOD9110105
_publ_section_title
;
Structure prediction by ZEFSAII (Michael W. Deem and Ramdas Pophale) SiO2 
 PCOD9110105
Probable space group: P -1
;
_chemical_formula_sum "Si O2"
_cell_formula_units_Z 11
_cell_length_a 12.145443
_cell_length_b 5.515127
_cell_length_c 7.934094
_cell_angle_alpha 56.464937
_cell_angle_beta 80.113551
_cell_angle_gamma 74.281078
_cell_volume 426.265284
_symmetry_space_group_name_H-M "P -1"
_symmetry_group_IT_number 2
_symmetry_cell_setting 'triclinic'
loop_
_space_group_symop_operation_xyz
x,y,z
-x,-y,-z
loop_
_atom_site_type_symbol
_atom_site_label
_atom_site_fract_x
_atom_site_fract_y
_atom_site_fract_z
Si Si1 0.320407 0.621161 0.448570
Si Si2 0.255859 0.817315 0.875446
Si Si3 0.370094 0.104880 0.434928
Si Si4 0.060196 0.773452 0.428603
Si Si5 0.619344 0.781007 0.097414
Si Si6 0.000000 0.000000 0.000000
O O1 0.346916 0.944513 0.333130
O O2 0.187204 0.641691 0.511784
O O3 0.392702 0.417531 0.653610
O O4 0.344609 0.455787 0.328963
O O5 0.285336 0.991835 0.632655
O O6 0.325311 0.481540 0.946733
O O7 0.299473 0.008111 0.936968
O O8 0.121489 0.847120 0.926498
O O9 0.500000 0.000000 0.500000
O O10 0.000000 0.500000 0.500000
O O11 0.000000 0.000000 0.500000
O O12 0.065158 0.939513 0.187959
O O13 0.500000 0.000000 0.000000
#
# Coordination Sequence:
#
# PCOD9110105 Si02
#       6
#     2   2   2   2   2   1
#     4  10  21  40  64 105 134 191 250 302 384 445
#     4  10  23  42  67 107 138 196 252 309 384 454
#     4  10  20  41  69  96 146 193 247 306 378 455
#     4  12  26  49  80 110 158 207 265 328 389 476
#     4  10  20  41  69  98 149 190 248 312 375 459
#     4  12  28  52  82 114 162 206 268 332 400 478
#
# _framework density 25.805527000000001
#
# number of rings (size 3 to 8) (size 9 to 14) (size 15 to 20)
#    0.000    1.455    0.000    6.545    0.000    2.909 
#   19.636    0.000    0.000    0.000    0.000    0.000 
#    0.000    0.000    0.000    0.000    0.000    0.000 
#
# Total GULP energy -61330.781339 kJ/mol
# GULP energy per Si atom -5575.525576 kJ/mol
# Density = 2.574679 g / cm^3
# Si number density = 25.805527 Si / 1000 Ang^3
#
#
#
# Elastic Constant Matrix: (Units=GPa)
#
#
# Indices 1 2 3 4 5 6 
#
# 1 133.1033 79.5186 9.0093 3.3328 -0.4235 -6.2257
# 2 79.5186 267.1148 43.9422 15.2631 -11.4016 21.9682
# 3 9.0093 43.9422 117.2900 10.5792 5.0976 -8.6104
# 4 3.3328 15.2631 10.5792 50.2532 -3.4725 -3.8517
# 5 -0.4235 -11.4016 5.0976 -3.4725 32.9407 8.3230
# 6 -6.2257 21.9682 -8.6104 -3.8517 8.3230 67.3325
#
#
#
# Elastic Compliance Matrix: (Units=1/GPa)
#
#
# Indices 1 2 3 4 5 6 
#
# 1 0.009470 -0.003198 0.000681 0.000258 -0.001625 0.002222
# 2 -0.003198 0.005426 -0.002012 -0.001032 0.002726 -0.002719
# 3 0.000681 -0.002012 0.009652 -0.001496 -0.002902 0.002227
# 4 0.000258 -0.001032 -0.001496 0.020720 0.001775 0.001135
# 5 -0.001625 0.002726 -0.002902 0.001775 0.033287 -0.005424
# 6 0.002222 -0.002719 0.002227 0.001135 -0.005424 0.016964
#
#
# Mechanical properties :
#
#
# Convention : Reuss Voigt Hill
#
# Bulk Modulus (GPa) = 64.55982 86.93867 75.74925
# Shear Modulus (GPa) = 45.56232 55.77446 50.66839
#
# Velocity S-wave (km/s) = 4.20647 4.65406 4.43591
# Velocity P-wave (km/s) = 6.97600 7.91476 7.46016
#
# Compressibility (1/GPa) = 0.01548951
#
# Stress axis : x y z
#
# Youngs Moduli (GPa) = 105.60061 184.30751 103.60679
#
# Poissons Ratio (x) = 0.58940 -0.07057
# Poissons Ratio (y) = 0.33770 0.20847
# Poissons Ratio (z) = -0.07193 0.37084
#
# Static dielectric constant tensor:
#      x y z
#    x 1.924360 0.032740 -0.066270 
#    y 0.032740 2.083250 0.001490 
#    z -0.066270 0.001490 2.008890 
# 
# From -- ./inp_files/31898.got.cif
#   From: 2010.05.17/outbox.cif.g08.bks.cpg/sg2_16_cif.got.tgz:31898.got - 2010.06.03 11:33:40.
