data_PCOD9110165
_publ_section_title
;
Structure prediction by ZEFSAII (Michael W. Deem and Ramdas Pophale) SiO2 
 PCOD9110165
Probable space group: P -1
;
_chemical_formula_sum "Si O2"
_cell_formula_units_Z 14
_cell_length_a 8.763898
_cell_length_b 5.205619
_cell_length_c 16.114294
_cell_angle_alpha 115.999509
_cell_angle_beta 96.442853
_cell_angle_gamma 95.673036
_cell_volume 647.502858
_symmetry_space_group_name_H-M "P -1"
_symmetry_group_IT_number 2
_symmetry_cell_setting 'triclinic'
loop_
_space_group_symop_operation_xyz
x,y,z
-x,-y,-z
loop_
_atom_site_type_symbol
_atom_site_label
_atom_site_fract_x
_atom_site_fract_y
_atom_site_fract_z
Si Si1 0.415132 0.263357 0.560245
Si Si2 0.038331 0.824926 0.701098
Si Si3 0.316010 0.940161 0.002659
Si Si4 0.860582 0.116513 0.464233
Si Si5 0.283039 0.400470 0.394095
Si Si6 0.839582 0.479517 0.933635
Si Si7 0.914164 0.521204 0.185099
O O1 0.330861 0.339739 0.482328
O O2 0.552969 0.517764 0.630893
O O3 0.500000 0.000000 0.500000
O O4 0.283107 0.140508 0.598737
O O5 0.852361 0.827646 0.684998
O O6 0.088080 0.743232 0.600578
O O7 0.074201 0.601007 0.739575
O O8 0.117127 0.150931 0.773018
O O9 0.218390 0.699191 0.901877
O O10 0.274575 0.792403 0.070452
O O11 0.500000 0.000000 0.000000
O O12 0.241903 0.234352 0.028412
O O13 0.799109 0.320275 0.557159
O O14 0.000000 0.000000 0.500000
O O15 0.916125 0.470499 0.846293
O O16 0.000000 0.500000 0.000000
#
# Coordination Sequence:
#
# PCOD9110165 Si02
#       7
#     2   2   2   2   2   2   2
#     4   9  20  37  60  81 110 151 233 257 301 365
#     4  12  24  37  63  90 132 158 208 274 313 354
#     4  11  22  42  74  98 126 164 209 256 306 384
#     4  11  21  37  61  87 116 168 222 257 308 373
#     4  10  21  38  60  83 115 168 217 257 308 373
#     4  10  20  41  70  94 123 168 211 241 298 397
#     4  11  24  41  61  96 128 164 205 253 321 376
#
# _framework density 21.621524000000001
#
# number of rings (size 3 to 8) (size 9 to 14) (size 15 to 20)
#    0.000    1.429    1.429    6.000    4.000    0.000 
#    0.000    4.286    0.000    0.000    0.000    0.000 
#    0.000    0.000    0.000    0.000    0.000    0.000 
#
# Total GULP energy -78121.348783 kJ/mol
# GULP energy per Si atom -5580.096342 kJ/mol
# Density = 2.157231 g / cm^3
# Si number density = 21.621524 Si / 1000 Ang^3
#
#
#
# Elastic Constant Matrix: (Units=GPa)
#
#
# Indices 1 2 3 4 5 6 
#
# 1 129.8916 56.5072 20.1726 0.0290 2.4619 20.3631
# 2 56.5072 121.9202 21.5004 -10.5081 -4.4363 8.4983
# 3 20.1726 21.5004 51.9981 -5.9800 -2.9134 10.6109
# 4 0.0290 -10.5081 -5.9800 38.5183 5.3199 -6.8264
# 5 2.4619 -4.4363 -2.9134 5.3199 23.3603 2.2713
# 6 20.3631 8.4983 10.6109 -6.8264 2.2713 60.7710
#
#
#
# Elastic Compliance Matrix: (Units=1/GPa)
#
#
# Indices 1 2 3 4 5 6 
#
# 1 0.010406 -0.004509 -0.001921 -0.001798 -0.001524 -0.002666
# 2 -0.004509 0.010968 -0.002540 0.002492 0.001612 0.000640
# 3 -0.001921 -0.002540 0.021926 0.001919 0.002280 -0.002699
# 4 -0.001798 0.002492 0.001919 0.028341 -0.005875 0.003322
# 5 -0.001524 0.001612 0.002280 -0.005875 0.045136 -0.002460
# 6 -0.002666 0.000640 -0.002699 0.003322 -0.002460 0.018195
#
#
# Mechanical properties :
#
#
# Convention : Reuss Voigt Hill
#
# Bulk Modulus (GPa) = 39.42955 55.57447 47.50201
# Shear Modulus (GPa) = 30.98568 38.23857 34.61212
#
# Velocity S-wave (km/s) = 3.78973 4.20997 4.00536
# Velocity P-wave (km/s) = 6.11762 7.02786 6.58848
#
# Compressibility (1/GPa) = 0.02536169
#
# Stress axis : x y z
#
# Youngs Moduli (GPa) = 96.10155 91.17040 45.60769
#
# Poissons Ratio (x) = 0.41106 0.08760
# Poissons Ratio (y) = 0.43329 0.11584
# Poissons Ratio (z) = 0.18459 0.23156
#
# Static dielectric constant tensor:
#      x y z
#    x 1.661560 0.134880 -0.022720 
#    y 0.134880 1.866340 0.055730 
#    z -0.022720 0.055730 1.810050 
# 
# From -- ./inp_files/487932.got.cif
#   From: 2010.05.17/outbox.cif.g08.bks.cpg/sg2_244_cif.got.tgz:487932.got - 2010.06.03 11:33:40.
