data_PCOD9110738
_publ_section_title
;
Structure prediction by ZEFSAII (Michael W. Deem and Ramdas Pophale) SiO2 
 PCOD9110738
Probable space group: P -1
;
_chemical_formula_sum "Si O2"
_cell_formula_units_Z 15
_cell_length_a 12.132215
_cell_length_b 12.029243
_cell_length_c 11.157574
_cell_angle_alpha 71.033043
_cell_angle_beta 80.246156
_cell_angle_gamma 141.364475
_cell_volume 670.328067
_symmetry_space_group_name_H-M "P -1"
_symmetry_group_IT_number 2
_symmetry_cell_setting 'triclinic'
loop_
_space_group_symop_operation_xyz
x,y,z
-x,-y,-z
loop_
_atom_site_type_symbol
_atom_site_label
_atom_site_fract_x
_atom_site_fract_y
_atom_site_fract_z
Si Si1 0.301893 0.508284 0.162171
Si Si2 0.223604 0.079851 0.511439
Si Si3 0.362525 0.959893 0.452193
Si Si4 0.376134 0.386204 0.876147
Si Si5 0.765216 0.341598 0.036374
Si Si6 0.522918 0.883787 0.190082
Si Si7 0.172117 0.047351 0.803698
Si Si8 0.000000 0.500000 0.500000
O O1 0.517306 0.615527 0.055495
O O2 0.436436 0.725819 0.149592
O O3 0.187362 0.488822 0.092519
O O4 0.071332 0.216694 0.363330
O O5 0.397587 0.314130 0.305800
O O6 0.325394 0.043507 0.502611
O O7 0.234661 0.140965 0.622724
O O8 0.104260 0.667783 0.543419
O O9 0.500000 0.000000 0.500000
O O10 0.547761 0.159868 0.237120
O O11 0.296438 0.245829 0.814909
O O12 0.128688 0.218935 0.028614
O O13 0.655587 0.132812 0.046802
O O14 0.000000 0.500000 0.000000
O O15 0.271973 0.682745 0.380639
O O16 0.719005 0.981331 0.186145
#
# Coordination Sequence:
#
# PCOD9110738 Si02
#       8
#     2   2   2   2   2   2   2   1
#     4  11  23  44  65 100 138 179 234 292 348 425
#     4  12  23  42  70  99 139 183 237 288 357 422
#     4  11  24  43  69 105 141 188 236 293 362 432
#     4  10  25  46  70 100 137 187 239 292 354 418
#     4  11  24  41  69 100 138 182 231 292 362 422
#     4  10  21  41  68  97 141 181 228 289 358 421
#     4  10  23  47  71 101 139 181 239 296 349 428
#     4  10  20  42  66 104 146 178 232 288 354 428
#
# _framework density 22.377103999999999
#
# number of rings (size 3 to 8) (size 9 to 14) (size 15 to 20)
#    0.000    1.333    1.333    4.400    3.733    0.533 
#    2.400    8.000    0.000    0.000    0.000    0.000 
#    0.000    0.000    0.000    0.000    0.000    0.000 
#
# Total GULP energy -83532.935651 kJ/mol
# GULP energy per Si atom -5568.862377 kJ/mol
# Density = 2.232617 g / cm^3
# Si number density = 22.377104 Si / 1000 Ang^3
#
#
#
# Elastic Constant Matrix: (Units=GPa)
#
#
# Indices 1 2 3 4 5 6 
#
# 1 180.8886 36.9313 60.5924 -12.0255 -26.6907 8.0646
# 2 36.9313 99.8641 17.3077 -10.4494 -0.8682 0.6610
# 3 60.5924 17.3077 85.7665 -15.8505 -5.8946 2.7369
# 4 -12.0255 -10.4494 -15.8505 29.3091 -0.0749 -10.5680
# 5 -26.6907 -0.8682 -5.8946 -0.0749 35.2801 1.7604
# 6 8.0646 0.6610 2.7369 -10.5680 1.7604 37.7234
#
#
#
# Elastic Compliance Matrix: (Units=1/GPa)
#
#
# Indices 1 2 3 4 5 6 
#
# 1 0.008664 -0.002301 -0.005359 -0.000844 0.005697 -0.001925
# 2 -0.002301 0.011230 -0.000151 0.003460 -0.001550 0.001348
# 3 -0.005359 -0.000151 0.016709 0.007542 -0.001356 0.002112
# 4 -0.000844 0.003460 0.007542 0.043302 0.000216 0.011693
# 5 0.005697 -0.001550 -0.001356 0.000216 0.032517 -0.002549
# 6 -0.001925 0.001348 0.002112 0.011693 -0.002549 0.030138
#
#
# Mechanical properties :
#
#
# Convention : Reuss Voigt Hill
#
# Bulk Modulus (GPa) = 47.66119 66.24246 56.95183
# Shear Modulus (GPa) = 30.27059 37.24171 33.75615
#
# Velocity S-wave (km/s) = 3.68196 4.08398 3.88817
# Velocity P-wave (km/s) = 6.27862 7.20455 6.75747
#
# Compressibility (1/GPa) = 0.02098143
#
# Stress axis : x y z
#
# Youngs Moduli (GPa) = 115.42622 89.04424 59.84643
#
# Poissons Ratio (x) = 0.20490 0.32073
# Poissons Ratio (y) = 0.26561 0.00901
# Poissons Ratio (z) = 0.61860 0.01341
#
# Static dielectric constant tensor:
#      x y z
#    x 1.815000 0.013580 -0.004800 
#    y 0.013580 1.904010 0.006190 
#    z -0.004800 0.006190 1.829720 
# 
# From -- ./inp_files/425632.got.cif
#   From: 2010.05.17/outbox.cif.g08.bks.cpg/sg2_213_cif.got.tgz:425632.got - 2010.06.03 11:33:40.
