data_PCOD9110202
_publ_section_title
;
Structure prediction by ZEFSAII (Michael W. Deem and Ramdas Pophale) SiO2 
 PCOD9110202
Probable space group: P -1
;
_chemical_formula_sum "Si O2"
_cell_formula_units_Z 14
_cell_length_a 21.797391
_cell_length_b 6.869603
_cell_length_c 10.188187
_cell_angle_alpha 145.825857
_cell_angle_beta 129.117164
_cell_angle_gamma 49.188104
_cell_volume 633.815731
_symmetry_space_group_name_H-M "P -1"
_symmetry_group_IT_number 2
_symmetry_cell_setting 'triclinic'
loop_
_space_group_symop_operation_xyz
x,y,z
-x,-y,-z
loop_
_atom_site_type_symbol
_atom_site_label
_atom_site_fract_x
_atom_site_fract_y
_atom_site_fract_z
Si Si1 0.217403 0.335060 0.819743
Si Si2 0.306833 0.010681 0.521173
Si Si3 0.341518 0.146436 0.103799
Si Si4 0.935569 0.453466 0.780076
Si Si5 0.512724 0.089413 0.221460
Si Si6 0.034654 0.400342 0.636889
Si Si7 0.750056 0.920527 0.795074
O O1 0.230686 0.121112 0.581489
O O2 0.122691 0.472274 0.814241
O O3 0.280418 0.089946 0.874880
O O4 0.244556 0.682299 0.009011
O O5 0.281428 0.192928 0.447970
O O6 0.330032 0.575091 0.308235
O O7 0.389835 0.099061 0.727994
O O8 0.439684 0.959903 0.116734
O O9 0.308728 0.078609 0.162452
O O10 0.842531 0.674940 0.813087
O O11 0.965365 0.573259 0.748476
O O12 0.942625 0.031257 0.551172
O O13 0.000000 0.500000 0.000000
O O14 0.500000 0.500000 0.500000
O O15 0.500000 0.000000 0.000000
O O16 0.000000 0.500000 0.500000
#
# Coordination Sequence:
#
# PCOD9110202 Si02
#       7
#     2   2   2   2   2   2   2
#     4  11  22  39  61  89 125 165 213 266 326 395
#     4  10  22  40  64  89 131 166 218 270 328 394
#     4  10  22  40  64  90 126 172 214 265 336 386
#     4  11  24  42  62  91 127 162 215 267 326 393
#     4  10  20  41  70  98 134 180 228 277 339 404
#     4  11  24  40  64  91 121 166 211 264 328 389
#     4  11  24  39  60  95 125 166 217 270 325 399
#
# _framework density 22.088436999999999
#
# number of rings (size 3 to 8) (size 9 to 14) (size 15 to 20)
#    0.000    1.429    1.429    3.429    0.000    9.714 
#    0.000    0.714    0.000    0.000    0.000    0.000 
#    0.000    0.000    0.000    0.000    0.000    0.000 
#
# Total GULP energy -78139.055724 kJ/mol
# GULP energy per Si atom -5581.361123 kJ/mol
# Density = 2.203816 g / cm^3
# Si number density = 22.088437 Si / 1000 Ang^3
#
#
#
# Elastic Constant Matrix: (Units=GPa)
#
#
# Indices 1 2 3 4 5 6 
#
# 1 156.7434 20.2730 27.7707 -14.9270 6.2584 20.6072
# 2 20.2730 56.9245 24.9363 -18.4665 9.8292 14.9391
# 3 27.7707 24.9363 56.8284 -24.4360 -2.1849 4.8313
# 4 -14.9270 -18.4665 -24.4360 37.6073 -4.0835 -10.9766
# 5 6.2584 9.8292 -2.1849 -4.0835 32.3662 -7.4049
# 6 20.6072 14.9391 4.8313 -10.9766 -7.4049 36.7371
#
#
#
# Elastic Compliance Matrix: (Units=1/GPa)
#
#
# Indices 1 2 3 4 5 6 
#
# 1 0.007737 0.000611 -0.004280 -0.001243 -0.003285 -0.005059
# 2 0.000611 0.028158 -0.011263 0.001903 -0.011971 -0.012156
# 3 -0.004280 -0.011263 0.031738 0.017580 0.010958 0.010268
# 4 -0.001243 0.001903 0.017580 0.043033 0.009093 0.012302
# 5 -0.003285 -0.011971 0.010958 0.009093 0.040761 0.016202
# 6 -0.005059 -0.012156 0.010268 0.012302 0.016202 0.040593
#
#
# Mechanical properties :
#
#
# Convention : Reuss Voigt Hill
#
# Bulk Modulus (GPa) = 26.47616 46.27293 36.37454
# Shear Modulus (GPa) = 21.32452 34.50987 27.91719
#
# Velocity S-wave (km/s) = 3.11048 3.95695 3.55897
# Velocity P-wave (km/s) = 4.99125 6.47078 5.77856
#
# Compressibility (1/GPa) = 0.03776982
#
# Stress axis : x y z
#
# Youngs Moduli (GPa) = 129.24959 35.51411 31.50793
#
# Poissons Ratio (x) = -0.02170 0.13484
# Poissons Ratio (y) = -0.07896 0.35486
# Poissons Ratio (z) = 0.55315 0.39999
#
# Static dielectric constant tensor:
#      x y z
#    x 1.786340 0.000360 -0.019030 
#    y 0.000360 1.777280 0.009610 
#    z -0.019030 0.009610 1.996100 
# 
# From -- ./inp_files/7385.got.cif
#   From: 2010.05.17/outbox.cif.g08.bks.cpg/sg2_4_cif.got.tgz:7385.got - 2010.06.03 11:33:40.
