data_PCOD9110734
_publ_section_title
;
Structure prediction by ZEFSAII (Michael W. Deem and Ramdas Pophale) SiO2 
 PCOD9110734
Probable space group: P -1
;
_chemical_formula_sum "Si O2"
_cell_formula_units_Z 14
_cell_length_a 7.232337
_cell_length_b 11.061511
_cell_length_c 12.194215
_cell_angle_alpha 49.545077
_cell_angle_beta 117.871364
_cell_angle_gamma 106.702755
_cell_volume 656.015818
_symmetry_space_group_name_H-M "P -1"
_symmetry_group_IT_number 2
_symmetry_cell_setting 'triclinic'
loop_
_space_group_symop_operation_xyz
x,y,z
-x,-y,-z
loop_
_atom_site_type_symbol
_atom_site_label
_atom_site_fract_x
_atom_site_fract_y
_atom_site_fract_z
Si Si1 0.805662 0.384109 0.268728
Si Si2 0.884047 0.630077 0.967203
Si Si3 0.604883 0.485051 0.380263
Si Si4 0.700627 0.219045 0.930306
Si Si5 0.536742 0.871821 0.681107
Si Si6 0.508087 0.986535 0.184853
Si Si7 0.262225 0.311335 0.504295
O O1 0.740288 0.439735 0.339721
O O2 0.668811 0.231711 0.296143
O O3 0.050025 0.336094 0.365178
O O4 0.769404 0.527918 0.088955
O O5 0.722969 0.742602 0.790102
O O6 0.000000 0.500000 0.000000
O O7 0.061974 0.736226 0.008977
O O8 0.432414 0.619958 0.222263
O O9 0.469081 0.341313 0.472285
O O10 0.732718 0.558534 0.473273
O O11 0.658298 0.104256 0.883113
O O12 0.598362 0.132362 0.056352
O O13 0.500000 0.000000 0.500000
O O14 0.582831 0.958370 0.757255
O O15 0.700463 0.861759 0.332284
#
# Coordination Sequence:
#
# PCOD9110734 Si02
#       7
#     2   2   2   2   2   2   2
#     4  12  24  42  70  97 134 181 227 273 338 400
#     4  12  26  45  70 100 133 181 232 280 337 398
#     4  10  20  42  66 102 135 167 226 276 335 401
#     4  10  21  43  71  94 132 177 222 281 338 399
#     4  12  28  44  65  99 141 178 225 281 332 413
#     4  10  23  43  65  97 136 177 219 278 345 396
#     4  10  22  39  69 100 136 174 214 284 335 401
#
# _framework density 21.340948000000001
#
# number of rings (size 3 to 8) (size 9 to 14) (size 15 to 20)
#    0.000    1.143    1.429    4.286    4.000    1.143 
#    2.571    0.000    0.000    0.000    0.000    0.000 
#    0.000    0.000    0.000    0.000    0.000    0.000 
#
# Total GULP energy -78345.174599 kJ/mol
# GULP energy per Si atom -5596.083900 kJ/mol
# Density = 2.129238 g / cm^3
# Si number density = 21.340948 Si / 1000 Ang^3
#
#
#
# Elastic Constant Matrix: (Units=GPa)
#
#
# Indices 1 2 3 4 5 6 
#
# 1 62.1563 34.8530 27.3786 9.8663 -5.9281 -3.5083
# 2 34.8530 76.8552 34.8644 3.1567 -7.7540 -0.5889
# 3 27.3786 34.8644 131.4873 -3.0738 -4.9247 10.7457
# 4 9.8663 3.1567 -3.0738 22.0663 -0.3300 -10.8126
# 5 -5.9281 -7.7540 -4.9247 -0.3300 42.8240 9.6446
# 6 -3.5083 -0.5889 10.7457 -10.8126 9.6446 41.2964
#
#
#
# Elastic Compliance Matrix: (Units=1/GPa)
#
#
# Indices 1 2 3 4 5 6 
#
# 1 0.024131 -0.009147 -0.002758 -0.009989 0.001357 -0.000295
# 2 -0.009147 0.018632 -0.002956 0.001107 0.001744 0.000140
# 3 -0.002758 -0.002956 0.009225 0.001790 0.000691 -0.002370
# 4 -0.009989 0.001107 0.001790 0.056920 -0.003802 0.014493
# 5 0.001357 0.001744 0.000691 -0.003802 0.025478 -0.006986
# 6 -0.000295 0.000140 -0.002370 0.014493 -0.006986 0.030235
#
#
# Mechanical properties :
#
#
# Convention : Reuss Voigt Hill
#
# Bulk Modulus (GPa) = 44.91193 51.63231 48.27212
# Shear Modulus (GPa) = 24.78143 32.79753 28.78948
#
# Velocity S-wave (km/s) = 3.41136 3.92450 3.67689
# Velocity P-wave (km/s) = 6.05038 6.69195 6.37924
#
# Compressibility (1/GPa) = 0.02226580
#
# Stress axis : x y z
#
# Youngs Moduli (GPa) = 41.44117 53.67084 108.40447
#
# Poissons Ratio (x) = 0.49093 0.29895
# Poissons Ratio (y) = 0.37906 0.32044
# Poissons Ratio (z) = 0.11428 0.15865
#
# Static dielectric constant tensor:
#      x y z
#    x 1.735070 -0.009210 -0.007410 
#    y -0.009210 1.783270 0.015570 
#    z -0.007410 0.015570 1.758030 
# 
# From -- ./inp_files/94863.got.cif
#   From: 2010.05.17/outbox.cif.g08.bks.cpg/sg2_48_cif.got.tgz:94863.got - 2010.06.03 11:33:40.
