data_PCOD9110457
_publ_section_title
;
Structure prediction by ZEFSAII (Michael W. Deem and Ramdas Pophale) SiO2 
 PCOD9110457
Probable space group: P -1
;
_chemical_formula_sum "Si O2"
_cell_formula_units_Z 14
_cell_length_a 13.647190
_cell_length_b 10.258266
_cell_length_c 12.477856
_cell_angle_alpha 143.059171
_cell_angle_beta 129.347433
_cell_angle_gamma 32.974617
_cell_volume 567.829855
_symmetry_space_group_name_H-M "P -1"
_symmetry_group_IT_number 2
_symmetry_cell_setting 'triclinic'
loop_
_space_group_symop_operation_xyz
x,y,z
-x,-y,-z
loop_
_atom_site_type_symbol
_atom_site_label
_atom_site_fract_x
_atom_site_fract_y
_atom_site_fract_z
Si Si1 0.461249 0.688786 0.203287
Si Si2 0.181472 0.993720 0.784921
Si Si3 0.591273 0.614481 0.875736
Si Si4 0.297327 0.671034 0.448363
Si Si5 0.744798 0.651648 0.458260
Si Si6 0.093824 0.514598 0.928119
Si Si7 0.103620 0.280508 0.579397
O O1 0.360882 0.658554 0.200619
O O2 0.639009 0.559735 0.304477
O O3 0.358310 0.041041 0.340234
O O4 0.500000 0.500000 0.000000
O O5 0.095222 0.287102 0.843258
O O6 0.375278 0.852510 0.866857
O O7 0.210083 0.761861 0.566253
O O8 0.036506 0.156720 0.886446
O O9 0.676189 0.537606 0.764069
O O10 0.695408 0.671704 0.050921
O O11 0.500000 0.500000 0.500000
O O12 0.197989 0.981126 0.517558
O O13 0.758850 0.755083 0.422003
O O14 0.945091 0.380775 0.462824
O O15 0.024017 0.551399 0.785937
#
# Coordination Sequence:
#
# PCOD9110457 Si02
#       7
#     2   2   2   2   2   2   2
#     4  11  24  42  64  98 126 171 221 268 327 389
#     4   9  21  39  58  91 125 166 215 261 327 391
#     4  11  21  38  62  92 124 166 216 266 326 389
#     4   9  19  38  62  86 126 163 209 262 321 388
#     4  10  23  43  65  92 135 169 215 271 325 389
#     4  10  21  38  63  91 127 165 212 268 324 389
#     4  10  20  42  62  90 126 173 209 265 334 381
#
# _framework density 24.655273999999999
#
# number of rings (size 3 to 8) (size 9 to 14) (size 15 to 20)
#    0.000    2.000    1.429    1.286    2.000    1.714 
#    0.000   13.571    0.000    0.000    0.000    0.000 
#    0.000    0.000    0.000    0.000    0.000    0.000 
#
# Total GULP energy -78142.815047 kJ/mol
# GULP energy per Si atom -5581.629646 kJ/mol
# Density = 2.459916 g / cm^3
# Si number density = 24.655274 Si / 1000 Ang^3
#
#
#
# Elastic Constant Matrix: (Units=GPa)
#
#
# Indices 1 2 3 4 5 6 
#
# 1 58.2013 -2.3810 20.3734 1.7704 1.4357 -10.8208
# 2 -2.3810 82.2810 16.1768 -5.1158 -6.6060 -12.3761
# 3 20.3734 16.1768 109.0483 -7.1133 -9.0695 -8.7004
# 4 1.7704 -5.1158 -7.1133 33.6158 -4.1385 3.7821
# 5 1.4357 -6.6060 -9.0695 -4.1385 27.6856 1.9245
# 6 -10.8208 -12.3761 -8.7004 3.7821 1.9245 24.1849
#
#
#
# Elastic Compliance Matrix: (Units=1/GPa)
#
#
# Indices 1 2 3 4 5 6 
#
# 1 0.020609 0.002406 -0.003864 -0.002990 -0.002886 0.009760
# 2 0.002406 0.013893 -0.001670 0.001105 0.002306 0.007229
# 3 -0.003864 -0.001670 0.010656 0.002590 0.003641 0.000555
# 4 -0.002990 0.001105 0.002590 0.032015 0.006425 -0.005359
# 5 -0.002886 0.002306 0.003641 0.006425 0.039176 -0.002924
# 6 0.009760 0.007229 0.000555 -0.005359 -0.002924 0.050685
#
#
# Mechanical properties :
#
#
# Convention : Reuss Voigt Hill
#
# Bulk Modulus (GPa) = 25.70471 35.31876 30.51173
# Shear Modulus (GPa) = 26.84470 31.45468 29.14969
#
# Velocity S-wave (km/s) = 3.30328 3.57568 3.44218
# Velocity P-wave (km/s) = 4.99971 5.60388 5.31040
#
# Compressibility (1/GPa) = 0.03890337
#
# Stress axis : x y z
#
# Youngs Moduli (GPa) = 48.52160 71.98099 93.84441
#
# Poissons Ratio (x) = -0.17322 0.36259
# Poissons Ratio (y) = -0.11676 0.15671
# Poissons Ratio (z) = 0.18748 0.12020
#
# Static dielectric constant tensor:
#      x y z
#    x 1.925700 0.018680 -0.044990 
#    y 0.018680 1.983780 0.069660 
#    z -0.044990 0.069660 2.076850 
# 
# From -- ./inp_files/447021.got.cif
#   From: 2010.05.17/outbox.cif.g08.bks.cpg/sg2_224_cif.got.tgz:447021.got - 2010.06.03 11:33:40.
