data_PCOD9110751
_publ_section_title
;
Structure prediction by ZEFSAII (Michael W. Deem and Ramdas Pophale) SiO2 
 PCOD9110751
Probable space group: P -1
;
_chemical_formula_sum "Si O2"
_cell_formula_units_Z 16
_cell_length_a 11.618698
_cell_length_b 14.628240
_cell_length_c 11.848351
_cell_angle_alpha 118.213444
_cell_angle_beta 86.351909
_cell_angle_gamma 40.979304
_cell_volume 798.142021
_symmetry_space_group_name_H-M "P -1"
_symmetry_group_IT_number 2
_symmetry_cell_setting 'triclinic'
loop_
_space_group_symop_operation_xyz
x,y,z
-x,-y,-z
loop_
_atom_site_type_symbol
_atom_site_label
_atom_site_fract_x
_atom_site_fract_y
_atom_site_fract_z
Si Si1 0.108246 0.926121 0.279573
Si Si2 0.874133 0.730096 0.346128
Si Si3 0.545207 0.756484 0.920146
Si Si4 0.463984 0.187568 0.529051
Si Si5 0.129745 0.150753 0.350654
Si Si6 0.244650 0.782425 0.935889
Si Si7 0.755445 0.619864 0.590218
Si Si8 0.421268 0.679468 0.335221
O O1 0.331529 0.727372 0.240854
O O2 0.090896 0.064115 0.341633
O O3 0.157143 0.839037 0.103862
O O4 0.842948 0.101814 0.451271
O O5 0.740679 0.725490 0.350144
O O6 0.807279 0.832984 0.532953
O O7 0.178788 0.478043 0.175061
O O8 0.739365 0.914139 0.373820
O O9 0.424146 0.740022 0.897822
O O10 0.599900 0.763024 0.798697
O O11 0.350539 0.973498 0.139549
O O12 0.403652 0.241912 0.432456
O O13 0.451230 0.310840 0.656760
O O14 0.875348 0.408169 0.467913
O O15 0.403673 0.552296 0.761916
O O16 0.000000 0.000000 0.000000
O O17 0.000000 0.500000 0.500000
#
# Coordination Sequence:
#
# PCOD9110751 Si02
#       8
#     2   2   2   2   2   2   2   2
#     4  10  23  43  66  91 121 170 210 255 319 366
#     4  10  21  46  63  92 129 163 206 262 311 367
#     4  10  23  42  67  85 128 173 200 253 328 363
#     4  11  23  39  68  95 126 161 215 258 304 376
#     4  10  20  42  66  87 124 168 207 250 323 373
#     4  11  26  43  62  97 129 162 210 263 306 379
#     4  11  22  41  62  93 129 164 207 263 308 372
#     4  11  23  41  68  90 124 169 209 259 313 368
#
# _framework density 20.046558999999998
#
# number of rings (size 3 to 8) (size 9 to 14) (size 15 to 20)
#    0.000    1.500    3.750    1.875    7.000    1.000 
#    0.000    5.000    0.000    0.000    0.000    0.000 
#    0.000    0.000    0.000    0.000    0.000    0.000 
#
# Total GULP energy -89410.623676 kJ/mol
# GULP energy per Si atom -5588.163980 kJ/mol
# Density = 2.000093 g / cm^3
# Si number density = 20.046559 Si / 1000 Ang^3
#
#
#
# Elastic Constant Matrix: (Units=GPa)
#
#
# Indices 1 2 3 4 5 6 
#
# 1 67.4649 3.8895 17.9487 4.4773 2.0940 -6.2144
# 2 3.8895 145.9127 24.1688 4.1416 -5.6418 -7.2266
# 3 17.9487 24.1688 76.8099 -10.9180 -3.9470 -5.0150
# 4 4.4773 4.1416 -10.9180 23.7138 5.9998 0.2143
# 5 2.0940 -5.6418 -3.9470 5.9998 19.0600 0.0144
# 6 -6.2144 -7.2266 -5.0150 0.2143 0.0144 26.2818
#
#
#
# Elastic Compliance Matrix: (Units=1/GPa)
#
#
# Indices 1 2 3 4 5 6 
#
# 1 0.016706 0.000598 -0.004667 -0.005185 -0.000995 0.003267
# 2 0.000598 0.007580 -0.002758 -0.003399 0.002675 0.001726
# 3 -0.004667 -0.002758 0.016319 0.008787 0.000309 0.001180
# 4 -0.005185 -0.003399 0.008787 0.051552 -0.014844 -0.000896
# 5 -0.000995 0.002675 0.000309 -0.014844 0.058103 0.000648
# 6 0.003267 0.001726 0.001180 -0.000896 0.000648 0.039528
#
#
# Mechanical properties :
#
#
# Convention : Reuss Voigt Hill
#
# Bulk Modulus (GPa) = 37.10304 42.46680 39.78492
# Shear Modulus (GPa) = 23.53781 30.08984 26.81382
#
# Velocity S-wave (km/s) = 3.43032 3.87847 3.66126
# Velocity P-wave (km/s) = 5.85133 6.42548 6.14511
#
# Compressibility (1/GPa) = 0.02695197
#
# Stress axis : x y z
#
# Youngs Moduli (GPa) = 59.86048 131.93226 61.27665
#
# Poissons Ratio (x) = -0.07892 0.28596
# Poissons Ratio (y) = -0.03581 0.16899
# Poissons Ratio (z) = 0.27935 0.36384
#
# Static dielectric constant tensor:
#      x y z
#    x 1.712290 0.006150 0.004750 
#    y 0.006150 1.720020 -0.004890 
#    z 0.004750 -0.004890 1.690450 
# 
# From -- ./inp_files/434217.got.cif
#   From: 2010.05.17/outbox.cif.g08.bks.cpg/sg2_218_cif.got.tgz:434217.got - 2010.06.03 11:33:40.
