data_PCOD9110529
_publ_section_title
;
Structure prediction by ZEFSAII (Michael W. Deem and Ramdas Pophale) SiO2 
 PCOD9110529
Probable space group: P -1
;
_chemical_formula_sum "Si O2"
_cell_formula_units_Z 14
_cell_length_a 18.831994
_cell_length_b 10.748756
_cell_length_c 13.863209
_cell_angle_alpha 135.337981
_cell_angle_beta 23.240901
_cell_angle_gamma 147.603160
_cell_volume 564.927927
_symmetry_space_group_name_H-M "P -1"
_symmetry_group_IT_number 2
_symmetry_cell_setting 'triclinic'
loop_
_space_group_symop_operation_xyz
x,y,z
-x,-y,-z
loop_
_atom_site_type_symbol
_atom_site_label
_atom_site_fract_x
_atom_site_fract_y
_atom_site_fract_z
Si Si1 0.959281 0.735830 0.821743
Si Si2 0.445438 0.615558 0.258964
Si Si3 0.891507 0.334087 0.756709
Si Si4 0.855230 0.505373 0.099354
Si Si5 0.253704 0.145904 0.323276
Si Si6 0.013735 0.979194 0.219644
Si Si7 0.609165 0.812942 0.368392
O O1 0.850854 0.466741 0.807112
O O2 0.021035 0.868691 0.716228
O O3 0.208334 0.908606 0.670983
O O4 0.772705 0.747430 0.112140
O O5 0.442505 0.407302 0.181151
O O6 0.473253 0.741882 0.395486
O O7 0.181106 0.472403 0.462203
O O8 0.696514 0.824624 0.002415
O O9 0.719458 0.045770 0.807449
O O10 0.860175 0.398852 0.936957
O O11 0.580914 0.341342 0.392967
O O12 0.973265 0.779387 0.094632
O O13 0.000000 0.500000 0.000000
O O14 0.000000 0.000000 0.500000
O O15 0.179840 0.164257 0.531654
#
# Coordination Sequence:
#
# PCOD9110529 Si02
#       7
#     2   2   2   2   2   2   2
#     4  10  24  40  61  99 130 178 207 262 334 385
#     4  10  21  42  69  93 130 171 217 274 316 374
#     4  11  23  39  63  98 134 162 224 270 314 387
#     4  12  22  38  70 102 122 170 223 273 318 375
#     4  10  22  45  65  93 131 169 218 272 318 380
#     4  11  24  43  69  91 134 174 212 260 338 382
#     4  10  20  42  63  94 135 162 216 263 325 376
#
# _framework density 24.781922000000002
#
# number of rings (size 3 to 8) (size 9 to 14) (size 15 to 20)
#    0.000    1.429    2.857    3.429    2.000    6.286 
#    2.571    2.857    0.000    0.000    0.000    0.000 
#    0.000    0.000    0.000    0.000    0.000    0.000 
#
# Total GULP energy -78370.815599 kJ/mol
# GULP energy per Si atom -5597.915400 kJ/mol
# Density = 2.472552 g / cm^3
# Si number density = 24.781922 Si / 1000 Ang^3
#
#
#
# Elastic Constant Matrix: (Units=GPa)
#
#
# Indices 1 2 3 4 5 6 
#
# 1 48.4804 -19.7613 -3.3269 8.4074 -4.8296 -7.5129
# 2 -19.7613 119.9505 20.0136 3.5619 -0.7131 -10.0244
# 3 -3.3269 20.0136 57.1681 -9.8819 10.5161 -4.1987
# 4 8.4074 3.5619 -9.8819 35.9078 -1.2811 -4.3365
# 5 -4.8296 -0.7131 10.5161 -1.2811 30.7671 2.5054
# 6 -7.5129 -10.0244 -4.1987 -4.3365 2.5054 39.0183
#
#
#
# Elastic Compliance Matrix: (Units=1/GPa)
#
#
# Indices 1 2 3 4 5 6 
#
# 1 0.024737 0.004974 -0.001702 -0.006017 0.003927 0.004937
# 2 0.004974 0.010133 -0.003925 -0.002853 0.002019 0.002692
# 3 -0.001702 -0.003925 0.021485 0.006696 -0.007603 0.002208
# 4 -0.006017 -0.002853 0.006696 0.031605 -0.002185 0.002482
# 5 0.003927 0.002019 -0.007603 -0.002185 0.035843 -0.002088
# 6 0.004937 0.002692 0.002208 0.002482 -0.002088 0.027919
#
#
# Mechanical properties :
#
#
# Convention : Reuss Voigt Hill
#
# Bulk Modulus (GPa) = 18.16508 24.38332 21.27420
# Shear Modulus (GPa) = 29.17530 36.38354 32.77942
#
# Velocity S-wave (km/s) = 3.43488 3.83580 3.64086
# Velocity P-wave (km/s) = 4.80386 5.42939 5.12618
#
# Compressibility (1/GPa) = 0.05505068
#
# Stress axis : x y z
#
# Youngs Moduli (GPa) = 40.42464 98.69025 46.54330
#
# Poissons Ratio (x) = -0.49088 0.07920
# Poissons Ratio (y) = -0.20107 0.18267
# Poissons Ratio (z) = 0.06879 0.38732
#
# Static dielectric constant tensor:
#      x y z
#    x 1.976240 0.018900 -0.036360 
#    y 0.018900 1.979730 -0.010220 
#    z -0.036360 -0.010220 1.977130 
# 
# From -- ./inp_files/255948.got.cif
#   From: 2010.05.17/outbox.cif.g08.bks.cpg/sg2_128_cif.got.tgz:255948.got - 2010.06.03 11:33:40.
