data_PCOD9110413
_publ_section_title
;
Structure prediction by ZEFSAII (Michael W. Deem and Ramdas Pophale) SiO2 
 PCOD9110413
Probable space group: P -1
;
_chemical_formula_sum "Si O2"
_cell_formula_units_Z 16
_cell_length_a 7.522695
_cell_length_b 18.273872
_cell_length_c 9.118120
_cell_angle_alpha 54.521667
_cell_angle_beta 48.910575
_cell_angle_gamma 80.419089
_cell_volume 720.557011
_symmetry_space_group_name_H-M "P -1"
_symmetry_group_IT_number 2
_symmetry_cell_setting 'triclinic'
loop_
_space_group_symop_operation_xyz
x,y,z
-x,-y,-z
loop_
_atom_site_type_symbol
_atom_site_label
_atom_site_fract_x
_atom_site_fract_y
_atom_site_fract_z
Si Si1 0.958184 0.889994 0.496462
Si Si2 0.844168 0.402076 0.281340
Si Si3 0.235487 0.936549 0.572425
Si Si4 0.679703 0.638793 0.552905
Si Si5 0.983199 0.854967 0.075064
Si Si6 0.350877 0.535477 0.412112
Si Si7 0.728092 0.675364 0.818351
Si Si8 0.292322 0.007886 0.958186
O O1 0.815895 0.965839 0.477322
O O2 0.788050 0.788500 0.643714
O O3 0.014502 0.877187 0.650551
O O4 0.240030 0.946129 0.209914
O O5 0.576887 0.364562 0.387103
O O6 0.821324 0.425815 0.437382
O O7 0.006568 0.333952 0.268387
O O8 0.000000 0.500000 0.000000
O O9 0.490681 0.960861 0.316940
O O10 0.201843 0.878950 0.807553
O O11 0.879400 0.744134 0.295999
O O12 0.758712 0.556066 0.528511
O O13 0.643595 0.627263 0.760951
O O14 0.773796 0.897393 0.079402
O O15 0.078826 0.922388 0.084891
O O16 0.500000 0.500000 0.500000
O O17 0.531168 0.619535 0.114516
#
# Coordination Sequence:
#
# PCOD9110413 Si02
#       8
#     2   2   2   2   2   2   2   2
#     4  10  23  39  62  95 132 165 223 270 319 386
#     4  11  25  45  70  97 130 175 216 269 339 393
#     4  10  22  39  63  91 131 175 216 267 324 386
#     4  11  24  46  67  99 138 170 222 278 323 392
#     4  10  22  39  62  94 129 170 218 266 323 386
#     4  10  23  44  69  96 134 167 216 278 326 395
#     4  12  24  46  69  99 134 174 219 279 326 393
#     4  10  20  42  61  89 131 172 214 271 323 380
#
# _framework density 22.205044999999998
#
# number of rings (size 3 to 8) (size 9 to 14) (size 15 to 20)
#    0.000    1.500    3.750    1.125    5.250    1.500 
#    0.000    0.000    0.000    0.000    0.000    0.000 
#    0.000    0.000    0.000    0.000    0.000    0.000 
#
# Total GULP energy -89268.447080 kJ/mol
# GULP energy per Si atom -5579.277943 kJ/mol
# Density = 2.215451 g / cm^3
# Si number density = 22.205045 Si / 1000 Ang^3
#
#
#
# Elastic Constant Matrix: (Units=GPa)
#
#
# Indices 1 2 3 4 5 6 
#
# 1 22.8017 -7.7250 8.9478 13.3278 3.9023 10.9117
# 2 -7.7250 61.5103 63.3156 16.4475 -9.5771 -0.3822
# 3 8.9478 63.3156 145.0511 16.3919 11.3767 2.4842
# 4 13.3278 16.4475 16.3919 33.6480 6.7663 3.1116
# 5 3.9023 -9.5771 11.3767 6.7663 27.8845 8.8253
# 6 10.9117 -0.3822 2.4842 3.1116 8.8253 28.9693
#
#
#
# Elastic Compliance Matrix: (Units=1/GPa)
#
#
# Indices 1 2 3 4 5 6 
#
# 1 0.396536 0.295501 -0.138124 -0.262642 0.220726 -0.172649
# 2 0.295501 0.268148 -0.124082 -0.214677 0.195778 -0.133710
# 3 -0.138124 -0.124082 0.064878 0.096669 -0.093090 0.062802
# 4 -0.262642 -0.214677 0.096669 0.214092 -0.164766 0.115005
# 5 0.220726 0.195778 -0.093090 -0.164766 0.185421 -0.111363
# 6 -0.172649 -0.133710 0.062802 0.115005 -0.111363 0.113974
#
#
# Mechanical properties :
#
#
# Convention : Reuss Voigt Hill
#
# Bulk Modulus (GPa) = 1.25604 39.82665 20.54135
# Shear Modulus (GPa) = 3.46779 29.08866 16.27822
#
# Velocity S-wave (km/s) = 1.25104 3.62332 2.71049
# Velocity P-wave (km/s) = 1.62901 5.95646 4.36653
#
# Compressibility (1/GPa) = 0.79615285
#
# Stress axis : x y z
#
# Youngs Moduli (GPa) = 2.52184 3.72929 15.41344
#
# Poissons Ratio (x) = -1.10201 2.12896
# Poissons Ratio (y) = -0.74521 1.91253
# Poissons Ratio (z) = 0.34833 0.46274
#
# Static dielectric constant tensor:
#      x y z
#    x 1.970200 -0.033130 -0.012480 
#    y -0.033130 1.842340 0.031010 
#    z -0.012480 0.031010 1.804050 
# 
# From -- ./inp_files/214720.got.cif
#   From: 2010.05.17/outbox.cif.g08.bks.cpg/sg2_108_cif.got.tgz:214720.got - 2010.06.03 11:33:40.
