data_PCOD9110458
_publ_section_title
;
Structure prediction by ZEFSAII (Michael W. Deem and Ramdas Pophale) SiO2 
 PCOD9110458
Probable space group: P -1
;
_chemical_formula_sum "Si O2"
_cell_formula_units_Z 16
_cell_length_a 6.978490
_cell_length_b 10.247419
_cell_length_c 14.339270
_cell_angle_alpha 55.189772
_cell_angle_beta 87.265901
_cell_angle_gamma 67.125898
_cell_volume 754.866710
_symmetry_space_group_name_H-M "P -1"
_symmetry_group_IT_number 2
_symmetry_cell_setting 'triclinic'
loop_
_space_group_symop_operation_xyz
x,y,z
-x,-y,-z
loop_
_atom_site_type_symbol
_atom_site_label
_atom_site_fract_x
_atom_site_fract_y
_atom_site_fract_z
Si Si1 0.234026 0.098837 0.147757
Si Si2 0.310843 0.808253 0.634303
Si Si3 0.151766 0.922428 0.392108
Si Si4 0.394706 0.333097 0.160707
Si Si5 0.203599 0.534071 0.497741
Si Si6 0.748390 0.103480 0.935606
Si Si7 0.745778 0.288606 0.029974
Si Si8 0.517471 0.446592 0.681040
O O1 0.287494 0.249540 0.127106
O O2 0.983455 0.171197 0.104927
O O3 0.271465 0.963075 0.287333
O O4 0.325515 0.016411 0.077958
O O5 0.277240 0.896073 0.497413
O O6 0.512048 0.786728 0.701344
O O7 0.376659 0.601902 0.692769
O O8 0.086124 0.920879 0.646312
O O9 0.139035 0.739249 0.442623
O O10 0.601882 0.333425 0.106283
O O11 0.251744 0.541720 0.091288
O O12 0.349828 0.421484 0.626279
O O13 0.348091 0.492052 0.418474
O O14 0.000000 0.500000 0.500000
O O15 0.683197 0.273303 0.800436
O O16 0.655480 0.188616 0.002531
O O17 0.000000 0.000000 0.000000
#
# Coordination Sequence:
#
# PCOD9110458 Si02
#       8
#     2   2   2   2   2   2   2   2
#     4  11  22  39  62  91 118 160 204 259 304 362
#     4  10  21  40  61  91 126 165 199 259 314 368
#     4  10  21  41  62  89 133 155 204 264 310 368
#     4  11  22  38  65  86 118 165 205 246 313 366
#     4  10  22  41  66  91 122 169 208 256 317 378
#     4  10  21  39  66  87 126 165 207 264 312 359
#     4  10  22  42  58  86 126 157 203 258 303 363
#     4  10  20  42  62  90 127 164 208 260 312 374
#
# _framework density 21.195793999999999
#
# number of rings (size 3 to 8) (size 9 to 14) (size 15 to 20)
#    0.000    1.750    3.750    0.375    0.000    2.000 
#    6.750    2.500    0.000    0.000    0.000    0.000 
#    0.000    0.000    0.000    0.000    0.000    0.000 
#
# Total GULP energy -89122.115202 kJ/mol
# GULP energy per Si atom -5570.132200 kJ/mol
# Density = 2.114755 g / cm^3
# Si number density = 21.195794 Si / 1000 Ang^3
#
#
#
# Elastic Constant Matrix: (Units=GPa)
#
#
# Indices 1 2 3 4 5 6 
#
# 1 63.3955 16.8219 20.9099 9.0345 8.4981 22.2394
# 2 16.8219 97.8740 12.8783 6.2207 4.8067 6.3443
# 3 20.9099 12.8783 85.2131 1.3216 29.9082 -0.3044
# 4 9.0345 6.2207 1.3216 29.0202 5.4709 5.2071
# 5 8.4981 4.8067 29.9082 5.4709 19.4629 5.4815
# 6 22.2394 6.3443 -0.3044 5.2071 5.4815 32.0970
#
#
#
# Elastic Compliance Matrix: (Units=1/GPa)
#
#
# Indices 1 2 3 4 5 6 
#
# 1 0.025259 -0.002052 -0.009866 -0.005862 0.011409 -0.018187
# 2 -0.002052 0.010868 -0.001577 -0.001745 0.001318 -0.000683
# 3 -0.009866 -0.001577 0.032621 0.009089 -0.052180 0.014894
# 4 -0.005862 -0.001745 0.009089 0.040208 -0.022803 0.001864
# 5 0.011409 0.001318 -0.052180 -0.022803 0.140838 -0.029013
# 6 -0.018187 -0.000683 0.014894 0.001864 -0.029013 0.048685
#
#
# Mechanical properties :
#
#
# Convention : Reuss Voigt Hill
#
# Bulk Modulus (GPa) = 23.94812 38.63365 31.29088
# Shear Modulus (GPa) = 14.73237 29.17420 21.95329
#
# Velocity S-wave (km/s) = 2.63926 3.71403 3.22178
# Velocity P-wave (km/s) = 4.53990 6.05464 5.35114
#
# Compressibility (1/GPa) = 0.04175693
#
# Stress axis : x y z
#
# Youngs Moduli (GPa) = 39.59041 92.01449 30.65495
#
# Poissons Ratio (x) = 0.18881 0.30245
# Poissons Ratio (y) = 0.08124 0.04834
# Poissons Ratio (z) = 0.39062 0.14511
#
# Static dielectric constant tensor:
#      x y z
#    x 1.718740 -0.009430 0.015350 
#    y -0.009430 1.858740 -0.010760 
#    z 0.015350 -0.010760 1.823510 
# 
# From -- ./inp_files/452134.got.cif
#   From: 2010.05.17/outbox.cif.g08.bks.cpg/sg2_227_cif.got.tgz:452134.got - 2010.06.03 11:33:40.
