data_PCOD9110047
_publ_section_title
;
Structure prediction by ZEFSAII (Michael W. Deem and Ramdas Pophale) SiO2 
 PCOD9110047
Probable space group: P -1
;
_chemical_formula_sum "Si O2"
_cell_formula_units_Z 16
_cell_length_a 17.867878
_cell_length_b 8.054755
_cell_length_c 21.933584
_cell_angle_alpha 124.998962
_cell_angle_beta 162.607505
_cell_angle_gamma 49.831295
_cell_volume 708.757082
_symmetry_space_group_name_H-M "P -1"
_symmetry_group_IT_number 2
_symmetry_cell_setting 'triclinic'
loop_
_space_group_symop_operation_xyz
x,y,z
-x,-y,-z
loop_
_atom_site_type_symbol
_atom_site_label
_atom_site_fract_x
_atom_site_fract_y
_atom_site_fract_z
Si Si1 0.183210 0.654495 0.565406
Si Si2 0.364587 0.013990 0.832541
Si Si3 0.370626 0.443603 0.217271
Si Si4 0.891572 0.685260 0.738568
Si Si5 0.611445 0.113037 0.692517
Si Si6 0.800455 0.895167 0.038962
Si Si7 0.583528 0.233769 0.833153
Si Si8 0.679799 0.342761 0.554079
O O1 0.225764 0.837866 0.679498
O O2 0.391091 0.614572 0.661146
O O3 0.285115 0.426629 0.633779
O O4 0.879286 0.751618 0.323294
O O5 0.597997 0.955839 0.951117
O O6 0.500000 0.000000 0.000000
O O7 0.271861 0.707283 0.203350
O O8 0.163493 0.344532 0.010137
O O9 0.492498 0.323402 0.350030
O O10 0.701750 0.783622 0.552715
O O11 0.847543 0.468940 0.677890
O O12 0.760331 0.877123 0.727523
O O13 0.204597 0.646931 0.970031
O O14 0.639058 0.108155 0.785195
O O15 0.654933 0.069860 0.910286
O O16 0.096864 0.872751 0.286669
O O17 0.500000 0.500000 0.500000
#
# Coordination Sequence:
#
# PCOD9110047 Si02
#       8
#     2   2   2   2   2   2   2   2
#     4   9  20  39  63  89 112 154 196 240 300 364
#     4  10  20  41  69  87 113 152 198 245 300 367
#     4   9  20  40  59  85 118 155 204 245 293 353
#     4  10  21  38  58  82 117 164 213 240 292 351
#     4   9  20  37  60  79 112 167 205 245 286 348
#     4  11  25  38  59  92 121 156 198 249 304 355
#     4  11  23  37  59  87 126 156 193 249 300 355
#     4  11  24  38  59  85 123 162 205 252 287 347
#
# _framework density 22.574729999999999
#
# number of rings (size 3 to 8) (size 9 to 14) (size 15 to 20)
#    0.000    2.000    0.000    3.375    7.000    3.000 
#    0.000    0.625    0.000    0.000    0.000    0.000 
#    0.000    0.000    0.000    0.000    0.000    0.000 
#
# Total GULP energy -89486.533373 kJ/mol
# GULP energy per Si atom -5592.908336 kJ/mol
# Density = 2.252335 g / cm^3
# Si number density = 22.574730 Si / 1000 Ang^3
#
#
#
# Elastic Constant Matrix: (Units=GPa)
#
#
# Indices 1 2 3 4 5 6 
#
# 1 77.0966 10.9235 47.2341 3.3111 -40.1530 10.1702
# 2 10.9235 50.6982 13.4600 -10.0071 -11.8749 8.7789
# 3 47.2341 13.4600 132.8143 -22.1989 -38.4869 -2.6395
# 4 3.3111 -10.0071 -22.1989 41.8180 0.9447 -6.9976
# 5 -40.1530 -11.8749 -38.4869 0.9447 43.6788 -0.0941
# 6 10.1702 8.7789 -2.6395 -6.9976 -0.0941 18.8841
#
#
#
# Elastic Compliance Matrix: (Units=1/GPa)
#
#
# Indices 1 2 3 4 5 6 
#
# 1 0.034231 0.002803 -0.007134 -0.010517 0.026119 -0.024503
# 2 0.002803 0.023854 -0.000734 0.002974 0.008326 -0.011558
# 3 -0.007134 -0.000734 0.013151 0.008824 0.004659 0.009315
# 4 -0.010517 0.002974 0.008824 0.033159 -0.001763 0.017793
# 5 0.026119 0.008326 0.004659 -0.001763 0.053273 -0.017674
# 6 -0.024503 -0.011558 0.009315 0.017793 -0.017674 0.079331
#
#
# Mechanical properties :
#
#
# Convention : Reuss Voigt Hill
#
# Bulk Modulus (GPa) = 16.36504 44.87160 30.61832
# Shear Modulus (GPa) = 18.69162 33.47562 26.08362
#
# Velocity S-wave (km/s) = 2.88060 3.85500 3.40286
# Velocity P-wave (km/s) = 4.28122 6.30355 5.38811
#
# Compressibility (1/GPa) = 0.06110587
#
# Stress axis : x y z
#
# Youngs Moduli (GPa) = 29.21300 41.92132 76.03985
#
# Poissons Ratio (x) = -0.11752 0.54249
# Poissons Ratio (y) = -0.08189 0.05584
# Poissons Ratio (z) = 0.20841 0.03078
#
# Static dielectric constant tensor:
#      x y z
#    x 1.811980 0.023000 -0.008640 
#    y 0.023000 1.872920 -0.016150 
#    z -0.008640 -0.016150 1.865110 
# 
# From -- ./inp_files/503604.got.cif
#   From: 2010.05.17/outbox.cif.g08.bks.cpg/sg2_252_cif.got.tgz:503604.got - 2010.06.03 11:33:40.
