data_PCOD9110205
_publ_section_title
;
Structure prediction by ZEFSAII (Michael W. Deem and Ramdas Pophale) SiO2 
 PCOD9110205
Probable space group: P -1
;
_chemical_formula_sum "Si O2"
_cell_formula_units_Z 16
_cell_length_a 9.270963
_cell_length_b 17.310019
_cell_length_c 13.940247
_cell_angle_alpha 18.107923
_cell_angle_beta 94.124459
_cell_angle_gamma 87.620354
_cell_volume 648.491627
_symmetry_space_group_name_H-M "P -1"
_symmetry_group_IT_number 2
_symmetry_cell_setting 'triclinic'
loop_
_space_group_symop_operation_xyz
x,y,z
-x,-y,-z
loop_
_atom_site_type_symbol
_atom_site_label
_atom_site_fract_x
_atom_site_fract_y
_atom_site_fract_z
Si Si1 0.611953 0.264462 0.216689
Si Si2 0.995360 0.157705 0.079674
Si Si3 0.497209 0.567102 0.206165
Si Si4 0.244329 0.084587 0.631091
Si Si5 0.718525 0.694994 0.425651
Si Si6 0.165423 0.515382 0.974135
Si Si7 0.918165 0.827214 0.136142
Si Si8 0.252957 0.308085 0.018827
O O1 0.564226 0.357681 0.995391
O O2 0.628259 0.977476 0.599610
O O3 0.500000 0.500000 0.000000
O O4 0.788794 0.254125 0.248302
O O5 0.091688 0.051793 0.112894
O O6 0.838258 0.399454 0.761272
O O7 0.102163 0.262049 0.027076
O O8 0.913202 0.965255 0.344293
O O9 0.670616 0.562490 0.210765
O O10 0.396107 0.825950 0.954162
O O11 0.445671 0.333985 0.523068
O O12 0.222495 0.222896 0.569245
O O13 0.273159 0.258732 0.341867
O O14 0.760434 0.853587 0.153600
O O15 0.210766 0.488601 0.897558
O O16 0.000000 0.500000 0.000000
O O17 0.000000 0.500000 0.500000
O O18 0.000000 0.000000 0.000000
#
# Coordination Sequence:
#
# PCOD9110205 Si02
#       8
#     2   2   2   2   2   2   2   2
#     4  12  23  40  58  83 121 175 219 248 309 384
#     4  10  23  39  62  93 122 159 204 269 333 379
#     4  11  23  38  59  84 120 171 213 253 307 385
#     4  11  20  37  59  85 119 157 210 257 310 381
#     4  10  21  39  66  92 117 158 216 264 315 386
#     4  12  24  35  58  87 124 161 204 263 320 371
#     4  10  20  41  70  99 127 166 216 273 334 396
#     4  12  25  40  56  89 132 164 209 261 318 379
#
# _framework density 24.672640999999999
#
# number of rings (size 3 to 8) (size 9 to 14) (size 15 to 20)
#    0.000    1.000    5.000    2.625    1.750    1.000 
#    0.000    0.625    0.000    0.750    0.000    0.000 
#    0.000    0.000    0.000    0.000    0.000    0.000 
#
# Total GULP energy -89266.434151 kJ/mol
# GULP energy per Si atom -5579.152134 kJ/mol
# Density = 2.461648 g / cm^3
# Si number density = 24.672641 Si / 1000 Ang^3
#
#
#
# Elastic Constant Matrix: (Units=GPa)
#
#
# Indices 1 2 3 4 5 6 
#
# 1 109.8139 -3.4424 43.3682 5.1870 -40.8159 -20.4620
# 2 -3.4424 68.5143 17.3456 9.0262 -16.6317 -20.6367
# 3 43.3682 17.3456 69.1569 3.4441 -24.7800 -17.5177
# 4 5.1870 9.0262 3.4441 23.0513 -9.3626 -12.3244
# 5 -40.8159 -16.6317 -24.7800 -9.3626 51.5893 4.0755
# 6 -20.4620 -20.6367 -17.5177 -12.3244 4.0755 37.0699
#
#
#
# Elastic Compliance Matrix: (Units=1/GPa)
#
#
# Indices 1 2 3 4 5 6 
#
# 1 0.020255 0.009954 -0.006015 0.006781 0.016444 0.014326
# 2 0.009954 0.023772 -0.003401 0.003272 0.013175 0.016760
# 3 -0.006015 -0.003401 0.022348 0.004905 0.005263 0.006399
# 4 0.006781 0.003272 0.004905 0.061096 0.017792 0.026239
# 5 0.016444 0.013175 0.005263 0.017792 0.040792 0.020329
# 6 0.014326 0.016760 0.006399 0.026239 0.020329 0.053727
#
#
# Mechanical properties :
#
#
# Convention : Reuss Voigt Hill
#
# Bulk Modulus (GPa) = 14.82598 40.22532 27.52565
# Shear Modulus (GPa) = 20.54252 35.02302 27.78277
#
# Velocity S-wave (km/s) = 2.88862 3.77172 3.35932
# Velocity P-wave (km/s) = 4.14097 5.94196 5.12125
#
# Compressibility (1/GPa) = 0.06744918
#
# Stress axis : x y z
#
# Youngs Moduli (GPa) = 49.37119 42.06628 44.74739
#
# Poissons Ratio (x) = -0.41872 0.26917
# Poissons Ratio (y) = -0.49143 0.15219
# Poissons Ratio (z) = 0.29698 0.14307
#
# Static dielectric constant tensor:
#      x y z
#    x 2.023680 0.022210 -0.009030 
#    y 0.022210 1.903880 -0.003220 
#    z -0.009030 -0.003220 2.089310 
# 
# From -- ./inp_files/39764.got.cif
#   From: 2010.05.17/outbox.cif.g08.bks.cpg/sg2_20_cif.got.tgz:39764.got - 2010.06.03 11:33:40.
