data_PCOD9110822
_publ_section_title
;
Structure prediction by ZEFSAII (Michael W. Deem and Ramdas Pophale) SiO2 
 PCOD9110822
Probable space group: P -1
;
_chemical_formula_sum "Si O2"
_cell_formula_units_Z 16
_cell_length_a 25.462413
_cell_length_b 11.292365
_cell_length_c 18.651344
_cell_angle_alpha 25.321266
_cell_angle_beta 163.056109
_cell_angle_gamma 152.770240
_cell_volume 655.416707
_symmetry_space_group_name_H-M "P -1"
_symmetry_group_IT_number 2
_symmetry_cell_setting 'triclinic'
loop_
_space_group_symop_operation_xyz
x,y,z
-x,-y,-z
loop_
_atom_site_type_symbol
_atom_site_label
_atom_site_fract_x
_atom_site_fract_y
_atom_site_fract_z
Si Si1 0.774386 0.518337 0.053881
Si Si2 0.032190 0.881747 0.400603
Si Si3 0.660467 0.533002 0.133002
Si Si4 0.199927 0.495183 0.296637
Si Si5 0.688843 0.445114 0.747674
Si Si6 0.796926 0.061798 0.211409
Si Si7 0.562952 0.492536 0.283870
Si Si8 0.914226 0.056409 0.725874
O O1 0.789186 0.317810 0.116095
O O2 0.859673 0.369264 0.312636
O O3 0.919839 0.811414 0.076823
O O4 0.570326 0.508373 0.820865
O O5 0.841023 0.775238 0.248880
O O6 0.001199 0.925572 0.253244
O O7 0.167441 0.159261 0.453628
O O8 0.752755 0.247864 0.409106
O O9 0.500000 0.500000 0.000000
O O10 0.569370 0.626289 0.889698
O O11 0.319071 0.579847 0.334889
O O12 0.275863 0.632699 0.396163
O O13 0.000000 0.500000 0.000000
O O14 0.500000 0.500000 0.500000
O O15 0.831327 0.726176 0.804938
O O16 0.733095 0.173064 0.992589
O O17 0.659651 0.788480 0.212074
O O18 0.000000 0.000000 0.500000
#
# Coordination Sequence:
#
# PCOD9110822 Si02
#       8
#     2   2   2   2   2   2   2   2
#     4  11  21  41  72 100 130 184 244 277 337 434
#     4  10  20  42  66  94 135 180 227 282 342 420
#     4  11  23  38  68 107 140 171 230 301 351 407
#     4  11  25  44  68  94 139 185 231 284 353 414
#     4  11  25  44  68 101 141 184 229 294 355 412
#     4  12  27  41  68 107 144 172 231 302 356 404
#     4  12  23  42  74 102 127 187 248 275 334 444
#     4  10  21  43  67  97 142 186 227 286 355 425
#
# _framework density 24.411951999999999
#
# number of rings (size 3 to 8) (size 9 to 14) (size 15 to 20)
#    0.000    1.000    3.750    3.375    5.250    1.500 
#    0.000    0.625    2.750    0.000    0.000    0.000 
#    0.000    0.000    0.000    0.000    0.000    0.000 
#
# Total GULP energy -89345.159741 kJ/mol
# GULP energy per Si atom -5584.072484 kJ/mol
# Density = 2.435639 g / cm^3
# Si number density = 24.411952 Si / 1000 Ang^3
#
#
#
# Elastic Constant Matrix: (Units=GPa)
#
#
# Indices 1 2 3 4 5 6 
#
# 1 102.8472 13.9109 43.8726 1.7110 3.9694 19.9288
# 2 13.9109 44.4980 12.6399 5.1417 -9.6384 20.5303
# 3 43.8726 12.6399 119.1519 3.3843 -8.1022 20.0288
# 4 1.7110 5.1417 3.3843 28.0915 4.7307 3.1558
# 5 3.9694 -9.6384 -8.1022 4.7307 44.0909 3.3692
# 6 19.9288 20.5303 20.0288 3.1558 3.3692 37.0358
#
#
#
# Elastic Compliance Matrix: (Units=1/GPa)
#
#
# Indices 1 2 3 4 5 6 
#
# 1 0.012374 -0.001666 -0.003954 0.000759 -0.002020 -0.003478
# 2 -0.001666 0.034340 0.001022 -0.005834 0.009930 -0.019098
# 3 -0.003954 0.001022 0.010722 -0.001252 0.003020 -0.004405
# 4 0.000759 -0.005834 -0.001252 0.037635 -0.005674 0.000812
# 5 -0.002020 0.009930 0.003020 -0.005674 0.026809 -0.008006
# 6 -0.003478 -0.019098 -0.004405 0.000812 -0.008006 0.042501
#
#
# Mechanical properties :
#
#
# Convention : Reuss Voigt Hill
#
# Bulk Modulus (GPa) = 20.72996 45.26045 32.99521
# Shear Modulus (GPa) = 26.36352 34.91521 30.63936
#
# Velocity S-wave (km/s) = 3.28981 3.78597 3.54658
# Velocity P-wave (km/s) = 4.78964 6.13938 5.50602
#
# Compressibility (1/GPa) = 0.04823935
#
# Stress axis : x y z
#
# Youngs Moduli (GPa) = 80.81184 29.12060 93.27004
#
# Poissons Ratio (x) = 0.04852 0.36879
# Poissons Ratio (y) = 0.13465 -0.09531
# Poissons Ratio (z) = 0.31953 -0.02976
#
# Static dielectric constant tensor:
#      x y z
#    x 1.961370 -0.075640 0.023900 
#    y -0.075640 2.042350 0.090890 
#    z 0.023900 0.090890 2.018900 
# 
# From -- ./inp_files/579226.got.cif
#   From: 2010.05.17/outbox.cif.g08.bks.cpg/sg2_290_cif.got.tgz:579226.got - 2010.06.03 11:33:40.
