data_PCOD9110135
_publ_section_title
;
Structure prediction by ZEFSAII (Michael W. Deem and Ramdas Pophale) SiO2 
 PCOD9110135
Probable space group: P -1
;
_chemical_formula_sum "Si O2"
_cell_formula_units_Z 12
_cell_length_a 8.278378
_cell_length_b 7.422920
_cell_length_c 12.502327
_cell_angle_alpha 62.090306
_cell_angle_beta 98.987230
_cell_angle_gamma 56.104707
_cell_volume 463.474321
_symmetry_space_group_name_H-M "P -1"
_symmetry_group_IT_number 2
_symmetry_cell_setting 'triclinic'
loop_
_space_group_symop_operation_xyz
x,y,z
-x,-y,-z
loop_
_atom_site_type_symbol
_atom_site_label
_atom_site_fract_x
_atom_site_fract_y
_atom_site_fract_z
Si Si1 0.597004 0.586456 0.117941
Si Si2 0.788062 0.317603 0.689561
Si Si3 0.173761 0.021449 0.638808
Si Si4 0.668604 0.027175 0.550178
Si Si5 0.791677 0.799108 0.201534
Si Si6 0.044687 0.243613 0.128986
O O1 0.626566 0.334254 0.237416
O O2 0.700279 0.668304 0.184187
O O3 0.782308 0.411646 0.087679
O O4 0.358670 0.891279 0.960800
O O5 0.934144 0.164374 0.633990
O O6 0.479708 0.380891 0.438958
O O7 0.830120 0.066070 0.825367
O O8 0.939392 0.367471 0.742486
O O9 0.146236 0.103298 0.490708
O O10 0.249402 0.138450 0.692371
O O11 0.794097 0.870988 0.717684
O O12 0.500000 0.000000 0.500000
O O13 0.000000 0.500000 0.000000
#
# Coordination Sequence:
#
# PCOD9110135 Si02
#       6
#     2   2   2   2   2   2
#     4  10  20  41  70 101 142 185 237 277 364 411
#     4   9  23  46  70 103 142 181 240 285 350 413
#     4   9  23  43  70  99 139 184 231 292 341 414
#     4  12  26  46  71 106 140 187 237 287 355 416
#     4   9  20  41  69 106 134 187 230 289 345 420
#     4  11  26  44  69 105 146 185 233 295 348 419
#
# _framework density 25.891403
#
# number of rings (size 3 to 8) (size 9 to 14) (size 15 to 20)
#    1.000    1.000    0.000    2.000    2.333    6.000 
#    3.000    2.500    0.000    0.000    0.000    0.000 
#    0.000    0.000    0.000    0.000    0.000    0.000 
#
# Total GULP energy -67107.286360 kJ/mol
# GULP energy per Si atom -5592.273863 kJ/mol
# Density = 2.583247 g / cm^3
# Si number density = 25.891403 Si / 1000 Ang^3
#
#
#
# Elastic Constant Matrix: (Units=GPa)
#
#
# Indices 1 2 3 4 5 6 
#
# 1 51.4023 1.3752 31.8541 -4.5187 12.8077 -10.1552
# 2 1.3752 129.2140 17.5075 -3.5493 7.3954 2.1116
# 3 31.8541 17.5075 118.1275 -19.4407 14.3452 -17.4485
# 4 -4.5187 -3.5493 -19.4407 43.4041 1.5090 12.0311
# 5 12.8077 7.3954 14.3452 1.5090 44.2230 -4.5343
# 6 -10.1552 2.1116 -17.4485 12.0311 -4.5343 36.9301
#
#
#
# Elastic Compliance Matrix: (Units=1/GPa)
#
#
# Indices 1 2 3 4 5 6 
#
# 1 0.024957 0.000728 -0.005806 -0.000797 -0.005058 0.003717
# 2 0.000728 0.008017 -0.001324 0.000517 -0.001263 -0.001207
# 3 -0.005806 -0.001324 0.011413 0.003783 -0.001679 0.002433
# 4 -0.000797 0.000517 0.003783 0.026885 -0.002775 -0.007561
# 5 -0.005058 -0.001263 -0.001679 -0.002775 0.025121 0.001877
# 6 0.003717 -0.001207 0.002433 -0.007561 0.001877 0.032012
#
#
# Mechanical properties :
#
#
# Convention : Reuss Voigt Hill
#
# Bulk Modulus (GPa) = 31.66257 44.46861 38.06559
# Shear Modulus (GPa) = 32.95159 41.44526 37.19843
#
# Velocity S-wave (km/s) = 3.57134 4.00526 3.79451
# Velocity P-wave (km/s) = 5.40939 6.21303 5.82509
#
# Compressibility (1/GPa) = 0.03158303
#
# Stress axis : x y z
#
# Youngs Moduli (GPa) = 40.06850 124.73459 87.61816
#
# Poissons Ratio (x) = -0.09079 0.50869
# Poissons Ratio (y) = -0.02916 0.11604
# Poissons Ratio (z) = 0.23263 0.16519
#
# Static dielectric constant tensor:
#      x y z
#    x 2.030320 0.007460 -0.046390 
#    y 0.007460 2.154030 -0.002680 
#    z -0.046390 -0.002680 2.035190 
# 
# From -- ./inp_files/151171.got.cif
#   From: 2010.05.17/outbox.cif.g08.bks.cpg/sg2_76_cif.got.tgz:151171.got - 2010.06.03 11:33:40.
