data_PCOD9110713
_publ_section_title
;
Structure prediction by ZEFSAII (Michael W. Deem and Ramdas Pophale) SiO2 
 PCOD9110713
Probable space group: P -1
;
_chemical_formula_sum "Si O2"
_cell_formula_units_Z 15
_cell_length_a 12.360663
_cell_length_b 10.480815
_cell_length_c 8.804010
_cell_angle_alpha 117.059230
_cell_angle_beta 56.410262
_cell_angle_gamma 135.587774
_cell_volume 661.402754
_symmetry_space_group_name_H-M "P -1"
_symmetry_group_IT_number 2
_symmetry_cell_setting 'triclinic'
loop_
_space_group_symop_operation_xyz
x,y,z
-x,-y,-z
loop_
_atom_site_type_symbol
_atom_site_label
_atom_site_fract_x
_atom_site_fract_y
_atom_site_fract_z
Si Si1 0.745012 0.435102 0.145943
Si Si2 0.624756 0.714838 0.985468
Si Si3 0.925214 0.313860 0.766465
Si Si4 0.104554 0.014579 0.285142
Si Si5 0.544094 0.853984 0.564956
Si Si6 0.000000 0.500000 0.500000
Si Si7 0.622223 0.233520 0.686127
Si Si8 0.217712 0.217651 0.782271
O O1 0.584605 0.270338 0.270260
O O2 0.719842 0.576749 0.177093
O O3 0.900238 0.552088 0.205692
O O4 0.808640 0.365038 0.935397
O O5 0.508450 0.774567 0.111194
O O6 0.746598 0.803805 0.084938
O O7 0.500000 0.500000 0.000000
O O8 0.737193 0.787664 0.787678
O O9 0.974899 0.362294 0.579651
O O10 0.845205 0.111258 0.774703
O O11 0.000000 0.000000 0.500000
O O12 0.972195 0.915262 0.196273
O O13 0.446210 0.794341 0.447869
O O14 0.679711 0.822779 0.423398
O O15 0.620966 0.064529 0.635024
O O16 0.192251 0.579747 0.362461
#
# Coordination Sequence:
#
# PCOD9110713 Si02
#       8
#     2   2   2   2   2   1   2   2
#     4  10  20  42  65  96 131 172 222 274 330 402
#     4  11  26  46  69 100 139 179 228 283 335 403
#     4  10  24  40  67  95 132 175 222 276 332 400
#     4  11  26  46  69 100 139 179 228 283 335 403
#     4  10  20  42  65  96 131 172 222 274 330 402
#     4  12  24  44  66 100 132 174 228 276 338 400
#     4  10  24  40  67  95 132 175 222 276 332 400
#     4  10  24  42  70 100 131 185 218 274 341 404
#
# _framework density 22.679072000000001
#
# number of rings (size 3 to 8) (size 9 to 14) (size 15 to 20)
#    0.000    1.600    1.333    1.600    5.600    2.133 
#    2.400    1.333    0.000    0.000    0.000    0.000 
#    0.000    0.000    0.000    0.000    0.000    0.000 
#
# Total GULP energy -83644.641418 kJ/mol
# GULP energy per Si atom -5576.309428 kJ/mol
# Density = 2.262745 g / cm^3
# Si number density = 22.679072 Si / 1000 Ang^3
#
#
#
# Elastic Constant Matrix: (Units=GPa)
#
#
# Indices 1 2 3 4 5 6 
#
# 1 105.4327 32.4922 29.1034 -9.9773 -14.3698 -19.8907
# 2 32.4922 121.9985 79.2460 -32.7088 -24.2360 -17.5425
# 3 29.1034 79.2460 107.2235 -31.3529 -26.2246 -9.2791
# 4 -9.9773 -32.7088 -31.3529 46.2747 -1.7385 -9.2069
# 5 -14.3698 -24.2360 -26.2246 -1.7385 27.7650 19.6051
# 6 -19.8907 -17.5425 -9.2791 -9.2069 19.6051 26.3777
#
#
#
# Elastic Compliance Matrix: (Units=1/GPa)
#
#
# Indices 1 2 3 4 5 6 
#
# 1 0.012344 0.000343 -0.002647 0.003673 -0.005394 0.013896
# 2 0.000343 0.019257 -0.011373 0.008807 -0.003735 0.014915
# 3 -0.002647 -0.011373 0.024516 0.005529 0.024207 -0.016997
# 4 0.003673 0.008807 0.005529 0.036910 0.001179 0.022578
# 5 -0.005394 -0.003735 0.024207 0.001179 0.107799 -0.077746
# 6 0.013896 0.014915 -0.016997 0.022578 -0.077746 0.117995
#
#
# Mechanical properties :
#
#
# Convention : Reuss Voigt Hill
#
# Bulk Modulus (GPa) = 34.76616 68.48197 51.62406
# Shear Modulus (GPa) = 14.05434 33.00435 23.52935
#
# Velocity S-wave (km/s) = 2.49209 3.81895 3.22451
# Velocity P-wave (km/s) = 4.86247 7.05035 6.05603
#
# Compressibility (1/GPa) = 0.02876360
#
# Stress axis : x y z
#
# Youngs Moduli (GPa) = 81.01354 51.92998 40.78905
#
# Poissons Ratio (x) = -0.01781 0.10796
# Poissons Ratio (y) = -0.02778 0.46389
# Poissons Ratio (z) = 0.21442 0.59059
#
# Static dielectric constant tensor:
#      x y z
#    x 1.897720 0.028060 0.047110 
#    y 0.028060 1.802820 0.060990 
#    z 0.047110 0.060990 1.816030 
# 
# From -- ./inp_files/209169.got.cif
#   From: 2010.05.17/outbox.cif.g08.bks.cpg/sg2_105_cif.got.tgz:209169.got - 2010.06.03 11:33:40.
