data_PCOD9110204
_publ_section_title
;
Structure prediction by ZEFSAII (Michael W. Deem and Ramdas Pophale) SiO2 
 PCOD9110204
Probable space group: P -1
;
_chemical_formula_sum "Si O2"
_cell_formula_units_Z 14
_cell_length_a 8.455105
_cell_length_b 17.519719
_cell_length_c 11.867478
_cell_angle_alpha 152.437268
_cell_angle_beta 41.859048
_cell_angle_gamma 133.348922
_cell_volume 540.850187
_symmetry_space_group_name_H-M "P -1"
_symmetry_group_IT_number 2
_symmetry_cell_setting 'triclinic'
loop_
_space_group_symop_operation_xyz
x,y,z
-x,-y,-z
loop_
_atom_site_type_symbol
_atom_site_label
_atom_site_fract_x
_atom_site_fract_y
_atom_site_fract_z
Si Si1 0.150974 0.422596 0.218648
Si Si2 0.523064 0.253763 0.114446
Si Si3 0.201769 0.865822 0.967441
Si Si4 0.888949 0.542062 0.297445
Si Si5 0.963729 0.812633 0.443822
Si Si6 0.441602 0.015264 0.420868
Si Si7 0.517145 0.702838 0.398453
O O1 0.413068 0.512738 0.207032
O O2 0.000000 0.500000 0.500000
O O3 0.062207 0.230196 0.021363
O O4 0.054801 0.480903 0.226420
O O5 0.663356 0.183173 0.054107
O O6 0.722421 0.388904 0.132844
O O7 0.307102 0.353853 0.401038
O O8 0.426804 0.110934 0.893151
O O9 0.350874 0.799111 0.698211
O O10 0.175628 0.059331 0.238998
O O11 0.025634 0.665279 0.299009
O O12 0.780956 0.732901 0.345351
O O13 0.173193 0.932899 0.437659
O O14 0.500000 0.000000 0.500000
O O15 0.487393 0.198905 0.587706
#
# Coordination Sequence:
#
# PCOD9110204 Si02
#       7
#     2   2   2   2   2   2   2
#     4   9  21  38  64  97 132 157 207 276 327 374
#     4  10  21  41  68  97 129 164 220 272 321 382
#     4  10  20  41  70  99 122 168 221 278 319 371
#     4  10  21  40  71  98 121 167 222 276 322 368
#     4  12  23  40  68  95 127 174 219 260 329 385
#     4  12  27  42  60  94 142 176 211 261 325 400
#     4  11  21  41  67  93 128 168 222 269 317 379
#
# _framework density 25.885173000000002
#
# number of rings (size 3 to 8) (size 9 to 14) (size 15 to 20)
#    0.000    1.429    2.857    2.571    2.000    2.857 
#    0.000    5.714    0.000    0.000    0.000    0.000 
#    0.000    0.000    0.000    0.000    0.000    0.000 
#
# Total GULP energy -78479.675712 kJ/mol
# GULP energy per Si atom -5605.691122 kJ/mol
# Density = 2.582626 g / cm^3
# Si number density = 25.885173 Si / 1000 Ang^3
#
#
#
# Elastic Constant Matrix: (Units=GPa)
#
#
# Indices 1 2 3 4 5 6 
#
# 1 104.5032 44.3900 17.9630 9.2123 21.3697 0.6828
# 2 44.3900 148.0854 19.0451 11.6425 13.6110 7.2201
# 3 17.9630 19.0451 87.3174 3.3419 21.0168 5.2563
# 4 9.2123 11.6425 3.3419 44.9592 4.5852 12.5408
# 5 21.3697 13.6110 21.0168 4.5852 33.9984 -0.0586
# 6 0.6828 7.2201 5.2563 12.5408 -0.0586 49.3984
#
#
#
# Elastic Compliance Matrix: (Units=1/GPa)
#
#
# Indices 1 2 3 4 5 6 
#
# 1 0.012263 -0.002997 -0.000391 -0.001260 -0.006095 0.000623
# 2 -0.002997 0.007944 -0.000884 -0.001108 -0.000602 -0.000745
# 3 -0.000391 -0.000884 0.013706 0.000508 -0.007944 -0.001462
# 4 -0.001260 -0.001108 0.000508 0.024713 -0.002422 -0.006151
# 5 -0.006095 -0.000602 -0.007944 -0.002422 0.038726 0.001678
# 6 0.000623 -0.000745 -0.001462 -0.006151 0.001678 0.022063
#
#
# Mechanical properties :
#
#
# Convention : Reuss Voigt Hill
#
# Bulk Modulus (GPa) = 39.41832 55.85581 47.63707
# Shear Modulus (GPa) = 36.65310 42.90504 39.77907
#
# Velocity S-wave (km/s) = 3.76704 4.07567 3.92439
# Velocity P-wave (km/s) = 5.84654 6.61614 6.24321
#
# Compressibility (1/GPa) = 0.02536891
#
# Stress axis : x y z
#
# Youngs Moduli (GPa) = 81.54889 125.88774 72.95829
#
# Poissons Ratio (x) = 0.37724 0.02855
# Poissons Ratio (y) = 0.24437 0.06449
# Poissons Ratio (z) = 0.03191 0.11128
#
# Static dielectric constant tensor:
#      x y z
#    x 1.962660 0.033290 -0.012260 
#    y 0.033290 2.028550 -0.063400 
#    z -0.012260 -0.063400 2.115040 
# 
# From -- ./inp_files/239057.got.cif
#   From: 2010.05.17/outbox.cif.g08.bks.cpg/sg2_120_cif.got.tgz:239057.got - 2010.06.03 11:33:40.
