data_PCOD9110717
_publ_section_title
;
Structure prediction by ZEFSAII (Michael W. Deem and Ramdas Pophale) SiO2 
 PCOD9110717
Probable space group: P -1
;
_chemical_formula_sum "Si O2"
_cell_formula_units_Z 16
_cell_length_a 8.263384
_cell_length_b 18.581675
_cell_length_c 7.011989
_cell_angle_alpha 138.593703
_cell_angle_beta 121.531221
_cell_angle_gamma 67.920914
_cell_volume 606.711567
_symmetry_space_group_name_H-M "P -1"
_symmetry_group_IT_number 2
_symmetry_cell_setting 'triclinic'
loop_
_space_group_symop_operation_xyz
x,y,z
-x,-y,-z
loop_
_atom_site_type_symbol
_atom_site_label
_atom_site_fract_x
_atom_site_fract_y
_atom_site_fract_z
Si Si1 0.046436 0.378639 0.738627
Si Si2 0.056410 0.270147 0.129040
Si Si3 0.326625 0.835061 0.464861
Si Si4 0.727275 0.016310 0.718049
Si Si5 0.472435 0.361066 0.913837
Si Si6 0.398187 0.404045 0.499349
Si Si7 0.698594 0.243492 0.302674
Si Si8 0.852466 0.961457 0.110919
O O1 0.012875 0.348304 0.435508
O O2 0.266253 0.365641 0.885687
O O3 0.898398 0.298850 0.591491
O O4 0.000000 0.500000 0.000000
O O5 0.199775 0.340274 0.226521
O O6 0.146962 0.161042 0.055203
O O7 0.870706 0.228469 0.825351
O O8 0.464414 0.762932 0.281621
O O9 0.385886 0.816721 0.683816
O O10 0.276877 0.961593 0.683942
O O11 0.500000 0.000000 0.500000
O O12 0.767983 0.967465 0.856548
O O13 0.927489 0.990286 0.678112
O O14 0.743498 0.147897 0.996326
O O15 0.449187 0.384863 0.718037
O O16 0.595841 0.466521 0.268674
O O17 0.558106 0.338953 0.354765
#
# Coordination Sequence:
#
# PCOD9110717 Si02
#       8
#     2   2   2   2   2   2   2   2
#     4  11  21  41  69  91 129 178 223 287 336 391
#     4  11  23  41  64  97 134 177 222 279 335 396
#     4  10  23  41  65  92 139 176 223 276 338 406
#     4  10  22  42  70 100 137 175 223 285 344 399
#     4   9  19  39  61  93 126 172 222 271 334 395
#     4   9  19  36  62  90 127 169 219 268 330 396
#     4  10  20  42  65  97 127 175 223 275 340 401
#     4  10  22  45  67  99 140 176 227 281 335 402
#
# _framework density 26.371673999999999
#
# number of rings (size 3 to 8) (size 9 to 14) (size 15 to 20)
#    0.000    2.000    2.500    0.375    3.500    0.500 
#    6.750    8.125    0.000    0.000    0.000    0.000 
#    0.000    0.000    0.000    0.000    0.000    0.000 
#
# Total GULP energy -89495.863337 kJ/mol
# GULP energy per Si atom -5593.491459 kJ/mol
# Density = 2.631165 g / cm^3
# Si number density = 26.371674 Si / 1000 Ang^3
#
#
#
# Elastic Constant Matrix: (Units=GPa)
#
#
# Indices 1 2 3 4 5 6 
#
# 1 122.7551 50.8017 47.8976 25.0966 -0.3481 -35.5436
# 2 50.8017 104.8543 38.1447 -0.3126 -14.1737 -15.9867
# 3 47.8976 38.1447 123.2689 35.0475 12.8829 -24.7767
# 4 25.0966 -0.3126 35.0475 45.3371 -20.4848 -14.6643
# 5 -0.3481 -14.1737 12.8829 -20.4848 53.2044 2.5212
# 6 -35.5436 -15.9867 -24.7767 -14.6643 2.5212 47.8709
#
#
#
# Elastic Compliance Matrix: (Units=1/GPa)
#
#
# Indices 1 2 3 4 5 6 
#
# 1 0.014576 -0.007571 0.001531 -0.010214 -0.006524 0.006302
# 2 -0.007571 0.018654 -0.009340 0.018109 0.014127 0.000578
# 3 0.001531 -0.009340 0.018506 -0.021573 -0.015351 0.001796
# 4 -0.010214 0.018109 -0.021573 0.060882 0.033223 0.004198
# 5 -0.006524 0.014127 -0.015351 0.033223 0.039022 0.000051
# 6 0.006302 0.000578 0.001796 0.004198 0.000051 0.027975
#
#
# Mechanical properties :
#
#
# Convention : Reuss Voigt Hill
#
# Bulk Modulus (GPa) = 47.66717 69.39624 58.53170
# Shear Modulus (GPa) = 23.00249 43.55143 33.27696
#
# Velocity S-wave (km/s) = 2.95658 4.06821 3.55610
# Velocity P-wave (km/s) = 5.45615 6.95981 6.25334
#
# Compressibility (1/GPa) = 0.02097880
#
# Stress axis : x y z
#
# Youngs Moduli (GPa) = 68.60468 53.60656 54.03517
#
# Poissons Ratio (x) = 0.40584 -0.08275
# Poissons Ratio (y) = 0.51939 0.50468
# Poissons Ratio (z) = -0.10506 0.50068
#
# Static dielectric constant tensor:
#      x y z
#    x 2.063960 -0.000120 -0.015850 
#    y -0.000120 2.071370 -0.068520 
#    z -0.015850 -0.068520 2.033560 
# 
# From -- ./inp_files/226848.got.cif
#   From: 2010.05.17/outbox.cif.g08.bks.cpg/sg2_114_cif.got.tgz:226848.got - 2010.06.03 11:33:40.
