data_PCOD9110783
_publ_section_title
;
Structure prediction by ZEFSAII (Michael W. Deem and Ramdas Pophale) SiO2 
 PCOD9110783
Probable space group: P -1
;
_chemical_formula_sum "Si O2"
_cell_formula_units_Z 16
_cell_length_a 6.193706
_cell_length_b 20.680169
_cell_length_c 7.231863
_cell_angle_alpha 64.920396
_cell_angle_beta 119.488917
_cell_angle_gamma 128.836901
_cell_volume 618.929577
_symmetry_space_group_name_H-M "P -1"
_symmetry_group_IT_number 2
_symmetry_cell_setting 'triclinic'
loop_
_space_group_symop_operation_xyz
x,y,z
-x,-y,-z
loop_
_atom_site_type_symbol
_atom_site_label
_atom_site_fract_x
_atom_site_fract_y
_atom_site_fract_z
Si Si1 0.427665 0.735308 0.902375
Si Si2 0.467169 0.110786 0.035420
Si Si3 0.848507 0.711379 0.504523
Si Si4 0.787012 0.838776 0.591505
Si Si5 0.656120 0.461752 0.361815
Si Si6 0.770547 0.151359 0.765509
Si Si7 0.141023 0.969202 0.316548
Si Si8 0.348608 0.561535 0.046000
O O1 0.461860 0.795410 0.013212
O O2 0.689131 0.795685 0.800909
O O3 0.119499 0.707062 0.706061
O O4 0.416780 0.650506 0.038095
O O5 0.388979 0.065023 0.258104
O O6 0.720056 0.122384 0.992626
O O7 0.169783 0.052233 0.868128
O O8 0.818663 0.774842 0.550690
O O9 0.555743 0.620622 0.507408
O O10 0.957663 0.759332 0.296403
O O11 0.506805 0.842080 0.407433
O O12 0.063583 0.930622 0.536520
O O13 0.541822 0.526081 0.252860
O O14 0.000000 0.500000 0.500000
O O15 0.597436 0.432019 0.159696
O O16 0.778090 0.083666 0.720776
O O17 0.000000 0.500000 0.000000
#
# Coordination Sequence:
#
# PCOD9110783 Si02
#       8
#     2   2   2   2   2   2   2   2
#     4  11  22  40  66  94 138 185 225 289 357 422
#     4  10  21  37  61  98 132 177 229 285 356 409
#     4  10  20  42  66  91 134 175 233 289 345 422
#     4   9  19  38  61  90 129 178 220 277 344 409
#     4  11  25  48  75 106 137 187 237 299 369 428
#     4   9  19  38  62  90 127 178 225 283 332 412
#     4   9  19  39  61  91 137 173 230 295 337 415
#     4  11  24  49  71 103 147 180 236 304 356 434
#
# _framework density 25.851084
#
# number of rings (size 3 to 8) (size 9 to 14) (size 15 to 20)
#    0.000    2.000    2.500    0.375    0.000    2.000 
#    9.000    5.625    0.000    0.000    0.000    0.000 
#    0.000    0.000    0.000    0.000    0.000    0.000 
#
# Total GULP energy -89570.056591 kJ/mol
# GULP energy per Si atom -5598.128537 kJ/mol
# Density = 2.579225 g / cm^3
# Si number density = 25.851084 Si / 1000 Ang^3
#
#
#
# Elastic Constant Matrix: (Units=GPa)
#
#
# Indices 1 2 3 4 5 6 
#
# 1 166.5928 76.1242 58.1543 -22.5988 3.2883 24.0108
# 2 76.1242 147.5279 49.2854 -33.1453 11.8659 7.3121
# 3 58.1543 49.2854 121.4972 -22.8382 -5.7309 12.6562
# 4 -22.5988 -33.1453 -22.8382 43.4398 10.3576 9.6080
# 5 3.2883 11.8659 -5.7309 10.3576 68.5591 2.4909
# 6 24.0108 7.3121 12.6562 9.6080 2.4909 47.8159
#
#
#
# Elastic Compliance Matrix: (Units=1/GPa)
#
#
# Indices 1 2 3 4 5 6 
#
# 1 0.009130 -0.003311 -0.002273 0.001931 -0.000207 -0.003854
# 2 -0.003311 0.010730 -0.001618 0.006432 -0.002780 -0.000698
# 3 -0.002273 -0.001618 0.010935 0.003638 0.000836 -0.002280
# 4 0.001931 0.006432 0.003638 0.034318 -0.005741 -0.009513
# 5 -0.000207 -0.002780 0.000836 -0.005741 0.015991 0.000628
# 6 -0.003854 -0.000698 -0.002280 -0.009513 0.000628 0.025438
#
#
# Mechanical properties :
#
#
# Convention : Reuss Voigt Hill
#
# Bulk Modulus (GPa) = 60.99604 89.19396 75.09500
# Shear Modulus (GPa) = 39.55418 48.76656 44.16037
#
# Velocity S-wave (km/s) = 3.91587 4.34803 4.13759
# Velocity P-wave (km/s) = 6.64016 7.73208 7.20683
#
# Compressibility (1/GPa) = 0.01639451
#
# Stress axis : x y z
#
# Youngs Moduli (GPa) = 109.52672 93.19453 91.44662
#
# Poissons Ratio (x) = 0.30852 0.20782
# Poissons Ratio (y) = 0.36259 0.14792
# Poissons Ratio (z) = 0.24890 0.15075
#
# Static dielectric constant tensor:
#      x y z
#    x 1.996040 0.011030 0.004340 
#    y 0.011030 1.996760 0.013100 
#    z 0.004340 0.013100 2.148730 
# 
# From -- ./inp_files/141300.got.cif
#   From: 2010.05.17/outbox.cif.g08.bks.cpg/sg2_71_cif.got.tgz:141300.got - 2010.06.03 11:33:40.
