data_PCOD9110573
_publ_section_title
;
Structure prediction by ZEFSAII (Michael W. Deem and Ramdas Pophale) SiO2 
 PCOD9110573
Probable space group: P -1
;
_chemical_formula_sum "Si O2"
_cell_formula_units_Z 12
_cell_length_a 15.434859
_cell_length_b 9.429470
_cell_length_c 9.100634
_cell_angle_alpha 71.944931
_cell_angle_beta 66.522642
_cell_angle_gamma 129.300788
_cell_volume 573.742056
_symmetry_space_group_name_H-M "P -1"
_symmetry_group_IT_number 2
_symmetry_cell_setting 'triclinic'
loop_
_space_group_symop_operation_xyz
x,y,z
-x,-y,-z
loop_
_atom_site_type_symbol
_atom_site_label
_atom_site_fract_x
_atom_site_fract_y
_atom_site_fract_z
Si Si1 0.456902 0.251966 0.505265
Si Si2 0.172727 0.344858 0.311021
Si Si3 0.579004 0.927507 0.715242
Si Si4 0.077519 0.747445 0.454677
Si Si5 0.618667 0.326957 0.643013
Si Si6 0.325428 0.156945 0.909603
O O1 0.412065 0.074308 0.466343
O O2 0.616598 0.404605 0.460256
O O3 0.287963 0.064714 0.793550
O O4 0.532122 0.508234 0.301423
O O5 0.222747 0.416678 0.427656
O O6 0.093448 0.399946 0.306094
O O7 0.370716 0.586264 0.016803
O O8 0.000000 0.000000 0.500000
O O9 0.751915 0.064776 0.614621
O O10 0.601204 0.127028 0.694785
O O11 0.000000 0.500000 0.500000
O O12 0.162876 0.966067 0.195696
O O13 0.430614 0.149533 0.894607
#
# Coordination Sequence:
#
# PCOD9110573 Si02
#       6
#     2   2   2   2   2   2
#     4   9  21  38  71  90 124 179 205 257 332 371
#     4  12  26  39  66 100 126 169 219 262 316 384
#     4  12  22  43  67  95 131 167 211 271 315 379
#     4  12  24  41  66  96 129 169 213 264 321 372
#     4  10  20  42  64  89 130 167 209 256 323 371
#     4   9  20  40  64  90 127 167 210 255 322 365
#
# _framework density 20.915320999999999
#
# number of rings (size 3 to 8) (size 9 to 14) (size 15 to 20)
#    1.000    0.333    3.333    3.000    2.333    1.333 
#    0.000    5.833    0.000    0.000    0.000    0.000 
#    0.000    0.000    0.000    0.000    0.000    0.000 
#
# Total GULP energy -66850.972034 kJ/mol
# GULP energy per Si atom -5570.914336 kJ/mol
# Density = 2.086772 g / cm^3
# Si number density = 20.915321 Si / 1000 Ang^3
#
#
#
# Elastic Constant Matrix: (Units=GPa)
#
#
# Indices 1 2 3 4 5 6 
#
# 1 68.3375 26.2735 25.2495 1.7032 -12.6136 13.2120
# 2 26.2735 140.7132 20.2784 0.4567 -3.6156 16.2925
# 3 25.2495 20.2784 35.7634 0.2887 -13.3565 20.5923
# 4 1.7032 0.4567 0.2887 26.9308 -0.9856 1.7246
# 5 -12.6136 -3.6156 -13.3565 -0.9856 32.6282 -3.6904
# 6 13.2120 16.2925 20.5923 1.7246 -3.6904 30.2848
#
#
#
# Elastic Compliance Matrix: (Units=1/GPa)
#
#
# Indices 1 2 3 4 5 6 
#
# 1 0.020502 -0.002023 -0.013324 -0.001132 0.002390 0.001560
# 2 -0.002023 0.008029 -0.002426 0.000101 -0.001101 -0.001926
# 3 -0.013324 -0.002426 0.065830 0.003106 0.017587 -0.035677
# 4 -0.001132 0.000101 0.003106 0.037458 0.001568 -0.003615
# 5 0.002390 -0.001101 0.017587 0.001568 0.037804 -0.007891
# 6 0.001560 -0.001926 -0.035677 -0.003615 -0.007891 0.056879
#
#
# Mechanical properties :
#
#
# Convention : Reuss Voigt Hill
#
# Bulk Modulus (GPa) = 17.00304 43.15744 30.08024
# Shear Modulus (GPa) = 17.75237 29.50295 23.62766
#
# Velocity S-wave (km/s) = 2.91653 3.75986 3.36472
# Velocity P-wave (km/s) = 4.41460 6.28712 5.43215
#
# Compressibility (1/GPa) = 0.05881300
#
# Stress axis : x y z
#
# Youngs Moduli (GPa) = 48.77614 124.55504 15.19070
#
# Poissons Ratio (x) = 0.25203 0.20240
# Poissons Ratio (y) = 0.09870 0.03686
# Poissons Ratio (z) = 0.64988 0.30221
#
# Static dielectric constant tensor:
#      x y z
#    x 1.793490 -0.010210 0.001370 
#    y -0.010210 1.792030 -0.015580 
#    z 0.001370 -0.015580 1.839400 
# 
# From -- ./inp_files/243073.got.cif
#   From: 2010.05.17/outbox.cif.g08.bks.cpg/sg2_122_cif.got.tgz:243073.got - 2010.06.03 11:33:40.
