data_PCOD9110584
_publ_section_title
;
Structure prediction by ZEFSAII (Michael W. Deem and Ramdas Pophale) SiO2 
 PCOD9110584
Probable space group: P -1
;
_chemical_formula_sum "Si O2"
_cell_formula_units_Z 15
_cell_length_a 21.440333
_cell_length_b 6.225023
_cell_length_c 21.859871
_cell_angle_alpha 129.725940
_cell_angle_beta 19.459680
_cell_angle_gamma 119.482774
_cell_volume 674.534732
_symmetry_space_group_name_H-M "P -1"
_symmetry_group_IT_number 2
_symmetry_cell_setting 'triclinic'
loop_
_space_group_symop_operation_xyz
x,y,z
-x,-y,-z
loop_
_atom_site_type_symbol
_atom_site_label
_atom_site_fract_x
_atom_site_fract_y
_atom_site_fract_z
Si Si1 0.682641 0.173875 0.789203
Si Si2 0.073699 0.507184 0.864209
Si Si3 0.692733 0.929496 0.057492
Si Si4 0.474010 0.805600 0.866380
Si Si5 0.384721 0.859229 0.425748
Si Si6 0.894326 0.227324 0.729603
Si Si7 0.500000 0.500000 0.500000
Si Si8 0.336119 0.417887 0.768198
O O1 0.785896 0.212226 0.763089
O O2 0.576843 0.938182 0.845253
O O3 0.500000 0.500000 0.000000
O O4 0.869683 0.025308 0.539998
O O5 0.264213 0.597730 0.705440
O O6 0.175766 0.162286 0.679209
O O7 0.000000 0.500000 0.000000
O O8 0.852470 0.679536 0.066642
O O9 0.544799 0.936937 0.251576
O O10 0.561950 0.006345 0.129314
O O11 0.745472 0.218243 0.072080
O O12 0.867686 0.577655 0.827404
O O13 0.617098 0.445618 0.656773
O O14 0.248417 0.834893 0.099886
O O15 0.483981 0.767597 0.384243
O O16 0.421716 0.394488 0.616475
#
# Coordination Sequence:
#
# PCOD9110584 Si02
#       8
#     2   2   2   2   2   2   1   2
#     4  11  22  42  65  94 130 164 209 259 313 369
#     4  10  22  41  65  95 121 165 209 254 316 372
#     4  10  20  44  62  89 132 161 210 266 301 372
#     4  10  22  42  65  92 127 170 207 260 313 362
#     4  10  22  43  64  91 131 164 211 259 309 374
#     4  10  23  41  63  95 124 165 213 255 312 375
#     4  10  20  42  64  90 130 152 204 264 298 376
#     4  10  22  41  64  92 125 164 205 257 316 366
#
# _framework density 22.237551
#
# number of rings (size 3 to 8) (size 9 to 14) (size 15 to 20)
#    0.000    1.867    2.667    0.400    1.867    2.667 
#   12.000    2.000    0.000    0.000    0.000    0.000 
#    0.000    0.000    0.000    0.000    0.000    0.000 
#
# Total GULP energy -83501.706520 kJ/mol
# GULP energy per Si atom -5566.780435 kJ/mol
# Density = 2.218694 g / cm^3
# Si number density = 22.237551 Si / 1000 Ang^3
#
#
#
# Elastic Constant Matrix: (Units=GPa)
#
#
# Indices 1 2 3 4 5 6 
#
# 1 39.5480 31.6080 17.8674 -6.5697 8.7360 -3.1106
# 2 31.6080 72.9072 48.7888 4.5245 0.5251 17.1419
# 3 17.8674 48.7888 136.0136 -1.4219 5.0359 11.3349
# 4 -6.5697 4.5245 -1.4219 35.4772 12.5390 3.3000
# 5 8.7360 0.5251 5.0359 12.5390 35.3996 -7.5074
# 6 -3.1106 17.1419 11.3349 3.3000 -7.5074 37.6790
#
#
#
# Elastic Compliance Matrix: (Units=1/GPa)
#
#
# Indices 1 2 3 4 5 6 
#
# 1 0.056893 -0.031028 0.003529 0.020057 -0.018580 0.012293
# 2 -0.031028 0.036788 -0.008497 -0.013072 0.010068 -0.013591
# 3 0.003529 -0.008497 0.010079 0.003294 -0.003308 0.000178
# 4 0.020057 -0.013072 0.003294 0.040811 -0.019876 -0.000922
# 5 -0.018580 0.010068 -0.003308 -0.019876 0.041221 0.004835
# 6 0.012293 -0.013591 0.000178 -0.000922 0.004835 0.034729
#
#
# Mechanical properties :
#
#
# Convention : Reuss Voigt Hill
#
# Bulk Modulus (GPa) = 31.47794 49.44415 40.46104
# Shear Modulus (GPa) = 16.49612 31.72479 24.11046
#
# Velocity S-wave (km/s) = 2.72658 3.78118 3.29633
# Velocity P-wave (km/s) = 4.90901 6.43007 5.72032
#
# Compressibility (1/GPa) = 0.03176828
#
# Stress axis : x y z
#
# Youngs Moduli (GPa) = 17.57690 27.18249 99.22037
#
# Poissons Ratio (x) = 0.84342 -0.35019
# Poissons Ratio (y) = 0.54538 0.84307
# Poissons Ratio (z) = -0.06204 0.23097
#
# Static dielectric constant tensor:
#      x y z
#    x 1.803610 0.065030 -0.032920 
#    y 0.065030 1.837490 0.050300 
#    z -0.032920 0.050300 1.766310 
# 
# From -- ./inp_files/10520.got.cif
#   From: 2010.05.17/outbox.cif.g08.bks.cpg/sg2_6_cif.got.tgz:10520.got - 2010.06.03 11:33:40.
