data_PCOD9110104
_publ_section_title
;
Structure prediction by ZEFSAII (Michael W. Deem and Ramdas Pophale) SiO2 
 PCOD9110104
Probable space group: P -1
;
_chemical_formula_sum "Si O2"
_cell_formula_units_Z 16
_cell_length_a 5.157655
_cell_length_b 14.145744
_cell_length_c 9.269885
_cell_angle_alpha 109.768578
_cell_angle_beta 98.195832
_cell_angle_gamma 83.347677
_cell_volume 628.299258
_symmetry_space_group_name_H-M "P -1"
_symmetry_group_IT_number 2
_symmetry_cell_setting 'triclinic'
loop_
_space_group_symop_operation_xyz
x,y,z
-x,-y,-z
loop_
_atom_site_type_symbol
_atom_site_label
_atom_site_fract_x
_atom_site_fract_y
_atom_site_fract_z
Si Si1 0.212983 0.008081 0.286313
Si Si2 0.477774 0.892016 0.006193
Si Si3 0.365601 0.635560 0.820217
Si Si4 0.909961 0.551422 0.166957
Si Si5 0.401256 0.247770 0.844592
Si Si6 0.766602 0.518790 0.610189
Si Si7 0.658413 0.127879 0.536710
Si Si8 0.828141 0.202385 0.303599
O O1 0.479586 0.056598 0.389549
O O2 0.036362 0.104681 0.263979
O O3 0.254360 0.924019 0.122857
O O4 0.141626 0.942804 0.386579
O O5 0.697722 0.835005 0.094043
O O6 0.413356 0.828352 0.829774
O O7 0.500000 0.000000 0.000000
O O8 0.270064 0.528540 0.811021
O O9 0.647338 0.614521 0.749858
O O10 0.151216 0.691237 0.720950
O O11 0.395320 0.701372 0.002581
O O12 0.783305 0.659423 0.173925
O O13 0.147797 0.560233 0.299597
O O14 0.000000 0.500000 0.000000
O O15 0.496129 0.190830 0.678059
O O16 0.500000 0.500000 0.500000
O O17 0.000000 0.500000 0.500000
O O18 0.770252 0.203311 0.468823
#
# Coordination Sequence:
#
# PCOD9110104 Si02
#       8
#     2   2   2   2   2   2   2   2
#     4  10  21  40  65  95 137 184 233 297 377 445
#     4  10  20  41  69  96 138 182 235 303 370 449
#     4  11  26  47  71 110 147 198 257 312 378 461
#     4  12  26  49  79 103 153 205 256 315 380 462
#     4  10  24  44  68 103 141 191 251 304 375 457
#     4  12  27  49  80 114 152 199 257 323 389 444
#     4  10  22  41  63  98 142 181 239 304 367 452
#     4  11  23  39  69 100 137 186 242 302 374 448
#
# _framework density 25.46557
#
# number of rings (size 3 to 8) (size 9 to 14) (size 15 to 20)
#    0.000    1.250    3.750    1.125    1.750    3.000 
#    2.250    0.000    0.000    0.000    0.000    0.000 
#    0.000    0.000    0.000    0.000    0.000    0.000 
#
# Total GULP energy -89173.462881 kJ/mol
# GULP energy per Si atom -5573.341430 kJ/mol
# Density = 2.540761 g / cm^3
# Si number density = 25.465570 Si / 1000 Ang^3
#
#
#
# Elastic Constant Matrix: (Units=GPa)
#
#
# Indices 1 2 3 4 5 6 
#
# 1 72.9170 40.6057 38.3052 -11.8356 -12.5502 -5.7347
# 2 40.6057 211.6115 56.3722 -35.5088 -13.2335 -30.8616
# 3 38.3052 56.3722 145.9323 -14.2471 -21.2037 1.3170
# 4 -11.8356 -35.5088 -14.2471 72.5827 -6.5789 11.3119
# 5 -12.5502 -13.2335 -21.2037 -6.5789 36.5146 4.5790
# 6 -5.7347 -30.8616 1.3170 11.3119 4.5790 25.9272
#
#
#
# Elastic Compliance Matrix: (Units=1/GPa)
#
#
# Indices 1 2 3 4 5 6 
#
# 1 0.017353 -0.001962 -0.003115 0.001539 0.003679 0.000340
# 2 -0.001962 0.006988 -0.002099 0.001546 0.000000 0.007316
# 3 -0.003115 -0.002099 0.009327 0.001500 0.004495 -0.005110
# 4 0.001539 0.001546 0.001500 0.016551 0.005710 -0.006125
# 5 0.003679 0.000000 0.004495 0.005710 0.033266 -0.007781
# 6 0.000340 0.007316 -0.005110 -0.006125 -0.007781 0.051658
#
#
# Mechanical properties :
#
#
# Convention : Reuss Voigt Hill
#
# Bulk Modulus (GPa) = 51.77508 77.89187 64.83347
# Shear Modulus (GPa) = 32.06467 46.68342 39.37404
#
# Velocity S-wave (km/s) = 3.55228 4.28623 3.93640
# Velocity P-wave (km/s) = 6.09922 7.42625 6.79521
#
# Compressibility (1/GPa) = 0.01931431
#
# Stress axis : x y z
#
# Youngs Moduli (GPa) = 57.62654 143.10611 107.21742
#
# Poissons Ratio (x) = 0.28079 0.33402
# Poissons Ratio (y) = 0.11307 0.22508
# Poissons Ratio (z) = 0.17953 0.30042
#
# Static dielectric constant tensor:
#      x y z
#    x 2.183350 0.159190 -0.038550 
#    y 0.159190 2.358280 0.039780 
#    z -0.038550 0.039780 2.038610 
# 
# From -- ./inp_files/135524.got.cif
#   From: 2010.05.17/outbox.cif.g08.bks.cpg/sg2_68_cif.got.tgz:135524.got - 2010.06.03 11:33:40.
