data_PCOD9110145
_publ_section_title
;
Structure prediction by ZEFSAII (Michael W. Deem and Ramdas Pophale) SiO2 
 PCOD9110145
Probable space group: P -1
;
_chemical_formula_sum "Si O2"
_cell_formula_units_Z 16
_cell_length_a 12.028777
_cell_length_b 6.972752
_cell_length_c 13.322089
_cell_angle_alpha 44.057953
_cell_angle_beta 123.803596
_cell_angle_gamma 101.527190
_cell_volume 605.752321
_symmetry_space_group_name_H-M "P -1"
_symmetry_group_IT_number 2
_symmetry_cell_setting 'triclinic'
loop_
_space_group_symop_operation_xyz
x,y,z
-x,-y,-z
loop_
_atom_site_type_symbol
_atom_site_label
_atom_site_fract_x
_atom_site_fract_y
_atom_site_fract_z
Si Si1 0.890576 0.041738 0.195131
Si Si2 0.889852 0.829877 0.488289
Si Si3 0.585587 0.373576 0.905235
Si Si4 0.392595 0.204874 0.583510
Si Si5 0.393830 0.182175 0.019359
Si Si6 0.899259 0.743646 0.105431
Si Si7 0.582302 0.257952 0.488495
Si Si8 0.118744 0.175122 0.168303
O O1 0.053084 0.028527 0.279345
O O2 0.876890 0.834085 0.357679
O O3 0.883650 0.977341 0.097406
O O4 0.749521 0.333092 0.026876
O O5 0.730879 0.930428 0.414230
O O6 0.958904 0.518817 0.695988
O O7 0.000000 0.000000 0.500000
O O8 0.482901 0.644888 0.689720
O O9 0.601547 0.081484 0.955893
O O10 0.496237 0.337324 0.968251
O O11 0.441201 0.289981 0.470297
O O12 0.357975 0.495426 0.527910
O O13 0.538404 0.977586 0.785322
O O14 0.231161 0.367561 0.889441
O O15 0.887869 0.865040 0.941553
O O16 0.713237 0.953135 0.675701
O O17 0.000000 0.500000 0.000000
#
# Coordination Sequence:
#
# PCOD9110145 Si02
#       8
#     2   2   2   2   2   2   2   2
#     4  11  24  43  70 100 134 186 243 290 346 415
#     4  12  26  44  66 102 148 188 224 290 365 427
#     4   9  19  35  66 103 132 166 229 298 346 396
#     4  10  20  41  70 103 140 175 244 293 341 417
#     4   9  17  37  64  99 134 167 227 297 345 399
#     4  11  24  42  71  98 133 189 243 288 342 416
#     4  10  22  39  72 107 133 185 238 296 344 410
#     4  12  26  45  64  99 152 186 226 289 361 428
#
# _framework density 26.413436000000001
#
# number of rings (size 3 to 8) (size 9 to 14) (size 15 to 20)
#    0.000    1.500    2.500    2.250    7.000    0.000 
#    0.000    2.500    0.000    0.000    0.000    0.000 
#    0.000    0.000    0.000    0.000    0.000    0.000 
#
# Total GULP energy -89358.370550 kJ/mol
# GULP energy per Si atom -5584.898159 kJ/mol
# Density = 2.635332 g / cm^3
# Si number density = 26.413436 Si / 1000 Ang^3
#
#
#
# Elastic Constant Matrix: (Units=GPa)
#
#
# Indices 1 2 3 4 5 6 
#
# 1 172.7140 26.0597 28.3442 15.4820 4.1745 8.0292
# 2 26.0597 92.0046 12.3638 13.6005 1.9922 -6.5171
# 3 28.3442 12.3638 122.4083 13.6064 3.9163 -15.8917
# 4 15.4820 13.6005 13.6064 26.7981 -6.8060 -7.1373
# 5 4.1745 1.9922 3.9163 -6.8060 54.5839 6.9038
# 6 8.0292 -6.5171 -15.8917 -7.1373 6.9038 28.3349
#
#
#
# Elastic Compliance Matrix: (Units=1/GPa)
#
#
# Indices 1 2 3 4 5 6 
#
# 1 0.006766 -0.001464 -0.001529 -0.003510 -0.000296 -0.003923
# 2 -0.001464 0.012220 0.000001 -0.005075 -0.001252 0.002253
# 3 -0.001529 0.000001 0.009615 -0.002955 -0.001635 0.005480
# 4 -0.003510 -0.005075 -0.002955 0.047122 0.005439 0.008714
# 5 -0.000296 -0.001252 -0.001635 0.005439 0.019762 -0.004566
# 6 -0.003923 0.002253 0.005480 0.008714 -0.004566 0.043303
#
#
# Mechanical properties :
#
#
# Convention : Reuss Voigt Hill
#
# Bulk Modulus (GPa) = 44.20921 57.85138 51.03030
# Shear Modulus (GPa) = 32.82773 43.30067 38.06420
#
# Velocity S-wave (km/s) = 3.52922 4.05327 3.80029
# Velocity P-wave (km/s) = 5.77762 6.62232 6.21434
#
# Compressibility (1/GPa) = 0.02261972
#
# Stress axis : x y z
#
# Youngs Moduli (GPa) = 147.80329 81.83104 103.99933
#
# Poissons Ratio (x) = 0.11977 0.15897
# Poissons Ratio (y) = 0.21632 -0.00013
# Poissons Ratio (z) = 0.22592 -0.00010
#
# Static dielectric constant tensor:
#      x y z
#    x 2.047700 0.114800 0.012600 
#    y 0.114800 2.288840 -0.033400 
#    z 0.012600 -0.033400 1.990040 
# 
# From -- ./inp_files/514936.got.cif
#   From: 2010.05.17/outbox.cif.g08.bks.cpg/sg2_258_cif.got.tgz:514936.got - 2010.06.03 11:33:40.
