data_PCOD9110933
_publ_section_title
;
Structure prediction by ZEFSAII (Michael W. Deem and Ramdas Pophale) SiO2 
 PCOD9110933
Probable space group: P -1
;
_chemical_formula_sum "Si O2"
_cell_formula_units_Z 10
_cell_length_a 9.301645
_cell_length_b 17.567541
_cell_length_c 5.149738
_cell_angle_alpha 142.008087
_cell_angle_beta 43.913877
_cell_angle_gamma 129.868440
_cell_volume 353.929996
_symmetry_space_group_name_H-M "P -1"
_symmetry_group_IT_number 2
_symmetry_cell_setting 'triclinic'
loop_
_space_group_symop_operation_xyz
x,y,z
-x,-y,-z
loop_
_atom_site_type_symbol
_atom_site_label
_atom_site_fract_x
_atom_site_fract_y
_atom_site_fract_z
Si Si1 0.719856 0.969203 0.730199
Si Si2 0.459375 0.278225 0.905865
Si Si3 0.725542 0.559146 0.739100
Si Si4 0.244277 0.701433 0.933144
Si Si5 0.930430 0.828696 0.430085
O O1 0.718378 0.844460 0.221770
O O2 0.752182 0.916149 0.835140
O O3 0.892799 0.088022 0.757964
O O4 0.500000 0.000000 0.000000
O O5 0.619928 0.283575 0.468870
O O6 0.337384 0.394963 0.339027
O O7 0.595405 0.273355 0.969231
O O8 0.853315 0.445467 0.291027
O O9 0.500000 0.500000 0.000000
O O10 0.833654 0.688288 0.079850
O O11 0.078866 0.794740 0.378164
#
# Coordination Sequence:
#
# PCOD9110933 Si02
#       5
#     2   2   2   2   2
#     4  10  20  42  67  93 136 170 221 271 328 391
#     4  10  22  40  68  95 132 176 212 270 333 384
#     4   9  20  40  66  95 135 171 217 270 330 389
#     4  11  21  41  66  98 132 169 220 270 326 395
#     4  10  21  38  67  99 127 176 221 268 330 391
#
# _framework density 28.254176000000001
#
# number of rings (size 3 to 8) (size 9 to 14) (size 15 to 20)
#    0.000    2.000    2.000    1.200    0.000    0.800 
#    0.000   22.000    0.000    0.000    0.000    0.000 
#    0.000    0.000    0.000    0.000    0.000    0.000 
#
# Total GULP energy -55883.283378 kJ/mol
# GULP energy per Si atom -5588.328338 kJ/mol
# Density = 2.818987 g / cm^3
# Si number density = 28.254176 Si / 1000 Ang^3
#
#
#
# Elastic Constant Matrix: (Units=GPa)
#
#
# Indices 1 2 3 4 5 6 
#
# 1 242.8192 79.9970 57.1196 11.5776 -29.7032 -46.6980
# 2 79.9970 198.4916 56.8932 33.6809 -4.3671 0.3510
# 3 57.1196 56.8932 81.4628 10.7027 -35.4726 -18.9254
# 4 11.5776 33.6809 10.7027 61.2633 -2.4052 0.3297
# 5 -29.7032 -4.3671 -35.4726 -2.4052 66.9817 26.6606
# 6 -46.6980 0.3510 -18.9254 0.3297 26.6606 66.2438
#
#
#
# Elastic Compliance Matrix: (Units=1/GPa)
#
#
# Indices 1 2 3 4 5 6 
#
# 1 0.005877 -0.001826 -0.002051 0.000232 -0.000012 0.003570
# 2 -0.001826 0.007740 -0.005209 -0.003087 -0.002453 -0.001814
# 3 -0.002051 -0.005209 0.021936 -0.000191 0.010039 0.000809
# 4 0.000232 -0.003087 -0.000191 0.018031 0.000517 -0.000172
# 5 -0.000012 -0.002453 0.010039 0.000517 0.022573 -0.006215
# 6 0.003570 -0.001814 0.000809 -0.000172 -0.006215 0.020355
#
#
# Mechanical properties :
#
#
# Convention : Reuss Voigt Hill
#
# Bulk Modulus (GPa) = 57.53875 101.19927 79.36901
# Shear Modulus (GPa) = 41.50123 60.81535 51.15829
#
# Velocity S-wave (km/s) = 3.83672 4.64447 4.25978
# Velocity P-wave (km/s) = 6.32741 8.04094 7.23508
#
# Compressibility (1/GPa) = 0.01737959
#
# Stress axis : x y z
#
# Youngs Moduli (GPa) = 170.16765 129.19682 45.58652
#
# Poissons Ratio (x) = 0.23597 0.09351
# Poissons Ratio (y) = 0.31080 0.23746
# Poissons Ratio (z) = 0.34907 0.67298
#
# Static dielectric constant tensor:
#      x y z
#    x 2.338580 -0.054860 0.131920 
#    y -0.054860 2.210780 -0.122850 
#    z 0.131920 -0.122850 2.503040 
# 
# From -- ./inp_files/21875.got.cif
#   From: 2010.05.17/outbox.cif.g08.bks.cpg/sg2_11_cif.got.tgz:21875.got - 2010.06.03 11:33:40.
