data_PCOD9110317
_publ_section_title
;
Structure prediction by ZEFSAII (Michael W. Deem and Ramdas Pophale) SiO2 
 PCOD9110317
Probable space group: P -1
;
_chemical_formula_sum "Si O2"
_cell_formula_units_Z 16
_cell_length_a 14.988442
_cell_length_b 15.963203
_cell_length_c 11.443550
_cell_angle_alpha 62.855910
_cell_angle_beta 43.336670
_cell_angle_gamma 27.132456
_cell_volume 678.734472
_symmetry_space_group_name_H-M "P -1"
_symmetry_group_IT_number 2
_symmetry_cell_setting 'triclinic'
loop_
_space_group_symop_operation_xyz
x,y,z
-x,-y,-z
loop_
_atom_site_type_symbol
_atom_site_label
_atom_site_fract_x
_atom_site_fract_y
_atom_site_fract_z
Si Si1 0.923053 0.744115 0.143269
Si Si2 0.264358 0.968617 0.002023
Si Si3 0.859470 0.415907 0.518244
Si Si4 0.497273 0.669210 0.310064
Si Si5 0.962029 0.499449 0.671866
Si Si6 0.000382 0.845634 0.616653
Si Si7 0.141451 0.704225 0.184554
Si Si8 0.753886 0.151341 0.305110
O O1 0.818137 0.722282 0.331039
O O2 0.104352 0.689927 0.098973
O O3 0.159797 0.551545 0.937586
O O4 0.679297 0.978234 0.167001
O O5 0.087133 0.121676 0.189026
O O6 0.036399 0.041022 0.116721
O O7 0.597618 0.704197 0.894247
O O8 0.985746 0.252055 0.417212
O O9 0.930264 0.332955 0.633445
O O10 0.479261 0.675529 0.691425
O O11 0.002333 0.423201 0.350094
O O12 0.335321 0.679859 0.410863
O O13 0.457635 0.698609 0.469646
O O14 0.263609 0.906491 0.336515
O O15 0.000000 0.500000 0.500000
O O16 0.500000 0.500000 0.000000
O O17 0.907989 0.946418 0.278049
#
# Coordination Sequence:
#
# PCOD9110317 Si02
#       8
#     2   2   2   2   2   2   2   2
#     4  12  25  44  69  99 137 188 232 273 342 417
#     4  11  25  45  74  99 138 181 228 279 351 406
#     4  12  26  45  69 103 141 177 229 288 341 399
#     4  10  20  42  73 104 138 174 224 284 353 405
#     4  12  28  48  64  93 144 192 228 277 340 408
#     4  10  20  41  73 103 137 175 222 289 350 401
#     4  12  25  40  69 104 139 175 229 285 344 398
#     4  11  25  44  75 109 135 174 229 291 342 411
#
# _framework density 23.573284000000001
#
# number of rings (size 3 to 8) (size 9 to 14) (size 15 to 20)
#    0.000    0.750    3.750    3.750    3.500    5.000 
#    0.000    1.250    0.000    0.000    0.000    0.000 
#    0.000    0.000    0.000    0.000    0.000    0.000 
#
# Total GULP energy -89603.713691 kJ/mol
# GULP energy per Si atom -5600.232106 kJ/mol
# Density = 2.351963 g / cm^3
# Si number density = 23.573284 Si / 1000 Ang^3
#
#
#
# Elastic Constant Matrix: (Units=GPa)
#
#
# Indices 1 2 3 4 5 6 
#
# 1 70.3059 34.7364 12.2375 1.9855 8.6261 24.1361
# 2 34.7364 120.3495 22.4858 -27.0948 6.0756 7.2043
# 3 12.2375 22.4858 64.5684 -11.3051 13.6813 8.2640
# 4 1.9855 -27.0948 -11.3051 43.0968 -1.3281 1.0735
# 5 8.6261 6.0756 13.6813 -1.3281 28.7880 1.6356
# 6 24.1361 7.2043 8.2640 1.0735 1.6356 37.5765
#
#
#
# Elastic Compliance Matrix: (Units=1/GPa)
#
#
# Indices 1 2 3 4 5 6 
#
# 1 0.022713 -0.006651 -0.000213 -0.005110 -0.004803 -0.012912
# 2 -0.006651 0.012108 -0.002086 0.007337 0.000644 0.002172
# 3 -0.000213 -0.002086 0.019041 0.003526 -0.008190 -0.003395
# 4 -0.005110 0.007337 0.003526 0.028958 -0.000373 0.000289
# 5 -0.004803 0.000644 -0.008190 -0.000373 0.039742 0.003044
# 6 -0.012912 0.002172 -0.003395 0.000289 0.003044 0.035095
#
#
# Mechanical properties :
#
#
# Convention : Reuss Voigt Hill
#
# Bulk Modulus (GPa) = 27.80650 43.79370 35.80010
# Shear Modulus (GPa) = 26.66037 34.27655 30.46846
#
# Velocity S-wave (km/s) = 3.36662 3.81733 3.59904
# Velocity P-wave (km/s) = 5.18975 6.16825 5.70004
#
# Compressibility (1/GPa) = 0.03596281
#
# Stress axis : x y z
#
# Youngs Moduli (GPa) = 44.02769 82.59134 52.51745
#
# Poissons Ratio (x) = 0.54931 0.01119
# Poissons Ratio (y) = 0.29282 0.10954
# Poissons Ratio (z) = 0.00938 0.17226
#
# Static dielectric constant tensor:
#      x y z
#    x 1.849180 -0.006550 0.004860 
#    y -0.006550 1.887580 -0.023530 
#    z 0.004860 -0.023530 1.923210 
# 
# From -- ./inp_files/455626.got.cif
#   From: 2010.05.17/outbox.cif.g08.bks.cpg/sg2_228_cif.got.tgz:455626.got - 2010.06.03 11:33:40.
