data_PCOD9110402
_publ_section_title
;
Structure prediction by ZEFSAII (Michael W. Deem and Ramdas Pophale) SiO2 
 PCOD9110402
Probable space group: P -1
;
_chemical_formula_sum "Si O2"
_cell_formula_units_Z 16
_cell_length_a 24.613568
_cell_length_b 18.365269
_cell_length_c 9.809927
_cell_angle_alpha 36.861648
_cell_angle_beta 141.992546
_cell_angle_gamma 162.713366
_cell_volume 783.280513
_symmetry_space_group_name_H-M "P -1"
_symmetry_group_IT_number 2
_symmetry_cell_setting 'triclinic'
loop_
_space_group_symop_operation_xyz
x,y,z
-x,-y,-z
loop_
_atom_site_type_symbol
_atom_site_label
_atom_site_fract_x
_atom_site_fract_y
_atom_site_fract_z
Si Si1 0.596403 0.744214 0.341803
Si Si2 0.465107 0.662479 0.931392
Si Si3 0.129445 0.416976 0.701299
Si Si4 0.942271 0.410020 0.176380
Si Si5 0.366172 0.082201 0.407400
Si Si6 0.498264 0.834481 0.186964
Si Si7 0.829397 0.400162 0.211701
Si Si8 0.215061 0.118271 0.241235
O O1 0.500000 0.500000 0.500000
O O2 0.463469 0.672351 0.272322
O O3 0.766075 0.917974 0.515832
O O4 0.608985 0.816172 0.109407
O O5 0.335126 0.620080 0.773373
O O6 0.563248 0.801772 0.774465
O O7 0.335286 0.385388 0.076801
O O8 0.112371 0.446587 0.776648
O O9 0.055049 0.433519 0.429603
O O10 0.998121 0.141474 0.831576
O O11 0.960325 0.540057 0.129518
O O12 0.718085 0.121023 0.166998
O O13 0.000000 0.500000 0.000000
O O14 0.522550 0.219930 0.613228
O O15 0.296361 0.116843 0.297770
O O16 0.218516 0.793941 0.540827
O O17 0.362509 0.773710 0.960449
#
# Coordination Sequence:
#
# PCOD9110402 Si02
#       8
#     2   2   2   2   2   2   2   2
#     4   9  18  38  61  84 113 156 204 243 289 353
#     4  11  23  36  66  93 113 156 217 252 284 365
#     4  12  23  39  59  91 128 156 193 253 307 360
#     4  11  24  39  62  88 122 158 197 247 306 364
#     4  10  21  38  64  86 120 155 204 249 300 353
#     4  10  20  42  61  84 120 162 194 246 307 359
#     4  11  23  41  62  88 124 160 200 242 312 361
#     4  10  21  43  61  82 124 167 198 247 314 343
#
# _framework density 20.426908999999998
#
# number of rings (size 3 to 8) (size 9 to 14) (size 15 to 20)
#    0.000    1.500    5.000    2.625    3.500    1.500 
#    0.000    0.000    0.000    0.750    0.000    0.000 
#    0.000    0.000    0.000    0.000    0.000    0.000 
#
# Total GULP energy -89202.477029 kJ/mol
# GULP energy per Si atom -5575.154814 kJ/mol
# Density = 2.038042 g / cm^3
# Si number density = 20.426909 Si / 1000 Ang^3
#
#
#
# Elastic Constant Matrix: (Units=GPa)
#
#
# Indices 1 2 3 4 5 6 
#
# 1 131.3716 32.6415 60.9663 1.2542 -24.6685 -16.4124
# 2 32.6415 47.0514 30.4049 12.4604 -14.0651 -6.1519
# 3 60.9663 30.4049 110.2888 10.0756 -31.4252 8.7573
# 4 1.2542 12.4604 10.0756 19.6967 -3.3703 2.2761
# 5 -24.6685 -14.0651 -31.4252 -3.3703 56.7053 1.1268
# 6 -16.4124 -6.1519 8.7573 2.2761 1.1268 29.9993
#
#
#
# Elastic Compliance Matrix: (Units=1/GPa)
#
#
# Indices 1 2 3 4 5 6 
#
# 1 0.012946 -0.004679 -0.006653 0.004810 0.000918 0.007666
# 2 -0.004679 0.034628 -0.005077 -0.019450 0.002437 0.007407
# 3 -0.006653 -0.005077 0.016607 -0.002895 0.005066 -0.009499
# 4 0.004810 -0.019450 -0.002895 0.064810 -0.000377 -0.005415
# 5 0.000918 0.002437 0.005066 -0.000377 0.021449 -0.001254
# 6 0.007666 0.007407 -0.009499 -0.005415 -0.001254 0.042278
#
#
# Mechanical properties :
#
#
# Convention : Reuss Voigt Hill
#
# Bulk Modulus (GPa) = 31.88483 59.63746 45.76115
# Shear Modulus (GPa) = 21.18722 32.26020 26.72371
#
# Velocity S-wave (km/s) = 3.22409 3.97835 3.62091
# Velocity P-wave (km/s) = 5.43164 7.09662 6.31921
#
# Compressibility (1/GPa) = 0.03136287
#
# Stress axis : x y z
#
# Youngs Moduli (GPa) = 77.24138 28.87840 60.21610
#
# Poissons Ratio (x) = 0.13513 0.40063
# Poissons Ratio (y) = 0.36144 0.30569
# Poissons Ratio (z) = 0.51391 0.14660
#
# Static dielectric constant tensor:
#      x y z
#    x 1.754630 -0.046380 0.019750 
#    y -0.046380 1.794790 0.039640 
#    z 0.019750 0.039640 1.760250 
# 
# From -- ./inp_files/273233.got.cif
#   From: 2010.05.17/outbox.cif.g08.bks.cpg/sg2_137_cif.got.tgz:273233.got - 2010.06.03 11:33:40.
