data_PCOD9110420
_publ_section_title
;
Structure prediction by ZEFSAII (Michael W. Deem and Ramdas Pophale) SiO2 
 PCOD9110420
Probable space group: P -1
;
_chemical_formula_sum "Si O2"
_cell_formula_units_Z 16
_cell_length_a 6.435480
_cell_length_b 12.531524
_cell_length_c 9.165566
_cell_angle_alpha 106.060606
_cell_angle_beta 75.934541
_cell_angle_gamma 87.130357
_cell_volume 683.546250
_symmetry_space_group_name_H-M "P -1"
_symmetry_group_IT_number 2
_symmetry_cell_setting 'triclinic'
loop_
_space_group_symop_operation_xyz
x,y,z
-x,-y,-z
loop_
_atom_site_type_symbol
_atom_site_label
_atom_site_fract_x
_atom_site_fract_y
_atom_site_fract_z
Si Si1 0.477064 0.315771 0.684260
Si Si2 0.858562 0.695598 0.763423
Si Si3 0.060123 0.707253 0.435321
Si Si4 0.070088 0.479631 0.814152
Si Si5 0.777320 0.891786 0.439298
Si Si6 0.449622 0.780050 0.043243
Si Si7 0.874727 0.124813 0.079439
Si Si8 0.427480 0.998604 0.753297
O O1 0.697036 0.313380 0.556887
O O2 0.322475 0.431821 0.746555
O O3 0.350690 0.214596 0.613766
O O4 0.537637 0.286064 0.831243
O O5 0.888598 0.686887 0.581679
O O6 0.993294 0.588909 0.775652
O O7 0.975650 0.801779 0.830463
O O8 0.618354 0.713110 0.877115
O O9 0.042540 0.620137 0.276006
O O10 0.006072 0.834152 0.434519
O O11 0.000000 0.500000 0.000000
O O12 0.755582 0.961020 0.320615
O O13 0.645914 0.963132 0.613688
O O14 0.211018 0.810717 0.028640
O O15 0.536439 0.898479 0.110542
O O16 0.652525 0.104153 0.188610
O O17 0.000000 0.000000 0.000000
#
# Coordination Sequence:
#
# PCOD9110420 Si02
#       8
#     2   2   2   2   2   2   2   2
#     4  10  23  43  69 102 127 174 228 276 331 407
#     4  12  26  46  67 102 137 178 219 281 335 394
#     4  11  25  42  72  99 135 174 222 275 341 393
#     4  11  25  47  74  98 134 171 224 281 338 399
#     4   9  21  40  65  92 139 172 224 271 333 387
#     4  11  24  41  67  96 138 179 227 268 335 392
#     4  12  26  37  64  96 136 172 228 268 322 386
#     4  10  20  42  61  95 133 184 220 277 320 394
#
# _framework density 23.407340999999999
#
# number of rings (size 3 to 8) (size 9 to 14) (size 15 to 20)
#    0.000    1.250    2.500    2.250    5.250    3.000 
#    0.000    2.500    0.000    0.000    0.000    0.000 
#    0.000    0.000    0.000    0.000    0.000    0.000 
#
# Total GULP energy -89563.516349 kJ/mol
# GULP energy per Si atom -5597.719772 kJ/mol
# Density = 2.335406 g / cm^3
# Si number density = 23.407341 Si / 1000 Ang^3
#
#
#
# Elastic Constant Matrix: (Units=GPa)
#
#
# Indices 1 2 3 4 5 6 
#
# 1 54.4508 12.1133 24.1176 11.1061 -6.8278 -22.0190
# 2 12.1133 103.5577 23.4767 5.8796 -1.5605 -35.0433
# 3 24.1176 23.4767 92.5385 3.1880 -4.2858 -14.1752
# 4 11.1061 5.8796 3.1880 30.6276 -6.7957 -4.0102
# 5 -6.8278 -1.5605 -4.2858 -6.7957 29.8731 3.3082
# 6 -22.0190 -35.0433 -14.1752 -4.0102 3.3082 43.0350
#
#
#
# Elastic Compliance Matrix: (Units=1/GPa)
#
#
# Indices 1 2 3 4 5 6 
#
# 1 0.027639 0.003249 -0.005496 -0.007701 0.002388 0.014076
# 2 0.003249 0.014069 -0.002514 -0.002188 -0.000726 0.012142
# 3 -0.005496 -0.002514 0.012779 0.001244 0.000795 -0.000595
# 4 -0.007701 -0.002188 0.001244 0.036967 0.006980 -0.002405
# 5 0.002388 -0.000726 0.000795 0.006980 0.035819 -0.001211
# 6 0.014076 0.012142 -0.000595 -0.002405 -0.001211 0.039999
#
#
# Mechanical properties :
#
#
# Convention : Reuss Voigt Hill
#
# Bulk Modulus (GPa) = 22.23913 41.10690 31.67301
# Shear Modulus (GPa) = 26.07135 33.42976 29.75056
#
# Velocity S-wave (km/s) = 3.34100 3.78322 3.56897
# Velocity P-wave (km/s) = 4.94010 6.05668 5.52666
#
# Compressibility (1/GPa) = 0.04496579
#
# Stress axis : x y z
#
# Youngs Moduli (GPa) = 36.18101 71.08061 78.25187
#
# Poissons Ratio (x) = -0.23097 0.43004
# Poissons Ratio (y) = -0.11757 0.19674
# Poissons Ratio (z) = 0.19883 0.17871
#
# Static dielectric constant tensor:
#      x y z
#    x 1.904850 -0.037440 -0.001910 
#    y -0.037440 1.873560 -0.026360 
#    z -0.001910 -0.026360 1.888520 
# 
# From -- ./inp_files/135633.got.cif
#   From: 2010.05.17/outbox.cif.g08.bks.cpg/sg2_68_cif.got.tgz:135633.got - 2010.06.03 11:33:40.
