data_PCOD9110716
_publ_section_title
;
Structure prediction by ZEFSAII (Michael W. Deem and Ramdas Pophale) SiO2 
 PCOD9110716
Probable space group: P -1
;
_chemical_formula_sum "Si O2"
_cell_formula_units_Z 16
_cell_length_a 11.726585
_cell_length_b 14.248075
_cell_length_c 9.971452
_cell_angle_alpha 40.771074
_cell_angle_beta 50.291572
_cell_angle_gamma 42.592278
_cell_volume 723.746128
_symmetry_space_group_name_H-M "P -1"
_symmetry_group_IT_number 2
_symmetry_cell_setting 'triclinic'
loop_
_space_group_symop_operation_xyz
x,y,z
-x,-y,-z
loop_
_atom_site_type_symbol
_atom_site_label
_atom_site_fract_x
_atom_site_fract_y
_atom_site_fract_z
Si Si1 0.120321 0.844176 0.484736
Si Si2 0.723706 0.759928 0.141666
Si Si3 0.812888 0.975867 0.392793
Si Si4 0.078714 0.572206 0.970931
Si Si5 0.452448 0.047105 0.203342
Si Si6 0.553817 0.332385 0.219510
Si Si7 0.678423 0.743671 0.688277
Si Si8 0.516263 0.367667 0.521787
O O1 0.315441 0.803329 0.368641
O O2 0.009282 0.885663 0.388113
O O3 0.135332 0.681854 0.722800
O O4 0.000000 0.000000 0.500000
O O5 0.922380 0.693521 0.052997
O O6 0.640621 0.832178 0.980981
O O7 0.335068 0.374417 0.647086
O O8 0.624368 0.898303 0.177837
O O9 0.689952 0.998010 0.589971
O O10 0.778203 0.845429 0.477041
O O11 0.730331 0.170682 0.210254
O O12 0.000000 0.500000 0.000000
O O13 0.211008 0.422442 0.127560
O O14 0.470166 0.137286 0.223144
O O15 0.407702 0.286101 0.342303
O O16 0.555962 0.373801 0.328847
O O17 0.500000 0.500000 0.000000
O O18 0.500000 0.500000 0.500000
#
# Coordination Sequence:
#
# PCOD9110716 Si02
#       8
#     2   2   2   2   2   2   2   2
#     4  12  22  40  64  99 137 170 223 276 332 387
#     4  11  20  37  63  99 135 160 216 281 332 376
#     4  10  20  42  65  97 123 175 232 272 313 404
#     4  12  20  38  65 100 131 173 229 270 323 403
#     4   9  19  35  64  96 121 162 216 275 323 372
#     4  12  25  44  63  98 137 181 221 266 343 408
#     4  10  22  40  68  90 130 173 231 263 321 405
#     4  12  27  40  68 101 140 167 216 285 342 386
#
# _framework density 22.107199999999999
#
# number of rings (size 3 to 8) (size 9 to 14) (size 15 to 20)
#    0.750    0.250    6.250    1.875    3.500    0.000 
#    0.000    0.625    2.750    0.750    0.000    0.000 
#    0.000    0.000    0.000    0.000    0.000    0.000 
#
# Total GULP energy -89242.441028 kJ/mol
# GULP energy per Si atom -5577.652564 kJ/mol
# Density = 2.205688 g / cm^3
# Si number density = 22.107200 Si / 1000 Ang^3
#
#
#
# Elastic Constant Matrix: (Units=GPa)
#
#
# Indices 1 2 3 4 5 6 
#
# 1 100.9688 25.0732 16.5071 -4.2527 23.0306 12.2274
# 2 25.0732 85.8545 1.5658 -4.3308 8.7609 12.6935
# 3 16.5071 1.5658 65.2823 -22.8751 13.5021 3.2488
# 4 -4.2527 -4.3308 -22.8751 25.5875 -4.1377 -2.3944
# 5 23.0306 8.7609 13.5021 -4.1377 29.5556 -1.2235
# 6 12.2274 12.6935 3.2488 -2.3944 -1.2235 37.7277
#
#
#
# Elastic Compliance Matrix: (Units=1/GPa)
#
#
# Indices 1 2 3 4 5 6 
#
# 1 0.013282 -0.002439 -0.001787 -0.001639 -0.009194 -0.003732
# 2 -0.002439 0.013305 0.002067 0.002899 -0.002738 -0.003769
# 3 -0.001787 0.002067 0.024612 0.020715 -0.007612 -0.001168
# 4 -0.001639 0.002899 0.020715 0.057807 -0.000895 0.001411
# 5 -0.009194 -0.002738 -0.007612 -0.000895 0.045410 0.005972
# 6 -0.003732 -0.003769 -0.001168 0.001411 0.005972 0.029367
#
#
# Mechanical properties :
#
#
# Convention : Reuss Voigt Hill
#
# Bulk Modulus (GPa) = 21.33016 37.59976 29.46496
# Shear Modulus (GPa) = 24.54267 32.50480 28.52374
#
# Velocity S-wave (km/s) = 3.33553 3.83864 3.59590
# Velocity P-wave (km/s) = 4.95013 6.05737 5.53153
#
# Compressibility (1/GPa) = 0.04688197
#
# Stress axis : x y z
#
# Youngs Moduli (GPa) = 75.28987 75.15945 40.63129
#
# Poissons Ratio (x) = 0.18331 0.07260
# Poissons Ratio (y) = 0.18363 -0.08400
# Poissons Ratio (z) = 0.13453 -0.15538
#
# Static dielectric constant tensor:
#      x y z
#    x 1.846820 0.010390 -0.035210 
#    y 0.010390 1.859070 -0.050900 
#    z -0.035210 -0.050900 1.881150 
# 
# From -- ./inp_files/261570.got.cif
#   From: 2010.05.17/outbox.cif.g08.bks.cpg/sg2_131_cif.got.tgz:261570.got - 2010.06.03 11:33:40.
