data_PCOD9110670
_publ_section_title
;
Structure prediction by ZEFSAII (Michael W. Deem and Ramdas Pophale) SiO2 
 PCOD9110670
Probable space group: P -1
;
_chemical_formula_sum "Si O2"
_cell_formula_units_Z 16
_cell_length_a 15.410673
_cell_length_b 10.455466
_cell_length_c 15.119993
_cell_angle_alpha 144.454284
_cell_angle_beta 140.883092
_cell_angle_gamma 27.760115
_cell_volume 645.485015
_symmetry_space_group_name_H-M "P -1"
_symmetry_group_IT_number 2
_symmetry_cell_setting 'triclinic'
loop_
_space_group_symop_operation_xyz
x,y,z
-x,-y,-z
loop_
_atom_site_type_symbol
_atom_site_label
_atom_site_fract_x
_atom_site_fract_y
_atom_site_fract_z
Si Si1 0.810945 0.903120 0.154866
Si Si2 0.661624 0.927807 0.869153
Si Si3 0.594522 0.111442 0.438380
Si Si4 0.488988 0.587998 0.271654
Si Si5 0.778926 0.461444 0.286458
Si Si6 0.044090 0.094297 0.439336
Si Si7 0.989830 0.550115 0.785956
Si Si8 0.262729 0.624681 0.974521
O O1 0.871905 0.673420 0.150309
O O2 0.603190 0.240974 0.193725
O O3 0.794721 0.809884 0.993316
O O4 0.955952 0.950675 0.301731
O O5 0.570020 0.790900 0.701388
O O6 0.785198 0.826945 0.821929
O O7 0.476842 0.284888 0.940700
O O8 0.533541 0.259461 0.569495
O O9 0.719501 0.754041 0.358631
O O10 0.729968 0.135409 0.511223
O O11 0.623903 0.568822 0.298509
O O12 0.299267 0.744486 0.153761
O O13 0.783138 0.274675 0.107645
O O14 0.974185 0.245530 0.372001
O O15 0.971932 0.358299 0.599777
O O16 0.097668 0.635602 0.875901
#
# Coordination Sequence:
#
# PCOD9110670 Si02
#       8
#     2   2   2   2   2   2   2   2
#     4  10  24  43  65  93 129 167 213 264 314 376
#     4  10  22  42  65  94 125 169 210 258 318 375
#     4  11  22  41  65  99 127 165 216 257 323 383
#     4  10  22  40  66  94 129 167 210 264 318 372
#     4  10  20  42  65  88 131 169 205 268 317 374
#     4  11  23  42  65  96 130 165 217 264 311 381
#     4  12  23  43  68  91 131 174 208 261 322 369
#     4  10  23  42  64  99 129 164 215 261 313 385
#
# _framework density 24.787562000000001
#
# number of rings (size 3 to 8) (size 9 to 14) (size 15 to 20)
#    0.000    1.500    2.500    3.375    1.750    4.000 
#    2.250    1.875    0.000    0.000    0.000    0.000 
#    0.000    0.000    0.000    0.000    0.000    0.000 
#
# Total GULP energy -89506.681812 kJ/mol
# GULP energy per Si atom -5594.167613 kJ/mol
# Density = 2.473114 g / cm^3
# Si number density = 24.787562 Si / 1000 Ang^3
#
#
#
# Elastic Constant Matrix: (Units=GPa)
#
#
# Indices 1 2 3 4 5 6 
#
# 1 27.7285 9.9275 30.9911 2.8293 11.1989 -11.6667
# 2 9.9275 56.5143 15.8884 -10.6209 11.7422 -5.1155
# 3 30.9911 15.8884 197.9428 -15.4002 -10.6112 -22.5651
# 4 2.8293 -10.6209 -15.4002 25.8349 -4.6840 6.9353
# 5 11.1989 11.7422 -10.6112 -4.6840 29.7088 -10.9964
# 6 -11.6667 -5.1155 -22.5651 6.9353 -10.9964 35.1289
#
#
#
# Elastic Compliance Matrix: (Units=1/GPa)
#
#
# Indices 1 2 3 4 5 6 
#
# 1 0.072616 -0.006956 -0.013294 -0.026965 -0.029704 0.010590
# 2 -0.006956 0.021753 -0.000634 0.009110 -0.005955 -0.003212
# 3 -0.013294 -0.000634 0.008668 0.007508 0.010615 0.002901
# 4 -0.026965 0.009110 0.007508 0.054962 0.014541 -0.009105
# 5 -0.029704 -0.005955 0.010615 0.014541 0.057439 0.011196
# 6 0.010590 -0.003212 0.002901 -0.009105 0.011196 0.038682
#
#
# Mechanical properties :
#
#
# Convention : Reuss Voigt Hill
#
# Bulk Modulus (GPa) = 16.32107 43.97773 30.14940
# Shear Modulus (GPa) = 15.80729 33.15977 24.48353
#
# Velocity S-wave (km/s) = 2.52803 3.66151 3.14623
# Velocity P-wave (km/s) = 3.88844 5.97125 5.03864
#
# Compressibility (1/GPa) = 0.06127050
#
# Stress axis : x y z
#
# Youngs Moduli (GPa) = 13.77104 45.97036 115.36486
#
# Poissons Ratio (x) = 0.31977 1.53365
# Poissons Ratio (y) = 0.09579 0.07310
# Poissons Ratio (z) = 0.18307 0.02913
#
# Static dielectric constant tensor:
#      x y z
#    x 1.948150 0.011510 0.047200 
#    y 0.011510 2.016820 0.047760 
#    z 0.047200 0.047760 2.039530 
# 
# From -- ./inp_files/532065.got.cif
#   From: 2010.05.17/outbox.cif.g08.bks.cpg/sg2_267_cif.got.tgz:532065.got - 2010.06.03 11:33:40.
