data_PCOD9110512
_publ_section_title
;
Structure prediction by ZEFSAII (Michael W. Deem and Ramdas Pophale) SiO2 
 PCOD9110512
Probable space group: P -1
;
_chemical_formula_sum "Si O2"
_cell_formula_units_Z 14
_cell_length_a 19.707254
_cell_length_b 7.678203
_cell_length_c 13.083164
_cell_angle_alpha 40.744704
_cell_angle_beta 147.311185
_cell_angle_gamma 147.323915
_cell_volume 568.962946
_symmetry_space_group_name_H-M "P -1"
_symmetry_group_IT_number 2
_symmetry_cell_setting 'triclinic'
loop_
_space_group_symop_operation_xyz
x,y,z
-x,-y,-z
loop_
_atom_site_type_symbol
_atom_site_label
_atom_site_fract_x
_atom_site_fract_y
_atom_site_fract_z
Si Si1 0.507109 0.024224 0.669391
Si Si2 0.206611 0.800711 0.327693
Si Si3 0.030830 0.240676 0.694088
Si Si4 0.871354 0.415478 0.118475
Si Si5 0.547633 0.791744 0.011376
Si Si6 0.248221 0.297623 0.324892
Si Si7 0.301902 0.228524 0.059180
O O1 0.581795 0.396822 0.567046
O O2 0.347693 0.768678 0.524139
O O3 0.634194 0.964873 0.822536
O O4 0.492883 0.981628 0.792815
O O5 0.032355 0.486263 0.253977
O O6 0.242200 0.018691 0.377290
O O7 0.232682 0.033194 0.163441
O O8 0.086308 0.362207 0.826676
O O9 0.000000 0.500000 0.500000
O O10 0.167818 0.225337 0.830981
O O11 0.871279 0.883924 0.654102
O O12 0.730831 0.051278 0.134622
O O13 0.817853 0.557138 0.900588
O O14 0.449518 0.607982 0.069733
O O15 0.500000 0.500000 0.000000
#
# Coordination Sequence:
#
# PCOD9110512 Si02
#       7
#     2   2   2   2   2   2   2
#     4  10  23  39  65  91 128 169 207 259 321 373
#     4  11  20  39  66  94 122 164 217 259 305 386
#     4  11  23  38  64  98 128 163 216 266 308 375
#     4  10  20  42  65  88 124 172 209 258 317 366
#     4   9  22  42  60  89 129 167 202 256 327 370
#     4  10  20  42  63  91 126 168 215 256 316 371
#     4  11  22  41  62  92 131 159 211 265 317 369
#
# _framework density 24.606171
#
# number of rings (size 3 to 8) (size 9 to 14) (size 15 to 20)
#    0.000    1.714    2.857    1.714    4.000    2.286 
#    2.571    2.857    0.000    0.000    0.000    0.000 
#    0.000    0.000    0.000    0.000    0.000    0.000 
#
# Total GULP energy -78124.665144 kJ/mol
# GULP energy per Si atom -5580.333225 kJ/mol
# Density = 2.455017 g / cm^3
# Si number density = 24.606171 Si / 1000 Ang^3
#
#
#
# Elastic Constant Matrix: (Units=GPa)
#
#
# Indices 1 2 3 4 5 6 
#
# 1 40.5181 12.8665 14.4770 3.0054 8.5235 14.9697
# 2 12.8665 143.6533 14.4338 23.1226 3.5690 42.8979
# 3 14.4770 14.4338 98.9820 5.1343 16.0792 9.8347
# 4 3.0054 23.1226 5.1343 32.2310 2.8891 4.6030
# 5 8.5235 3.5690 16.0792 2.8891 24.9661 -3.1944
# 6 14.9697 42.8979 9.8347 4.6030 -3.1944 39.4928
#
#
#
# Elastic Compliance Matrix: (Units=1/GPa)
#
#
# Indices 1 2 3 4 5 6 
#
# 1 0.032914 0.002330 -0.001535 -0.001169 -0.012429 -0.015494
# 2 0.002330 0.011854 0.000170 -0.006527 -0.003550 -0.013328
# 3 -0.001535 0.000170 0.011856 -0.000762 -0.007440 -0.003068
# 4 -0.001169 -0.006527 -0.000762 0.035617 -0.001861 0.003421
# 5 -0.012429 -0.003550 -0.007440 -0.001861 0.051708 0.014819
# 6 -0.015494 -0.013328 -0.003068 0.003421 0.014819 0.047236
#
#
# Mechanical properties :
#
#
# Convention : Reuss Voigt Hill
#
# Bulk Modulus (GPa) = 17.07791 40.74533 28.91162
# Shear Modulus (GPa) = 23.94947 35.42972 29.68960
#
# Velocity S-wave (km/s) = 3.12318 3.79868 3.47737
# Velocity P-wave (km/s) = 4.46780 5.98623 5.28186
#
# Compressibility (1/GPa) = 0.05855517
#
# Stress axis : x y z
#
# Youngs Moduli (GPa) = 30.38179 84.35725 84.34882
#
# Poissons Ratio (x) = -0.19655 0.12945
# Poissons Ratio (y) = -0.07079 -0.01434
# Poissons Ratio (z) = 0.04663 -0.01435
#
# Static dielectric constant tensor:
#      x y z
#    x 2.089290 0.060340 0.062250 
#    y 0.060340 2.035780 -0.000240 
#    z 0.062250 -0.000240 2.053450 
# 
# From -- ./inp_files/199078.got.cif
#   From: 2010.05.17/outbox.cif.g08.bks.cpg/sg2_100_cif.got.tgz:199078.got - 2010.06.03 11:33:40.
