data_PCOD9110852
_publ_section_title
;
Structure prediction by ZEFSAII (Michael W. Deem and Ramdas Pophale) SiO2 
 PCOD9110852
Probable space group: P -1
;
_chemical_formula_sum "Si O2"
_cell_formula_units_Z 16
_cell_length_a 8.251527
_cell_length_b 13.510077
_cell_length_c 11.669589
_cell_angle_alpha 107.235078
_cell_angle_beta 83.678175
_cell_angle_gamma 148.272553
_cell_volume 626.783804
_symmetry_space_group_name_H-M "P -1"
_symmetry_group_IT_number 2
_symmetry_cell_setting 'triclinic'
loop_
_space_group_symop_operation_xyz
x,y,z
-x,-y,-z
loop_
_atom_site_type_symbol
_atom_site_label
_atom_site_fract_x
_atom_site_fract_y
_atom_site_fract_z
Si Si1 0.225807 0.372447 0.641118
Si Si2 0.146456 0.482166 0.875040
Si Si3 0.749104 0.496532 0.547250
Si Si4 0.939596 0.191760 0.963156
Si Si5 0.732570 0.937758 0.534081
Si Si6 0.725814 0.167914 0.210248
Si Si7 0.532568 0.867307 0.273412
Si Si8 0.250849 0.155205 0.932981
O O1 0.321936 0.508306 0.774833
O O2 0.505643 0.446638 0.608068
O O3 0.131671 0.382918 0.536610
O O4 0.931888 0.143835 0.638083
O O5 0.021456 0.337408 0.933806
O O6 0.838605 0.363965 0.799913
O O7 0.412191 0.696726 0.988189
O O8 0.543800 0.281328 0.460482
O O9 0.020851 0.627091 0.666443
O O10 0.213178 0.256068 0.947676
O O11 0.598410 0.961367 0.862164
O O12 0.891676 0.200037 0.101113
O O13 0.588768 0.900539 0.414085
O O14 0.000000 0.000000 0.500000
O O15 0.613679 0.019350 0.258461
O O16 0.769797 0.915911 0.209234
O O17 0.000000 0.000000 0.000000
#
# Coordination Sequence:
#
# PCOD9110852 Si02
#       8
#     2   2   2   2   2   2   2   2
#     4  10  22  43  67  96 136 175 234 272 343 403
#     4  11  26  44  67  98 136 185 217 281 342 403
#     4  10  21  39  70  98 132 180 222 287 337 398
#     4  10  23  40  65  99 133 183 223 267 342 409
#     4  10  23  40  66 100 128 178 226 281 333 403
#     4  10  20  42  66  97 140 180 218 280 342 399
#     4  11  24  44  66  98 141 175 225 282 341 398
#     4  12  25  41  66 100 134 174 228 280 332 403
#
# _framework density 25.527144
#
# number of rings (size 3 to 8) (size 9 to 14) (size 15 to 20)
#    0.000    1.500    2.500    1.500    5.250    1.500 
#    0.000    0.625    0.000    0.000    0.000    0.000 
#    0.000    0.000    0.000    0.000    0.000    0.000 
#
# Total GULP energy -89609.681130 kJ/mol
# GULP energy per Si atom -5600.605071 kJ/mol
# Density = 2.546904 g / cm^3
# Si number density = 25.527144 Si / 1000 Ang^3
#
#
#
# Elastic Constant Matrix: (Units=GPa)
#
#
# Indices 1 2 3 4 5 6 
#
# 1 73.0089 20.4388 19.1063 -19.8264 2.1243 4.7849
# 2 20.4388 81.2834 6.4732 8.7648 3.3897 -6.6629
# 3 19.1063 6.4732 54.4175 3.5890 3.0221 8.2436
# 4 -19.8264 8.7648 3.5890 33.9074 9.3556 1.7829
# 5 2.1243 3.3897 3.0221 9.3556 41.1267 -4.3560
# 6 4.7849 -6.6629 8.2436 1.7829 -4.3560 32.5096
#
#
#
# Elastic Compliance Matrix: (Units=1/GPa)
#
#
# Indices 1 2 3 4 5 6 
#
# 1 0.022816 -0.007217 -0.007369 0.017465 -0.004495 -0.004529
# 2 -0.007217 0.015369 0.000479 -0.008941 0.001613 0.004797
# 3 -0.007369 0.000479 0.021962 -0.006480 -0.000229 -0.004061
# 4 0.017465 -0.008941 -0.006480 0.046058 -0.010881 -0.006744
# 5 -0.004495 0.001613 -0.000229 -0.010881 0.027471 0.005328
# 6 -0.004529 0.004797 -0.004061 -0.006744 0.005328 0.034524
#
#
# Mechanical properties :
#
#
# Convention : Reuss Voigt Hill
#
# Bulk Modulus (GPa) = 31.31449 33.41628 32.36538
# Shear Modulus (GPa) = 24.14782 32.35485 28.25134
#
# Velocity S-wave (km/s) = 3.07899 3.56401 3.33035
# Velocity P-wave (km/s) = 4.99340 5.48226 5.24353
#
# Compressibility (1/GPa) = 0.03193410
#
# Stress axis : x y z
#
# Youngs Moduli (GPa) = 43.82840 65.06441 45.53339
#
# Poissons Ratio (x) = 0.46960 0.33551
# Poissons Ratio (y) = 0.31633 -0.02182
# Poissons Ratio (z) = 0.32295 -0.03118
#
# Static dielectric constant tensor:
#      x y z
#    x 2.011530 0.010910 -0.012520 
#    y 0.010910 2.028500 0.041160 
#    z -0.012520 0.041160 1.974750 
# 
# From -- ./inp_files/272548.got.cif
#   From: 2010.05.17/outbox.cif.g08.bks.cpg/sg2_137_cif.got.tgz:272548.got - 2010.06.03 11:33:40.
