data_PCOD9110921
_publ_section_title
;
Structure prediction by ZEFSAII (Michael W. Deem and Ramdas Pophale) SiO2 
 PCOD9110921
Probable space group: P -1
;
_chemical_formula_sum "Si O2"
_cell_formula_units_Z 16
_cell_length_a 15.417493
_cell_length_b 19.108425
_cell_length_c 8.692869
_cell_angle_alpha 140.643393
_cell_angle_beta 42.655095
_cell_angle_gamma 152.629678
_cell_volume 736.095506
_symmetry_space_group_name_H-M "P -1"
_symmetry_group_IT_number 2
_symmetry_cell_setting 'triclinic'
loop_
_space_group_symop_operation_xyz
x,y,z
-x,-y,-z
loop_
_atom_site_type_symbol
_atom_site_label
_atom_site_fract_x
_atom_site_fract_y
_atom_site_fract_z
Si Si1 0.899132 0.601430 0.045314
Si Si2 0.815791 0.960561 0.295897
Si Si3 0.244148 0.284507 0.404564
Si Si4 0.282265 0.741872 0.237251
Si Si5 0.688143 0.632080 0.878584
Si Si6 0.307804 0.906391 0.178783
Si Si7 0.707005 0.928742 0.030112
Si Si8 0.009042 0.707209 0.750443
O O1 0.776714 0.630312 0.303000
O O2 0.117588 0.760840 0.082058
O O3 0.816819 0.440751 0.962653
O O4 0.904307 0.589920 0.835526
O O5 0.781470 0.964182 0.167937
O O6 0.684747 0.959888 0.560476
O O7 0.773461 0.805808 0.108373
O O8 0.029584 0.125565 0.349395
O O9 0.353840 0.392232 0.290223
O O10 0.312947 0.208466 0.241421
O O11 0.282085 0.818838 0.218655
O O12 0.503453 0.858405 0.183355
O O13 0.161424 0.726136 0.500381
O O14 0.846847 0.643054 0.733700
O O15 0.500000 0.500000 0.000000
O O16 0.500000 0.000000 0.000000
O O17 0.865904 0.105932 0.042082
#
# Coordination Sequence:
#
# PCOD9110921 Si02
#       8
#     2   2   2   2   2   2   2   2
#     4  11  27  42  65  97 137 170 212 274 331 374
#     4  10  20  42  67  92 127 174 217 265 319 383
#     4  10  21  46  65  91 132 174 215 270 323 377
#     4  12  26  43  67  96 134 179 209 271 326 384
#     4  11  23  40  69  98 126 171 218 269 325 381
#     4  11  24  44  67  95 127 176 221 264 328 390
#     4  11  21  40  72  92 126 173 223 263 316 390
#     4  12  23  44  65  98 133 170 224 259 321 397
#
# _framework density 21.736311000000001
#
# number of rings (size 3 to 8) (size 9 to 14) (size 15 to 20)
#    0.000    1.000    3.750    3.375    5.250    3.000 
#    2.250    0.000    0.000    0.000    0.000    0.000 
#    0.000    0.000    0.000    0.000    0.000    0.000 
#
# Total GULP energy -89517.778980 kJ/mol
# GULP energy per Si atom -5594.861186 kJ/mol
# Density = 2.168684 g / cm^3
# Si number density = 21.736311 Si / 1000 Ang^3
#
#
#
# Elastic Constant Matrix: (Units=GPa)
#
#
# Indices 1 2 3 4 5 6 
#
# 1 65.1251 6.4352 16.6785 -1.6797 -17.4701 2.4147
# 2 6.4352 66.5149 15.7411 -16.9248 -0.3931 2.3605
# 3 16.6785 15.7411 112.3265 -18.3323 -21.2009 -2.6521
# 4 -1.6797 -16.9248 -18.3323 33.6612 2.5865 0.2193
# 5 -17.4701 -0.3931 -21.2009 2.5865 29.4462 -7.6686
# 6 2.4147 2.3605 -2.6521 0.2193 -7.6686 27.6037
#
#
#
# Elastic Compliance Matrix: (Units=1/GPa)
#
#
# Indices 1 2 3 4 5 6 
#
# 1 0.018584 -0.001972 -0.000545 -0.001226 0.011130 0.001592
# 2 -0.001972 0.017766 -0.001555 0.008267 -0.003434 -0.002516
# 3 -0.000545 -0.001555 0.011710 0.004883 0.008611 0.003659
# 4 -0.001226 0.008267 0.004883 0.036501 -0.000450 -0.000546
# 5 0.011130 -0.003434 0.008611 -0.000450 0.050446 0.014165
# 6 0.001592 -0.002516 0.003659 -0.000546 0.014165 0.040594
#
#
# Mechanical properties :
#
#
# Convention : Reuss Voigt Hill
#
# Bulk Modulus (GPa) = 25.05248 35.74180 30.39714
# Shear Modulus (GPa) = 25.37424 31.81634 28.59529
#
# Velocity S-wave (km/s) = 3.42038 3.83004 3.63099
# Velocity P-wave (km/s) = 5.21050 6.00316 5.62082
#
# Compressibility (1/GPa) = 0.03991621
#
# Stress axis : x y z
#
# Youngs Moduli (GPa) = 53.80861 56.28838 85.39665
#
# Poissons Ratio (x) = 0.11099 0.04655
# Poissons Ratio (y) = 0.10610 0.13280
# Poissons Ratio (z) = 0.02933 0.08753
#
# Static dielectric constant tensor:
#      x y z
#    x 1.790040 -0.001210 -0.008450 
#    y -0.001210 1.778980 0.014740 
#    z -0.008450 0.014740 1.811060 
# 
# From -- ./inp_files/189242.got.cif
#   From: 2010.05.17/outbox.cif.g08.bks.cpg/sg2_95_cif.got.tgz:189242.got - 2010.06.03 11:33:40.
