data_PCOD9110382
_publ_section_title
;
Structure prediction by ZEFSAII (Michael W. Deem and Ramdas Pophale) SiO2 
 PCOD9110382
Probable space group: P -1
;
_chemical_formula_sum "Si O2"
_cell_formula_units_Z 14
_cell_length_a 5.636916
_cell_length_b 15.368129
_cell_length_c 20.962725
_cell_angle_alpha 25.410142
_cell_angle_beta 50.514047
_cell_angle_gamma 48.168162
_cell_volume 577.417152
_symmetry_space_group_name_H-M "P -1"
_symmetry_group_IT_number 2
_symmetry_cell_setting 'triclinic'
loop_
_space_group_symop_operation_xyz
x,y,z
-x,-y,-z
loop_
_atom_site_type_symbol
_atom_site_label
_atom_site_fract_x
_atom_site_fract_y
_atom_site_fract_z
Si Si1 0.877339 0.409081 0.492164
Si Si2 0.506294 0.249265 0.999357
Si Si3 0.303363 0.055850 0.723540
Si Si4 0.448089 0.542007 0.263240
Si Si5 0.129141 0.782020 0.511040
Si Si6 0.210314 0.690568 0.896041
Si Si7 0.542497 0.679600 0.718082
O O1 0.500000 0.500000 0.500000
O O2 0.939056 0.236733 0.539040
O O3 0.047815 0.281121 0.609326
O O4 0.085648 0.559949 0.332413
O O5 0.136613 0.349346 0.016945
O O6 0.627013 0.030240 0.159906
O O7 0.522254 0.258111 0.914241
O O8 0.686344 0.423866 0.875094
O O9 0.630229 0.074785 0.621527
O O10 0.187125 0.881552 0.821515
O O11 0.664649 0.451942 0.345990
O O12 0.563694 0.350387 0.316790
O O13 0.800020 0.812045 0.585074
O O14 0.296456 0.750724 0.770299
O O15 0.500000 0.500000 0.000000
#
# Coordination Sequence:
#
# PCOD9110382 Si02
#       7
#     2   2   2   2   2   2   2
#     4  10  22  44  67  89 117 158 205 259 321 371
#     4  10  21  38  59  90 127 162 211 243 297 355
#     4  11  24  37  62  95 124 162 209 259 298 356
#     4   8  19  35  62  87 118 162 196 249 307 359
#     4  10  20  42  60  89 123 158 208 254 306 367
#     4  12  21  35  61  92 131 171 205 243 294 361
#     4   9  20  34  59  86 122 173 200 239 295 355
#
# _framework density 24.245903999999999
#
# number of rings (size 3 to 8) (size 9 to 14) (size 15 to 20)
#    0.857    1.143    1.429    2.143    0.000    2.857 
#    0.000   10.714    0.000    4.286    0.000    0.000 
#    0.000    0.000    0.000    0.000    0.000    0.000 
#
# Total GULP energy -78106.304171 kJ/mol
# GULP energy per Si atom -5579.021727 kJ/mol
# Density = 2.419072 g / cm^3
# Si number density = 24.245904 Si / 1000 Ang^3
#
#
#
# Elastic Constant Matrix: (Units=GPa)
#
#
# Indices 1 2 3 4 5 6 
#
# 1 55.8192 18.1718 34.3987 4.0058 21.1400 -14.4577
# 2 18.1718 86.9083 37.8948 10.1959 11.8975 -23.2652
# 3 34.3987 37.8948 131.6508 13.5156 33.4085 -22.4228
# 4 4.0058 10.1959 13.5156 30.8578 -3.7600 -3.0078
# 5 21.1400 11.8975 33.4085 -3.7600 50.1656 -4.8180
# 6 -14.4577 -23.2652 -22.4228 -3.0078 -4.8180 42.3899
#
#
#
# Elastic Compliance Matrix: (Units=1/GPa)
#
#
# Indices 1 2 3 4 5 6 
#
# 1 0.024550 -0.001153 -0.003068 -0.001900 -0.007680 0.005109
# 2 -0.001153 0.014974 -0.002306 -0.003324 -0.001180 0.006235
# 3 -0.003068 -0.002306 0.011460 -0.004301 -0.005848 0.002780
# 4 -0.001900 -0.003324 -0.004301 0.036361 0.007047 -0.001366
# 5 -0.007680 -0.001180 -0.005848 0.007047 0.027611 -0.002722
# 6 0.005109 0.006235 0.002780 -0.001366 -0.002722 0.029819
#
#
# Mechanical properties :
#
#
# Convention : Reuss Voigt Hill
#
# Bulk Modulus (GPa) = 26.36574 50.58988 38.47781
# Shear Modulus (GPa) = 29.33011 36.94353 33.13682
#
# Velocity S-wave (km/s) = 3.48184 3.90770 3.70090
# Velocity P-wave (km/s) = 5.20213 6.42423 5.84521
#
# Compressibility (1/GPa) = 0.03792801
#
# Stress axis : x y z
#
# Youngs Moduli (GPa) = 40.73380 66.78429 87.25731
#
# Poissons Ratio (x) = 0.07702 0.26774
# Poissons Ratio (y) = 0.04697 0.20123
# Poissons Ratio (z) = 0.12499 0.15402
#
# Static dielectric constant tensor:
#      x y z
#    x 1.941980 -0.004090 0.041200 
#    y -0.004090 1.925900 -0.016620 
#    z 0.041200 -0.016620 1.966040 
# 
# From -- ./inp_files/615890.got.cif
#   From: 2010.05.17/outbox.cif.g08.bks.cpg/sg2_308_cif.got.tgz:615890.got - 2010.06.03 11:33:40.
