data_PCOD9110925
_publ_section_title
;
Structure prediction by ZEFSAII (Michael W. Deem and Ramdas Pophale) SiO2 
 PCOD9110925
Probable space group: P -1
;
_chemical_formula_sum "Si O2"
_cell_formula_units_Z 14
_cell_length_a 11.474264
_cell_length_b 9.488227
_cell_length_c 9.501556
_cell_angle_alpha 67.662949
_cell_angle_beta 139.002320
_cell_angle_gamma 97.549725
_cell_volume 606.752267
_symmetry_space_group_name_H-M "P -1"
_symmetry_group_IT_number 2
_symmetry_cell_setting 'triclinic'
loop_
_space_group_symop_operation_xyz
x,y,z
-x,-y,-z
loop_
_atom_site_type_symbol
_atom_site_label
_atom_site_fract_x
_atom_site_fract_y
_atom_site_fract_z
Si Si1 0.910873 0.040975 0.053476
Si Si2 0.963991 0.717314 0.736655
Si Si3 0.800436 0.589633 0.891484
Si Si4 0.039103 0.308758 0.738729
Si Si5 0.507040 0.141322 0.560375
Si Si6 0.380780 0.158313 0.757653
Si Si7 0.332546 0.453102 0.784234
O O1 0.915576 0.873619 0.189609
O O2 0.008772 0.139011 0.203638
O O3 0.708584 0.138699 0.793578
O O4 0.000000 0.000000 0.000000
O O5 0.858838 0.611323 0.774994
O O6 0.843453 0.786494 0.466245
O O7 0.157001 0.587672 0.945586
O O8 0.594327 0.696052 0.668626
O O9 0.921881 0.674728 0.066568
O O10 0.198095 0.379805 0.788709
O O11 0.827586 0.400812 0.480203
O O12 0.414941 0.126858 0.633476
O O13 0.500000 0.000000 0.500000
O O14 0.420487 0.314631 0.803875
O O15 0.500000 0.000000 0.000000
O O16 0.500000 0.500000 0.000000
#
# Coordination Sequence:
#
# PCOD9110925 Si02
#       7
#     2   2   2   2   2   2   2
#     4  12  23  40  68 106 137 185 230 294 378 422
#     4  10  22  40  66  99 139 183 222 292 366 412
#     4  10  20  42  67  92 142 178 231 296 347 425
#     4  11  23  46  70 102 145 184 247 295 353 445
#     4  11  23  41  68 100 139 185 238 294 356 426
#     4  11  24  44  68 102 142 184 241 299 350 433
#     4  11  27  47  72 102 142 201 243 292 364 426
#
# _framework density 23.073668000000001
#
# number of rings (size 3 to 8) (size 9 to 14) (size 15 to 20)
#    0.000    1.143    4.286    1.714    2.000    2.857 
#    0.000    1.429    0.000    0.000    0.000    0.000 
#    0.000    0.000    0.000    0.000    0.000    0.000 
#
# Total GULP energy -78102.064522 kJ/mol
# GULP energy per Si atom -5578.718894 kJ/mol
# Density = 2.302115 g / cm^3
# Si number density = 23.073668 Si / 1000 Ang^3
#
#
#
# Elastic Constant Matrix: (Units=GPa)
#
#
# Indices 1 2 3 4 5 6 
#
# 1 54.6661 17.5695 30.2733 4.4706 -4.8268 -10.7765
# 2 17.5695 148.1618 86.7457 6.3132 -2.6215 -22.4057
# 3 30.2733 86.7457 235.0159 -22.4223 5.8317 2.6272
# 4 4.4706 6.3132 -22.4223 50.2007 -4.4797 -2.3282
# 5 -4.8268 -2.6215 5.8317 -4.4797 33.3572 5.7553
# 6 -10.7765 -22.4057 2.6272 -2.3282 5.7553 27.7284
#
#
#
# Elastic Compliance Matrix: (Units=1/GPa)
#
#
# Indices 1 2 3 4 5 6 
#
# 1 0.022254 0.001113 -0.003733 -0.003188 0.001939 0.009232
# 2 0.001113 0.010814 -0.004527 -0.003066 -0.000230 0.009390
# 3 -0.003733 -0.004527 0.006831 0.003645 -0.000685 -0.005308
# 4 -0.003188 -0.003066 0.003645 0.022284 0.002106 -0.002628
# 5 0.001939 -0.000230 -0.000685 0.002106 0.031637 -0.005757
# 6 0.009232 0.009390 -0.005308 -0.002628 -0.005757 0.048716
#
#
# Mechanical properties :
#
#
# Convention : Reuss Voigt Hill
#
# Bulk Modulus (GPa) = 39.05389 78.55787 58.80588
# Shear Modulus (GPa) = 30.23606 42.47429 36.35517
#
# Velocity S-wave (km/s) = 3.62389 4.29512 3.97371
# Velocity P-wave (km/s) = 5.87134 7.66276 6.82607
#
# Compressibility (1/GPa) = 0.02560564
#
# Stress axis : x y z
#
# Youngs Moduli (GPa) = 44.93533 92.46996 146.39474
#
# Poissons Ratio (x) = -0.10289 0.54646
# Poissons Ratio (y) = -0.05000 0.66269
# Poissons Ratio (z) = 0.16774 0.41859
#
# Static dielectric constant tensor:
#      x y z
#    x 1.900850 0.029110 -0.018980 
#    y 0.029110 1.825440 -0.020040 
#    z -0.018980 -0.020040 1.854180 
# 
# From -- ./inp_files/447250.got.cif
#   From: 2010.05.17/outbox.cif.g08.bks.cpg/sg2_224_cif.got.tgz:447250.got - 2010.06.03 11:33:40.
