data_PCOD9110942
_publ_section_title
;
Structure prediction by ZEFSAII (Michael W. Deem and Ramdas Pophale) SiO2 
 PCOD9110942
Probable space group: P -1
;
_chemical_formula_sum "Si O2"
_cell_formula_units_Z 16
_cell_length_a 6.951854
_cell_length_b 9.665472
_cell_length_c 10.988906
_cell_angle_alpha 109.301617
_cell_angle_beta 80.151891
_cell_angle_gamma 78.356066
_cell_volume 659.570906
_symmetry_space_group_name_H-M "P -1"
_symmetry_group_IT_number 2
_symmetry_cell_setting 'triclinic'
loop_
_space_group_symop_operation_xyz
x,y,z
-x,-y,-z
loop_
_atom_site_type_symbol
_atom_site_label
_atom_site_fract_x
_atom_site_fract_y
_atom_site_fract_z
Si Si1 0.411840 0.662840 0.722701
Si Si2 0.362996 0.337817 0.717761
Si Si3 0.938366 0.210546 0.040610
Si Si4 0.770275 0.502075 0.996350
Si Si5 0.944952 0.018541 0.751608
Si Si6 0.094774 0.670360 0.291723
Si Si7 0.667403 0.861499 0.874904
Si Si8 0.704526 0.230264 0.490686
O O1 0.402223 0.493546 0.707599
O O2 0.193935 0.774650 0.819836
O O3 0.569556 0.736977 0.793117
O O4 0.421160 0.682185 0.583561
O O5 0.539326 0.206298 0.599125
O O6 0.137941 0.332358 0.702509
O O7 0.365980 0.358236 0.870553
O O8 0.157079 0.216492 0.068389
O O9 0.780043 0.345205 0.020375
O O10 0.984296 0.075305 0.899624
O O11 0.763840 0.465234 0.845292
O O12 0.000000 0.500000 0.000000
O O13 0.883503 0.173418 0.724592
O O14 0.133938 0.915636 0.625273
O O15 0.774312 0.932783 0.775746
O O16 0.166456 0.672998 0.422512
O O17 0.500000 0.000000 0.000000
#
# Coordination Sequence:
#
# PCOD9110942 Si02
#       8
#     2   2   2   2   2   2   2   2
#     4  11  24  42  66 101 130 166 223 270 316 393
#     4  10  24  44  67  96 127 171 223 266 322 389
#     4  10  20  42  67  95 127 165 212 273 330 362
#     4   8  18  41  66  90 123 158 212 268 309 380
#     4  11  23  45  65  98 135 166 221 269 323 386
#     4  10  24  46  66  91 132 176 214 271 321 382
#     4  12  23  40  69 101 130 166 217 274 327 378
#     4  12  25  42  65  96 136 176 215 262 327 392
#
# _framework density 24.258195000000001
#
# number of rings (size 3 to 8) (size 9 to 14) (size 15 to 20)
#    0.000    1.500    2.500    1.875    1.750    4.500 
#    9.000    0.000    0.000    0.000    0.000    0.000 
#    0.000    0.000    0.000    0.000    0.000    0.000 
#
# Total GULP energy -89309.242841 kJ/mol
# GULP energy per Si atom -5581.827678 kJ/mol
# Density = 2.420298 g / cm^3
# Si number density = 24.258195 Si / 1000 Ang^3
#
#
#
# Elastic Constant Matrix: (Units=GPa)
#
#
# Indices 1 2 3 4 5 6 
#
# 1 145.6637 15.9557 58.3596 -4.6336 5.8968 12.4578
# 2 15.9557 72.4367 14.5168 -3.6538 -0.1681 9.6097
# 3 58.3596 14.5168 197.1510 9.1340 -14.5726 -8.5898
# 4 -4.6336 -3.6538 9.1340 11.2439 -0.7065 -4.6488
# 5 5.8968 -0.1681 -14.5726 -0.7065 61.6574 1.4829
# 6 12.4578 9.6097 -8.5898 -4.6488 1.4829 26.6111
#
#
#
# Elastic Compliance Matrix: (Units=1/GPa)
#
#
# Indices 1 2 3 4 5 6 
#
# 1 0.008653 -0.000573 -0.002985 0.004055 -0.001391 -0.004022
# 2 -0.000573 0.015039 -0.001328 0.003682 -0.000057 -0.004945
# 3 -0.002985 -0.001328 0.006570 -0.005689 0.001699 0.002909
# 4 0.004055 0.003682 -0.005689 0.101639 -0.000864 0.012740
# 5 -0.001391 -0.000057 0.001699 -0.000864 0.016740 0.000137
# 6 -0.004022 -0.004945 0.002909 0.012740 0.000137 0.044404
#
#
# Mechanical properties :
#
#
# Convention : Reuss Voigt Hill
#
# Bulk Modulus (GPa) = 48.80532 65.87952 57.34242
# Shear Modulus (GPa) = 23.84965 41.66376 32.75671
#
# Velocity S-wave (km/s) = 3.13894 4.14878 3.67868
# Velocity P-wave (km/s) = 5.77062 7.08283 6.46013
#
# Compressibility (1/GPa) = 0.02048957
#
# Stress axis : x y z
#
# Youngs Moduli (GPa) = 115.56454 66.49338 152.21518
#
# Poissons Ratio (x) = 0.03810 0.45439
# Poissons Ratio (y) = 0.06621 0.20214
# Poissons Ratio (z) = 0.34498 0.08830
#
# Static dielectric constant tensor:
#      x y z
#    x 1.935230 0.035990 -0.039900 
#    y 0.035990 1.901820 0.037270 
#    z -0.039900 0.037270 1.943650 
# 
# From -- ./inp_files/365202.got.cif
#   From: 2010.05.17/outbox.cif.g08.bks.cpg/sg2_183_cif.got.tgz:365202.got - 2010.06.03 11:33:40.
