data_PCOD9110107
_publ_section_title
;
Structure prediction by ZEFSAII (Michael W. Deem and Ramdas Pophale) SiO2 
 PCOD9110107
Probable space group: P -1
;
_chemical_formula_sum "Si O2"
_cell_formula_units_Z 13
_cell_length_a 15.732664
_cell_length_b 11.316378
_cell_length_c 8.934869
_cell_angle_alpha 139.937690
_cell_angle_beta 34.764322
_cell_angle_gamma 132.296086
_cell_volume 579.534923
_symmetry_space_group_name_H-M "P -1"
_symmetry_group_IT_number 2
_symmetry_cell_setting 'triclinic'
loop_
_space_group_symop_operation_xyz
x,y,z
-x,-y,-z
loop_
_atom_site_type_symbol
_atom_site_label
_atom_site_fract_x
_atom_site_fract_y
_atom_site_fract_z
Si Si1 0.050502 0.782218 0.450798
Si Si2 0.478116 0.216072 0.242118
Si Si3 0.084356 0.691750 0.629029
Si Si4 0.483029 0.517825 0.294524
Si Si5 0.875590 0.813160 0.301069
Si Si6 0.000000 0.500000 0.000000
Si Si7 0.266885 0.419919 0.246688
O O1 0.871920 0.740474 0.705906
O O2 0.133096 0.795908 0.506675
O O3 0.100096 0.972671 0.483520
O O4 0.075758 0.605300 0.144723
O O5 0.533044 0.342878 0.142626
O O6 0.549496 0.325904 0.389531
O O7 0.300448 0.237607 0.524098
O O8 0.500000 0.000000 0.000000
O O9 0.207123 0.616288 0.485200
O O10 0.000000 0.500000 0.500000
O O11 0.972386 0.790673 0.988980
O O12 0.342356 0.444910 0.323621
O O13 0.611475 0.604203 0.078595
O O14 0.941274 0.691501 0.214921
#
# Coordination Sequence:
#
# PCOD9110107 Si02
#       7
#     2   2   2   2   2   1   2
#     4  11  24  41  69 104 136 171 223 285 342 402
#     4  11  26  45  68  99 136 184 227 270 337 408
#     4  10  20  41  69  97 134 174 220 283 334 396
#     4  10  24  46  70  92 138 186 226 274 325 412
#     4  12  25  43  72 104 135 177 225 284 343 400
#     4  12  24  42  64 106 142 172 208 284 352 400
#     4  10  21  46  70  99 132 180 228 277 341 387
#
# _framework density 22.431778999999999
#
# number of rings (size 3 to 8) (size 9 to 14) (size 15 to 20)
#    0.000    1.231    3.077    3.692    2.154    2.462 
#    5.538    1.538    0.000    0.000    0.000    0.000 
#    0.000    0.000    0.000    0.000    0.000    0.000 
#
# Total GULP energy -72424.194759 kJ/mol
# GULP energy per Si atom -5571.091905 kJ/mol
# Density = 2.238072 g / cm^3
# Si number density = 22.431779 Si / 1000 Ang^3
#
#
#
# Elastic Constant Matrix: (Units=GPa)
#
#
# Indices 1 2 3 4 5 6 
#
# 1 97.1210 11.0736 32.6135 -15.3438 4.2683 -13.2748
# 2 11.0736 78.2642 5.7209 6.1986 0.7232 -9.4632
# 3 32.6135 5.7209 55.4222 10.9758 13.0389 -4.6421
# 4 -15.3438 6.1986 10.9758 27.3069 -4.5506 -7.8330
# 5 4.2683 0.7232 13.0389 -4.5506 31.8705 3.9068
# 6 -13.2748 -9.4632 -4.6421 -7.8330 3.9068 33.6629
#
#
#
# Elastic Compliance Matrix: (Units=1/GPa)
#
#
# Indices 1 2 3 4 5 6 
#
# 1 0.021321 -0.002444 -0.017678 0.023609 0.006576 0.010013
# 2 -0.002444 0.013663 0.001505 -0.004715 -0.001537 0.002166
# 3 -0.017678 0.001505 0.037579 -0.029977 -0.016534 -0.006423
# 4 0.023609 -0.004715 -0.029977 0.071141 0.017109 0.018419
# 5 0.006576 -0.001537 -0.016534 0.017109 0.039832 -0.000760
# 6 0.010013 0.002166 -0.006423 0.018419 -0.000760 0.037752
#
#
# Mechanical properties :
#
#
# Convention : Reuss Voigt Hill
#
# Bulk Modulus (GPa) = 28.30643 36.62480 32.46562
# Shear Modulus (GPa) = 18.49805 30.66135 24.57970
#
# Velocity S-wave (km/s) = 2.87476 3.70113 3.31381
# Velocity P-wave (km/s) = 4.86470 5.88448 5.39872
#
# Compressibility (1/GPa) = 0.03532767
#
# Stress axis : x y z
#
# Youngs Moduli (GPa) = 46.90210 73.19271 26.61028
#
# Poissons Ratio (x) = 0.17891 0.47042
# Poissons Ratio (y) = 0.11465 -0.04004
# Poissons Ratio (z) = 0.82914 -0.11014
#
# Static dielectric constant tensor:
#      x y z
#    x 1.809730 -0.055180 0.071980 
#    y -0.055180 1.837020 -0.045160 
#    z 0.071980 -0.045160 1.755220 
# 
# From -- ./inp_files/304259.got.cif
#   From: 2010.05.17/outbox.cif.g08.bks.cpg/sg2_153_cif.got.tgz:304259.got - 2010.06.03 11:33:40.
