data_PCOD9110991
_publ_section_title
;
Structure prediction by ZEFSAII (Michael W. Deem and Ramdas Pophale) SiO2 
 PCOD9110991
Probable space group: P -1
;
_chemical_formula_sum "Si O2"
_cell_formula_units_Z 13
_cell_length_a 6.275994
_cell_length_b 20.000063
_cell_length_c 9.449015
_cell_angle_alpha 34.212372
_cell_angle_beta 67.182021
_cell_angle_gamma 87.136101
_cell_volume 524.139901
_symmetry_space_group_name_H-M "P -1"
_symmetry_group_IT_number 2
_symmetry_cell_setting 'triclinic'
loop_
_space_group_symop_operation_xyz
x,y,z
-x,-y,-z
loop_
_atom_site_type_symbol
_atom_site_label
_atom_site_fract_x
_atom_site_fract_y
_atom_site_fract_z
Si Si1 0.260953 0.534514 0.202650
Si Si2 0.672337 0.076473 0.677677
Si Si3 0.671590 0.723700 0.305497
Si Si4 0.354138 0.686628 0.197742
Si Si5 0.762310 0.065398 0.184282
Si Si6 0.216403 0.649102 0.742454
Si Si7 0.000000 0.000000 0.500000
O O1 0.340025 0.419778 0.412627
O O2 0.371001 0.642262 0.113737
O O3 0.927430 0.450422 0.433935
O O4 0.361523 0.615067 0.889492
O O5 0.858730 0.241933 0.372230
O O6 0.853451 0.029004 0.629684
O O7 0.439429 0.048492 0.673045
O O8 0.500000 0.000000 0.000000
O O9 0.635848 0.735814 0.123930
O O10 0.414428 0.721891 0.433584
O O11 0.929157 0.843226 0.109808
O O12 0.298913 0.810716 0.000190
O O13 0.798823 0.017850 0.411586
O O14 0.000000 0.500000 0.000000
#
# Coordination Sequence:
#
# PCOD9110991 Si02
#       7
#     2   2   2   2   2   2   1
#     4  10  22  39  68 103 144 191 248 309 374 457
#     4  12  29  52  80 113 160 203 259 325 384 465
#     4  11  23  43  73 102 152 198 249 312 391 458
#     4  10  20  42  68 103 146 189 245 314 382 443
#     4  11  25  47  74 111 150 200 258 320 384 468
#     4  12  25  47  71 108 152 198 255 320 377 455
#     4  12  26  50  82 114 150 206 260 318 388 462
#
# _framework density 24.802537999999998
#
# number of rings (size 3 to 8) (size 9 to 14) (size 15 to 20)
#    0.000    0.923    1.538    5.077    2.154    3.692 
#    8.308    0.000    0.000    0.000    0.000    0.000 
#    0.000    0.000    0.000    0.000    0.000    0.000 
#
# Total GULP energy -72441.967076 kJ/mol
# GULP energy per Si atom -5572.459006 kJ/mol
# Density = 2.474609 g / cm^3
# Si number density = 24.802538 Si / 1000 Ang^3
#
#
#
# Elastic Constant Matrix: (Units=GPa)
#
#
# Indices 1 2 3 4 5 6 
#
# 1 78.5976 42.2667 22.5478 -0.3120 13.9834 9.4158
# 2 42.2667 148.0115 47.1400 -6.1687 0.1560 6.4751
# 3 22.5478 47.1400 62.8573 -9.3061 1.4798 -1.5783
# 4 -0.3120 -6.1687 -9.3061 46.0540 9.1809 4.0227
# 5 13.9834 0.1560 1.4798 9.1809 56.7717 4.2811
# 6 9.4158 6.4751 -1.5783 4.0227 4.2811 37.5232
#
#
#
# Elastic Compliance Matrix: (Units=1/GPa)
#
#
# Indices 1 2 3 4 5 6 
#
# 1 0.016641 -0.003555 -0.003296 0.000005 -0.003757 -0.003273
# 2 -0.003555 0.009766 -0.006115 -0.000070 0.001108 -0.001169
# 3 -0.003296 -0.006115 0.022277 0.003544 -0.000513 0.002498
# 4 0.000005 -0.000070 0.003544 0.023330 -0.003722 -0.001917
# 5 -0.003757 0.001108 -0.000513 -0.003722 0.019232 -0.001065
# 6 -0.003273 -0.001169 0.002498 -0.001917 -0.001065 0.028105
#
#
# Mechanical properties :
#
#
# Convention : Reuss Voigt Hill
#
# Bulk Modulus (GPa) = 43.95228 57.04171 50.49700
# Shear Modulus (GPa) = 32.70836 39.90393 36.30615
#
# Velocity S-wave (km/s) = 3.63540 4.01542 3.83012
# Velocity P-wave (km/s) = 5.94818 6.67431 6.32168
#
# Compressibility (1/GPa) = 0.02275195
#
# Stress axis : x y z
#
# Youngs Moduli (GPa) = 60.09307 102.39776 44.89006
#
# Poissons Ratio (x) = 0.36401 0.14797
# Poissons Ratio (y) = 0.21362 0.27448
# Poissons Ratio (z) = 0.19808 0.62612
#
# Static dielectric constant tensor:
#      x y z
#    x 1.920670 0.023500 -0.053850 
#    y 0.023500 1.853970 0.100790 
#    z -0.053850 0.100790 1.685490 
# 
# From -- ./inp_files/138365.got.cif
#   From: 2010.05.17/outbox.cif.g08.bks.cpg/sg2_70_cif.got.tgz:138365.got - 2010.06.03 11:33:40.
