data_PCOD9110487
_publ_section_title
;
Structure prediction by ZEFSAII (Michael W. Deem and Ramdas Pophale) SiO2 
 PCOD9110487
Probable space group: P -1
;
_chemical_formula_sum "Si O2"
_cell_formula_units_Z 16
_cell_length_a 24.769036
_cell_length_b 15.072500
_cell_length_c 9.536230
_cell_angle_alpha 31.110339
_cell_angle_beta 48.657197
_cell_angle_gamma 27.274520
_cell_volume 763.384622
_symmetry_space_group_name_H-M "P -1"
_symmetry_group_IT_number 2
_symmetry_cell_setting 'triclinic'
loop_
_space_group_symop_operation_xyz
x,y,z
-x,-y,-z
loop_
_atom_site_type_symbol
_atom_site_label
_atom_site_fract_x
_atom_site_fract_y
_atom_site_fract_z
Si Si1 0.883319 0.598673 0.089974
Si Si2 0.516151 0.804542 0.631444
Si Si3 0.608781 0.671462 0.338830
Si Si4 0.730986 0.297741 0.143061
Si Si5 0.768500 0.621937 0.717074
Si Si6 0.860457 0.367992 0.218107
Si Si7 0.012746 0.772782 0.317802
Si Si8 0.364733 0.687919 0.427021
O O1 0.858831 0.551699 0.051164
O O2 0.932149 0.363642 0.437027
O O3 0.000000 0.500000 0.000000
O O4 0.749733 0.949043 0.897697
O O5 0.577758 0.734290 0.471768
O O6 0.500000 0.000000 0.500000
O O7 0.374182 0.014387 0.552036
O O8 0.616307 0.486808 0.974915
O O9 0.749127 0.472903 0.336344
O O10 0.609089 0.485615 0.515552
O O11 0.500000 0.000000 0.000000
O O12 0.692978 0.304304 0.352242
O O13 0.872811 0.959686 0.302753
O O14 0.748426 0.468659 0.898073
O O15 0.878703 0.503888 0.603149
O O16 0.818795 0.486884 0.969596
O O17 0.000000 0.000000 0.500000
O O18 0.000000 0.000000 0.000000
O O19 0.500000 0.500000 0.500000
#
# Coordination Sequence:
#
# PCOD9110487 Si02
#       8
#     2   2   2   2   2   2   2   2
#     4  12  26  46  69 102 148 189 226 299 371 415
#     4  10  22  37  65  97 134 169 228 299 343 395
#     4  12  23  45  69 102 137 187 248 295 342 429
#     4  10  20  42  62  98 136 176 227 288 346 419
#     4  10  21  39  64 100 130 170 241 290 334 409
#     4  12  24  40  72 102 137 179 245 296 340 425
#     4  10  22  41  69  97 135 181 235 284 346 425
#     4  12  26  44  70 100 147 190 233 294 369 422
#
# _framework density 20.959291
#
# number of rings (size 3 to 8) (size 9 to 14) (size 15 to 20)
#    0.000    1.000    3.750    3.750    8.750    0.000 
#    0.000    2.500    0.000    0.000    0.000    0.000 
#    0.000    0.000    0.000    0.000    0.000    0.000 
#
# Total GULP energy -89371.429368 kJ/mol
# GULP energy per Si atom -5585.714336 kJ/mol
# Density = 2.091159 g / cm^3
# Si number density = 20.959291 Si / 1000 Ang^3
#
#
#
# Elastic Constant Matrix: (Units=GPa)
#
#
# Indices 1 2 3 4 5 6 
#
# 1 109.2916 51.7966 19.3111 -13.4257 15.1215 2.6107
# 2 51.7966 154.9643 25.1551 -7.3206 25.2937 -9.1184
# 3 19.3111 25.1551 74.9572 -13.0036 33.1444 0.1611
# 4 -13.4257 -7.3206 -13.0036 43.6856 -0.5944 12.8952
# 5 15.1215 25.2937 33.1444 -0.5944 42.4060 1.7715
# 6 2.6107 -9.1184 0.1611 12.8952 1.7715 35.2870
#
#
#
# Elastic Compliance Matrix: (Units=1/GPa)
#
#
# Indices 1 2 3 4 5 6 
#
# 1 0.011671 -0.003588 -0.000514 0.003721 -0.001439 -0.003076
# 2 -0.003588 0.008439 -0.000495 -0.000737 -0.003499 0.002894
# 3 -0.000514 -0.000495 0.022178 0.006661 -0.016687 -0.001788
# 4 0.003721 -0.000737 0.006661 0.029022 -0.005234 -0.010839
# 5 -0.001439 -0.003499 -0.016687 -0.005234 0.039184 -0.000776
# 6 -0.003076 0.002894 -0.001788 -0.010839 -0.000776 0.033322
#
#
# Mechanical properties :
#
#
# Convention : Reuss Voigt Hill
#
# Bulk Modulus (GPa) = 30.21724 59.08210 44.64967
# Shear Modulus (GPa) = 30.48027 40.47240 35.47634
#
# Velocity S-wave (km/s) = 3.81761 4.39908 4.11862
# Velocity P-wave (km/s) = 5.82071 7.35206 6.63074
#
# Compressibility (1/GPa) = 0.03309370
#
# Stress axis : x y z
#
# Youngs Moduli (GPa) = 85.68478 118.49567 45.09019
#
# Poissons Ratio (x) = 0.42513 0.02319
# Poissons Ratio (y) = 0.30742 0.02232
# Poissons Ratio (z) = 0.04407 0.05864
#
# Static dielectric constant tensor:
#      x y z
#    x 1.610740 0.203870 -0.049200 
#    y 0.203870 1.479810 0.024730 
#    z -0.049200 0.024730 1.740050 
# 
# From -- ./inp_files/354490.got.cif
#   From: 2010.05.17/outbox.cif.g08.bks.cpg/sg2_178_cif.got.tgz:354490.got - 2010.06.03 11:33:40.
