data_PCOD9110692
_publ_section_title
;
Structure prediction by ZEFSAII (Michael W. Deem and Ramdas Pophale) SiO2 
 PCOD9110692
Probable space group: P -1
;
_chemical_formula_sum "Si O2"
_cell_formula_units_Z 12
_cell_length_a 10.078359
_cell_length_b 14.355439
_cell_length_c 6.869185
_cell_angle_alpha 85.289963
_cell_angle_beta 87.749018
_cell_angle_gamma 149.071883
_cell_volume 497.250949
_symmetry_space_group_name_H-M "P -1"
_symmetry_group_IT_number 2
_symmetry_cell_setting 'triclinic'
loop_
_space_group_symop_operation_xyz
x,y,z
-x,-y,-z
loop_
_atom_site_type_symbol
_atom_site_label
_atom_site_fract_x
_atom_site_fract_y
_atom_site_fract_z
Si Si1 0.363567 0.699430 0.923264
Si Si2 0.845916 0.615909 0.957033
Si Si3 0.081021 0.979474 0.329477
Si Si4 0.558734 0.966563 0.135555
Si Si5 0.423315 0.410915 0.725382
Si Si6 0.566121 0.971181 0.624108
O O1 0.652209 0.829238 0.832497
O O2 0.336740 0.757479 0.738194
O O3 0.144194 0.486894 0.969969
O O4 0.411819 0.782944 0.109985
O O5 0.677496 0.518615 0.787388
O O6 0.677471 0.567068 0.136397
O O7 0.126148 0.836092 0.886238
O O8 0.168551 0.930508 0.416821
O O9 0.000000 0.000000 0.500000
O O10 0.824392 0.809015 0.242902
O O11 0.493060 0.945067 0.392156
O O12 0.596336 0.023646 0.863613
O O13 0.500000 0.500000 0.500000
#
# Coordination Sequence:
#
# PCOD9110692 Si02
#       6
#     2   2   2   2   2   2
#     4   9  21  40  66  97 126 174 224 268 338 401
#     4  11  23  42  67  99 135 179 225 281 342 402
#     4  10  21  41  66  96 135 175 227 281 332 405
#     4  10  20  42  65  91 135 175 219 279 338 405
#     4  11  24  41  63 100 142 175 224 285 339 402
#     4   9  21  38  65  95 125 177 218 272 339 392
#
# _framework density 24.132686
#
# number of rings (size 3 to 8) (size 9 to 14) (size 15 to 20)
#    1.000    1.000    1.667    1.000    2.333    4.667 
#    0.000    0.000    0.000    7.000    0.000    0.000 
#    0.000    0.000    0.000    0.000    0.000    0.000 
#
# Total GULP energy -66884.490506 kJ/mol
# GULP energy per Si atom -5573.707542 kJ/mol
# Density = 2.407776 g / cm^3
# Si number density = 24.132686 Si / 1000 Ang^3
#
#
#
# Elastic Constant Matrix: (Units=GPa)
#
#
# Indices 1 2 3 4 5 6 
#
# 1 103.4814 18.4286 51.4322 9.2881 -14.6741 1.9430
# 2 18.4286 96.5019 22.5100 6.3868 2.1745 9.3925
# 3 51.4322 22.5100 151.9294 6.2822 -5.8654 -1.1533
# 4 9.2881 6.3868 6.2822 38.5616 1.6223 -0.7597
# 5 -14.6741 2.1745 -5.8654 1.6223 52.2348 11.2219
# 6 1.9430 9.3925 -1.1533 -0.7597 11.2219 38.5885
#
#
#
# Elastic Compliance Matrix: (Units=1/GPa)
#
#
# Indices 1 2 3 4 5 6 
#
# 1 0.012539 -0.001277 -0.003833 -0.002363 0.003544 -0.001512
# 2 -0.001277 0.011245 -0.001210 -0.001395 -0.000354 -0.002634
# 3 -0.003833 -0.001210 0.008060 -0.000161 -0.000290 0.000810
# 4 -0.002363 -0.001395 -0.000161 0.026864 -0.001781 0.001500
# 5 0.003544 -0.000354 -0.000290 -0.001781 0.021553 -0.006404
# 6 -0.001512 -0.002634 0.000810 0.001500 -0.006404 0.028548
#
#
# Mechanical properties :
#
#
# Convention : Reuss Voigt Hill
#
# Bulk Modulus (GPa) = 52.06719 59.62825 55.84772
# Shear Modulus (GPa) = 39.10875 43.17978 41.14426
#
# Velocity S-wave (km/s) = 4.03000 4.23456 4.13355
# Velocity P-wave (km/s) = 6.57851 6.97645 6.78040
#
# Compressibility (1/GPa) = 0.01920595
#
# Stress axis : x y z
#
# Youngs Moduli (GPa) = 79.75271 88.92747 124.06510
#
# Poissons Ratio (x) = 0.11354 0.47548
# Poissons Ratio (y) = 0.10183 0.15010
# Poissons Ratio (z) = 0.30565 0.10759
#
# Static dielectric constant tensor:
#      x y z
#    x 2.020580 0.009420 0.038170 
#    y 0.009420 1.858270 -0.006150 
#    z 0.038170 -0.006150 2.246890 
# 
# From -- ./inp_files/100626.got.cif
#   From: 2010.05.17/outbox.cif.g08.bks.cpg/sg2_51_cif.got.tgz:100626.got - 2010.06.03 11:33:40.
