data_PCOD9110866
_publ_section_title
;
Structure prediction by ZEFSAII (Michael W. Deem and Ramdas Pophale) SiO2 
 PCOD9110866
Probable space group: P -1
;
_chemical_formula_sum "Si O2"
_cell_formula_units_Z 16
_cell_length_a 20.833880
_cell_length_b 13.616139
_cell_length_c 9.394451
_cell_angle_alpha 31.755696
_cell_angle_beta 145.163311
_cell_angle_gamma 145.413003
_cell_volume 728.242000
_symmetry_space_group_name_H-M "P -1"
_symmetry_group_IT_number 2
_symmetry_cell_setting 'triclinic'
loop_
_space_group_symop_operation_xyz
x,y,z
-x,-y,-z
loop_
_atom_site_type_symbol
_atom_site_label
_atom_site_fract_x
_atom_site_fract_y
_atom_site_fract_z
Si Si1 0.256004 0.642523 0.594171
Si Si2 0.007011 0.438810 0.750759
Si Si3 0.629496 0.205421 0.674673
Si Si4 0.951350 0.931253 0.764867
Si Si5 0.904594 0.298311 0.154388
Si Si6 0.804807 0.830132 0.915672
Si Si7 0.476939 0.341256 0.434565
Si Si8 0.537194 0.251836 0.967698
O O1 0.134766 0.681921 0.308854
O O2 0.355300 0.751324 0.518804
O O3 0.207534 0.398212 0.791536
O O4 0.322307 0.704164 0.790903
O O5 0.000000 0.500000 0.500000
O O6 0.071384 0.642302 0.709183
O O7 0.073787 0.287819 0.077286
O O8 0.567983 0.337307 0.481282
O O9 0.767336 0.261807 0.910612
O O10 0.549485 0.969558 0.857923
O O11 0.860064 0.887653 0.787194
O O12 0.932020 0.099167 0.426109
O O13 0.090961 0.021252 0.971350
O O14 0.000000 0.500000 0.000000
O O15 0.663864 0.803458 0.690282
O O16 0.512284 0.261428 0.743861
O O17 0.483595 0.564499 0.215335
#
# Coordination Sequence:
#
# PCOD9110866 Si02
#       8
#     2   2   2   2   2   2   2   2
#     4  11  23  45  64  98 141 167 222 283 323 400
#     4  12  24  42  72 100 125 183 225 274 334 390
#     4  12  25  44  66  95 138 178 214 271 343 390
#     4  11  22  40  71  98 131 181 218 277 333 391
#     4  12  26  47  63  99 143 168 222 281 330 399
#     4  10  20  42  66  99 138 163 229 273 329 397
#     4  10  24  43  68  99 130 178 215 280 328 391
#     4  10  24  43  67  98 131 170 230 267 321 404
#
# _framework density 21.970718000000002
#
# number of rings (size 3 to 8) (size 9 to 14) (size 15 to 20)
#    0.000    1.000    3.750    2.250    3.500    4.500 
#    4.500    0.000    0.000    0.000    0.000    0.000 
#    0.000    0.000    0.000    0.000    0.000    0.000 
#
# Total GULP energy -89497.315065 kJ/mol
# GULP energy per Si atom -5593.582192 kJ/mol
# Density = 2.192071 g / cm^3
# Si number density = 21.970718 Si / 1000 Ang^3
#
#
#
# Elastic Constant Matrix: (Units=GPa)
#
#
# Indices 1 2 3 4 5 6 
#
# 1 55.5137 -5.2234 10.3836 1.2906 10.6112 -0.6993
# 2 -5.2234 46.3603 0.9330 3.6256 15.3320 6.0803
# 3 10.3836 0.9330 77.9476 2.6208 13.8530 -5.6511
# 4 1.2906 3.6256 2.6208 53.9814 9.1173 -1.6823
# 5 10.6112 15.3320 13.8530 9.1173 33.6454 -1.3757
# 6 -0.6993 6.0803 -5.6511 -1.6823 -1.3757 16.9704
#
#
#
# Elastic Compliance Matrix: (Units=1/GPa)
#
#
# Indices 1 2 3 4 5 6 
#
# 1 0.020382 0.005394 -0.001441 0.000595 -0.008544 -0.002206
# 2 0.005394 0.028784 0.000921 0.000201 -0.015703 -0.011037
# 3 -0.001441 0.000921 0.014314 0.000380 -0.005800 0.003945
# 4 0.000595 0.000201 0.000380 0.019482 -0.005652 0.001552
# 5 -0.008544 -0.015703 -0.005800 -0.005652 0.043751 0.006329
# 6 -0.002206 -0.011037 0.003945 0.001552 0.006329 0.064770
#
#
# Mechanical properties :
#
#
# Convention : Reuss Voigt Hill
#
# Bulk Modulus (GPa) = 13.65601 21.33423 17.49512
# Shear Modulus (GPa) = 24.25469 32.50133 28.37801
#
# Velocity S-wave (km/s) = 3.32619 3.85034 3.59782
# Velocity P-wave (km/s) = 4.58044 5.43123 5.02387
#
# Compressibility (1/GPa) = 0.07322783
#
# Stress axis : x y z
#
# Youngs Moduli (GPa) = 49.06233 34.74105 69.86085
#
# Poissons Ratio (x) = -0.18739 0.10068
# Poissons Ratio (y) = -0.26464 -0.06432
# Poissons Ratio (z) = 0.07071 -0.03199
#
# Static dielectric constant tensor:
#      x y z
#    x 1.821510 -0.019770 0.005490 
#    y -0.019770 1.799450 0.012830 
#    z 0.005490 0.012830 1.815770 
# 
# From -- ./inp_files/332786.got.cif
#   From: 2010.05.17/outbox.cif.g08.bks.cpg/sg2_167_cif.got.tgz:332786.got - 2010.06.03 11:33:40.
