data_PCOD9110122
_publ_section_title
;
Structure prediction by ZEFSAII (Michael W. Deem and Ramdas Pophale) SiO2 
 PCOD9110122
Probable space group: P -1
;
_chemical_formula_sum "Si O2"
_cell_formula_units_Z 16
_cell_length_a 17.767973
_cell_length_b 8.907603
_cell_length_c 14.789940
_cell_angle_alpha 140.070315
_cell_angle_beta 32.817373
_cell_angle_gamma 136.854250
_cell_volume 789.483246
_symmetry_space_group_name_H-M "P -1"
_symmetry_group_IT_number 2
_symmetry_cell_setting 'triclinic'
loop_
_space_group_symop_operation_xyz
x,y,z
-x,-y,-z
loop_
_atom_site_type_symbol
_atom_site_label
_atom_site_fract_x
_atom_site_fract_y
_atom_site_fract_z
Si Si1 0.629675 0.725601 0.949402
Si Si2 0.861014 0.965048 0.218532
Si Si3 0.646489 0.039770 0.239928
Si Si4 0.959533 0.755122 0.669110
Si Si5 0.409246 0.197281 0.187798
Si Si6 0.094102 0.121211 0.544551
Si Si7 0.088376 0.676256 0.816842
Si Si8 0.425439 0.298983 0.673037
O O1 0.787318 0.705947 0.813534
O O2 0.629250 0.754298 0.855039
O O3 0.500000 0.500000 0.000000
O O4 0.602371 0.942321 0.139636
O O5 0.704494 0.789564 0.307263
O O6 0.832766 0.183457 0.285906
O O7 0.965553 0.111459 0.255723
O O8 0.946328 0.776081 0.005062
O O9 0.809083 0.199177 0.148049
O O10 0.551680 0.198990 0.455961
O O11 0.628147 0.820120 0.229472
O O12 0.000000 0.500000 0.500000
O O13 0.031362 0.946553 0.609078
O O14 0.259565 0.129628 0.361517
O O15 0.510553 0.424998 0.240784
O O16 0.500000 0.000000 0.000000
O O17 0.074772 0.393543 0.700305
O O18 0.000000 0.000000 0.500000
#
# Coordination Sequence:
#
# PCOD9110122 Si02
#       8
#     2   2   2   2   2   2   2   2
#     4  12  26  45  73 103 140 182 236 297 346 416
#     4  10  23  40  70 104 136 180 235 289 336 424
#     4  10  20  41  69  99 134 178 235 280 342 415
#     4  12  28  45  70 106 138 184 241 292 354 422
#     4  12  28  47  67 107 142 189 233 290 359 414
#     4  12  26  46  69  97 144 192 230 291 357 422
#     4  10  21  42  68  98 139 184 231 281 354 415
#     4  10  22  40  69  99 138 184 224 281 347 414
#
# _framework density 20.266418999999999
#
# number of rings (size 3 to 8) (size 9 to 14) (size 15 to 20)
#    0.000    1.000    5.000    0.750    5.250    0.500 
#    2.250    1.250    0.000    0.000    0.000    0.000 
#    0.000    0.000    0.000    0.000    0.000    0.000 
#
# Total GULP energy -89234.349909 kJ/mol
# GULP energy per Si atom -5577.146869 kJ/mol
# Density = 2.022029 g / cm^3
# Si number density = 20.266419 Si / 1000 Ang^3
#
#
#
# Elastic Constant Matrix: (Units=GPa)
#
#
# Indices 1 2 3 4 5 6 
#
# 1 86.9396 46.8979 22.1083 4.1506 -3.8181 26.4851
# 2 46.8979 154.8869 66.0953 17.9509 -12.1201 22.5424
# 3 22.1083 66.0953 95.6635 16.3361 -17.0777 4.6487
# 4 4.1506 17.9509 16.3361 36.7230 4.3479 3.4246
# 5 -3.8181 -12.1201 -17.0777 4.3479 35.5179 -3.2233
# 6 26.4851 22.5424 4.6487 3.4246 -3.2233 34.3639
#
#
#
# Elastic Compliance Matrix: (Units=1/GPa)
#
#
# Indices 1 2 3 4 5 6 
#
# 1 0.016796 -0.003013 -0.001749 0.001526 -0.001249 -0.011001
# 2 -0.003013 0.010799 -0.006221 -0.001855 0.000260 -0.003711
# 3 -0.001749 -0.006221 0.017161 -0.005630 0.007022 0.004327
# 4 0.001526 -0.001855 -0.005630 0.031620 -0.007322 -0.003035
# 5 -0.001249 0.000260 0.007022 -0.007322 0.032712 0.003640
# 6 -0.011001 -0.003711 0.004327 -0.003035 0.003640 0.040072
#
#
# Mechanical properties :
#
#
# Convention : Reuss Voigt Hill
#
# Bulk Modulus (GPa) = 43.87998 67.52147 55.70072
# Shear Modulus (GPa) = 27.97642 34.81354 31.39498
#
# Velocity S-wave (km/s) = 3.71945 4.14912 3.94015
# Velocity P-wave (km/s) = 6.33595 7.50619 6.94576
#
# Compressibility (1/GPa) = 0.02278944
#
# Stress axis : x y z
#
# Youngs Moduli (GPa) = 59.53854 92.60272 58.27320
#
# Poissons Ratio (x) = 0.27898 0.10192
# Poissons Ratio (y) = 0.17937 0.36253
# Poissons Ratio (z) = 0.10414 0.57610
#
# Static dielectric constant tensor:
#      x y z
#    x 1.785940 0.055560 -0.003510 
#    y 0.055560 1.822100 0.032780 
#    z -0.003510 0.032780 1.747390 
# 
# From -- ./inp_files/209251.got.cif
#   From: 2010.05.17/outbox.cif.g08.bks.cpg/sg2_105_cif.got.tgz:209251.got - 2010.06.03 11:33:40.
