data_PCOD9110394
_publ_section_title
;
Structure prediction by ZEFSAII (Michael W. Deem and Ramdas Pophale) SiO2 
 PCOD9110394
Probable space group: P -1
;
_chemical_formula_sum "Si O2"
_cell_formula_units_Z 16
_cell_length_a 6.374111
_cell_length_b 22.454253
_cell_length_c 13.194375
_cell_angle_alpha 150.597201
_cell_angle_beta 117.588273
_cell_angle_gamma 81.403096
_cell_volume 667.211980
_symmetry_space_group_name_H-M "P -1"
_symmetry_group_IT_number 2
_symmetry_cell_setting 'triclinic'
loop_
_space_group_symop_operation_xyz
x,y,z
-x,-y,-z
loop_
_atom_site_type_symbol
_atom_site_label
_atom_site_fract_x
_atom_site_fract_y
_atom_site_fract_z
Si Si1 0.583434 0.213793 0.602748
Si Si2 0.761090 0.284931 0.365231
Si Si3 0.806948 0.558571 0.837904
Si Si4 0.268456 0.996646 0.753793
Si Si5 0.706146 0.910461 0.424611
Si Si6 0.178659 0.452211 0.533246
Si Si7 0.988979 0.887304 0.748976
Si Si8 0.892373 0.237789 0.988103
O O1 0.572397 0.082166 0.347540
O O2 0.455701 0.156614 0.602703
O O3 0.356121 0.236153 0.531979
O O4 0.921938 0.349023 0.887972
O O5 0.696979 0.386659 0.564129
O O6 0.043944 0.404541 0.542307
O O7 0.842516 0.184603 0.290076
O O8 0.500249 0.173976 0.065721
O O9 0.523910 0.558878 0.782181
O O10 0.941583 0.636593 0.874566
O O11 0.997393 0.918726 0.500034
O O12 0.132284 0.967237 0.792202
O O13 0.439473 0.814347 0.145859
O O14 0.832426 0.084164 0.709731
O O15 0.000000 0.500000 0.500000
O O16 0.084939 0.304255 0.229930
O O17 0.000000 0.000000 0.000000
#
# Coordination Sequence:
#
# PCOD9110394 Si02
#       8
#     2   2   2   2   2   2   2   2
#     4  10  23  44  67 100 131 170 218 277 326 392
#     4  12  26  43  69  98 131 177 221 270 332 387
#     4  11  26  43  64  97 139 175 221 266 330 391
#     4  11  23  41  72  96 128 172 217 272 335 385
#     4   9  21  38  65  94 133 167 223 271 321 381
#     4  12  26  40  64  95 137 179 219 260 319 393
#     4  11  25  45  72 101 128 162 225 281 327 393
#     4  10  20  42  60  94 133 175 217 273 315 383
#
# _framework density 23.980384999999998
#
# number of rings (size 3 to 8) (size 9 to 14) (size 15 to 20)
#    0.000    1.250    2.500    2.250    7.000    1.500 
#    0.000    3.750    0.000    0.000    0.000    0.000 
#    0.000    0.000    0.000    0.000    0.000    0.000 
#
# Total GULP energy -89422.770247 kJ/mol
# GULP energy per Si atom -5588.923140 kJ/mol
# Density = 2.392580 g / cm^3
# Si number density = 23.980385 Si / 1000 Ang^3
#
#
#
# Elastic Constant Matrix: (Units=GPa)
#
#
# Indices 1 2 3 4 5 6 
#
# 1 62.3364 9.2299 30.8637 -6.6411 17.6118 -22.5275
# 2 9.2299 48.0404 11.9285 -10.6717 9.7500 -19.8462
# 3 30.8637 11.9285 114.7830 -17.8488 25.0821 -19.2000
# 4 -6.6411 -10.6717 -17.8488 33.1312 -11.1391 2.7383
# 5 17.6118 9.7500 25.0821 -11.1391 41.9905 -10.1809
# 6 -22.5275 -19.8462 -19.2000 2.7383 -10.1809 37.7559
#
#
#
# Elastic Compliance Matrix: (Units=1/GPa)
#
#
# Indices 1 2 3 4 5 6 
#
# 1 0.023193 0.002628 -0.003181 0.001023 -0.005229 0.012119
# 2 0.002628 0.029006 0.000710 0.008187 -0.002214 0.015985
# 3 -0.003181 0.000710 0.011492 0.004242 -0.003849 0.002973
# 4 0.001023 0.008187 0.004242 0.036965 0.006427 0.006123
# 5 -0.005229 -0.002214 -0.003849 0.006427 0.030921 0.001631
# 6 0.012119 0.015985 0.002973 0.006123 0.001631 0.043627
#
#
# Mechanical properties :
#
#
# Convention : Reuss Voigt Hill
#
# Bulk Modulus (GPa) = 15.62361 36.57821 26.10091
# Shear Modulus (GPa) = 25.48083 34.11805 29.79944
#
# Velocity S-wave (km/s) = 3.26324 3.77603 3.52896
# Velocity P-wave (km/s) = 4.55276 5.85642 5.24525
#
# Compressibility (1/GPa) = 0.06400570
#
# Stress axis : x y z
#
# Youngs Moduli (GPa) = 43.11573 34.47513 87.01945
#
# Poissons Ratio (x) = -0.09062 0.27680
# Poissons Ratio (y) = -0.11333 -0.06175
# Poissons Ratio (z) = 0.13715 -0.02446
#
# Static dielectric constant tensor:
#      x y z
#    x 1.950540 -0.054860 -0.017180 
#    y -0.054860 1.933470 -0.013000 
#    z -0.017180 -0.013000 1.922230 
# 
# From -- ./inp_files/98393.got.cif
#   From: 2010.05.17/outbox.cif.g08.bks.cpg/sg2_50_cif.got.tgz:98393.got - 2010.06.03 11:33:40.
