data_PCOD9110552
_publ_section_title
;
Structure prediction by ZEFSAII (Michael W. Deem and Ramdas Pophale) SiO2 
 PCOD9110552
Probable space group: P -1
;
_chemical_formula_sum "Si O2"
_cell_formula_units_Z 14
_cell_length_a 8.718294
_cell_length_b 12.194560
_cell_length_c 12.080115
_cell_angle_alpha 48.106782
_cell_angle_beta 61.626689
_cell_angle_gamma 84.869654
_cell_volume 788.613763
_symmetry_space_group_name_H-M "P -1"
_symmetry_group_IT_number 2
_symmetry_cell_setting 'triclinic'
loop_
_space_group_symop_operation_xyz
x,y,z
-x,-y,-z
loop_
_atom_site_type_symbol
_atom_site_label
_atom_site_fract_x
_atom_site_fract_y
_atom_site_fract_z
Si Si1 0.387695 0.068622 0.406861
Si Si2 0.809732 0.442695 0.676550
Si Si3 0.193953 0.103388 0.814630
Si Si4 0.527499 0.344800 0.642337
Si Si5 0.868230 0.778760 0.477700
Si Si6 0.373468 0.849940 0.921527
Si Si7 0.280990 0.886541 0.349013
O O1 0.252851 0.141783 0.464806
O O2 0.534499 0.193342 0.190177
O O3 0.500000 0.000000 0.500000
O O4 0.277514 0.933012 0.447838
O O5 0.632402 0.389480 0.692028
O O6 0.813494 0.593839 0.642861
O O7 0.000000 0.500000 0.500000
O O8 0.774367 0.291092 0.868131
O O9 0.324918 0.212269 0.789921
O O10 0.170337 0.202646 0.651218
O O11 0.287510 0.979532 0.825473
O O12 0.000000 0.000000 0.000000
O O13 0.500000 0.500000 0.500000
O O14 0.655750 0.264494 0.585219
O O15 0.086320 0.857691 0.376627
O O16 0.552457 0.958820 0.858390
#
# Coordination Sequence:
#
# PCOD9110552 Si02
#       7
#     2   2   2   2   2   2   2
#     4  10  20  42  64  86 119 160 213 250 300 357
#     4  12  24  39  62  91 128 159 196 257 312 362
#     4  11  23  36  61  90 122 160 205 245 304 367
#     4  11  22  39  57  90 127 160 195 247 315 362
#     4  12  21  39  65  88 120 166 201 251 306 361
#     4   9  23  40  58  90 118 162 202 254 301 354
#     4   9  22  38  62  89 116 158 213 248 297 359
#
# _framework density 17.752669000000001
#
# number of rings (size 3 to 8) (size 9 to 14) (size 15 to 20)
#    0.857    0.571    4.286    1.286    2.000    1.714 
#    0.000    0.000    0.000    0.857    0.000    0.000 
#    0.000    0.000    0.000    0.000    0.000    0.000 
#
# Total GULP energy -77947.314155 kJ/mol
# GULP energy per Si atom -5567.665297 kJ/mol
# Density = 1.771226 g / cm^3
# Si number density = 17.752669 Si / 1000 Ang^3
#
#
#
# Elastic Constant Matrix: (Units=GPa)
#
#
# Indices 1 2 3 4 5 6 
#
# 1 92.4942 15.5289 25.7296 -9.8076 -17.4869 2.8333
# 2 15.5289 71.2041 15.0937 -11.5636 -15.9973 -12.0174
# 3 25.7296 15.0937 87.5399 -11.3670 -9.3388 -5.7616
# 4 -9.8076 -11.5636 -11.3670 22.5987 -4.7690 0.3370
# 5 -17.4869 -15.9973 -9.3388 -4.7690 30.6331 -1.2065
# 6 2.8333 -12.0174 -5.7616 0.3370 -1.2065 36.2483
#
#
#
# Elastic Compliance Matrix: (Units=1/GPa)
#
#
# Indices 1 2 3 4 5 6 
#
# 1 0.013734 0.000240 -0.002420 0.006617 0.008212 -0.001167
# 2 0.000240 0.020222 -0.000010 0.013088 0.013008 0.006995
# 3 -0.002420 -0.000010 0.013556 0.006542 0.003860 0.002408
# 4 0.006617 0.013088 0.006542 0.061766 0.022420 0.005034
# 5 0.008212 0.013008 0.003860 0.022420 0.049017 0.005707
# 6 -0.001167 0.006995 0.002408 0.005034 0.005707 0.030524
#
#
# Mechanical properties :
#
#
# Convention : Reuss Voigt Hill
#
# Bulk Modulus (GPa) = 23.18356 40.43807 31.81081
# Shear Modulus (GPa) = 24.08761 30.88842 27.48802
#
# Velocity S-wave (km/s) = 3.68753 4.17577 3.93923
# Velocity P-wave (km/s) = 5.58731 6.78804 6.21673
#
# Compressibility (1/GPa) = 0.04313402
#
# Stress axis : x y z
#
# Youngs Moduli (GPa) = 72.81108 49.45032 73.76817
#
# Poissons Ratio (x) = -0.01188 0.17850
# Poissons Ratio (y) = -0.01750 0.00073
# Poissons Ratio (z) = 0.17618 0.00049
#
# Static dielectric constant tensor:
#      x y z
#    x 1.639390 -0.017870 -0.014340 
#    y -0.017870 1.632810 0.007590 
#    z -0.014340 0.007590 1.603670 
# 
# From -- ./inp_files/196975.got.cif
#   From: 2010.05.17/outbox.cif.g08.bks.cpg/sg2_99_cif.got.tgz:196975.got - 2010.06.03 11:33:40.
