data_PCOD9110321
_publ_section_title
;
Structure prediction by ZEFSAII (Michael W. Deem and Ramdas Pophale) SiO2 
 PCOD9110321
Probable space group: P -1
;
_chemical_formula_sum "Si O2"
_cell_formula_units_Z 14
_cell_length_a 8.879915
_cell_length_b 12.969331
_cell_length_c 14.167005
_cell_angle_alpha 32.238429
_cell_angle_beta 56.094043
_cell_angle_gamma 43.609533
_cell_volume 593.666968
_symmetry_space_group_name_H-M "P -1"
_symmetry_group_IT_number 2
_symmetry_cell_setting 'triclinic'
loop_
_space_group_symop_operation_xyz
x,y,z
-x,-y,-z
loop_
_atom_site_type_symbol
_atom_site_label
_atom_site_fract_x
_atom_site_fract_y
_atom_site_fract_z
Si Si1 0.088012 0.902549 0.288791
Si Si2 0.791031 0.015504 0.014111
Si Si3 0.091439 0.143411 0.283881
Si Si4 0.454495 0.843534 0.514252
Si Si5 0.656341 0.603772 0.025081
Si Si6 0.202359 0.410689 0.569768
Si Si7 0.436871 0.772810 0.782172
O O1 0.143228 0.965603 0.319477
O O2 0.825183 0.087748 0.221355
O O3 0.155036 0.637155 0.466091
O O4 0.200562 0.947172 0.128520
O O5 0.570351 0.238926 0.962122
O O6 0.787905 0.789857 0.216047
O O7 0.000000 0.000000 0.000000
O O8 0.228881 0.256006 0.127526
O O9 0.195608 0.010389 0.448820
O O10 0.837489 0.360311 0.199290
O O11 0.587861 0.693272 0.492479
O O12 0.502136 0.705568 0.701958
O O13 0.529217 0.017861 0.371800
O O14 0.593538 0.586349 0.952265
O O15 0.000000 0.500000 0.500000
#
# Coordination Sequence:
#
# PCOD9110321 Si02
#       7
#     2   2   2   2   2   2   2
#     4  12  26  43  71 110 145 187 245 293 370 433
#     4  12  22  45  77 106 140 188 247 301 355 426
#     4  10  24  45  68 106 151 188 233 301 370 432
#     4  10  21  43  70 100 145 186 240 298 356 421
#     4  10  21  47  73 104 145 188 243 300 358 429
#     4  12  22  44  71 106 145 186 242 307 352 427
#     4  10  20  41  73 104 131 189 252 291 341 434
#
# _framework density 23.582246000000001
#
# number of rings (size 3 to 8) (size 9 to 14) (size 15 to 20)
#    0.000    1.143    7.143    0.000    0.000    4.571 
#    5.143    0.000    0.000    0.000    0.000    0.000 
#    0.000    0.000    0.000    0.000    0.000    0.000 
#
# Total GULP energy -78425.000042 kJ/mol
# GULP energy per Si atom -5601.785717 kJ/mol
# Density = 2.352857 g / cm^3
# Si number density = 23.582246 Si / 1000 Ang^3
#
#
#
# Elastic Constant Matrix: (Units=GPa)
#
#
# Indices 1 2 3 4 5 6 
#
# 1 121.0174 53.3304 43.3819 -9.3241 10.5648 2.4461
# 2 53.3304 133.6238 64.6297 -12.0373 0.5842 -9.9289
# 3 43.3819 64.6297 164.8500 4.2534 -15.2985 1.5095
# 4 -9.3241 -12.0373 4.2534 33.3198 1.7983 -1.2411
# 5 10.5648 0.5842 -15.2985 1.7983 36.7068 -12.0403
# 6 2.4461 -9.9289 1.5095 -1.2411 -12.0403 41.1737
#
#
#
# Elastic Compliance Matrix: (Units=1/GPa)
#
#
# Indices 1 2 3 4 5 6 
#
# 1 0.011216 -0.003432 -0.002114 0.002338 -0.005100 -0.002837
# 2 -0.003432 0.011144 -0.003571 0.003630 0.000190 0.003187
# 3 -0.002114 -0.003571 0.008514 -0.003201 0.004419 0.000148
# 4 0.002338 0.003630 -0.003201 0.032601 -0.003384 0.000847
# 5 -0.005100 0.000190 0.004419 -0.003384 0.034005 0.010029
# 6 -0.002837 0.003187 0.000148 0.000847 0.010029 0.028177
#
#
# Mechanical properties :
#
#
# Convention : Reuss Voigt Hill
#
# Bulk Modulus (GPa) = 79.11352 82.46390 80.78871
# Shear Modulus (GPa) = 33.76044 39.45001 36.60522
#
# Velocity S-wave (km/s) = 3.78776 4.09451 3.94412
# Velocity P-wave (km/s) = 7.26294 7.57614 7.42119
#
# Compressibility (1/GPa) = 0.01264006
#
# Stress axis : x y z
#
# Youngs Moduli (GPa) = 89.15730 89.73820 117.45812
#
# Poissons Ratio (x) = 0.30798 0.24827
# Poissons Ratio (y) = 0.30599 0.41943
# Poissons Ratio (z) = 0.18845 0.32045
#
# Static dielectric constant tensor:
#      x y z
#    x 1.923250 -0.009530 -0.063490 
#    y -0.009530 1.869260 -0.015570 
#    z -0.063490 -0.015570 1.977890 
# 
# From -- ./inp_files/306535.got.cif
#   From: 2010.05.17/outbox.cif.g08.bks.cpg/sg2_154_cif.got.tgz:306535.got - 2010.06.03 11:33:40.
