data_PCOD9110372
_publ_section_title
;
Structure prediction by ZEFSAII (Michael W. Deem and Ramdas Pophale) SiO2 
 PCOD9110372
Probable space group: P -1
;
_chemical_formula_sum "Si O2"
_cell_formula_units_Z 12
_cell_length_a 8.527088
_cell_length_b 11.860232
_cell_length_c 9.167482
_cell_angle_alpha 120.362743
_cell_angle_beta 133.734265
_cell_angle_gamma 53.065943
_cell_volume 528.923977
_symmetry_space_group_name_H-M "P -1"
_symmetry_group_IT_number 2
_symmetry_cell_setting 'triclinic'
loop_
_space_group_symop_operation_xyz
x,y,z
-x,-y,-z
loop_
_atom_site_type_symbol
_atom_site_label
_atom_site_fract_x
_atom_site_fract_y
_atom_site_fract_z
Si Si1 0.965611 0.209268 0.678105
Si Si2 0.161429 0.576092 0.726927
Si Si3 0.141789 0.085364 0.220660
Si Si4 0.710488 0.485302 0.522924
Si Si5 0.655530 0.037263 0.409672
Si Si6 0.984540 0.403470 0.061010
O O1 0.914060 0.334194 0.606485
O O2 0.747312 0.160373 0.509056
O O3 0.208544 0.082682 0.702089
O O4 0.981762 0.267772 0.887686
O O5 0.356259 0.526271 0.693285
O O6 0.000000 0.500000 0.500000
O O7 0.029486 0.747357 0.761839
O O8 0.213888 0.530523 0.898329
O O9 0.379206 0.068952 0.272711
O O10 0.228339 0.022033 0.396115
O O11 0.000000 0.000000 0.000000
O O12 0.500000 0.500000 0.500000
O O13 0.791946 0.609819 0.703605
O O14 0.000000 0.500000 0.000000
#
# Coordination Sequence:
#
# PCOD9110372 Si02
#       6
#     2   2   2   2   2   2
#     4  10  20  42  59  92 129 168 216 262 331 389
#     4  10  21  39  64  90 128 165 215 271 324 389
#     4  11  23  42  66  98 127 171 224 270 330 398
#     4  10  21  37  63  93 125 167 214 272 326 388
#     4  10  23  40  65  89 135 173 209 277 327 389
#     4   9  20  38  61  87 125 165 209 266 323 394
#
# _framework density 22.687570000000001
#
# number of rings (size 3 to 8) (size 9 to 14) (size 15 to 20)
#    0.000    2.000    1.667    1.000    4.667    1.333 
#    0.000    5.833    0.000    0.000    0.000    0.000 
#    0.000    0.000    0.000    0.000    0.000    0.000 
#
# Total GULP energy -66894.888718 kJ/mol
# GULP energy per Si atom -5574.574060 kJ/mol
# Density = 2.263593 g / cm^3
# Si number density = 22.687570 Si / 1000 Ang^3
#
#
#
# Elastic Constant Matrix: (Units=GPa)
#
#
# Indices 1 2 3 4 5 6 
#
# 1 146.1243 18.6250 73.6908 19.2461 -32.4211 -8.5918
# 2 18.6250 65.1106 47.2021 25.1851 4.9736 14.0173
# 3 73.6908 47.2021 163.6924 33.7472 -18.7854 -14.3822
# 4 19.2461 25.1851 33.7472 40.9739 -0.3361 -7.4706
# 5 -32.4211 4.9736 -18.7854 -0.3361 55.2327 5.8801
# 6 -8.5918 14.0173 -14.3822 -7.4706 5.8801 35.4501
#
#
#
# Elastic Compliance Matrix: (Units=1/GPa)
#
#
# Indices 1 2 3 4 5 6 
#
# 1 0.009886 0.000234 -0.003651 -0.001800 0.004563 -0.000314
# 2 0.000234 0.031615 -0.007855 -0.016479 -0.003509 -0.018522
# 3 -0.003651 -0.007855 0.011038 -0.001418 0.001658 0.006125
# 4 -0.001800 -0.016479 -0.001418 0.039083 -0.001303 0.013957
# 5 0.004563 -0.003509 0.001658 -0.001303 0.021731 -0.000713
# 6 -0.000314 -0.018522 0.006125 0.013957 -0.000713 0.041001
#
#
# Mechanical properties :
#
#
# Convention : Reuss Voigt Hill
#
# Bulk Modulus (GPa) = 33.33645 72.66256 52.99950
# Shear Modulus (GPa) = 26.75293 42.02530 34.38911
#
# Velocity S-wave (km/s) = 3.43766 4.30856 3.89751
# Velocity P-wave (km/s) = 5.52107 7.53980 6.60798
#
# Compressibility (1/GPa) = 0.02999720
#
# Stress axis : x y z
#
# Youngs Moduli (GPa) = 101.15686 31.63006 90.59380
#
# Poissons Ratio (x) = -0.00741 0.33073
# Poissons Ratio (y) = -0.02370 0.71159
# Poissons Ratio (z) = 0.36929 0.24845
#
# Static dielectric constant tensor:
#      x y z
#    x 2.055790 0.002810 0.009030 
#    y 0.002810 1.958450 -0.075480 
#    z 0.009030 -0.075480 1.874530 
# 
# From -- ./inp_files/165913.got.cif
#   From: 2010.05.17/outbox.cif.g08.bks.cpg/sg2_83_cif.got.tgz:165913.got - 2010.06.03 11:33:40.
