data_PCOD9110424
_publ_section_title
;
Structure prediction by ZEFSAII (Michael W. Deem and Ramdas Pophale) SiO2 
 PCOD9110424
Probable space group: P -1
;
_chemical_formula_sum "Si O2"
_cell_formula_units_Z 15
_cell_length_a 7.573508
_cell_length_b 20.037309
_cell_length_c 5.507654
_cell_angle_alpha 106.612134
_cell_angle_beta 69.583201
_cell_angle_gamma 132.684710
_cell_volume 574.316162
_symmetry_space_group_name_H-M "P -1"
_symmetry_group_IT_number 2
_symmetry_cell_setting 'triclinic'
loop_
_space_group_symop_operation_xyz
x,y,z
-x,-y,-z
loop_
_atom_site_type_symbol
_atom_site_label
_atom_site_fract_x
_atom_site_fract_y
_atom_site_fract_z
Si Si1 0.226778 0.586083 0.338194
Si Si2 0.991051 0.643791 0.202312
Si Si3 0.039041 0.072698 0.363850
Si Si4 0.072310 0.799950 0.249890
Si Si5 0.322039 0.341657 0.097859
Si Si6 0.469117 0.737354 0.767407
Si Si7 0.431521 0.024010 0.806733
Si Si8 0.500000 0.500000 0.000000
O O1 0.084935 0.596221 0.221543
O O2 0.427660 0.580713 0.122434
O O3 0.398328 0.682291 0.494545
O O4 0.000000 0.500000 0.500000
O O5 0.997897 0.722806 0.401032
O O6 0.726721 0.569472 0.149956
O O7 0.209807 0.702530 0.956327
O O8 0.322592 0.154004 0.243327
O O9 0.985322 0.134482 0.582637
O O10 0.000000 0.000000 0.500000
O O11 0.851380 0.024330 0.171309
O O12 0.365723 0.868261 0.171244
O O13 0.903364 0.742040 0.038326
O O14 0.422155 0.301560 0.166409
O O15 0.306327 0.418541 0.246835
O O16 0.500000 0.000000 0.500000
O O17 0.500000 0.000000 0.000000
#
# Coordination Sequence:
#
# PCOD9110424 Si02
#       8
#     2   2   2   2   2   2   2   1
#     4  11  22  40  66  97 134 178 225 284 352 431
#     4  10  24  42  68  95 140 176 233 285 357 434
#     4  11  25  45  75 104 141 191 250 309 369 449
#     4  10  22  45  65  97 138 182 230 303 360 434
#     4  10  21  41  67  95 141 176 232 288 353 437
#     4  11  23  43  67  99 132 186 232 290 362 427
#     4  10  23  44  71 104 144 190 247 312 380 443
#     4  10  20  42  62 102 136 180 224 286 354 430
#
# _framework density 26.118019
#
# number of rings (size 3 to 8) (size 9 to 14) (size 15 to 20)
#    0.000    1.600    1.333    2.400    1.867    4.267 
#    9.600    8.000    0.000    0.000    0.000    0.000 
#    0.000    0.000    0.000    0.000    0.000    0.000 
#
# Total GULP energy -83583.490081 kJ/mol
# GULP energy per Si atom -5572.232672 kJ/mol
# Density = 2.605857 g / cm^3
# Si number density = 26.118019 Si / 1000 Ang^3
#
#
#
# Elastic Constant Matrix: (Units=GPa)
#
#
# Indices 1 2 3 4 5 6 
#
# 1 171.5364 62.0697 37.8219 6.7447 17.9917 5.1889
# 2 62.0697 231.1705 33.6487 5.3864 29.1329 14.4619
# 3 37.8219 33.6487 52.1355 -1.5641 20.0584 -3.5986
# 4 6.7447 5.3864 -1.5641 37.8806 -7.4936 4.9385
# 5 17.9917 29.1329 20.0584 -7.4936 51.2081 6.6983
# 6 5.1889 14.4619 -3.5986 4.9385 6.6983 54.4262
#
#
#
# Elastic Compliance Matrix: (Units=1/GPa)
#
#
# Indices 1 2 3 4 5 6 
#
# 1 0.007365 -0.001224 -0.004538 -0.001302 -0.000235 -0.000530
# 2 -0.001224 0.005246 -0.001915 -0.000814 -0.001778 -0.001111
# 3 -0.004538 -0.001915 0.027230 0.000036 -0.008472 0.003781
# 4 -0.001302 -0.000814 0.000036 0.028194 0.005409 -0.002881
# 5 -0.000235 -0.001778 -0.008472 0.005409 0.025211 -0.003659
# 6 -0.000530 -0.001111 0.003781 -0.002881 -0.003659 0.019681
#
#
# Mechanical properties :
#
#
# Convention : Reuss Voigt Hill
#
# Bulk Modulus (GPa) = 40.83771 80.21366 60.52568
# Shear Modulus (GPa) = 36.64538 50.12313 43.38425
#
# Velocity S-wave (km/s) = 3.74982 4.38551 4.08006
# Velocity P-wave (km/s) = 5.86668 7.51147 6.73944
#
# Compressibility (1/GPa) = 0.02448717
#
# Stress axis : x y z
#
# Youngs Moduli (GPa) = 135.77667 190.63307 36.72362
#
# Poissons Ratio (x) = 0.23330 0.16667
# Poissons Ratio (y) = 0.16617 0.07032
# Poissons Ratio (z) = 0.61621 0.36502
#
# Static dielectric constant tensor:
#      x y z
#    x 2.328500 -0.131540 -0.074400 
#    y -0.131540 2.214150 -0.194080 
#    z -0.074400 -0.194080 2.235510 
# 
# From -- ./inp_files/51524.got.cif
#   From: 2010.05.17/outbox.cif.g08.bks.cpg/sg2_26_cif.got.tgz:51524.got - 2010.06.03 11:33:40.
