data_PCOD9110775
_publ_section_title
;
Structure prediction by ZEFSAII (Michael W. Deem and Ramdas Pophale) SiO2 
 PCOD9110775
Probable space group: P -1
;
_chemical_formula_sum "Si O2"
_cell_formula_units_Z 16
_cell_length_a 21.536880
_cell_length_b 8.316156
_cell_length_c 10.463486
_cell_angle_alpha 57.814588
_cell_angle_beta 44.582809
_cell_angle_gamma 33.238320
_cell_volume 711.291612
_symmetry_space_group_name_H-M "P -1"
_symmetry_group_IT_number 2
_symmetry_cell_setting 'triclinic'
loop_
_space_group_symop_operation_xyz
x,y,z
-x,-y,-z
loop_
_atom_site_type_symbol
_atom_site_label
_atom_site_fract_x
_atom_site_fract_y
_atom_site_fract_z
Si Si1 0.948059 0.656708 0.719545
Si Si2 0.173904 0.101492 0.788651
Si Si3 0.792078 0.195072 0.892836
Si Si4 0.875945 0.145161 0.216486
Si Si5 0.456147 0.638210 0.865090
Si Si6 0.907887 0.398414 0.700047
Si Si7 0.619555 0.821937 0.289593
Si Si8 0.521336 0.287284 0.471448
O O1 0.038065 0.434527 0.800332
O O2 0.058539 0.540242 0.501311
O O3 0.873099 0.603656 0.778788
O O4 0.859242 0.983916 0.758453
O O5 0.199606 0.906563 0.720028
O O6 0.309534 0.005731 0.660805
O O7 0.144385 0.021641 0.988453
O O8 0.808490 0.389921 0.811671
O O9 0.635565 0.384479 0.038839
O O10 0.769137 0.492902 0.246149
O O11 0.951247 0.940166 0.317447
O O12 0.000000 0.000000 0.000000
O O13 0.539961 0.556811 0.646817
O O14 0.377439 0.971239 0.854480
O O15 0.500000 0.500000 0.000000
O O16 0.551197 0.769812 0.326802
O O17 0.500000 0.000000 0.500000
O O18 0.500000 0.500000 0.500000
#
# Coordination Sequence:
#
# PCOD9110775 Si02
#       8
#     2   2   2   2   2   2   2   2
#     4  10  23  39  59  97 132 168 220 272 346 397
#     4  10  21  37  64  95 128 169 221 272 327 400
#     4  11  22  39  66  87 129 173 219 275 335 412
#     4  11  21  38  68  98 133 172 218 278 336 394
#     4  10  25  43  61  97 129 169 224 285 339 395
#     4  10  23  40  60  96 133 172 214 280 339 400
#     4  10  23  41  67  94 131 179 224 272 337 410
#     4  10  20  42  66  91 127 175 228 267 323 414
#
# _framework density 22.494289999999999
#
# number of rings (size 3 to 8) (size 9 to 14) (size 15 to 20)
#    0.000    1.750    2.500    0.750    3.500    6.000 
#    2.250    0.625    0.000    0.000    0.000    0.000 
#    0.000    0.000    0.000    0.000    0.000    0.000 
#
# Total GULP energy -89108.913898 kJ/mol
# GULP energy per Si atom -5569.307119 kJ/mol
# Density = 2.244309 g / cm^3
# Si number density = 22.494290 Si / 1000 Ang^3
#
#
#
# Elastic Constant Matrix: (Units=GPa)
#
#
# Indices 1 2 3 4 5 6 
#
# 1 103.8402 16.3036 33.9970 -21.4438 -16.6049 10.0718
# 2 16.3036 53.4614 16.7302 -3.6652 -2.3532 18.2480
# 3 33.9970 16.7302 69.7110 -9.0051 -7.3994 5.6480
# 4 -21.4438 -3.6652 -9.0051 35.1086 4.2980 0.9478
# 5 -16.6049 -2.3532 -7.3994 4.2980 47.3175 -9.8122
# 6 10.0718 18.2480 5.6480 0.9478 -9.8122 16.6313
#
#
#
# Elastic Compliance Matrix: (Units=1/GPa)
#
#
# Indices 1 2 3 4 5 6 
#
# 1 0.013606 -0.000143 -0.005035 0.006879 0.002225 -0.005452
# 2 -0.000143 0.034140 -0.005135 0.004228 -0.007950 -0.040559
# 3 -0.005035 -0.005135 0.018007 0.000742 0.001424 0.003366
# 4 0.006879 0.004228 0.000742 0.034028 -0.002997 -0.012764
# 5 0.002225 -0.007950 0.001424 -0.002997 0.026752 0.022846
# 6 -0.005452 -0.040559 0.003366 -0.012764 0.022846 0.120994
#
#
# Mechanical properties :
#
#
# Convention : Reuss Voigt Hill
#
# Bulk Modulus (GPa) = 22.15971 40.11933 31.13952
# Shear Modulus (GPa) = 17.65567 30.47694 24.06630
#
# Velocity S-wave (km/s) = 2.80464 3.68486 3.27446
# Velocity P-wave (km/s) = 4.51228 5.99819 5.30749
#
# Compressibility (1/GPa) = 0.04512694
#
# Stress axis : x y z
#
# Youngs Moduli (GPa) = 73.49608 29.29140 55.53392
#
# Poissons Ratio (x) = 0.00420 0.27959
# Poissons Ratio (y) = 0.01053 0.28517
# Poissons Ratio (z) = 0.37003 0.15041
#
# Static dielectric constant tensor:
#      x y z
#    x 4.403470 2.410540 -1.092660 
#    y 2.410540 4.191800 -1.022530 
#    z -1.092660 -1.022530 2.380450 
# 
# From -- ./inp_files/285102.got.cif
#   From: 2010.05.17/outbox.cif.g08.bks.cpg/sg2_143_cif.got.tgz:285102.got - 2010.06.03 11:33:40.
