data_PCOD9110715
_publ_section_title
;
Structure prediction by ZEFSAII (Michael W. Deem and Ramdas Pophale) SiO2 
 PCOD9110715
Probable space group: P -1
;
_chemical_formula_sum "Si O2"
_cell_formula_units_Z 16
_cell_length_a 20.592631
_cell_length_b 12.174403
_cell_length_c 8.956938
_cell_angle_alpha 111.983546
_cell_angle_beta 142.896097
_cell_angle_gamma 39.422273
_cell_volume 667.321660
_symmetry_space_group_name_H-M "P -1"
_symmetry_group_IT_number 2
_symmetry_cell_setting 'triclinic'
loop_
_space_group_symop_operation_xyz
x,y,z
-x,-y,-z
loop_
_atom_site_type_symbol
_atom_site_label
_atom_site_fract_x
_atom_site_fract_y
_atom_site_fract_z
Si Si1 0.046520 0.545916 0.837949
Si Si2 0.278896 0.497981 0.441237
Si Si3 0.476654 0.883199 0.076382
Si Si4 0.621503 0.223712 0.729591
Si Si5 0.604128 0.029788 0.365164
Si Si6 0.000318 0.348220 0.523335
Si Si7 0.003783 0.022981 0.845020
Si Si8 0.080641 0.044877 0.599447
O O1 0.000038 0.450034 0.698312
O O2 0.839939 0.802497 0.635762
O O3 0.101362 0.520341 0.752120
O O4 0.209435 0.445795 0.197334
O O5 0.402531 0.330609 0.722081
O O6 0.414122 0.448226 0.546921
O O7 0.092818 0.759386 0.263945
O O8 0.544393 0.954824 0.276012
O O9 0.505910 0.846297 0.932328
O O10 0.236874 0.104714 0.788964
O O11 0.582042 0.153590 0.507729
O O12 0.755204 0.062020 0.036919
O O13 0.761596 0.189738 0.887107
O O14 0.922266 0.297374 0.415322
O O15 0.875229 0.043347 0.531385
O O16 0.000000 0.000000 0.000000
O O17 0.000000 0.000000 0.500000
#
# Coordination Sequence:
#
# PCOD9110715 Si02
#       8
#     2   2   2   2   2   2   2   2
#     4  10  22  37  70 103 135 178 230 276 360 416
#     4  12  24  43  73 106 130 184 228 288 352 408
#     4  10  23  40  67 100 142 181 226 283 346 421
#     4  11  24  43  69 103 138 177 231 289 338 415
#     4  10  22  43  65 103 146 184 219 280 358 417
#     4  10  20  42  65  96 139 181 218 292 347 405
#     4  11  26  48  72  98 140 184 235 289 342 409
#     4  10  23  42  67  95 134 184 229 285 336 399
#
# _framework density 23.976444999999998
#
# number of rings (size 3 to 8) (size 9 to 14) (size 15 to 20)
#    0.000    1.500    2.500    1.500    3.500    5.500 
#    0.000    3.750    0.000    0.000    0.000    0.000 
#    0.000    0.000    0.000    0.000    0.000    0.000 
#
# Total GULP energy -89394.650028 kJ/mol
# GULP energy per Si atom -5587.165627 kJ/mol
# Density = 2.392187 g / cm^3
# Si number density = 23.976445 Si / 1000 Ang^3
#
#
#
# Elastic Constant Matrix: (Units=GPa)
#
#
# Indices 1 2 3 4 5 6 
#
# 1 83.3684 -0.2902 20.0996 -6.1707 -5.3609 0.7412
# 2 -0.2902 70.6300 32.0705 12.4505 -11.3260 4.4738
# 3 20.0996 32.0705 84.5705 19.9350 -18.4784 -3.5705
# 4 -6.1707 12.4505 19.9350 39.2623 -4.8800 -2.6881
# 5 -5.3609 -11.3260 -18.4784 -4.8800 34.4693 -5.5567
# 6 0.7412 4.4738 -3.5705 -2.6881 -5.5567 39.5401
#
#
#
# Elastic Compliance Matrix: (Units=1/GPa)
#
#
# Indices 1 2 3 4 5 6 
#
# 1 0.013457 0.001580 -0.004627 0.004007 0.000620 -0.000489
# 2 0.001580 0.017894 -0.006318 -0.002135 0.002036 -0.002484
# 3 -0.004627 -0.006318 0.018571 -0.007130 0.006622 0.002924
# 4 0.004007 -0.002135 -0.007130 0.030601 0.000706 0.001702
# 5 0.000620 0.002036 0.006622 0.000706 0.034268 0.005220
# 6 -0.000489 -0.002484 0.002924 0.001702 0.005220 0.026694
#
#
# Mechanical properties :
#
#
# Convention : Reuss Voigt Hill
#
# Bulk Modulus (GPa) = 32.05950 38.03653 35.04801
# Shear Modulus (GPa) = 29.30630 35.10028 32.20329
#
# Velocity S-wave (km/s) = 3.49993 3.83031 3.66884
# Velocity P-wave (km/s) = 5.45279 5.95485 5.70934
#
# Compressibility (1/GPa) = 0.03119201
#
# Stress axis : x y z
#
# Youngs Moduli (GPa) = 74.31161 55.88566 53.84717
#
# Poissons Ratio (x) = -0.08833 0.24916
# Poissons Ratio (y) = -0.11745 0.34021
# Poissons Ratio (z) = 0.34386 0.35309
#
# Static dielectric constant tensor:
#      x y z
#    x 1.998360 0.005920 0.050700 
#    y 0.005920 1.897610 0.007580 
#    z 0.050700 0.007580 1.937460 
# 
# From -- ./inp_files/346250.got.cif
#   From: 2010.05.17/outbox.cif.g08.bks.cpg/sg2_174_cif.got.tgz:346250.got - 2010.06.03 11:33:40.
