data_PCOD9110301
_publ_section_title
;
Structure prediction by ZEFSAII (Michael W. Deem and Ramdas Pophale) SiO2 
 PCOD9110301
Probable space group: P -1
;
_chemical_formula_sum "Si O2"
_cell_formula_units_Z 16
_cell_length_a 9.112712
_cell_length_b 9.835899
_cell_length_c 11.096240
_cell_angle_alpha 118.884710
_cell_angle_beta 98.065230
_cell_angle_gamma 55.705256
_cell_volume 707.390908
_symmetry_space_group_name_H-M "P -1"
_symmetry_group_IT_number 2
_symmetry_cell_setting 'triclinic'
loop_
_space_group_symop_operation_xyz
x,y,z
-x,-y,-z
loop_
_atom_site_type_symbol
_atom_site_label
_atom_site_fract_x
_atom_site_fract_y
_atom_site_fract_z
Si Si1 0.655556 0.496923 0.724788
Si Si2 0.181161 0.063015 0.597938
Si Si3 0.932938 0.182671 0.430945
Si Si4 0.974348 0.348283 0.874042
Si Si5 0.992110 0.821994 0.950842
Si Si6 0.567575 0.857491 0.560901
Si Si7 0.726356 0.453624 0.306947
Si Si8 0.372822 0.121285 0.152834
O O1 0.788474 0.342634 0.575421
O O2 0.776013 0.435303 0.833652
O O3 0.468072 0.514940 0.713168
O O4 0.625198 0.693225 0.769434
O O5 0.128262 0.119647 0.476520
O O6 0.121758 0.249935 0.742225
O O7 0.058866 0.004139 0.620627
O O8 0.377295 0.884281 0.573009
O O9 0.861671 0.277768 0.335662
O O10 0.000000 0.500000 0.000000
O O11 0.021254 0.197529 0.917494
O O12 0.818549 0.842822 0.882103
O O13 0.170172 0.625237 0.840689
O O14 0.000000 0.000000 0.000000
O O15 0.702334 0.640838 0.439904
O O16 0.594438 0.930938 0.722328
O O17 0.500000 0.000000 0.500000
O O18 0.500000 0.000000 0.000000
#
# Coordination Sequence:
#
# PCOD9110301 Si02
#       8
#     2   2   2   2   2   2   2   2
#     4  11  22  43  73 102 132 187 248 291 355 439
#     4  10  22  41  69 100 135 181 236 297 351 436
#     4  10  20  41  72  98 133 180 235 289 359 430
#     4  11  24  44  70 100 139 193 252 293 355 439
#     4  12  28  47  70 106 147 193 237 307 377 439
#     4  12  28  42  69 110 150 185 239 309 376 426
#     4  12  25  43  73 105 147 183 237 305 372 432
#     4  12  26  47  75 101 143 196 245 293 363 455
#
# _framework density 22.618327000000001
#
# number of rings (size 3 to 8) (size 9 to 14) (size 15 to 20)
#    0.000    0.750    3.750    3.375    3.500    2.000 
#    0.000    0.000    0.000    0.000    0.000    0.000 
#    0.000    0.000    0.000    0.000    0.000    0.000 
#
# Total GULP energy -89276.418842 kJ/mol
# GULP energy per Si atom -5579.776178 kJ/mol
# Density = 2.256685 g / cm^3
# Si number density = 22.618327 Si / 1000 Ang^3
#
#
#
# Elastic Constant Matrix: (Units=GPa)
#
#
# Indices 1 2 3 4 5 6 
#
# 1 70.9605 5.7542 27.5639 -5.1524 2.8398 -8.8791
# 2 5.7542 92.6340 28.4710 -16.9720 10.6822 4.3507
# 3 27.5639 28.4710 132.6079 -3.2676 3.5879 -2.3383
# 4 -5.1524 -16.9720 -3.2676 54.7830 -8.6622 5.9450
# 5 2.8398 10.6822 3.5879 -8.6622 27.9978 4.5832
# 6 -8.8791 4.3507 -2.3383 5.9450 4.5832 38.3079
#
#
#
# Elastic Compliance Matrix: (Units=1/GPa)
#
#
# Indices 1 2 3 4 5 6 
#
# 1 0.015888 0.000149 -0.003211 0.000707 -0.001620 0.003554
# 2 0.000149 0.012669 -0.002611 0.003471 -0.003158 -0.001724
# 3 -0.003211 -0.002611 0.008758 -0.000612 -0.000020 0.000184
# 4 0.000707 0.003471 -0.000612 0.020726 0.005778 -0.004175
# 5 -0.001620 -0.003158 -0.000020 0.005778 0.039806 -0.005677
# 6 0.003554 -0.001724 0.000184 -0.004175 -0.005677 0.028462
#
#
# Mechanical properties :
#
#
# Convention : Reuss Voigt Hill
#
# Bulk Modulus (GPa) = 38.50386 46.64230 42.57308
# Shear Modulus (GPa) = 34.17388 39.84529 37.00959
#
# Velocity S-wave (km/s) = 3.89124 4.20174 4.04947
# Velocity P-wave (km/s) = 6.10322 6.64874 6.38181
#
# Compressibility (1/GPa) = 0.02597142
#
# Stress axis : x y z
#
# Youngs Moduli (GPa) = 62.93959 78.93022 114.18632
#
# Poissons Ratio (x) = -0.01179 0.36662
# Poissons Ratio (y) = -0.00940 0.29809
# Poissons Ratio (z) = 0.20208 0.20606
#
# Static dielectric constant tensor:
#      x y z
#    x 2.029450 -0.019280 -0.002800 
#    y -0.019280 1.853130 -0.023140 
#    z -0.002800 -0.023140 1.896110 
# 
# From -- ./inp_files/383289.got.cif
#   From: 2010.05.17/outbox.cif.g08.bks.cpg/sg2_192_cif.got.tgz:383289.got - 2010.06.03 11:33:40.
