data_PCOD9110873
_publ_section_title
;
Structure prediction by ZEFSAII (Michael W. Deem and Ramdas Pophale) SiO2 
 PCOD9110873
Probable space group: P -1
;
_chemical_formula_sum "Si O2"
_cell_formula_units_Z 16
_cell_length_a 11.690277
_cell_length_b 11.359450
_cell_length_c 12.014141
_cell_angle_alpha 60.856565
_cell_angle_beta 78.408717
_cell_angle_gamma 129.278578
_cell_volume 709.482132
_symmetry_space_group_name_H-M "P -1"
_symmetry_group_IT_number 2
_symmetry_cell_setting 'triclinic'
loop_
_space_group_symop_operation_xyz
x,y,z
-x,-y,-z
loop_
_atom_site_type_symbol
_atom_site_label
_atom_site_fract_x
_atom_site_fract_y
_atom_site_fract_z
Si Si1 0.922889 0.859544 0.962041
Si Si2 0.871351 0.063089 0.739127
Si Si3 0.527120 0.913500 0.777944
Si Si4 0.376069 0.220729 0.576973
Si Si5 0.631230 0.311589 0.322918
Si Si6 0.670630 0.287269 0.863555
Si Si7 0.914324 0.472944 0.387254
Si Si8 0.361246 0.500060 0.379791
O O1 0.814252 0.876099 0.908567
O O2 0.757173 0.572910 0.143761
O O3 0.140394 0.017536 0.778311
O O4 0.000000 0.000000 0.000000
O O5 0.956600 0.271862 0.703754
O O6 0.092389 0.237076 0.549316
O O7 0.675146 0.925598 0.764140
O O8 0.436940 0.830671 0.709700
O O9 0.704735 0.211207 0.621011
O O10 0.337971 0.718510 0.998547
O O11 0.415730 0.140663 0.518902
O O12 0.434242 0.416384 0.408853
O O13 0.552399 0.369300 0.574735
O O14 0.808773 0.409887 0.319729
O O15 0.577107 0.331178 0.804149
O O16 0.912888 0.479571 0.684547
O O17 0.500000 0.000000 0.000000
#
# Coordination Sequence:
#
# PCOD9110873 Si02
#       8
#     2   2   2   2   2   2   2   2
#     4  11  23  42  71 105 132 174 229 280 330 397
#     4  11  21  43  71  98 134 171 227 283 325 399
#     4  12  28  44  65 103 139 179 221 280 343 398
#     4  10  23  40  71  97 133 175 220 278 333 395
#     4  12  27  45  68 100 140 179 220 279 344 402
#     4  12  26  39  71 102 130 177 230 282 330 395
#     4  12  24  47  69  94 138 180 229 276 328 404
#     4  10  20  42  67 101 127 169 230 275 326 392
#
# _framework density 22.551659999999998
#
# number of rings (size 3 to 8) (size 9 to 14) (size 15 to 20)
#    0.000    0.750    5.000    3.000    5.250    2.000 
#    0.000    1.250    0.000    0.000    0.000    0.000 
#    0.000    0.000    0.000    0.000    0.000    0.000 
#
# Total GULP energy -89456.903528 kJ/mol
# GULP energy per Si atom -5591.056470 kJ/mol
# Density = 2.250033 g / cm^3
# Si number density = 22.551660 Si / 1000 Ang^3
#
#
#
# Elastic Constant Matrix: (Units=GPa)
#
#
# Indices 1 2 3 4 5 6 
#
# 1 115.7605 20.4863 33.0876 5.6544 19.6207 11.9317
# 2 20.4863 75.1917 15.2998 21.9819 2.8321 7.9370
# 3 33.0876 15.2998 92.0592 2.1583 13.4420 -9.4814
# 4 5.6544 21.9819 2.1583 31.0522 -0.0915 6.1728
# 5 19.6207 2.8321 13.4420 -0.0915 41.1640 6.8608
# 6 11.9317 7.9370 -9.4814 6.1728 6.8608 28.7828
#
#
#
# Elastic Compliance Matrix: (Units=1/GPa)
#
#
# Indices 1 2 3 4 5 6 
#
# 1 0.010993 -0.001758 -0.003686 0.000409 -0.003143 -0.004625
# 2 -0.001758 0.017952 -0.002483 -0.011669 0.000844 -0.002738
# 3 -0.003686 -0.002483 0.013977 -0.000100 -0.003933 0.007776
# 4 0.000409 -0.011669 -0.000100 0.041664 0.001791 -0.006347
# 5 -0.003143 0.000844 -0.003933 0.001791 0.028245 -0.007342
# 6 -0.004625 -0.002738 0.007776 -0.006347 -0.007342 0.043088
#
#
# Mechanical properties :
#
#
# Convention : Reuss Voigt Hill
#
# Bulk Modulus (GPa) = 36.94407 46.75098 41.84752
# Shear Modulus (GPa) = 27.65547 34.47565 31.06556
#
# Velocity S-wave (km/s) = 3.50568 3.91415 3.71553
# Velocity P-wave (km/s) = 5.72747 6.41896 6.08305
#
# Compressibility (1/GPa) = 0.02706794
#
# Stress axis : x y z
#
# Youngs Moduli (GPa) = 90.97040 55.70336 71.54380
#
# Poissons Ratio (x) = 0.09793 0.26369
# Poissons Ratio (y) = 0.15993 0.17768
# Poissons Ratio (z) = 0.33528 0.13834
#
# Static dielectric constant tensor:
#      x y z
#    x 1.840440 -0.010980 -0.004460 
#    y -0.010980 1.813220 0.028770 
#    z -0.004460 0.028770 1.898080 
# 
# From -- ./inp_files/427813.got.cif
#   From: 2010.05.17/outbox.cif.g08.bks.cpg/sg2_214_cif.got.tgz:427813.got - 2010.06.03 11:33:40.
