data_PCOD9110347
_publ_section_title
;
Structure prediction by ZEFSAII (Michael W. Deem and Ramdas Pophale) SiO2 
 PCOD9110347
Probable space group: P -1
;
_chemical_formula_sum "Si O2"
_cell_formula_units_Z 14
_cell_length_a 8.879510
_cell_length_b 11.910599
_cell_length_c 7.824110
_cell_angle_alpha 56.231117
_cell_angle_beta 57.056486
_cell_angle_gamma 59.694566
_cell_volume 552.454615
_symmetry_space_group_name_H-M "P -1"
_symmetry_group_IT_number 2
_symmetry_cell_setting 'triclinic'
loop_
_space_group_symop_operation_xyz
x,y,z
-x,-y,-z
loop_
_atom_site_type_symbol
_atom_site_label
_atom_site_fract_x
_atom_site_fract_y
_atom_site_fract_z
Si Si1 0.280761 0.571050 0.608794
Si Si2 0.297717 0.583717 0.977609
Si Si3 0.755244 0.819995 0.551001
Si Si4 0.912868 0.628836 0.294243
Si Si5 0.314704 0.858402 0.209264
Si Si6 0.246298 0.173641 0.079712
Si Si7 0.305629 0.885177 0.797058
O O1 0.500000 0.500000 0.500000
O O2 0.257392 0.540710 0.848620
O O3 0.248659 0.734690 0.441106
O O4 0.171248 0.490449 0.626333
O O5 0.284533 0.747983 0.834439
O O6 0.500000 0.500000 0.000000
O O7 0.136166 0.570864 0.215298
O O8 0.821244 0.711553 0.448948
O O9 0.825020 0.766236 0.741554
O O10 0.529555 0.862570 0.673122
O O11 0.796213 0.965880 0.351288
O O12 0.874475 0.745957 0.068774
O O13 0.256361 0.008868 0.211489
O O14 0.542947 0.816632 0.094782
O O15 0.250671 0.880449 0.033013
#
# Coordination Sequence:
#
# PCOD9110347 Si02
#       7
#     2   2   2   2   2   2   2
#     4  12  24  47  76 110 150 200 245 304 384 453
#     4  12  29  50  74 102 151 205 258 313 374 441
#     4  10  22  43  80 112 146 194 248 310 377 441
#     4  12  26  50  75 112 156 194 256 312 367 452
#     4  10  20  41  75 112 154 196 241 300 376 448
#     4  10  21  42  76 114 149 197 246 303 371 452
#     4  10  21  44  73 110 149 195 248 302 372 450
#
# _framework density 25.341446999999999
#
# number of rings (size 3 to 8) (size 9 to 14) (size 15 to 20)
#    0.000    1.143    2.857    3.000    4.000    0.571 
#    5.143    5.714    3.143    0.000    0.000    0.000 
#    0.000    0.000    0.000    0.000    0.000    0.000 
#
# Total GULP energy -78565.037033 kJ/mol
# GULP energy per Si atom -5611.788359 kJ/mol
# Density = 2.528377 g / cm^3
# Si number density = 25.341447 Si / 1000 Ang^3
#
#
#
# Elastic Constant Matrix: (Units=GPa)
#
#
# Indices 1 2 3 4 5 6 
#
# 1 71.3577 55.7841 48.8926 5.1095 11.9007 -1.8812
# 2 55.7841 127.3516 79.0655 -8.1005 9.1495 33.4731
# 3 48.8926 79.0655 125.0967 -16.4861 27.0305 9.2234
# 4 5.1095 -8.1005 -16.4861 62.4303 16.2311 1.6624
# 5 11.9007 9.1495 27.0305 16.2311 58.2874 8.9737
# 6 -1.8812 33.4731 9.2234 1.6624 8.9737 36.2379
#
#
#
# Elastic Compliance Matrix: (Units=1/GPa)
#
#
# Indices 1 2 3 4 5 6 
#
# 1 0.030228 -0.016719 -0.002390 -0.004731 -0.004021 0.018834
# 2 -0.016719 0.028516 -0.011167 0.000750 0.007967 -0.026373
# 3 -0.002390 -0.011167 0.018091 0.005631 -0.008875 0.007526
# 4 -0.004731 0.000750 0.005631 0.019866 -0.007059 -0.001535
# 5 -0.004021 0.007967 -0.008875 -0.007059 0.024510 -0.011055
# 6 0.018834 -0.026373 0.007526 -0.001535 -0.011055 0.053827
#
#
# Mechanical properties :
#
#
# Convention : Reuss Voigt Hill
#
# Bulk Modulus (GPa) = 61.41674 76.81007 69.11340
# Shear Modulus (GPa) = 20.74553 40.72871 30.73712
#
# Velocity S-wave (km/s) = 2.86429 4.01334 3.48648
# Velocity P-wave (km/s) = 5.93525 7.20081 6.59844
#
# Compressibility (1/GPa) = 0.01628221
#
# Stress axis : x y z
#
# Youngs Moduli (GPa) = 33.08240 35.06840 55.27667
#
# Poissons Ratio (x) = 0.58630 0.13213
# Poissons Ratio (y) = 0.55310 0.61726
# Poissons Ratio (z) = 0.07908 0.39160
#
# Static dielectric constant tensor:
#      x y z
#    x 2.015990 -0.021530 0.006610 
#    y -0.021530 1.963900 -0.012220 
#    z 0.006610 -0.012220 1.986370 
# 
# From -- ./inp_files/183936.got.cif
#   From: 2010.05.17/outbox.cif.g08.bks.cpg/sg2_92_cif.got.tgz:183936.got - 2010.06.03 11:33:40.
