data_PCOD9110070
_publ_section_title
;
Structure prediction by ZEFSAII (Michael W. Deem and Ramdas Pophale) SiO2 
 PCOD9110070
Probable space group: P -1
;
_chemical_formula_sum "Si O2"
_cell_formula_units_Z 16
_cell_length_a 20.832067
_cell_length_b 17.476404
_cell_length_c 6.247608
_cell_angle_alpha 98.604178
_cell_angle_beta 97.566648
_cell_angle_gamma 20.107677
_cell_volume 772.901960
_symmetry_space_group_name_H-M "P -1"
_symmetry_group_IT_number 2
_symmetry_cell_setting 'triclinic'
loop_
_space_group_symop_operation_xyz
x,y,z
-x,-y,-z
loop_
_atom_site_type_symbol
_atom_site_label
_atom_site_fract_x
_atom_site_fract_y
_atom_site_fract_z
Si Si1 0.411481 0.288734 0.666189
Si Si2 0.155761 0.674854 0.426935
Si Si3 0.287453 0.830866 0.621929
Si Si4 0.746511 0.823993 0.471275
Si Si5 0.334827 0.227634 0.896743
Si Si6 0.087119 0.454513 0.205732
Si Si7 0.625658 0.435596 0.283282
Si Si8 0.561054 0.609757 0.943646
O O1 0.243543 0.508681 0.541613
O O2 0.364606 0.270325 0.792459
O O3 0.479324 0.281324 0.847616
O O4 0.574959 0.073809 0.495956
O O5 0.224326 0.676579 0.579090
O O6 0.267779 0.554405 0.200343
O O7 0.933276 0.914921 0.410319
O O8 0.422499 0.676432 0.407218
O O9 0.318001 0.715232 0.709341
O O10 0.383420 0.789140 0.793487
O O11 0.721217 0.775850 0.298229
O O12 0.778326 0.754101 0.691989
O O13 0.933044 0.653715 0.390127
O O14 0.189253 0.406160 0.099110
O O15 0.500000 0.000000 0.000000
O O16 0.000000 0.500000 0.000000
O O17 0.617138 0.470941 0.047646
#
# Coordination Sequence:
#
# PCOD9110070 Si02
#       8
#     2   2   2   2   2   2   2   2
#     4  11  24  40  60  87 129 166 202 261 316 373
#     4  10  23  40  61  95 133 166 206 254 319 369
#     4  10  20  41  69  93 128 166 210 256 303 374
#     4  10  21  40  62  84 119 153 204 265 313 374
#     4  11  22  38  68  87 109 157 216 259 314 373
#     4   9  20  38  60  93 112 142 208 262 316 373
#     4   9  20  40  67  98 125 164 212 258 302 364
#     4  10  23  40  60  93 131 168 207 251 317 371
#
# _framework density 20.701204000000001
#
# number of rings (size 3 to 8) (size 9 to 14) (size 15 to 20)
#    0.000    2.000    1.250    1.125    1.750    2.500 
#    0.000   21.250    0.000    0.000    0.000    0.000 
#    0.000    0.000    0.000    0.000    0.000    0.000 
#
# Total GULP energy -89288.913650 kJ/mol
# GULP energy per Si atom -5580.557103 kJ/mol
# Density = 2.065409 g / cm^3
# Si number density = 20.701204 Si / 1000 Ang^3
#
#
#
# Elastic Constant Matrix: (Units=GPa)
#
#
# Indices 1 2 3 4 5 6 
#
# 1 74.0652 75.6861 40.6382 -0.1500 -21.6438 1.1540
# 2 75.6861 153.0277 48.1226 -8.7909 -12.4720 -12.5240
# 3 40.6382 48.1226 82.1689 -15.0524 -20.8413 -0.7328
# 4 -0.1500 -8.7909 -15.0524 25.3548 -3.2881 0.2660
# 5 -21.6438 -12.4720 -20.8413 -3.2881 39.3381 -0.2662
# 6 1.1540 -12.5240 -0.7328 0.2660 -0.2662 26.7114
#
#
#
# Elastic Compliance Matrix: (Units=1/GPa)
#
#
# Indices 1 2 3 4 5 6 
#
# 1 0.038533 -0.016923 -0.008170 -0.009002 0.010689 -0.009627
# 2 -0.016923 0.015810 -0.001254 0.003959 -0.004577 0.008024
# 3 -0.008170 -0.001254 0.021236 0.013088 0.007454 0.000292
# 4 -0.009002 0.003959 0.013088 0.049464 0.007385 0.002185
# 5 0.010689 -0.004577 0.007454 0.007385 0.034403 -0.002134
# 6 -0.009627 0.008024 0.000292 0.002185 -0.002134 0.041580
#
#
# Mechanical properties :
#
#
# Convention : Reuss Voigt Hill
#
# Bulk Modulus (GPa) = 43.69619 70.90618 57.30118
# Shear Modulus (GPa) = 19.13161 27.93518 23.53339
#
# Velocity S-wave (km/s) = 3.04333 3.67747 3.37532
# Velocity P-wave (km/s) = 5.78818 7.23590 6.55215
#
# Compressibility (1/GPa) = 0.02288529
#
# Stress axis : x y z
#
# Youngs Moduli (GPa) = 25.95191 63.25129 47.09026
#
# Poissons Ratio (x) = 1.07038 0.38473
# Poissons Ratio (y) = 0.43917 0.05905
# Poissons Ratio (z) = 0.21203 0.07932
#
# Static dielectric constant tensor:
#      x y z
#    x 1.778220 -0.043030 -0.001270 
#    y -0.043030 1.755230 0.020580 
#    z -0.001270 0.020580 1.711970 
# 
# From -- ./inp_files/120084.got.cif
#   From: 2010.05.17/outbox.cif.g08.bks.cpg/sg2_61_cif.got.tgz:120084.got - 2010.06.03 11:33:40.
