data_PCOD9110550
_publ_section_title
;
Structure prediction by ZEFSAII (Michael W. Deem and Ramdas Pophale) SiO2 
 PCOD9110550
Probable space group: P -1
;
_chemical_formula_sum "Si O2"
_cell_formula_units_Z 14
_cell_length_a 7.338663
_cell_length_b 13.633482
_cell_length_c 10.700049
_cell_angle_alpha 134.570069
_cell_angle_beta 81.793491
_cell_angle_gamma 123.959758
_cell_volume 573.520723
_symmetry_space_group_name_H-M "P -1"
_symmetry_group_IT_number 2
_symmetry_cell_setting 'triclinic'
loop_
_space_group_symop_operation_xyz
x,y,z
-x,-y,-z
loop_
_atom_site_type_symbol
_atom_site_label
_atom_site_fract_x
_atom_site_fract_y
_atom_site_fract_z
Si Si1 0.353188 0.791531 0.192846
Si Si2 0.688733 0.467603 0.715445
Si Si3 0.283380 0.163409 0.621929
Si Si4 0.614446 0.011191 0.130796
Si Si5 0.122675 0.390536 0.434574
Si Si6 0.830550 0.585743 0.084100
Si Si7 0.577200 0.684693 0.790853
O O1 0.579797 0.876708 0.337548
O O2 0.111874 0.736001 0.227479
O O3 0.607949 0.585508 0.805515
O O4 0.279249 0.597195 0.995155
O O5 0.451248 0.256665 0.565095
O O6 0.847634 0.519926 0.623267
O O7 0.732774 0.686262 0.666800
O O8 0.823562 0.531786 0.891708
O O9 0.294282 0.327371 0.815391
O O10 0.000000 0.000000 0.500000
O O11 0.847939 0.214290 0.325585
O O12 0.500000 0.000000 0.000000
O O13 0.680912 0.882387 0.992025
O O14 0.424750 0.914201 0.175697
O O15 0.297333 0.554390 0.659374
#
# Coordination Sequence:
#
# PCOD9110550 Si02
#       7
#     2   2   2   2   2   2   2
#     4  10  23  40  62  90 121 158 210 249 299 371
#     4   9  18  39  61  90 113 160 200 246 311 359
#     4  11  23  37  65  93 120 158 203 250 313 365
#     4  12  23  38  60  93 123 164 202 246 311 365
#     4   9  21  38  62  88 121 156 206 247 303 361
#     4  10  20  42  64  85 122 160 201 256 305 362
#     4   9  20  39  61  86 125 157 203 254 295 367
#
# _framework density 24.410627999999999
#
# number of rings (size 3 to 8) (size 9 to 14) (size 15 to 20)
#    0.857    1.143    0.000    4.714    2.000    1.143 
#    7.714    0.000    0.000    0.000    0.000    0.000 
#    0.000    0.000    0.000    0.000    0.000    0.000 
#
# Total GULP energy -78197.314256 kJ/mol
# GULP energy per Si atom -5585.522447 kJ/mol
# Density = 2.435507 g / cm^3
# Si number density = 24.410628 Si / 1000 Ang^3
#
#
#
# Elastic Constant Matrix: (Units=GPa)
#
#
# Indices 1 2 3 4 5 6 
#
# 1 85.5575 13.5487 24.4693 6.1806 14.8590 -17.8098
# 2 13.5487 154.2809 45.3830 24.4405 18.1219 -16.7618
# 3 24.4693 45.3830 94.5614 36.7506 12.8217 -5.7924
# 4 6.1806 24.4405 36.7506 39.7271 2.3115 10.3690
# 5 14.8590 18.1219 12.8217 2.3115 49.2589 4.0231
# 6 -17.8098 -16.7618 -5.7924 10.3690 4.0231 34.7873
#
#
#
# Elastic Compliance Matrix: (Units=1/GPa)
#
#
# Indices 1 2 3 4 5 6 
#
# 1 0.015268 0.001538 -0.001811 -0.003960 -0.005335 0.010054
# 2 0.001538 0.008920 -0.001378 -0.006090 -0.003681 0.007097
# 3 -0.001811 -0.001378 0.020349 -0.019575 -0.003986 0.008093
# 4 -0.003960 -0.006090 -0.019575 0.053744 0.008064 -0.025173
# 5 -0.005335 -0.003681 -0.003986 0.008064 0.024776 -0.010438
# 6 0.010054 0.007097 0.008093 -0.025173 -0.010438 0.047371
#
#
# Mechanical properties :
#
#
# Convention : Reuss Voigt Hill
#
# Bulk Modulus (GPa) = 24.25100 55.68909 39.97005
# Shear Modulus (GPa) = 26.67021 41.48792 34.07906
#
# Velocity S-wave (km/s) = 3.30898 4.12707 3.74046
# Velocity P-wave (km/s) = 4.95533 6.75080 5.92151
#
# Compressibility (1/GPa) = 0.04123541
#
# Stress axis : x y z
#
# Youngs Moduli (GPa) = 65.49736 112.10439 49.14227
#
# Poissons Ratio (x) = -0.17243 0.08898
# Poissons Ratio (y) = -0.10075 0.06774
# Poissons Ratio (z) = 0.11859 0.15453
#
# Static dielectric constant tensor:
#      x y z
#    x 2.009220 0.053260 -0.042260 
#    y 0.053260 1.960910 -0.019890 
#    z -0.042260 -0.019890 1.984440 
# 
# From -- ./inp_files/401352.got.cif
#   From: 2010.05.17/outbox.cif.g08.bks.cpg/sg2_201_cif.got.tgz:401352.got - 2010.06.03 11:33:40.
