data_PCOD9110523
_publ_section_title
;
Structure prediction by ZEFSAII (Michael W. Deem and Ramdas Pophale) SiO2 
 PCOD9110523
Probable space group: P -1
;
_chemical_formula_sum "Si O2"
_cell_formula_units_Z 16
_cell_length_a 13.331612
_cell_length_b 8.870875
_cell_length_c 18.630077
_cell_angle_alpha 79.508678
_cell_angle_beta 141.133266
_cell_angle_gamma 130.599402
_cell_volume 768.430249
_symmetry_space_group_name_H-M "P -1"
_symmetry_group_IT_number 2
_symmetry_cell_setting 'triclinic'
loop_
_space_group_symop_operation_xyz
x,y,z
-x,-y,-z
loop_
_atom_site_type_symbol
_atom_site_label
_atom_site_fract_x
_atom_site_fract_y
_atom_site_fract_z
Si Si1 0.135560 0.091513 0.373777
Si Si2 0.232463 0.079617 0.584233
Si Si3 0.147986 0.641206 0.776849
Si Si4 0.335320 0.105674 0.205109
Si Si5 0.568750 0.799407 0.089828
Si Si6 0.739814 0.237848 0.331798
Si Si7 0.336338 0.436847 0.128528
Si Si8 0.426944 0.651715 0.523456
O O1 0.151241 0.003016 0.462451
O O2 0.280188 0.367573 0.456383
O O3 0.316235 0.154757 0.406639
O O4 0.819639 0.889862 0.191166
O O5 0.539688 0.396770 0.742591
O O6 0.233146 0.921883 0.640071
O O7 0.000000 0.000000 0.500000
O O8 0.229089 0.670820 0.737640
O O9 0.815392 0.413058 0.621592
O O10 0.292234 0.922041 0.847167
O O11 0.288750 0.619558 0.904428
O O12 0.464391 0.067105 0.237006
O O13 0.415538 0.320724 0.185612
O O14 0.462584 0.230317 0.344656
O O15 0.999164 0.823123 0.043967
O O16 0.477292 0.643757 0.125403
O O17 0.000000 0.500000 0.500000
#
# Coordination Sequence:
#
# PCOD9110523 Si02
#       8
#     2   2   2   2   2   2   2   2
#     4  10  21  37  71  95 118 175 222 260 320 398
#     4  12  21  42  72  93 124 171 228 263 318 402
#     4  10  21  41  66  93 130 168 213 273 328 385
#     4  11  25  42  64  97 134 168 217 282 330 375
#     4  10  21  40  66  95 124 169 220 269 320 391
#     4  12  24  41  68  97 129 170 218 271 332 390
#     4  11  23  43  67  92 133 174 215 276 323 386
#     4  10  20  42  63  93 133 164 215 269 325 387
#
# _framework density 20.821669
#
# number of rings (size 3 to 8) (size 9 to 14) (size 15 to 20)
#    0.000    1.250    5.000    1.500    0.000    3.500 
#    6.750    2.500    0.000    0.000    0.000    0.000 
#    0.000    0.000    0.000    0.000    0.000    0.000 
#
# Total GULP energy -89349.938312 kJ/mol
# GULP energy per Si atom -5584.371144 kJ/mol
# Density = 2.077428 g / cm^3
# Si number density = 20.821669 Si / 1000 Ang^3
#
#
#
# Elastic Constant Matrix: (Units=GPa)
#
#
# Indices 1 2 3 4 5 6 
#
# 1 115.5291 19.1875 59.3650 -20.0926 20.7662 18.8361
# 2 19.1875 61.6787 36.0262 -15.8293 8.3670 7.7596
# 3 59.3650 36.0262 153.4362 -25.7557 15.8172 7.4249
# 4 -20.0926 -15.8293 -25.7557 29.8283 2.9386 -11.3184
# 5 20.7662 8.3670 15.8172 2.9386 20.4367 6.4487
# 6 18.8361 7.7596 7.4249 -11.3184 6.4487 26.7935
#
#
#
# Elastic Compliance Matrix: (Units=1/GPa)
#
#
# Indices 1 2 3 4 5 6 
#
# 1 0.014122 0.001494 -0.003060 0.007696 -0.012688 -0.003208
# 2 0.001494 0.021527 -0.002727 0.011323 -0.010062 0.000676
# 3 -0.003060 -0.002727 0.010013 0.007583 -0.006144 0.004848
# 4 0.007696 0.011323 0.007583 0.064177 -0.035390 0.024837
# 5 -0.012688 -0.010062 -0.006144 -0.035390 0.082499 -0.021269
# 6 -0.003208 0.000676 0.004848 0.024837 -0.021269 0.053649
#
#
# Mechanical properties :
#
#
# Convention : Reuss Voigt Hill
#
# Bulk Modulus (GPa) = 26.97124 62.20017 44.58570
# Shear Modulus (GPa) = 18.73133 29.81605 24.27369
#
# Velocity S-wave (km/s) = 3.00260 3.78825 3.41807
# Velocity P-wave (km/s) = 5.00024 7.00515 6.08582
#
# Compressibility (1/GPa) = 0.03707654
#
# Stress axis : x y z
#
# Youngs Moduli (GPa) = 70.81120 46.45278 99.86976
#
# Poissons Ratio (x) = -0.06939 0.30556
# Poissons Ratio (y) = -0.10578 0.27236
# Poissons Ratio (z) = 0.21665 0.12668
#
# Static dielectric constant tensor:
#      x y z
#    x 1.575310 0.043580 -0.064060 
#    y 0.043580 1.729230 0.045730 
#    z -0.064060 0.045730 1.748520 
# 
# From -- ./inp_files/297944.got.cif
#   From: 2010.05.17/outbox.cif.g08.bks.cpg/sg2_149_cif.got.tgz:297944.got - 2010.06.03 11:33:40.
