data_PCOD9110574
_publ_section_title
;
Structure prediction by ZEFSAII (Michael W. Deem and Ramdas Pophale) SiO2 
 PCOD9110574
Probable space group: P -1
;
_chemical_formula_sum "Si O2"
_cell_formula_units_Z 14
_cell_length_a 17.185195
_cell_length_b 7.985086
_cell_length_c 15.570500
_cell_angle_alpha 60.415499
_cell_angle_beta 21.160245
_cell_angle_gamma 51.465206
_cell_volume 573.781316
_symmetry_space_group_name_H-M "P -1"
_symmetry_group_IT_number 2
_symmetry_cell_setting 'triclinic'
loop_
_space_group_symop_operation_xyz
x,y,z
-x,-y,-z
loop_
_atom_site_type_symbol
_atom_site_label
_atom_site_fract_x
_atom_site_fract_y
_atom_site_fract_z
Si Si1 0.761614 0.729173 0.522528
Si Si2 0.130520 0.869792 0.511945
Si Si3 0.453828 0.641000 0.403925
Si Si4 0.751308 0.836662 0.014178
Si Si5 0.997207 0.017235 0.849421
Si Si6 0.509722 0.207266 0.398219
Si Si7 0.761950 0.350577 0.718394
O O1 0.643359 0.720375 0.553506
O O2 0.839746 0.517939 0.555501
O O3 0.527423 0.942880 0.756851
O O4 0.979387 0.781441 0.265478
O O5 0.331612 0.755736 0.408810
O O6 0.260780 0.775291 0.310650
O O7 0.977813 0.140875 0.602406
O O8 0.915478 0.806903 0.768983
O O9 0.719400 0.630214 0.128566
O O10 0.285870 0.815091 0.607541
O O11 0.421304 0.427880 0.489963
O O12 0.883556 0.906707 0.932283
O O13 0.802850 0.115218 0.101098
O O14 0.500000 0.000000 0.500000
O O15 0.500000 0.500000 0.000000
#
# Coordination Sequence:
#
# PCOD9110574 Si02
#       7
#     2   2   2   2   2   2   2
#     4  10  20  42  64  89 131 161 206 265 305 367
#     4  10  21  37  61  91 121 167 209 247 313 361
#     4  10  21  40  65  89 125 164 203 262 309 370
#     4   9  19  40  63  88 125 166 208 250 313 369
#     4   9  22  40  65  91 124 167 203 260 319 360
#     4  11  24  41  66  95 122 162 211 257 318 377
#     4  11  21  37  64  93 130 163 209 256 300 371
#
# _framework density 24.399540999999999
#
# number of rings (size 3 to 8) (size 9 to 14) (size 15 to 20)
#    0.000    2.000    2.857    0.000    2.000    1.143 
#    0.000   18.571    0.000    0.000    0.000    0.000 
#    0.000    0.000    0.000    0.000    0.000    0.000 
#
# Total GULP energy -78221.963395 kJ/mol
# GULP energy per Si atom -5587.283100 kJ/mol
# Density = 2.434401 g / cm^3
# Si number density = 24.399541 Si / 1000 Ang^3
#
#
#
# Elastic Constant Matrix: (Units=GPa)
#
#
# Indices 1 2 3 4 5 6 
#
# 1 22.5432 15.7086 -2.8634 1.5212 -26.9902 -25.6995
# 2 15.7086 171.9676 40.0312 -24.4523 -10.2074 4.0842
# 3 -2.8634 40.0312 110.6281 -17.9532 8.7223 1.9031
# 4 1.5212 -24.4523 -17.9532 42.1613 15.7624 -0.5788
# 5 -26.9902 -10.2074 8.7223 15.7624 25.5346 -2.6674
# 6 -25.6995 4.0842 1.9031 -0.5788 -2.6674 34.2438
#
#
#
# Elastic Compliance Matrix: (Units=1/GPa)
#
#
# Indices 1 2 3 4 5 6 
#
# 1 -0.021031 0.001529 0.004725 0.016663 -0.035473 -0.018710
# 2 0.001529 0.006676 -0.002600 0.000979 0.004660 0.000876
# 3 0.004725 -0.002600 0.010741 0.003520 -0.001552 0.003198
# 4 0.016663 0.000979 0.003520 0.024150 0.003237 0.012853
# 5 -0.035473 0.004660 -0.001552 0.003237 -0.000768 -0.027097
# 6 -0.018710 0.000876 0.003198 0.012853 -0.027097 0.012985
#
#
# Mechanical properties :
#
#
# Convention : Reuss Voigt Hill
#
# Bulk Modulus (GPa) = 270.63779 45.65465 158.14622
# Shear Modulus (GPa) = 187.44586 37.20543 112.32565
#
# Velocity S-wave (km/s) = 8.77441 3.90916 6.79234
# Velocity P-wave (km/s) = 14.62237 6.25518 11.24591
#
# Compressibility (1/GPa) = 0.00369498
#
# Stress axis : x y z
#
# Youngs Moduli (GPa) = -47.54844 149.80070 93.10254
#
# Poissons Ratio (x) = -0.22909 -0.43992
# Poissons Ratio (y) = 0.07272 0.24202
# Poissons Ratio (z) = 0.22467 0.38941
#
# Static dielectric constant tensor:
#      x y z
#    x 1.985980 -0.012090 0.008690 
#    y -0.012090 2.022090 0.019860 
#    z 0.008690 0.019860 1.968180 
# 
# From -- ./inp_files/48496.got.cif
#   From: 2010.05.17/outbox.cif.g08.bks.cpg/sg2_25_cif.got.tgz:48496.got - 2010.06.03 11:33:40.
