data_PCOD9110960
_publ_section_title
;
Structure prediction by ZEFSAII (Michael W. Deem and Ramdas Pophale) SiO2 
 PCOD9110960
Probable space group: P -1
;
_chemical_formula_sum "Si O2"
_cell_formula_units_Z 16
_cell_length_a 9.479309
_cell_length_b 9.221043
_cell_length_c 16.197158
_cell_angle_alpha 46.572680
_cell_angle_beta 97.943137
_cell_angle_gamma 68.875812
_cell_volume 788.253331
_symmetry_space_group_name_H-M "P -1"
_symmetry_group_IT_number 2
_symmetry_cell_setting 'triclinic'
loop_
_space_group_symop_operation_xyz
x,y,z
-x,-y,-z
loop_
_atom_site_type_symbol
_atom_site_label
_atom_site_fract_x
_atom_site_fract_y
_atom_site_fract_z
Si Si1 0.574895 0.223385 0.433377
Si Si2 0.603029 0.987150 0.789497
Si Si3 0.175473 0.461401 0.566067
Si Si4 0.303738 0.245168 0.287192
Si Si5 0.158951 0.691016 0.639680
Si Si6 0.008769 0.791872 0.133093
Si Si7 0.259962 0.676353 0.345235
Si Si8 0.698286 0.784870 0.061086
O O1 0.488331 0.175258 0.369691
O O2 0.657616 0.352340 0.354983
O O3 0.422107 0.407619 0.418041
O O4 0.719942 0.951152 0.596377
O O5 0.677462 0.796905 0.792017
O O6 0.378711 0.179715 0.694714
O O7 0.674134 0.153089 0.718369
O O8 0.680135 0.840610 0.940173
O O9 0.120392 0.568888 0.611720
O O10 0.215659 0.624833 0.450922
O O11 0.000000 0.500000 0.500000
O O12 0.147363 0.525249 0.199374
O O13 0.210553 0.510792 0.793569
O O14 0.000000 0.000000 0.500000
O O15 0.819569 0.845288 0.091892
O O16 0.085162 0.783073 0.231953
O O17 0.000000 0.000000 0.000000
O O18 0.500000 0.000000 0.000000
#
# Coordination Sequence:
#
# PCOD9110960 Si02
#       8
#     2   2   2   2   2   2   2   2
#     4  10  20  42  67  98 128 175 223 274 334 403
#     4  12  23  44  69 100 133 180 227 287 337 401
#     4  12  25  41  67 103 138 175 226 287 337 402
#     4  10  23  38  70  97 131 163 232 284 330 387
#     4  12  26  44  68  97 141 182 228 275 348 409
#     4  11  24  45  66  98 131 179 226 274 334 411
#     4  11  21  42  73  96 131 176 230 275 335 405
#     4  12  25  45  70  97 141 185 221 274 348 410
#
# _framework density 20.298043
#
# number of rings (size 3 to 8) (size 9 to 14) (size 15 to 20)
#    0.000    0.750    5.000    2.625    3.500    0.500 
#    2.250    0.625    0.000    0.000    0.000    0.000 
#    0.000    0.000    0.000    0.000    0.000    0.000 
#
# Total GULP energy -89387.624455 kJ/mol
# GULP energy per Si atom -5586.726528 kJ/mol
# Density = 2.025184 g / cm^3
# Si number density = 20.298043 Si / 1000 Ang^3
#
#
#
# Elastic Constant Matrix: (Units=GPa)
#
#
# Indices 1 2 3 4 5 6 
#
# 1 105.3048 7.6389 46.2750 2.6105 7.9825 11.9221
# 2 7.6389 68.1198 21.1492 22.7842 3.8824 7.6276
# 3 46.2750 21.1492 130.6105 13.0642 -11.3496 0.7380
# 4 2.6105 22.7842 13.0642 33.3087 0.9643 1.7468
# 5 7.9825 3.8824 -11.3496 0.9643 39.3850 1.9445
# 6 11.9221 7.6276 0.7380 1.7468 1.9445 24.4724
#
#
#
# Elastic Compliance Matrix: (Units=1/GPa)
#
#
# Indices 1 2 3 4 5 6 
#
# 1 0.012556 0.000711 -0.004947 0.000891 -0.003768 -0.005954
# 2 0.000711 0.020341 -0.002446 -0.012654 -0.002271 -0.005529
# 3 -0.004947 -0.002446 0.010378 -0.002271 0.004157 0.002691
# 4 0.000891 -0.012654 -0.002271 0.039474 -0.000594 0.000808
# 5 -0.003768 -0.002271 0.004157 -0.000594 0.027577 0.000270
# 6 -0.005954 -0.005529 0.002691 0.000808 0.000270 0.045326
#
#
# Mechanical properties :
#
#
# Convention : Reuss Voigt Hill
#
# Bulk Modulus (GPa) = 33.43146 50.46235 41.94691
# Shear Modulus (GPa) = 27.93522 34.69802 31.31662
#
# Velocity S-wave (km/s) = 3.71381 4.13901 3.93216
# Velocity P-wave (km/s) = 5.90728 6.91061 6.42855
#
# Compressibility (1/GPa) = 0.02991195
#
# Stress axis : x y z
#
# Youngs Moduli (GPa) = 79.64328 49.16236 96.35567
#
# Poissons Ratio (x) = -0.03496 0.47664
# Poissons Ratio (y) = -0.05664 0.23569
# Poissons Ratio (z) = 0.39397 0.12025
#
# Static dielectric constant tensor:
#      x y z
#    x 1.783770 0.024440 0.036290 
#    y 0.024440 1.711240 0.015680 
#    z 0.036290 0.015680 1.777000 
# 
# From -- ./inp_files/262045.got.cif
#   From: 2010.05.17/outbox.cif.g08.bks.cpg/sg2_132_cif.got.tgz:262045.got - 2010.06.03 11:33:40.
