data_PCOD9110812
_publ_section_title
;
Structure prediction by ZEFSAII (Michael W. Deem and Ramdas Pophale) SiO2 
 PCOD9110812
Probable space group: P -1
;
_chemical_formula_sum "Si O2"
_cell_formula_units_Z 14
_cell_length_a 9.337745
_cell_length_b 10.289224
_cell_length_c 12.374902
_cell_angle_alpha 107.091256
_cell_angle_beta 97.774540
_cell_angle_gamma 137.384403
_cell_volume 646.036452
_symmetry_space_group_name_H-M "P -1"
_symmetry_group_IT_number 2
_symmetry_cell_setting 'triclinic'
loop_
_space_group_symop_operation_xyz
x,y,z
-x,-y,-z
loop_
_atom_site_type_symbol
_atom_site_label
_atom_site_fract_x
_atom_site_fract_y
_atom_site_fract_z
Si Si1 0.795522 0.654238 0.186194
Si Si2 0.504515 0.840487 0.957052
Si Si3 0.305424 0.642557 0.661457
Si Si4 0.803861 0.959831 0.510879
Si Si5 0.067151 0.013891 0.887289
Si Si6 0.507846 0.517925 0.670444
Si Si7 0.730872 0.176143 0.484976
O O1 0.717527 0.438313 0.098696
O O2 0.812947 0.769590 0.115448
O O3 0.588901 0.547378 0.228819
O O4 0.063158 0.870262 0.330075
O O5 0.499593 0.811069 0.820280
O O6 0.742217 0.964858 0.076152
O O7 0.500000 0.000000 0.000000
O O8 0.350607 0.521184 0.603449
O O9 0.341443 0.781577 0.608560
O O10 0.012139 0.435011 0.615742
O O11 0.559203 0.680348 0.432450
O O12 0.761443 0.039350 0.434217
O O13 0.000000 0.000000 0.500000
O O14 0.801204 0.770309 0.748894
O O15 0.000000 0.000000 0.000000
O O16 0.500000 0.000000 0.500000
#
# Coordination Sequence:
#
# PCOD9110812 Si02
#       7
#     2   2   2   2   2   2   2
#     4  10  22  43  68  88 133 168 208 272 319 363
#     4  11  24  44  67  95 131 172 214 264 319 378
#     4  10  22  43  62  88 135 163 203 271 316 367
#     4  10  20  42  66  94 125 164 210 263 323 374
#     4  12  24  42  70  94 126 177 221 254 313 388
#     4  10  22  42  68  96 126 165 219 263 316 382
#     4  11  23  39  65  93 128 167 204 258 332 377
#
# _framework density 21.670603
#
# number of rings (size 3 to 8) (size 9 to 14) (size 15 to 20)
#    0.000    1.429    7.143    0.429    2.000    4.000 
#    0.000    0.714    0.000    0.000    0.000    0.000 
#    0.000    0.000    0.000    0.000    0.000    0.000 
#
# Total GULP energy -78047.444945 kJ/mol
# GULP energy per Si atom -5574.817496 kJ/mol
# Density = 2.162128 g / cm^3
# Si number density = 21.670603 Si / 1000 Ang^3
#
#
#
# Elastic Constant Matrix: (Units=GPa)
#
#
# Indices 1 2 3 4 5 6 
#
# 1 72.7039 85.3442 36.5090 4.6982 19.9420 -35.9331
# 2 85.3442 204.6814 62.2979 -9.0831 13.7854 -34.5097
# 3 36.5090 62.2979 67.7599 13.2425 21.8965 -12.1878
# 4 4.6982 -9.0831 13.2425 52.5585 -6.9340 5.8727
# 5 19.9420 13.7854 21.8965 -6.9340 35.4096 -1.9841
# 6 -35.9331 -34.5097 -12.1878 5.8727 -1.9841 49.3608
#
#
#
# Elastic Compliance Matrix: (Units=1/GPa)
#
#
# Indices 1 2 3 4 5 6 
#
# 1 0.059717 -0.019832 0.005175 -0.017680 -0.030794 0.031750
# 2 -0.019832 0.014505 -0.010062 0.009375 0.013168 -0.007367
# 3 0.005175 -0.010062 0.031546 -0.013492 -0.020850 0.005289
# 4 -0.017680 0.009375 -0.013492 0.029616 0.019756 -0.012376
# 5 -0.030794 0.013168 -0.020850 0.019756 0.056185 -0.018451
# 6 0.031750 -0.007367 0.005289 -0.012376 -0.018451 0.040258
#
#
# Mechanical properties :
#
#
# Convention : Reuss Voigt Hill
#
# Bulk Modulus (GPa) = 17.75277 79.27195 48.51236
# Shear Modulus (GPa) = 16.66431 38.19872 27.43151
#
# Velocity S-wave (km/s) = 2.77606 4.20300 3.56172
# Velocity P-wave (km/s) = 4.29945 7.75973 6.27291
#
# Compressibility (1/GPa) = 0.05632925
#
# Stress axis : x y z
#
# Youngs Moduli (GPa) = 16.74558 68.94391 31.69928
#
# Poissons Ratio (x) = 1.36731 -0.16404
# Poissons Ratio (y) = 0.33210 0.31896
# Poissons Ratio (z) = -0.08666 0.69372
#
# Static dielectric constant tensor:
#      x y z
#    x 1.875780 0.023020 -0.028950 
#    y 0.023020 1.861320 0.024520 
#    z -0.028950 0.024520 1.866740 
# 
# From -- ./inp_files/495259.got.cif
#   From: 2010.05.17/outbox.cif.g08.bks.cpg/sg2_248_cif.got.tgz:495259.got - 2010.06.03 11:33:40.
