data_PCOD9110577
_publ_section_title
;
Structure prediction by ZEFSAII (Michael W. Deem and Ramdas Pophale) SiO2 
 PCOD9110577
Probable space group: P -1
;
_chemical_formula_sum "Si O2"
_cell_formula_units_Z 16
_cell_length_a 12.271845
_cell_length_b 20.544981
_cell_length_c 6.943363
_cell_angle_alpha 124.737281
_cell_angle_beta 134.308830
_cell_angle_gamma 39.912281
_cell_volume 801.539105
_symmetry_space_group_name_H-M "P -1"
_symmetry_group_IT_number 2
_symmetry_cell_setting 'triclinic'
loop_
_space_group_symop_operation_xyz
x,y,z
-x,-y,-z
loop_
_atom_site_type_symbol
_atom_site_label
_atom_site_fract_x
_atom_site_fract_y
_atom_site_fract_z
Si Si1 0.498467 0.212775 0.278029
Si Si2 0.124133 0.947596 0.759913
Si Si3 0.169394 0.221489 0.758338
Si Si4 0.181404 0.391444 0.960014
Si Si5 0.680224 0.273775 0.830542
Si Si6 0.059285 0.107131 0.242676
Si Si7 0.244705 0.654934 0.335534
Si Si8 0.417036 0.430801 0.073220
O O1 0.660607 0.147720 0.204165
O O2 0.604030 0.208902 0.592704
O O3 0.356414 0.183521 0.055757
O O4 0.349976 0.331039 0.229671
O O5 0.015117 0.918735 0.709154
O O6 0.000000 0.000000 0.500000
O O7 0.135862 0.022152 0.031661
O O8 0.137858 0.312186 0.745322
O O9 0.198970 0.132299 0.524274
O O10 0.971868 0.275504 0.727246
O O11 0.275525 0.405800 0.921477
O O12 0.000000 0.500000 0.000000
O O13 0.739316 0.288032 0.720707
O O14 0.513939 0.380342 0.904128
O O15 0.867605 0.210374 0.089841
O O16 0.299432 0.550765 0.144082
O O17 0.405086 0.621019 0.640628
#
# Coordination Sequence:
#
# PCOD9110577 Si02
#       8
#     2   2   2   2   2   2   2   2
#     4  10  22  41  64  92 132 169 208 269 330 376
#     4  11  23  45  72  94 126 167 217 274 331 389
#     4  10  22  41  63  96 134 169 214 264 331 377
#     4  10  20  42  64  89 136 181 208 255 329 379
#     4  12  22  39  65  98 124 171 227 262 318 394
#     4  11  24  41  70  98 121 166 224 268 324 394
#     4  11  21  38  61  90 134 170 218 273 311 374
#     4  11  21  37  63  90 127 181 221 257 316 384
#
# _framework density 19.961597000000001
#
# number of rings (size 3 to 8) (size 9 to 14) (size 15 to 20)
#    0.750    0.500    5.000    1.875    0.000    0.500 
#    4.500    1.875    0.000    0.000    0.000    0.000 
#    0.000    0.000    0.000    0.000    0.000    0.000 
#
# Total GULP energy -89275.762765 kJ/mol
# GULP energy per Si atom -5579.735173 kJ/mol
# Density = 1.991616 g / cm^3
# Si number density = 19.961597 Si / 1000 Ang^3
#
#
#
# Elastic Constant Matrix: (Units=GPa)
#
#
# Indices 1 2 3 4 5 6 
#
# 1 91.7721 24.5073 39.8903 11.1723 10.8982 -1.6921
# 2 24.5073 47.2023 10.2104 16.5830 -4.8565 -5.6958
# 3 39.8903 10.2104 84.4100 20.3464 10.0152 7.2846
# 4 11.1723 16.5830 20.3464 39.8571 6.4224 1.4247
# 5 10.8982 -4.8565 10.0152 6.4224 24.1796 8.1942
# 6 -1.6921 -5.6958 7.2846 1.4247 8.1942 32.4016
#
#
#
# Elastic Compliance Matrix: (Units=1/GPa)
#
#
# Indices 1 2 3 4 5 6 
#
# 1 0.017060 -0.009262 -0.007130 0.003999 -0.008632 0.002873
# 2 -0.009262 0.031973 0.002187 -0.013942 0.012700 0.002046
# 3 -0.007130 0.002187 0.017079 -0.007463 -0.000277 -0.003430
# 4 0.003999 -0.013942 -0.007463 0.035349 -0.011138 0.000698
# 5 -0.008632 0.012700 -0.000277 -0.011138 0.054775 -0.011519
# 6 0.002873 0.002046 -0.003430 0.000698 -0.011519 0.035026
#
#
# Mechanical properties :
#
#
# Convention : Reuss Voigt Hill
#
# Bulk Modulus (GPa) = 26.52308 41.40005 33.96157
# Shear Modulus (GPa) = 21.52946 29.20610 25.36778
#
# Velocity S-wave (km/s) = 3.28768 3.82922 3.56874
# Velocity P-wave (km/s) = 5.26571 6.35102 5.83366
#
# Compressibility (1/GPa) = 0.03770300
#
# Stress axis : x y z
#
# Youngs Moduli (GPa) = 58.61628 31.27640 58.54991
#
# Poissons Ratio (x) = 0.28968 0.41744
# Poissons Ratio (y) = 0.54289 -0.12803
# Poissons Ratio (z) = 0.41791 -0.06839
#
# Static dielectric constant tensor:
#      x y z
#    x 1.685010 0.014330 0.027710 
#    y 0.014330 1.723510 0.020420 
#    z 0.027710 0.020420 1.720200 
# 
# From -- ./inp_files/83498.got.cif
#   From: 2010.05.17/outbox.cif.g08.bks.cpg/sg2_42_cif.got.tgz:83498.got - 2010.06.03 11:33:40.
