data_PCOD9110978
_publ_section_title
;
Structure prediction by ZEFSAII (Michael W. Deem and Ramdas Pophale) SiO2 
 PCOD9110978
Probable space group: P -1
;
_chemical_formula_sum "Si O2"
_cell_formula_units_Z 16
_cell_length_a 20.910507
_cell_length_b 10.798265
_cell_length_c 11.657292
_cell_angle_alpha 34.961547
_cell_angle_beta 36.001700
_cell_angle_gamma 23.533547
_cell_volume 582.832815
_symmetry_space_group_name_H-M "P -1"
_symmetry_group_IT_number 2
_symmetry_cell_setting 'triclinic'
loop_
_space_group_symop_operation_xyz
x,y,z
-x,-y,-z
loop_
_atom_site_type_symbol
_atom_site_label
_atom_site_fract_x
_atom_site_fract_y
_atom_site_fract_z
Si Si1 0.650130 0.302040 0.263350
Si Si2 0.012668 0.442463 0.161889
Si Si3 0.480159 0.270129 0.073322
Si Si4 0.440732 0.302515 0.694530
Si Si5 0.331471 0.156165 0.677573
Si Si6 0.876277 0.379717 0.680897
Si Si7 0.157734 0.821033 0.548725
Si Si8 0.979001 0.365126 0.780253
O O1 0.605276 0.150410 0.510915
O O2 0.580444 0.594611 0.223516
O O3 0.846077 0.018131 0.184005
O O4 0.558337 0.469391 0.148570
O O5 0.817793 0.718997 0.273344
O O6 0.086521 0.512085 0.088148
O O7 0.111016 0.076624 0.330546
O O8 0.000000 0.500000 0.000000
O O9 0.302910 0.433175 0.241350
O O10 0.561030 0.948095 0.132321
O O11 0.602953 0.114494 0.119140
O O12 0.301204 0.646789 0.565989
O O13 0.232739 0.503123 0.616086
O O14 0.500000 0.000000 0.500000
O O15 0.975319 0.454519 0.453085
O O16 0.869878 0.420410 0.797667
O O17 0.995627 0.036655 0.698888
#
# Coordination Sequence:
#
# PCOD9110978 Si02
#       8
#     2   2   2   2   2   2   2   2
#     4  11  22  38  66 100 131 181 215 281 354 407
#     4  11  26  44  66 101 138 179 236 283 330 413
#     4  11  24  41  68 100 136 176 233 286 336 417
#     4  10  22  41  62  97 141 168 224 277 357 408
#     4  11  25  46  69  96 136 190 234 277 341 413
#     4  10  20  42  68 101 130 174 223 284 354 404
#     4  10  22  42  73  91 132 182 221 287 350 403
#     4  10  21  40  67  95 136 178 221 278 348 408
#
# _framework density 27.452127999999998
#
# number of rings (size 3 to 8) (size 9 to 14) (size 15 to 20)
#    0.000    1.500    2.500    2.250    3.500    2.500 
#    4.500    1.250    0.000    0.000    0.000    0.000 
#    0.000    0.000    0.000    0.000    0.000    0.000 
#
# Total GULP energy -89527.598872 kJ/mol
# GULP energy per Si atom -5595.474930 kJ/mol
# Density = 2.738965 g / cm^3
# Si number density = 27.452128 Si / 1000 Ang^3
#
#
#
# Elastic Constant Matrix: (Units=GPa)
#
#
# Indices 1 2 3 4 5 6 
#
# 1 79.7178 12.5348 -0.1010 3.2102 28.4327 -6.1893
# 2 12.5348 126.9627 24.7032 3.3982 -6.8501 -10.2453
# 3 -0.1010 24.7032 95.7589 -12.8693 7.7342 5.1906
# 4 3.2102 3.3982 -12.8693 49.5668 -16.3140 5.9401
# 5 28.4327 -6.8501 7.7342 -16.3140 36.1633 -1.5064
# 6 -6.1893 -10.2453 5.1906 5.9401 -1.5064 52.9527
#
#
#
# Elastic Compliance Matrix: (Units=1/GPa)
#
#
# Indices 1 2 3 4 5 6 
#
# 1 0.020913 -0.003070 0.001324 -0.007880 -0.020778 0.002014
# 2 -0.003070 0.009133 -0.002822 0.000249 0.004934 0.001797
# 3 0.001324 -0.002822 0.011848 0.002389 -0.003111 -0.001909
# 4 -0.007880 0.000249 0.002389 0.027677 0.018063 -0.003698
# 5 -0.020778 0.004934 -0.003111 0.018063 0.053668 -0.001669
# 6 0.002014 0.001797 -0.001909 -0.003698 -0.001669 0.020022
#
#
# Mechanical properties :
#
#
# Convention : Reuss Voigt Hill
#
# Bulk Modulus (GPa) = 30.52616 41.85705 36.19161
# Shear Modulus (GPa) = 30.61527 45.42337 38.01932
#
# Velocity S-wave (km/s) = 3.34312 4.07214 3.72550
# Velocity P-wave (km/s) = 5.10351 6.11475 5.63187
#
# Compressibility (1/GPa) = 0.03275878
#
# Stress axis : x y z
#
# Youngs Moduli (GPa) = 47.81642 109.49212 84.40212
#
# Poissons Ratio (x) = 0.33614 -0.11175
# Poissons Ratio (y) = 0.14680 0.23817
# Poissons Ratio (z) = -0.06331 0.30897
#
# Static dielectric constant tensor:
#      x y z
#    x 2.164790 0.028160 0.009510 
#    y 0.028160 2.107220 0.021420 
#    z 0.009510 0.021420 2.275470 
# 
# From -- ./inp_files/402212.got.cif
#   From: 2010.05.17/outbox.cif.g08.bks.cpg/sg2_202_cif.got.tgz:402212.got - 2010.06.03 11:33:40.
