data_PCOD9110254
_publ_section_title
;
Structure prediction by ZEFSAII (Michael W. Deem and Ramdas Pophale) SiO2 
 PCOD9110254
Probable space group: P -1
;
_chemical_formula_sum "Si O2"
_cell_formula_units_Z 16
_cell_length_a 9.582354
_cell_length_b 7.179192
_cell_length_c 12.029484
_cell_angle_alpha 92.065205
_cell_angle_beta 130.524354
_cell_angle_gamma 90.506041
_cell_volume 628.070941
_symmetry_space_group_name_H-M "P -1"
_symmetry_group_IT_number 2
_symmetry_cell_setting 'triclinic'
loop_
_space_group_symop_operation_xyz
x,y,z
-x,-y,-z
loop_
_atom_site_type_symbol
_atom_site_label
_atom_site_fract_x
_atom_site_fract_y
_atom_site_fract_z
Si Si1 0.932859 0.634244 0.672002
Si Si2 0.230465 0.999358 0.427522
Si Si3 0.100953 0.287524 0.084662
Si Si4 0.662828 0.258821 0.157232
Si Si5 0.336661 0.486330 0.039210
Si Si6 0.090547 0.264805 0.724407
Si Si7 0.268126 0.897449 0.206279
Si Si8 0.372957 0.084911 0.725953
O O1 0.773274 0.775220 0.569286
O O2 0.952467 0.654164 0.816939
O O3 0.120668 0.707123 0.710768
O O4 0.933661 0.417150 0.636607
O O5 0.302224 0.952468 0.584596
O O6 0.318144 0.910936 0.362560
O O7 0.018699 0.925233 0.304051
O O8 0.229737 0.110280 0.156402
O O9 0.215641 0.451094 0.085096
O O10 0.923458 0.211305 0.922290
O O11 0.642278 0.325932 0.019847
O O12 0.603754 0.052373 0.160685
O O13 0.534613 0.401589 0.156823
O O14 0.227740 0.345154 0.891922
O O15 0.215243 0.222621 0.682325
O O16 0.438933 0.827463 0.224474
#
# Coordination Sequence:
#
# PCOD9110254 Si02
#       8
#     2   2   2   2   2   2   2   2
#     4  10  24  42  67 102 134 172 223 273 330 412
#     4  11  23  46  67  95 133 182 228 271 326 390
#     4  10  20  41  71  96 133 176 217 274 341 394
#     4  10  22  38  63  99 132 168 211 276 335 394
#     4  10  21  42  64  98 133 168 216 275 335 395
#     4  11  24  41  66 101 130 176 222 272 338 394
#     4  10  22  40  69 102 126 177 226 269 336 400
#     4  12  24  41  68  97 136 178 221 277 328 390
#
# _framework density 25.474827999999999
#
# number of rings (size 3 to 8) (size 9 to 14) (size 15 to 20)
#    0.000    1.500    3.750    0.750    1.750    3.000 
#    2.250    0.000    0.000    3.750    0.000    0.000 
#    0.000    0.000    0.000    0.000    0.000    0.000 
#
# Total GULP energy -89462.945912 kJ/mol
# GULP energy per Si atom -5591.434120 kJ/mol
# Density = 2.541685 g / cm^3
# Si number density = 25.474828 Si / 1000 Ang^3
#
#
#
# Elastic Constant Matrix: (Units=GPa)
#
#
# Indices 1 2 3 4 5 6 
#
# 1 142.4240 22.2925 32.1032 -3.5234 -20.9408 7.3311
# 2 22.2925 102.0101 14.2911 -15.4950 -10.5878 1.0059
# 3 32.1032 14.2911 88.5119 7.8376 -23.3214 1.0119
# 4 -3.5234 -15.4950 7.8376 24.3495 -4.9358 -1.6750
# 5 -20.9408 -10.5878 -23.3214 -4.9358 32.5396 1.2406
# 6 7.3311 1.0059 1.0119 -1.6750 1.2406 44.6246
#
#
#
# Elastic Compliance Matrix: (Units=1/GPa)
#
#
# Indices 1 2 3 4 5 6 
#
# 1 0.008306 -0.000792 -0.001992 0.002063 0.004024 -0.001336
# 2 -0.000792 0.011866 -0.001440 0.008643 0.003626 0.000119
# 3 -0.001992 -0.001440 0.014806 -0.004330 0.008218 -0.000367
# 4 0.002063 0.008643 -0.004330 0.050084 0.008588 0.001206
# 5 0.004024 0.003626 0.008218 0.008588 0.041761 -0.001768
# 6 -0.001336 0.000119 -0.000367 0.001206 -0.001768 0.022729
#
#
# Mechanical properties :
#
#
# Convention : Reuss Voigt Hill
#
# Bulk Modulus (GPa) = 37.69348 52.25774 44.97561
# Shear Modulus (GPa) = 29.96851 37.92004 33.94428
#
# Velocity S-wave (km/s) = 3.43359 3.86233 3.65425
# Velocity P-wave (km/s) = 5.52701 6.35989 5.95802
#
# Compressibility (1/GPa) = 0.02652979
#
# Stress axis : x y z
#
# Youngs Moduli (GPa) = 120.40079 84.27653 67.54114
#
# Poissons Ratio (x) = 0.06674 0.13453
# Poissons Ratio (y) = 0.09534 0.09726
# Poissons Ratio (z) = 0.23981 0.12136
#
# Static dielectric constant tensor:
#      x y z
#    x 1.994890 -0.012110 0.022620 
#    y -0.012110 2.050520 -0.017100 
#    z 0.022620 -0.017100 2.019950 
# 
# From -- ./inp_files/382427.got.cif
#   From: 2010.05.17/outbox.cif.g08.bks.cpg/sg2_192_cif.got.tgz:382427.got - 2010.06.03 11:33:40.
