data_PCOD9110260
_publ_section_title
;
Structure prediction by ZEFSAII (Michael W. Deem and Ramdas Pophale) SiO2 
 PCOD9110260
Probable space group: P -1
;
_chemical_formula_sum "Si O2"
_cell_formula_units_Z 14
_cell_length_a 29.720611
_cell_length_b 8.712246
_cell_length_c 29.226175
_cell_angle_alpha 146.668599
_cell_angle_beta 10.126120
_cell_angle_gamma 147.695072
_cell_volume 710.574869
_symmetry_space_group_name_H-M "P -1"
_symmetry_group_IT_number 2
_symmetry_cell_setting 'triclinic'
loop_
_space_group_symop_operation_xyz
x,y,z
-x,-y,-z
loop_
_atom_site_type_symbol
_atom_site_label
_atom_site_fract_x
_atom_site_fract_y
_atom_site_fract_z
Si Si1 0.945713 0.821205 0.557124
Si Si2 0.085574 0.892173 0.138037
Si Si3 0.781173 0.325278 0.141849
Si Si4 0.481052 0.169486 0.490521
Si Si5 0.534950 0.186584 0.904473
Si Si6 0.637727 0.156697 0.692767
Si Si7 0.872736 0.262975 0.203734
O O1 0.790320 0.491389 0.620985
O O2 0.215586 0.808340 0.310730
O O3 0.739559 0.938865 0.825354
O O4 0.000000 0.000000 0.500000
O O5 0.058325 0.569898 0.104498
O O6 0.121837 0.863075 0.040151
O O7 0.822647 0.986457 0.438671
O O8 0.347458 0.099933 0.947673
O O9 0.566611 0.148964 0.347636
O O10 0.672827 0.578207 0.290257
O O11 0.000000 0.500000 0.000000
O O12 0.714499 0.284350 0.321144
O O13 0.326011 0.862702 0.587917
O O14 0.597224 0.055786 0.761148
O O15 0.500000 0.500000 0.000000
O O16 0.000000 0.000000 0.000000
#
# Coordination Sequence:
#
# PCOD9110260 Si02
#       7
#     2   2   2   2   2   2   2
#     4  11  22  42  75 101 130 169 213 259 308 398
#     4  12  24  39  64  90 133 164 213 283 321 365
#     4  11  21  38  60  86 115 175 217 265 319 392
#     4  10  21  36  61  82 115 151 241 257 312 375
#     4  10  20  41  71  98 129 174 215 245 304 413
#     4  11  24  42  63  98 128 169 210 260 334 381
#     4  11  21  38  60  87 112 168 221 272 304 381
#
# _framework density 19.702356999999999
#
# number of rings (size 3 to 8) (size 9 to 14) (size 15 to 20)
#    0.000    1.143    2.857    5.571    4.000    0.000 
#    0.000    4.286    0.000    0.000    0.000    0.000 
#    0.000    0.000    0.000    0.000    0.000    0.000 
#
# Total GULP energy -78101.039026 kJ/mol
# GULP energy per Si atom -5578.645645 kJ/mol
# Density = 1.965751 g / cm^3
# Si number density = 19.702357 Si / 1000 Ang^3
#
#
#
# Elastic Constant Matrix: (Units=GPa)
#
#
# Indices 1 2 3 4 5 6 
#
# 1 121.9638 21.1194 43.7871 -1.5836 14.8743 -14.8504
# 2 21.1194 42.7311 4.8889 -6.9130 8.5239 -8.7645
# 3 43.7871 4.8889 103.9135 2.7071 2.5558 -5.7958
# 4 -1.5836 -6.9130 2.7071 29.9930 0.7900 4.8283
# 5 14.8743 8.5239 2.5558 0.7900 62.1408 -2.3335
# 6 -14.8504 -8.7645 -5.7958 4.8283 -2.3335 28.2570
#
#
#
# Elastic Compliance Matrix: (Units=1/GPa)
#
#
# Indices 1 2 3 4 5 6 
#
# 1 0.011052 -0.003954 -0.004211 -0.000489 -0.001786 0.003654
# 2 -0.003954 0.027837 0.000594 0.005335 -0.002756 0.005539
# 3 -0.004211 0.000594 0.011421 -0.001220 0.000493 0.000563
# 4 -0.000489 0.005335 -0.001220 0.035494 -0.001204 -0.005017
# 5 -0.001786 -0.002756 0.000493 -0.001204 0.016890 -0.000092
# 6 0.003654 0.005539 0.000563 -0.005017 -0.000092 0.039993
#
#
# Mechanical properties :
#
#
# Convention : Reuss Voigt Hill
#
# Bulk Modulus (GPa) = 28.43371 45.35547 36.89459
# Shear Modulus (GPa) = 29.48967 37.33234 33.41101
#
# Velocity S-wave (km/s) = 3.87299 4.35767 4.12246
# Velocity P-wave (km/s) = 5.87052 6.95625 6.43632
#
# Compressibility (1/GPa) = 0.03516953
#
# Stress axis : x y z
#
# Youngs Moduli (GPa) = 90.48185 35.92309 87.56001
#
# Poissons Ratio (x) = 0.14203 0.36868
# Poissons Ratio (y) = 0.35774 -0.05202
# Poissons Ratio (z) = 0.38098 -0.02134
#
# Static dielectric constant tensor:
#      x y z
#    x 1.706790 0.004620 0.052890 
#    y 0.004620 1.712140 -0.027670 
#    z 0.052890 -0.027670 1.768310 
# 
# From -- ./inp_files/37890.got.cif
#   From: 2010.05.17/outbox.cif.g08.bks.cpg/sg2_19_cif.got.tgz:37890.got - 2010.06.03 11:33:40.
