data_PCOD9110846
_publ_section_title
;
Structure prediction by ZEFSAII (Michael W. Deem and Ramdas Pophale) SiO2 
 PCOD9110846
Probable space group: P -1
;
_chemical_formula_sum "Si O2"
_cell_formula_units_Z 14
_cell_length_a 7.772312
_cell_length_b 12.370969
_cell_length_c 15.179554
_cell_angle_alpha 28.561998
_cell_angle_beta 54.726485
_cell_angle_gamma 48.329127
_cell_volume 521.165956
_symmetry_space_group_name_H-M "P -1"
_symmetry_group_IT_number 2
_symmetry_cell_setting 'triclinic'
loop_
_space_group_symop_operation_xyz
x,y,z
-x,-y,-z
loop_
_atom_site_type_symbol
_atom_site_label
_atom_site_fract_x
_atom_site_fract_y
_atom_site_fract_z
Si Si1 0.835581 0.045319 0.890622
Si Si2 0.548660 0.247749 0.299821
Si Si3 0.030735 0.499828 0.250692
Si Si4 0.132335 0.283221 0.182655
Si Si5 0.669168 0.040331 0.233201
Si Si6 0.205254 0.808484 0.400145
Si Si7 0.527870 0.590215 0.615636
O O1 0.771392 0.085612 0.776834
O O2 0.668798 0.302047 0.797364
O O3 0.098224 0.015280 0.847835
O O4 0.847752 0.781044 0.105458
O O5 0.293941 0.463581 0.211027
O O6 0.687000 0.189902 0.209384
O O7 0.636134 0.302318 0.327843
O O8 0.500000 0.000000 0.500000
O O9 0.042796 0.376676 0.239635
O O10 0.960142 0.335309 0.456784
O O11 0.411975 0.203786 0.156310
O O12 0.110365 0.038893 0.329427
O O13 0.000000 0.500000 0.000000
O O14 0.661260 0.772470 0.443483
O O15 0.418459 0.623753 0.526917
#
# Coordination Sequence:
#
# PCOD9110846 Si02
#       7
#     2   2   2   2   2   2   2
#     4  12  24  42  66  98 136 170 222 268 321 402
#     4   9  19  41  64  92 130 163 224 266 321 389
#     4  11  24  40  64  98 132 171 216 268 337 379
#     4  10  20  42  66  97 129 166 221 267 328 385
#     4   9  21  39  67  96 127 172 216 273 324 378
#     4  11  23  42  66  92 135 176 213 275 323 386
#     4  10  22  42  67  95 130 181 218 264 331 385
#
# _framework density 26.862843000000002
#
# number of rings (size 3 to 8) (size 9 to 14) (size 15 to 20)
#    0.000    1.714    1.429    3.857    0.000    4.571 
#    5.143    0.000    0.000    0.000    0.000    0.000 
#    0.000    0.000    0.000    0.000    0.000    0.000 
#
# Total GULP energy -78425.631699 kJ/mol
# GULP energy per Si atom -5601.830836 kJ/mol
# Density = 2.680170 g / cm^3
# Si number density = 26.862843 Si / 1000 Ang^3
#
#
#
# Elastic Constant Matrix: (Units=GPa)
#
#
# Indices 1 2 3 4 5 6 
#
# 1 118.7277 32.3284 26.0692 -10.4020 15.9932 12.9433
# 2 32.3284 95.5121 22.2436 -34.7993 6.7229 20.9443
# 3 26.0692 22.2436 124.8916 -38.8286 15.1938 0.3504
# 4 -10.4020 -34.7993 -38.8286 48.6745 -5.7546 8.8936
# 5 15.9932 6.7229 15.1938 -5.7546 40.4781 1.1905
# 6 12.9433 20.9443 0.3504 8.8936 1.1905 33.0263
#
#
#
# Elastic Compliance Matrix: (Units=1/GPa)
#
#
# Indices 1 2 3 4 5 6 
#
# 1 0.010041 -0.002934 -0.001605 -0.001297 -0.003015 -0.001599
# 2 -0.002934 0.022965 0.003469 0.022071 -0.000249 -0.019385
# 3 -0.001605 0.003469 0.011825 0.012166 -0.002507 -0.004882
# 4 -0.001297 0.022071 0.012166 0.050776 0.000302 -0.027302
# 5 -0.003015 -0.000249 -0.002507 0.000302 0.026912 0.000315
# 6 -0.001599 -0.019385 -0.004882 -0.027302 0.000315 0.050592
#
#
# Mechanical properties :
#
#
# Convention : Reuss Voigt Hill
#
# Bulk Modulus (GPa) = 23.42451 55.60156 39.51304
# Shear Modulus (GPa) = 26.38759 41.66844 34.02802
#
# Velocity S-wave (km/s) = 3.13758 3.94274 3.56298
# Velocity P-wave (km/s) = 4.67599 6.43974 5.62739
#
# Compressibility (1/GPa) = 0.04269032
#
# Stress axis : x y z
#
# Youngs Moduli (GPa) = 99.59250 43.54411 84.56472
#
# Poissons Ratio (x) = 0.12777 0.13574
# Poissons Ratio (y) = 0.29224 -0.29335
# Poissons Ratio (z) = 0.15987 -0.15105
#
# Static dielectric constant tensor:
#      x y z
#    x 2.219760 -0.039260 0.039790 
#    y -0.039260 2.066150 0.031930 
#    z 0.039790 0.031930 2.093070 
# 
# From -- ./inp_files/281366.got.cif
#   From: 2010.05.17/outbox.cif.g08.bks.cpg/sg2_141_cif.got.tgz:281366.got - 2010.06.03 11:33:40.
