data_PCOD9110106
_publ_section_title
;
Structure prediction by ZEFSAII (Michael W. Deem and Ramdas Pophale) SiO2 
 PCOD9110106
Probable space group: P -1
;
_chemical_formula_sum "Si O2"
_cell_formula_units_Z 16
_cell_length_a 15.615385
_cell_length_b 11.265753
_cell_length_c 7.454498
_cell_angle_alpha 39.853622
_cell_angle_beta 79.995825
_cell_angle_gamma 57.940272
_cell_volume 642.859332
_symmetry_space_group_name_H-M "P -1"
_symmetry_group_IT_number 2
_symmetry_cell_setting 'triclinic'
loop_
_space_group_symop_operation_xyz
x,y,z
-x,-y,-z
loop_
_atom_site_type_symbol
_atom_site_label
_atom_site_fract_x
_atom_site_fract_y
_atom_site_fract_z
Si Si1 0.272646 0.041782 0.947684
Si Si2 0.345903 0.592468 0.302656
Si Si3 0.054885 0.459115 0.717433
Si Si4 0.066247 0.090040 0.306390
Si Si5 0.752273 0.010776 0.370408
Si Si6 0.843328 0.300679 0.534283
Si Si7 0.562764 0.862538 0.354419
Si Si8 0.664042 0.735884 0.846451
O O1 0.186636 0.223237 0.918201
O O2 0.359440 0.086857 0.820811
O O3 0.204273 0.103235 0.712720
O O4 0.340100 0.756655 0.269984
O O5 0.229817 0.635544 0.333938
O O6 0.439136 0.314036 0.566523
O O7 0.342000 0.719802 0.975588
O O8 0.063949 0.663012 0.524836
O O9 0.000000 0.500000 0.500000
O O10 0.006289 0.368285 0.974399
O O11 0.162054 0.003488 0.515536
O O12 0.108130 0.958771 0.250032
O O13 0.000000 0.000000 0.500000
O O14 0.707104 0.886114 0.620582
O O15 0.757459 0.487210 0.196118
O O16 0.622902 0.723778 0.680657
O O17 0.443838 0.102526 0.175192
#
# Coordination Sequence:
#
# PCOD9110106 Si02
#       8
#     2   2   2   2   2   2   2   2
#     4   9  21  43  64  94 130 167 219 262 317 386
#     4  10  21  39  68  88 130 176 210 258 324 377
#     4  12  27  44  68  94 130 171 218 272 327 393
#     4  12  27  44  66  98 128 167 224 270 326 391
#     4   9  21  42  64  90 133 169 209 272 314 381
#     4  12  25  44  67  95 131 175 210 275 326 380
#     4  10  20  41  69  97 130 178 216 261 322 386
#     4  10  22  41  67  98 136 169 218 267 324 380
#
# _framework density 24.888805999999999
#
# number of rings (size 3 to 8) (size 9 to 14) (size 15 to 20)
#    0.750    0.750    3.750    0.750    3.500    4.000 
#    2.250    0.625    0.000    0.000    0.000    0.000 
#    0.000    0.000    0.000    0.000    0.000    0.000 
#
# Total GULP energy -89420.052584 kJ/mol
# GULP energy per Si atom -5588.753286 kJ/mol
# Density = 2.483216 g / cm^3
# Si number density = 24.888806 Si / 1000 Ang^3
#
#
#
# Elastic Constant Matrix: (Units=GPa)
#
#
# Indices 1 2 3 4 5 6 
#
# 1 58.2836 20.5717 17.5414 -2.5894 -11.5706 13.4938
# 2 20.5717 76.8611 12.7918 -14.1365 -9.5316 9.3337
# 3 17.5414 12.7918 93.9549 5.1130 -20.7659 11.4572
# 4 -2.5894 -14.1365 5.1130 41.3957 10.3561 -5.4393
# 5 -11.5706 -9.5316 -20.7659 10.3561 42.6913 9.4241
# 6 13.4938 9.3337 11.4572 -5.4393 9.4241 37.5585
#
#
#
# Elastic Compliance Matrix: (Units=1/GPa)
#
#
# Indices 1 2 3 4 5 6 
#
# 1 0.022366 -0.004416 -0.000634 -0.003107 0.007526 -0.009083
# 2 -0.004416 0.015550 -0.001188 0.004778 0.000855 -0.001438
# 3 -0.000634 -0.001188 0.014103 -0.005407 0.009254 -0.006884
# 4 -0.003107 0.004778 -0.005407 0.030372 -0.011743 0.008923
# 5 0.007526 0.000855 0.009254 -0.011743 0.036679 -0.016643
# 6 -0.009083 -0.001438 -0.006884 0.008923 -0.016643 0.037814
#
#
# Mechanical properties :
#
#
# Convention : Reuss Voigt Hill
#
# Bulk Modulus (GPa) = 25.28997 36.76771 31.02884
# Shear Modulus (GPa) = 27.39118 36.20876 31.79997
#
# Velocity S-wave (km/s) = 3.32104 3.81835 3.57835
# Velocity P-wave (km/s) = 4.98889 5.85189 5.43754
#
# Compressibility (1/GPa) = 0.03954136
#
# Stress axis : x y z
#
# Youngs Moduli (GPa) = 44.71077 64.31071 70.90911
#
# Poissons Ratio (x) = 0.28398 0.04499
# Poissons Ratio (y) = 0.19743 0.08425
# Poissons Ratio (z) = 0.02837 0.07641
#
# Static dielectric constant tensor:
#      x y z
#    x 1.979690 -0.050660 0.010430 
#    y -0.050660 2.019350 -0.003640 
#    z 0.010430 -0.003640 1.973210 
# 
# From -- ./inp_files/306073.got.cif
#   From: 2010.05.17/outbox.cif.g08.bks.cpg/sg2_154_cif.got.tgz:306073.got - 2010.06.03 11:33:40.
