data_PCOD9110940
_publ_section_title
;
Structure prediction by ZEFSAII (Michael W. Deem and Ramdas Pophale) SiO2 
 PCOD9110940
Probable space group: P -1
;
_chemical_formula_sum "Si O2"
_cell_formula_units_Z 12
_cell_length_a 6.557848
_cell_length_b 11.525530
_cell_length_c 7.072934
_cell_angle_alpha 80.972342
_cell_angle_beta 117.986546
_cell_angle_gamma 98.097716
_cell_volume 464.839945
_symmetry_space_group_name_H-M "P -1"
_symmetry_group_IT_number 2
_symmetry_cell_setting 'triclinic'
loop_
_space_group_symop_operation_xyz
x,y,z
-x,-y,-z
loop_
_atom_site_type_symbol
_atom_site_label
_atom_site_fract_x
_atom_site_fract_y
_atom_site_fract_z
Si Si1 0.643148 0.622972 0.071252
Si Si2 0.383907 0.334772 0.498962
Si Si3 0.368715 0.835595 0.783172
Si Si4 0.100732 0.131277 0.557458
Si Si5 0.241402 0.003806 0.003115
Si Si6 0.119910 0.547825 0.346084
O O1 0.623357 0.647170 0.280811
O O2 0.912849 0.611788 0.143641
O O3 0.500000 0.500000 0.000000
O O4 0.515834 0.723651 0.884514
O O5 0.218170 0.431704 0.323253
O O6 0.646399 0.368585 0.547963
O O7 0.270714 0.202180 0.467262
O O8 0.140127 0.807165 0.565732
O O9 0.277211 0.883312 0.935838
O O10 0.543530 0.950651 0.783377
O O11 0.223115 0.108729 0.813913
O O12 0.000000 0.000000 0.500000
O O13 0.000000 0.000000 0.000000
O O14 0.000000 0.500000 0.500000
#
# Coordination Sequence:
#
# PCOD9110940 Si02
#       6
#     2   2   2   2   2   2
#     4  11  22  39  64  99 136 179 227 282 345 411
#     4  10  20  42  67  94 138 181 227 292 333 410
#     4  10  22  42  65  99 138 172 233 281 335 416
#     4  10  21  42  70 100 135 179 228 284 344 407
#     4  10  22  43  68  98 136 181 228 286 344 398
#     4   9  21  40  66  94 131 180 226 276 350 403
#
# _framework density 25.815337
#
# number of rings (size 3 to 8) (size 9 to 14) (size 15 to 20)
#    0.000    2.000    1.667    1.000    0.000    2.667 
#    0.000   18.333    0.000    0.000    0.000    0.000 
#    0.000    0.000    0.000    0.000    0.000    0.000 
#
# Total GULP energy -67078.504289 kJ/mol
# GULP energy per Si atom -5589.875357 kJ/mol
# Density = 2.575658 g / cm^3
# Si number density = 25.815337 Si / 1000 Ang^3
#
#
#
# Elastic Constant Matrix: (Units=GPa)
#
#
# Indices 1 2 3 4 5 6 
#
# 1 185.3917 67.2241 42.4257 -11.4880 48.1343 18.0884
# 2 67.2241 150.6807 20.2414 -12.4077 18.2314 9.7238
# 3 42.4257 20.2414 99.3762 -11.7911 32.0584 -9.2294
# 4 -11.4880 -12.4077 -11.7911 42.2763 -13.1200 10.3906
# 5 48.1343 18.2314 32.0584 -13.1200 50.4478 -2.1961
# 6 18.0884 9.7238 -9.2294 10.3906 -2.1961 49.9999
#
#
#
# Elastic Compliance Matrix: (Units=1/GPa)
#
#
# Indices 1 2 3 4 5 6 
#
# 1 0.008705 -0.002706 -0.001323 -0.000089 -0.006646 -0.003140
# 2 -0.002706 0.008084 -0.000503 0.001889 0.000425 -0.001060
# 3 -0.001323 -0.000503 0.013191 0.000445 -0.006708 0.002624
# 4 -0.000089 0.001889 0.000445 0.027591 0.006045 -0.005721
# 5 -0.006646 0.000425 -0.006708 0.006045 0.031899 0.001228
# 6 -0.003140 -0.001060 0.002624 -0.005721 0.001228 0.023070
#
#
# Mechanical properties :
#
#
# Convention : Reuss Voigt Hill
#
# Bulk Modulus (GPa) = 47.81189 77.24789 62.52989
# Shear Modulus (GPa) = 38.88804 48.91529 43.90167
#
# Velocity S-wave (km/s) = 3.88544 4.35767 4.12831
# Velocity P-wave (km/s) = 6.22011 7.43689 6.85555
#
# Compressibility (1/GPa) = 0.02091530
#
# Stress axis : x y z
#
# Youngs Moduli (GPa) = 114.88174 123.70233 75.81163
#
# Poissons Ratio (x) = 0.33476 0.10030
# Poissons Ratio (y) = 0.31089 0.03811
# Poissons Ratio (z) = 0.15199 0.06219
#
# Static dielectric constant tensor:
#      x y z
#    x 2.037400 -0.048410 0.002270 
#    y -0.048410 2.090820 0.025680 
#    z 0.002270 0.025680 2.160910 
# 
# From -- ./inp_files/94708.got.cif
#   From: 2010.05.17/outbox.cif.g08.bks.cpg/sg2_48_cif.got.tgz:94708.got - 2010.06.03 11:33:40.
