data_PCOD9110601
_publ_section_title
;
Structure prediction by ZEFSAII (Michael W. Deem and Ramdas Pophale) SiO2 
 PCOD9110601
Probable space group: P -1
;
_chemical_formula_sum "Si O2"
_cell_formula_units_Z 14
_cell_length_a 9.273125
_cell_length_b 15.991675
_cell_length_c 8.087527
_cell_angle_alpha 139.160165
_cell_angle_beta 47.402732
_cell_angle_gamma 121.167349
_cell_volume 577.303481
_symmetry_space_group_name_H-M "P -1"
_symmetry_group_IT_number 2
_symmetry_cell_setting 'triclinic'
loop_
_space_group_symop_operation_xyz
x,y,z
-x,-y,-z
loop_
_atom_site_type_symbol
_atom_site_label
_atom_site_fract_x
_atom_site_fract_y
_atom_site_fract_z
Si Si1 0.501581 0.264751 0.302515
Si Si2 0.805094 0.056256 0.655823
Si Si3 0.438718 0.372600 0.166103
Si Si4 0.323673 0.662200 0.381731
Si Si5 0.021871 0.474125 0.681904
Si Si6 0.042560 0.287681 0.698175
Si Si7 0.539966 0.878874 0.397982
O O1 0.535042 0.350613 0.238096
O O2 0.558209 0.330557 0.529364
O O3 0.267473 0.243111 0.447191
O O4 0.637365 0.139603 0.001132
O O5 0.896619 0.166600 0.630578
O O6 0.691999 0.931957 0.491019
O O7 0.000000 0.000000 0.500000
O O8 0.248954 0.456417 0.445631
O O9 0.576822 0.409098 0.959305
O O10 0.370075 0.230522 0.950006
O O11 0.114251 0.594192 0.452026
O O12 0.347871 0.809767 0.520715
O O13 0.991507 0.380899 0.725885
O O14 0.976321 0.619303 0.987475
O O15 0.500000 0.000000 0.500000
#
# Coordination Sequence:
#
# PCOD9110601 Si02
#       7
#     2   2   2   2   2   2   2
#     4  11  23  44  65  97 132 177 216 269 343 381
#     4  12  25  42  65  98 139 173 221 274 329 402
#     4   9  22  43  66  97 137 171 218 278 333 389
#     4  10  23  39  67  97 131 168 225 272 326 397
#     4  10  21  44  70  97 131 175 227 273 334 395
#     4  10  24  43  68  99 132 176 227 272 330 403
#     4  10  20  42  64  92 136 170 217 272 327 396
#
# _framework density 24.250677
#
# number of rings (size 3 to 8) (size 9 to 14) (size 15 to 20)
#    0.857    0.857    1.429    2.571    2.000    4.000 
#    0.000    7.857    0.000    0.000    0.000    0.000 
#    0.000    0.000    0.000    0.000    0.000    0.000 
#
# Total GULP energy -78196.868883 kJ/mol
# GULP energy per Si atom -5585.490634 kJ/mol
# Density = 2.419548 g / cm^3
# Si number density = 24.250677 Si / 1000 Ang^3
#
#
#
# Elastic Constant Matrix: (Units=GPa)
#
#
# Indices 1 2 3 4 5 6 
#
# 1 135.3740 18.1468 52.1657 -2.7700 5.9610 11.5243
# 2 18.1468 115.0450 32.3116 17.3272 7.3059 12.7138
# 3 52.1657 32.3116 110.9584 0.2788 -31.1570 4.4276
# 4 -2.7700 17.3272 0.2788 40.2740 -3.6695 4.6041
# 5 5.9610 7.3059 -31.1570 -3.6695 30.5332 -1.8827
# 6 11.5243 12.7138 4.4276 4.6041 -1.8827 47.1250
#
#
#
# Elastic Compliance Matrix: (Units=1/GPa)
#
#
# Indices 1 2 3 4 5 6 
#
# 1 0.011564 0.002115 -0.009516 -0.000876 -0.012760 -0.002928
# 2 0.002115 0.012689 -0.008097 -0.006055 -0.012630 -0.003093
# 3 -0.009516 -0.008097 0.023825 0.004959 0.028885 0.002943
# 4 -0.000876 -0.006055 0.004959 0.028367 0.010029 -0.000989
# 5 -0.012760 -0.012630 0.028885 0.010029 0.069290 0.005602
# 6 -0.002928 -0.003093 0.002943 -0.000989 0.005602 0.022815
#
#
# Mechanical properties :
#
#
# Convention : Reuss Voigt Hill
#
# Bulk Modulus (GPa) = 58.54717 62.95841 60.75279
# Shear Modulus (GPa) = 24.36171 40.83666 32.59919
#
# Velocity S-wave (km/s) = 3.17295 4.10803 3.67039
# Velocity P-wave (km/s) = 6.13338 6.96557 6.56268
#
# Compressibility (1/GPa) = 0.01708025
#
# Stress axis : x y z
#
# Youngs Moduli (GPa) = 86.47636 78.81146 41.97229
#
# Poissons Ratio (x) = -0.16667 0.39943
# Poissons Ratio (y) = -0.18288 0.33985
# Poissons Ratio (z) = 0.82295 0.63813
#
# Static dielectric constant tensor:
#      x y z
#    x 2.109560 -0.029160 0.024900 
#    y -0.029160 1.997860 -0.043010 
#    z 0.024900 -0.043010 1.954370 
# 
# From -- ./inp_files/216083.got.cif
#   From: 2010.05.17/outbox.cif.g08.bks.cpg/sg2_109_cif.got.tgz:216083.got - 2010.06.03 11:33:40.
