data_PCOD9110353
_publ_section_title
;
Structure prediction by ZEFSAII (Michael W. Deem and Ramdas Pophale) SiO2 
 PCOD9110353
Probable space group: P -1
;
_chemical_formula_sum "Si O2"
_cell_formula_units_Z 14
_cell_length_a 9.691365
_cell_length_b 14.539192
_cell_length_c 8.968379
_cell_angle_alpha 88.037739
_cell_angle_beta 121.129669
_cell_angle_gamma 44.279214
_cell_volume 556.074525
_symmetry_space_group_name_H-M "P -1"
_symmetry_group_IT_number 2
_symmetry_cell_setting 'triclinic'
loop_
_space_group_symop_operation_xyz
x,y,z
-x,-y,-z
loop_
_atom_site_type_symbol
_atom_site_label
_atom_site_fract_x
_atom_site_fract_y
_atom_site_fract_z
Si Si1 0.222955 0.557272 0.999304
Si Si2 0.649511 0.148016 0.752862
Si Si3 0.271722 0.156074 0.530002
Si Si4 0.694454 0.985111 0.198808
Si Si5 0.248989 0.599989 0.540455
Si Si6 0.390677 0.321814 0.908277
Si Si7 0.767358 0.548881 0.690637
O O1 0.432676 0.533332 0.191358
O O2 0.445142 0.391937 0.017144
O O3 0.150312 0.520881 0.093128
O O4 0.916803 0.745232 0.734301
O O5 0.558466 0.085438 0.704504
O O6 0.537862 0.241752 0.526708
O O7 0.447874 0.293914 0.765602
O O8 0.000000 0.000000 0.000000
O O9 0.007025 0.318493 0.493587
O O10 0.356068 0.016039 0.654989
O O11 0.591774 0.136401 0.089345
O O12 0.059774 0.786067 0.383773
O O13 0.500000 0.000000 0.000000
O O14 0.280786 0.522813 0.419341
O O15 0.043170 0.466928 0.762716
#
# Coordination Sequence:
#
# PCOD9110353 Si02
#       7
#     2   2   2   2   2   2   2
#     4  12  26  42  74 110 143 183 244 289 358 419
#     4  12  26  44  74 107 139 186 248 290 355 428
#     4  10  22  45  71  99 144 184 235 292 350 415
#     4  10  20  41  77  98 133 193 233 282 358 409
#     4  10  23  45  74 100 143 190 239 283 357 424
#     4  12  23  47  75  99 145 188 236 295 355 414
#     4  12  24  46  75 102 143 194 238 288 350 437
#
# _framework density 25.176480999999999
#
# number of rings (size 3 to 8) (size 9 to 14) (size 15 to 20)
#    0.857    0.000    5.714    2.571    2.000    0.571 
#    2.571    0.714    0.000    0.000    0.000    0.000 
#    0.000    0.000    0.000    0.000    0.000    0.000 
#
# Total GULP energy -78330.142317 kJ/mol
# GULP energy per Si atom -5595.010165 kJ/mol
# Density = 2.511918 g / cm^3
# Si number density = 25.176481 Si / 1000 Ang^3
#
#
#
# Elastic Constant Matrix: (Units=GPa)
#
#
# Indices 1 2 3 4 5 6 
#
# 1 94.1198 3.2655 39.0379 -3.6820 -14.5354 -11.5179
# 2 3.2655 55.4475 11.9458 17.1405 -6.8823 0.9845
# 3 39.0379 11.9458 148.6386 -2.1778 -14.2695 -8.7487
# 4 -3.6820 17.1405 -2.1778 40.7419 2.5626 -0.1536
# 5 -14.5354 -6.8823 -14.2695 2.5626 57.0123 -4.2749
# 6 -11.5179 0.9845 -8.7487 -0.1536 -4.2749 30.1825
#
#
#
# Elastic Compliance Matrix: (Units=1/GPa)
#
#
# Indices 1 2 3 4 5 6 
#
# 1 0.012817 -0.000161 -0.002803 0.000914 0.002843 0.004491
# 2 -0.000161 0.021621 -0.001647 -0.009360 0.002507 -0.000936
# 3 -0.002803 -0.001647 0.007797 0.000792 0.001108 0.001405
# 4 0.000914 -0.009360 0.000792 0.028732 -0.001933 0.000756
# 5 0.002843 0.002507 0.001108 -0.001933 0.019234 0.004039
# 6 0.004491 -0.000936 0.001405 0.000756 0.004039 0.035859
#
#
# Mechanical properties :
#
#
# Convention : Reuss Voigt Hill
#
# Bulk Modulus (GPa) = 30.29002 45.18934 37.73968
# Shear Modulus (GPa) = 34.17972 41.85111 38.01541
#
# Velocity S-wave (km/s) = 3.68857 4.08157 3.89003
# Velocity P-wave (km/s) = 5.49526 6.34037 5.93288
#
# Compressibility (1/GPa) = 0.03301417
#
# Stress axis : x y z
#
# Youngs Moduli (GPa) = 78.02026 46.25217 128.25693
#
# Poissons Ratio (x) = 0.00742 0.35947
# Poissons Ratio (y) = 0.01252 0.21124
# Poissons Ratio (z) = 0.21867 0.07618
#
# Static dielectric constant tensor:
#      x y z
#    x 2.068090 -0.000750 -0.043800 
#    y -0.000750 2.006620 -0.024010 
#    z -0.043800 -0.024010 2.005880 
# 
# From -- ./inp_files/279547.got.cif
#   From: 2010.05.17/outbox.cif.g08.bks.cpg/sg2_140_cif.got.tgz:279547.got - 2010.06.03 11:33:40.
