data_PCOD9110062
_publ_section_title
;
Structure prediction by ZEFSAII (Michael W. Deem and Ramdas Pophale) SiO2 
 PCOD9110062
Probable space group: P -1
;
_chemical_formula_sum "Si O2"
_cell_formula_units_Z 16
_cell_length_a 9.015071
_cell_length_b 13.284669
_cell_length_c 14.365843
_cell_angle_alpha 141.645157
_cell_angle_beta 49.316884
_cell_angle_gamma 105.124998
_cell_volume 685.606355
_symmetry_space_group_name_H-M "P -1"
_symmetry_group_IT_number 2
_symmetry_cell_setting 'triclinic'
loop_
_space_group_symop_operation_xyz
x,y,z
-x,-y,-z
loop_
_atom_site_type_symbol
_atom_site_label
_atom_site_fract_x
_atom_site_fract_y
_atom_site_fract_z
Si Si1 0.449847 0.172811 0.773757
Si Si2 0.873858 0.234254 0.319064
Si Si3 0.231264 0.034292 0.341602
Si Si4 0.517168 0.412269 0.326966
Si Si5 0.269429 0.946210 0.605297
Si Si6 0.832935 0.284157 0.943245
Si Si7 0.766778 0.425433 0.864373
Si Si8 0.349313 0.924294 0.852050
O O1 0.538453 0.180455 0.640383
O O2 0.669518 0.080957 0.685135
O O3 0.373128 0.020616 0.693673
O O4 0.237004 0.387282 0.035215
O O5 0.728592 0.460806 0.529830
O O6 0.841865 0.160184 0.377604
O O7 0.752252 0.159106 0.242608
O O8 0.137295 0.137642 0.112639
O O9 0.415515 0.089401 0.278461
O O10 0.976251 0.225433 0.591981
O O11 0.242867 0.869088 0.154243
O O12 0.500000 0.500000 0.500000
O O13 0.607077 0.196127 0.159080
O O14 0.691152 0.416368 0.184507
O O15 0.093808 0.142460 0.765679
O O16 0.802472 0.391057 0.936319
O O17 0.500000 0.500000 0.000000
#
# Coordination Sequence:
#
# PCOD9110062 Si02
#       8
#     2   2   2   2   2   2   2   2
#     4  11  24  42  67 103 139 176 227 286 340 412
#     4  10  20  41  69  91 135 182 219 279 346 396
#     4  12  25  44  68 100 143 180 229 280 339 419
#     4  10  23  41  66  99 130 175 230 279 330 404
#     4  11  22  42  70 100 138 179 228 285 346 402
#     4  12  24  44  72  98 136 186 229 282 348 413
#     4  12  25  45  72 101 141 186 224 281 351 411
#     4  10  22  41  65  97 133 180 224 281 336 396
#
# _framework density 23.337005999999999
#
# number of rings (size 3 to 8) (size 9 to 14) (size 15 to 20)
#    0.000    1.000    5.000    1.875    0.000    4.000 
#    0.000    0.625    0.000    0.000    0.000    0.000 
#    0.000    0.000    0.000    0.000    0.000    0.000 
#
# Total GULP energy -89317.730628 kJ/mol
# GULP energy per Si atom -5582.358164 kJ/mol
# Density = 2.328389 g / cm^3
# Si number density = 23.337006 Si / 1000 Ang^3
#
#
#
# Elastic Constant Matrix: (Units=GPa)
#
#
# Indices 1 2 3 4 5 6 
#
# 1 68.8324 8.1771 21.2209 -0.7345 -12.5844 -5.4431
# 2 8.1771 55.0268 27.0254 -3.8938 -12.2601 -27.0756
# 3 21.2209 27.0254 98.5672 16.0699 -23.1271 -19.1580
# 4 -0.7345 -3.8938 16.0699 38.0859 -7.3474 -10.4503
# 5 -12.5844 -12.2601 -23.1271 -7.3474 39.7023 3.7312
# 6 -5.4431 -27.0756 -19.1580 -10.4503 3.7312 31.8326
#
#
#
# Elastic Compliance Matrix: (Units=1/GPa)
#
#
# Indices 1 2 3 4 5 6 
#
# 1 0.016300 0.001782 -0.002922 0.003437 0.004354 0.003162
# 2 0.001782 0.043843 -0.005374 0.019745 0.010909 0.039565
# 3 -0.002922 -0.005374 0.014502 -0.005452 0.004729 0.001313
# 4 0.003437 0.019745 -0.005452 0.039495 0.008874 0.026026
# 5 0.004354 0.010909 0.004729 0.008874 0.033216 0.011889
# 6 0.003162 0.039565 0.001313 0.026026 0.011889 0.073548
#
#
# Mechanical properties :
#
#
# Convention : Reuss Voigt Hill
#
# Bulk Modulus (GPa) = 16.22948 37.25259 26.74104
# Shear Modulus (GPa) = 19.64867 32.99102 26.31984
#
# Velocity S-wave (km/s) = 2.90479 3.76397 3.36194
# Velocity P-wave (km/s) = 4.26848 5.90656 5.15303
#
# Compressibility (1/GPa) = 0.06161627
#
# Stress axis : x y z
#
# Youngs Moduli (GPa) = 61.35000 22.80874 68.95763
#
# Poissons Ratio (x) = -0.04065 0.20150
# Poissons Ratio (y) = -0.10934 0.37059
# Poissons Ratio (z) = 0.17927 0.12258
#
# Static dielectric constant tensor:
#      x y z
#    x 1.969240 0.010150 0.077560 
#    y 0.010150 1.898940 0.011150 
#    z 0.077560 0.011150 1.931570 
# 
# From -- ./inp_files/505558.got.cif
#   From: 2010.05.17/outbox.cif.g08.bks.cpg/sg2_253_cif.got.tgz:505558.got - 2010.06.03 11:33:40.
