data_PCOD9110342
_publ_section_title
;
Structure prediction by ZEFSAII (Michael W. Deem and Ramdas Pophale) SiO2 
 PCOD9110342
Probable space group: P -1
;
_chemical_formula_sum "Si O2"
_cell_formula_units_Z 16
_cell_length_a 8.204473
_cell_length_b 9.559376
_cell_length_c 16.275750
_cell_angle_alpha 139.632524
_cell_angle_beta 52.006629
_cell_angle_gamma 112.730115
_cell_volume 642.974418
_symmetry_space_group_name_H-M "P -1"
_symmetry_group_IT_number 2
_symmetry_cell_setting 'triclinic'
loop_
_space_group_symop_operation_xyz
x,y,z
-x,-y,-z
loop_
_atom_site_type_symbol
_atom_site_label
_atom_site_fract_x
_atom_site_fract_y
_atom_site_fract_z
Si Si1 0.083557 0.533276 0.358880
Si Si2 0.388153 0.977813 0.728380
Si Si3 0.650037 0.267153 0.856432
Si Si4 0.328098 0.776034 0.823888
Si Si5 0.289530 0.607904 0.487881
Si Si6 0.789294 0.652032 0.165894
Si Si7 0.911649 0.624900 0.284057
Si Si8 0.476940 0.733237 0.930527
O O1 0.195441 0.665007 0.451788
O O2 0.955336 0.666589 0.384553
O O3 0.273505 0.350958 0.185110
O O4 0.912442 0.418361 0.407392
O O5 0.588649 0.094525 0.733440
O O6 0.234712 0.148252 0.798954
O O7 0.294939 0.933018 0.826260
O O8 0.420010 0.762296 0.566957
O O9 0.871889 0.334429 0.804479
O O10 0.500000 0.500000 0.000000
O O11 0.613076 0.164798 0.910619
O O12 0.551291 0.618889 0.668964
O O13 0.368826 0.858507 0.939901
O O14 0.150811 0.619249 0.808616
O O15 0.614260 0.496889 0.144474
O O16 0.765485 0.736499 0.305610
O O17 0.000000 0.500000 0.000000
#
# Coordination Sequence:
#
# PCOD9110342 Si02
#       8
#     2   2   2   2   2   2   2   2
#     4  10  20  41  74  93 133 177 224 273 350 390
#     4  12  24  43  71 101 133 183 229 279 339 401
#     4  12  22  42  69  94 145 177 220 279 342 400
#     4  10  24  44  73  98 137 174 234 280 339 397
#     4  10  23  46  68 101 138 174 220 299 337 385
#     4  11  22  42  67  94 141 178 219 275 340 396
#     4  11  21  41  68 100 129 187 215 274 347 403
#     4  10  21  43  68  98 137 183 215 278 346 400
#
# _framework density 24.884350000000001
#
# number of rings (size 3 to 8) (size 9 to 14) (size 15 to 20)
#    0.000    1.250    5.000    0.375    0.000    0.500 
#    6.750   21.250    0.000    0.000    0.000    0.000 
#    0.000    0.000    0.000    0.000    0.000    0.000 
#
# Total GULP energy -89378.046270 kJ/mol
# GULP energy per Si atom -5586.127892 kJ/mol
# Density = 2.482771 g / cm^3
# Si number density = 24.884350 Si / 1000 Ang^3
#
#
#
# Elastic Constant Matrix: (Units=GPa)
#
#
# Indices 1 2 3 4 5 6 
#
# 1 123.1391 48.6057 33.9094 -14.9377 39.8332 -11.0534
# 2 48.6057 117.0505 19.3721 -16.8448 6.5204 -34.5764
# 3 33.9094 19.3721 51.4756 -11.8249 8.5015 -4.1357
# 4 -14.9377 -16.8448 -11.8249 32.3793 -0.8969 5.2230
# 5 39.8332 6.5204 8.5015 -0.8969 42.9806 -17.7128
# 6 -11.0534 -34.5764 -4.1357 5.2230 -17.7128 73.7393
#
#
#
# Elastic Compliance Matrix: (Units=1/GPa)
#
#
# Indices 1 2 3 4 5 6 
#
# 1 0.017300 -0.006263 -0.006178 0.002784 -0.015725 -0.004664
# 2 -0.006263 0.013277 -0.000799 0.002838 0.006753 0.006663
# 3 -0.006178 -0.000799 0.024981 0.005898 0.000996 -0.000078
# 4 0.002784 0.002838 0.005898 0.035918 -0.004017 -0.001430
# 5 -0.015725 0.006753 0.000996 -0.004017 0.041075 0.011016
# 6 -0.004664 0.006663 -0.000078 -0.001430 0.011016 0.018729
#
#
# Mechanical properties :
#
#
# Convention : Reuss Voigt Hill
#
# Bulk Modulus (GPa) = 34.38914 55.04887 44.71900
# Shear Modulus (GPa) = 26.67373 42.47172 34.57272
#
# Velocity S-wave (km/s) = 3.27755 4.13578 3.73142
# Velocity P-wave (km/s) = 5.30780 6.70643 6.04768
#
# Compressibility (1/GPa) = 0.02907895
#
# Stress axis : x y z
#
# Youngs Moduli (GPa) = 57.80403 75.32028 40.03080
#
# Poissons Ratio (x) = 0.47171 0.24729
# Poissons Ratio (y) = 0.36201 0.03198
# Poissons Ratio (z) = 0.35709 0.06018
#
# Static dielectric constant tensor:
#      x y z
#    x 1.993960 -0.048130 0.038860 
#    y -0.048130 1.981570 -0.025470 
#    z 0.038860 -0.025470 2.037410 
# 
# From -- ./inp_files/556510.got.cif
#   From: 2010.05.17/outbox.cif.g08.bks.cpg/sg2_279_cif.got.tgz:556510.got - 2010.06.03 11:33:40.
