data_PCOD9110664
_publ_section_title
;
Structure prediction by ZEFSAII (Michael W. Deem and Ramdas Pophale) SiO2 
 PCOD9110664
Probable space group: P -1
;
_chemical_formula_sum "Si O2"
_cell_formula_units_Z 14
_cell_length_a 9.170633
_cell_length_b 19.064203
_cell_length_c 15.913197
_cell_angle_alpha 22.708126
_cell_angle_beta 124.066836
_cell_angle_gamma 136.949599
_cell_volume 661.073903
_symmetry_space_group_name_H-M "P -1"
_symmetry_group_IT_number 2
_symmetry_cell_setting 'triclinic'
loop_
_space_group_symop_operation_xyz
x,y,z
-x,-y,-z
loop_
_atom_site_type_symbol
_atom_site_label
_atom_site_fract_x
_atom_site_fract_y
_atom_site_fract_z
Si Si1 0.146345 0.951957 0.649642
Si Si2 0.521391 0.978548 0.903889
Si Si3 0.281882 0.221587 0.714766
Si Si4 0.792374 0.834579 0.950573
Si Si5 0.038623 0.369071 0.896465
Si Si6 0.464301 0.330424 0.480296
Si Si7 0.417669 0.953705 0.350121
O O1 0.329980 0.183781 0.514299
O O2 0.321553 0.947144 0.656160
O O3 0.000000 0.000000 0.500000
O O4 0.983011 0.722476 0.914080
O O5 0.598205 0.240845 0.653115
O O6 0.563388 0.981634 0.814690
O O7 0.655106 0.929755 0.058995
O O8 0.236814 0.770996 0.057638
O O9 0.500000 0.500000 0.500000
O O10 0.277018 0.234036 0.598681
O O11 0.009941 0.070011 0.813715
O O12 0.656097 0.908660 0.782540
O O13 0.873107 0.730642 0.027128
O O14 0.626371 0.612816 0.206435
O O15 0.217760 0.661624 0.622242
#
# Coordination Sequence:
#
# PCOD9110664 Si02
#       7
#     2   2   2   2   2   2   2
#     4  10  22  45  70  90 121 163 205 259 322 377
#     4  10  21  39  58  87 127 168 213 247 302 364
#     4  12  24  37  59  93 128 172 215 250 300 368
#     4  12  22  39  65  89 131 164 206 260 309 358
#     4  10  20  42  65  87 127 167 200 262 309 365
#     4  10  22  40  61  88 126 164 207 259 308 368
#     4  10  22  40  62  96 122 162 209 257 311 373
#
# _framework density 21.177662000000002
#
# number of rings (size 3 to 8) (size 9 to 14) (size 15 to 20)
#    0.000    1.714    5.714    2.143    0.000    5.714 
#    0.000    1.429    0.000    0.000    0.000    0.000 
#    0.000    0.000    0.000    0.000    0.000    0.000 
#
# Total GULP energy -78078.787080 kJ/mol
# GULP energy per Si atom -5577.056220 kJ/mol
# Density = 2.112946 g / cm^3
# Si number density = 21.177662 Si / 1000 Ang^3
#
#
#
# Elastic Constant Matrix: (Units=GPa)
#
#
# Indices 1 2 3 4 5 6 
#
# 1 80.1091 19.1901 46.4841 10.6911 3.1214 31.8851
# 2 19.1901 43.3320 30.1208 20.4645 4.2525 24.9338
# 3 46.4841 30.1208 160.5239 -4.7381 -4.5847 26.3123
# 4 10.6911 20.4645 -4.7381 26.1787 0.5724 10.8911
# 5 3.1214 4.2525 -4.5847 0.5724 30.5377 4.5740
# 6 31.8851 24.9338 26.3123 10.8911 4.5740 27.5703
#
#
#
# Elastic Compliance Matrix: (Units=1/GPa)
#
#
# Indices 1 2 3 4 5 6 
#
# 1 0.029608 0.021667 -0.005877 -0.012012 -0.000193 -0.043450
# 2 0.021667 0.087149 -0.012445 -0.049265 -0.004544 -0.071781
# 3 -0.005877 -0.012445 0.010313 0.012844 0.003253 0.002596
# 4 -0.012012 -0.049265 0.012844 0.077816 0.006403 0.014385
# 5 -0.000193 -0.004544 0.003253 0.006403 0.034828 -0.007079
# 6 -0.043450 -0.071781 0.002596 0.014385 -0.007079 0.144453
#
#
# Mechanical properties :
#
#
# Convention : Reuss Voigt Hill
#
# Bulk Modulus (GPa) = 7.47611 52.83943 30.15777
# Shear Modulus (GPa) = 11.84658 29.40200 20.62429
#
# Velocity S-wave (km/s) = 2.36771 3.73010 3.12407
# Velocity P-wave (km/s) = 3.31852 6.59971 5.22345
#
# Compressibility (1/GPa) = 0.13375945
#
# Stress axis : x y z
#
# Youngs Moduli (GPa) = 33.77503 11.47461 96.96292
#
# Poissons Ratio (x) = -0.24862 0.56987
# Poissons Ratio (y) = -0.73180 1.20669
# Poissons Ratio (z) = 0.19850 0.14280
#
# Static dielectric constant tensor:
#      x y z
#    x 1.869400 -0.025250 0.018470 
#    y -0.025250 1.756510 -0.021740 
#    z 0.018470 -0.021740 1.764750 
# 
# From -- ./inp_files/562341.got.cif
#   From: 2010.05.17/outbox.cif.g08.bks.cpg/sg2_282_cif.got.tgz:562341.got - 2010.06.03 11:33:40.
