data_PCOD9110269
_publ_section_title
;
Structure prediction by ZEFSAII (Michael W. Deem and Ramdas Pophale) SiO2 
 PCOD9110269
Probable space group: P -1
;
_chemical_formula_sum "Si O2"
_cell_formula_units_Z 16
_cell_length_a 14.330142
_cell_length_b 9.247691
_cell_length_c 12.786355
_cell_angle_alpha 86.597604
_cell_angle_beta 151.659905
_cell_angle_gamma 100.222210
_cell_volume 774.401237
_symmetry_space_group_name_H-M "P -1"
_symmetry_group_IT_number 2
_symmetry_cell_setting 'triclinic'
loop_
_space_group_symop_operation_xyz
x,y,z
-x,-y,-z
loop_
_atom_site_type_symbol
_atom_site_label
_atom_site_fract_x
_atom_site_fract_y
_atom_site_fract_z
Si Si1 0.161080 0.605090 0.399501
Si Si2 0.216063 0.464586 0.243310
Si Si3 0.888378 0.889311 0.805614
Si Si4 0.326520 0.960261 0.567049
Si Si5 0.229843 0.873704 0.978940
Si Si6 0.905343 0.884180 0.500786
Si Si7 0.617209 0.556361 0.220989
Si Si8 0.304257 0.555121 0.101038
O O1 0.256540 0.543292 0.393770
O O2 0.231927 0.784295 0.465678
O O3 0.232565 0.536890 0.578473
O O4 0.917731 0.549324 0.145843
O O5 0.184549 0.286036 0.230531
O O6 0.348450 0.519016 0.266757
O O7 0.000000 0.500000 0.000000
O O8 0.709396 0.950578 0.576233
O O9 0.066900 0.904999 0.896690
O O10 0.000000 0.000000 0.000000
O O11 0.563852 0.995625 0.827512
O O12 0.211225 0.029453 0.539418
O O13 0.287237 0.724681 0.076831
O O14 0.100370 0.844620 0.747074
O O15 0.746101 0.727734 0.322789
O O16 0.000000 0.000000 0.500000
O O17 0.460605 0.547356 0.163587
O O18 0.500000 0.500000 0.000000
#
# Coordination Sequence:
#
# PCOD9110269 Si02
#       8
#     2   2   2   2   2   2   2   2
#     4  11  24  46  68 106 140 175 232 283 344 413
#     4  10  20  41  71  99 135 184 221 278 340 409
#     4  11  22  42  67 102 143 181 228 277 339 412
#     4  11  26  42  70 102 139 183 229 282 349 410
#     4  11  23  45  68  96 141 181 225 285 341 418
#     4  11  26  48  70  97 136 180 232 291 350 407
#     4  12  28  46  71 104 133 179 239 286 343 416
#     4  11  23  45  73  96 140 183 225 282 350 403
#
# _framework density 20.661121999999999
#
# number of rings (size 3 to 8) (size 9 to 14) (size 15 to 20)
#    0.000    1.000    5.000    2.250    3.500    5.000 
#    0.000    0.000    0.000    0.000    0.000    0.000 
#    0.000    0.000    0.000    0.000    0.000    0.000 
#
# Total GULP energy -89390.628117 kJ/mol
# GULP energy per Si atom -5586.914257 kJ/mol
# Density = 2.061410 g / cm^3
# Si number density = 20.661122 Si / 1000 Ang^3
#
#
#
# Elastic Constant Matrix: (Units=GPa)
#
#
# Indices 1 2 3 4 5 6 
#
# 1 62.1654 32.8311 45.0277 -2.8930 -10.7107 23.2813
# 2 32.8311 165.3560 61.4199 23.6982 -20.8243 7.9195
# 3 45.0277 61.4199 129.4955 16.5591 -19.8171 11.4088
# 4 -2.8930 23.6982 16.5591 37.3460 5.0133 -1.8640
# 5 -10.7107 -20.8243 -19.8171 5.0133 42.7338 1.2959
# 6 23.2813 7.9195 11.4088 -1.8640 1.2959 30.3539
#
#
#
# Elastic Compliance Matrix: (Units=1/GPa)
#
#
# Indices 1 2 3 4 5 6 
#
# 1 0.032157 -0.002902 -0.008478 0.006731 0.002543 -0.020415
# 2 -0.002902 0.008439 -0.001885 -0.005147 0.003106 0.000284
# 3 -0.008478 -0.001885 0.012621 -0.005423 0.003392 0.001773
# 4 0.006731 -0.005147 -0.005423 0.033985 -0.007342 0.000619
# 5 0.002543 0.003106 0.003392 -0.007342 0.028158 -0.005689
# 6 -0.020415 0.000284 0.001773 0.000619 -0.005689 0.048144
#
#
# Mechanical properties :
#
#
# Convention : Reuss Voigt Hill
#
# Bulk Modulus (GPa) = 37.47259 70.61938 54.04598
# Shear Modulus (GPa) = 25.13459 36.60263 30.86861
#
# Velocity S-wave (km/s) = 3.49164 4.21357 3.86948
# Velocity P-wave (km/s) = 5.86784 7.61093 6.79551
#
# Compressibility (1/GPa) = 0.02668617
#
# Stress axis : x y z
#
# Youngs Moduli (GPa) = 31.09779 118.49470 79.23582
#
# Poissons Ratio (x) = 0.34391 0.67174
# Poissons Ratio (y) = 0.09025 0.14937
# Poissons Ratio (z) = 0.26364 0.22337
#
# Static dielectric constant tensor:
#      x y z
#    x 1.732340 0.027100 0.026360 
#    y 0.027100 1.740420 -0.038500 
#    z 0.026360 -0.038500 1.784130 
# 
# From -- ./inp_files/188031.got.cif
#   From: 2010.05.17/outbox.cif.g08.bks.cpg/sg2_95_cif.got.tgz:188031.got - 2010.06.03 11:33:40.
