data_PCOD9110932
_publ_section_title
;
Structure prediction by ZEFSAII (Michael W. Deem and Ramdas Pophale) SiO2 
 PCOD9110932
Probable space group: P -1
;
_chemical_formula_sum "Si O2"
_cell_formula_units_Z 16
_cell_length_a 9.264447
_cell_length_b 8.748225
_cell_length_c 11.947715
_cell_angle_alpha 117.590196
_cell_angle_beta 122.855446
_cell_angle_gamma 68.193023
_cell_volume 711.477379
_symmetry_space_group_name_H-M "P -1"
_symmetry_group_IT_number 2
_symmetry_cell_setting 'triclinic'
loop_
_space_group_symop_operation_xyz
x,y,z
-x,-y,-z
loop_
_atom_site_type_symbol
_atom_site_label
_atom_site_fract_x
_atom_site_fract_y
_atom_site_fract_z
Si Si1 0.663956 0.964140 0.409830
Si Si2 0.346945 0.788146 0.309517
Si Si3 0.294303 0.488913 0.900425
Si Si4 0.432676 0.500143 0.597376
Si Si5 0.741411 0.799447 0.025107
Si Si6 0.832676 0.626615 0.431672
Si Si7 0.946575 0.186565 0.981964
Si Si8 0.642686 0.128759 0.217530
O O1 0.496571 0.873916 0.339518
O O2 0.835581 0.825455 0.464836
O O3 0.666877 0.129589 0.545466
O O4 0.641972 0.016228 0.290957
O O5 0.408318 0.581047 0.282247
O O6 0.172506 0.831486 0.182090
O O7 0.250391 0.339113 0.916901
O O8 0.247492 0.445976 0.738902
O O9 0.500000 0.500000 0.000000
O O10 0.174756 0.670934 0.945169
O O11 0.500000 0.500000 0.500000
O O12 0.298558 0.366088 0.515489
O O13 0.329990 0.682369 0.662199
O O14 0.882169 0.745236 0.969383
O O15 0.764104 0.995819 0.142578
O O16 0.546916 0.828120 0.903849
O O17 0.000000 0.500000 0.500000
O O18 0.000000 0.000000 0.000000
#
# Coordination Sequence:
#
# PCOD9110932 Si02
#       8
#     2   2   2   2   2   2   2   2
#     4  10  20  42  67  93 132 178 223 282 339 424
#     4  10  22  41  65  96 134 176 227 275 349 414
#     4  12  26  50  75  97 142 190 233 286 354 431
#     4  11  23  42  67  97 132 179 221 279 342 421
#     4  11  26  43  70  99 140 180 231 293 346 414
#     4  11  26  42  67 100 134 177 228 285 351 401
#     4  12  28  43  69 106 139 180 235 290 350 407
#     4  11  22  42  69  99 132 177 238 273 349 415
#
# _framework density 22.488416999999998
#
# number of rings (size 3 to 8) (size 9 to 14) (size 15 to 20)
#    0.000    1.000    2.500    4.125    7.000    2.000 
#    0.000    1.250    0.000    0.000    0.000    0.000 
#    0.000    0.000    0.000    0.000    0.000    0.000 
#
# Total GULP energy -89388.685924 kJ/mol
# GULP energy per Si atom -5586.792870 kJ/mol
# Density = 2.243723 g / cm^3
# Si number density = 22.488417 Si / 1000 Ang^3
#
#
#
# Elastic Constant Matrix: (Units=GPa)
#
#
# Indices 1 2 3 4 5 6 
#
# 1 76.2722 36.6648 9.8567 -9.2641 -16.3888 -11.7246
# 2 36.6648 163.0292 23.5985 -17.5088 -9.5749 -14.7600
# 3 9.8567 23.5985 59.9224 -8.7382 -15.5560 -6.5927
# 4 -9.2641 -17.5088 -8.7382 51.6007 -5.1428 -6.8090
# 5 -16.3888 -9.5749 -15.5560 -5.1428 29.3001 -3.1562
# 6 -11.7246 -14.7600 -6.5927 -6.8090 -3.1562 38.0383
#
#
#
# Elastic Compliance Matrix: (Units=1/GPa)
#
#
# Indices 1 2 3 4 5 6 
#
# 1 0.018423 -0.002619 0.002791 0.005083 0.012588 0.007100
# 2 -0.002619 0.007444 -0.001790 0.002105 0.000624 0.002199
# 3 0.002791 -0.001790 0.022261 0.005940 0.014516 0.006292
# 4 0.005083 0.002105 0.005940 0.024355 0.011903 0.008760
# 5 0.012588 0.000624 0.014516 0.011903 0.052585 0.013132
# 6 0.007100 0.002199 0.006292 0.008760 0.013132 0.033079
#
#
# Mechanical properties :
#
#
# Convention : Reuss Voigt Hill
#
# Bulk Modulus (GPa) = 22.27575 48.82932 35.55254
# Shear Modulus (GPa) = 28.35336 39.06141 33.70738
#
# Velocity S-wave (km/s) = 3.55462 4.17220 3.87573
# Velocity P-wave (km/s) = 5.17437 6.70596 5.98932
#
# Compressibility (1/GPa) = 0.04489187
#
# Stress axis : x y z
#
# Youngs Moduli (GPa) = 54.28007 134.33962 44.92214
#
# Poissons Ratio (x) = 0.35187 -0.12539
# Poissons Ratio (y) = 0.14218 0.08041
# Poissons Ratio (z) = -0.15151 0.24045
#
# Static dielectric constant tensor:
#      x y z
#    x 1.854910 0.045590 -0.005120 
#    y 0.045590 2.220970 -0.015080 
#    z -0.005120 -0.015080 1.863700 
# 
# From -- ./inp_files/380072.got.cif
#   From: 2010.05.17/outbox.cif.g08.bks.cpg/sg2_191_cif.got.tgz:380072.got - 2010.06.03 11:33:40.
