data_PCOD9110662
_publ_section_title
;
Structure prediction by ZEFSAII (Michael W. Deem and Ramdas Pophale) SiO2 
 PCOD9110662
Probable space group: P -1
;
_chemical_formula_sum "Si O2"
_cell_formula_units_Z 16
_cell_length_a 8.414767
_cell_length_b 10.666811
_cell_length_c 15.013469
_cell_angle_alpha 29.657433
_cell_angle_beta 89.357447
_cell_angle_gamma 99.581737
_cell_volume 623.051514
_symmetry_space_group_name_H-M "P -1"
_symmetry_group_IT_number 2
_symmetry_cell_setting 'triclinic'
loop_
_space_group_symop_operation_xyz
x,y,z
-x,-y,-z
loop_
_atom_site_type_symbol
_atom_site_label
_atom_site_fract_x
_atom_site_fract_y
_atom_site_fract_z
Si Si1 0.541131 0.058565 0.646533
Si Si2 0.212964 0.331039 0.974907
Si Si3 0.307097 0.516767 0.053974
Si Si4 0.905815 0.235025 0.605557
Si Si5 0.263169 0.280297 0.593233
Si Si6 0.562476 0.706930 0.659805
Si Si7 0.648309 0.276322 0.800684
Si Si8 0.861115 0.181672 0.994464
O O1 0.744371 0.222786 0.552704
O O2 0.414791 0.182148 0.621877
O O3 0.468769 0.066034 0.542146
O O4 0.483622 0.752538 0.875434
O O5 0.206917 0.422908 0.020679
O O6 0.187549 0.017549 0.174221
O O7 0.381836 0.508402 0.816941
O O8 0.056700 0.333501 0.916644
O O9 0.322850 0.271270 0.265634
O O10 0.225718 0.675551 0.022708
O O11 0.000000 0.500000 0.500000
O O12 0.077995 0.181654 0.603107
O O13 0.336847 0.601978 0.373208
O O14 0.206845 0.134196 0.779431
O O15 0.626039 0.520184 0.708031
O O16 0.812885 0.228749 0.866550
O O17 0.500000 0.000000 0.000000
#
# Coordination Sequence:
#
# PCOD9110662 Si02
#       8
#     2   2   2   2   2   2   2   2
#     4  10  22  42  64  92 123 166 205 255 321 369
#     4  11  22  39  62  94 124 160 209 260 311 369
#     4  10  20  42  65  86 127 161 205 260 310 375
#     4  11  25  40  63  93 126 166 210 258 312 369
#     4   9  22  40  60  85 123 157 205 251 304 367
#     4  10  22  37  60  93 119 154 212 251 307 374
#     4  10  22  38  61  87 118 169 208 249 306 370
#     4   9  21  39  61  89 122 160 202 253 320 365
#
# _framework density 25.680057999999999
#
# number of rings (size 3 to 8) (size 9 to 14) (size 15 to 20)
#    0.000    2.000    1.250    0.750    3.500    5.500 
#    0.000    1.250    0.000    8.250    0.000    0.000 
#    0.000    0.000    0.000    0.000    0.000    0.000 
#
# Total GULP energy -89293.069302 kJ/mol
# GULP energy per Si atom -5580.816831 kJ/mol
# Density = 2.562161 g / cm^3
# Si number density = 25.680058 Si / 1000 Ang^3
#
#
#
# Elastic Constant Matrix: (Units=GPa)
#
#
# Indices 1 2 3 4 5 6 
#
# 1 125.3677 37.2485 29.0163 3.8675 8.5652 29.2604
# 2 37.2485 94.6950 25.5971 3.8505 2.0931 16.9965
# 3 29.0163 25.5971 153.2540 0.4753 18.5436 9.9598
# 4 3.8675 3.8505 0.4753 39.4907 7.7821 -0.4004
# 5 8.5652 2.0931 18.5436 7.7821 40.0411 6.6766
# 6 29.2604 16.9965 9.9598 -0.4004 6.6766 38.8104
#
#
#
# Elastic Compliance Matrix: (Units=1/GPa)
#
#
# Indices 1 2 3 4 5 6 
#
# 1 0.010581 -0.002668 -0.001087 -0.000751 -0.000396 -0.006470
# 2 -0.002668 0.012660 -0.001560 -0.001274 0.001445 -0.003395
# 3 -0.001087 -0.001560 0.007375 0.000820 -0.003292 0.000185
# 4 -0.000751 -0.001274 0.000820 0.026654 -0.005695 0.002168
# 5 -0.000396 0.001445 -0.003292 -0.005695 0.028353 -0.004426
# 6 -0.006470 -0.003395 0.000185 0.002168 -0.004426 0.032867
#
#
# Mechanical properties :
#
#
# Convention : Reuss Voigt Hill
#
# Bulk Modulus (GPa) = 50.03148 61.89339 55.96244
# Shear Modulus (GPa) = 36.82373 42.43210 39.62791
#
# Velocity S-wave (km/s) = 3.79085 4.06930 3.93254
# Velocity P-wave (km/s) = 6.21978 6.79949 6.51608
#
# Compressibility (1/GPa) = 0.01998741
#
# Stress axis : x y z
#
# Youngs Moduli (GPa) = 94.50940 78.98708 135.58958
#
# Poissons Ratio (x) = 0.21071 0.14740
# Poissons Ratio (y) = 0.25212 0.21148
# Poissons Ratio (z) = 0.10274 0.12320
#
# Static dielectric constant tensor:
#      x y z
#    x 2.126550 -0.047280 0.076560 
#    y -0.047280 2.108150 -0.015850 
#    z 0.076560 -0.015850 2.029290 
# 
# From -- ./inp_files/358583.got.cif
#   From: 2010.05.17/outbox.cif.g08.bks.cpg/sg2_180_cif.got.tgz:358583.got - 2010.06.03 11:33:40.
