data_PCOD9110588
_publ_section_title
;
Structure prediction by ZEFSAII (Michael W. Deem and Ramdas Pophale) SiO2 
 PCOD9110588
Probable space group: P -1
;
_chemical_formula_sum "Si O2"
_cell_formula_units_Z 16
_cell_length_a 7.858209
_cell_length_b 8.699748
_cell_length_c 24.417001
_cell_angle_alpha 55.276416
_cell_angle_beta 147.230509
_cell_angle_gamma 124.233448
_cell_volume 729.366646
_symmetry_space_group_name_H-M "P -1"
_symmetry_group_IT_number 2
_symmetry_cell_setting 'triclinic'
loop_
_space_group_symop_operation_xyz
x,y,z
-x,-y,-z
loop_
_atom_site_type_symbol
_atom_site_label
_atom_site_fract_x
_atom_site_fract_y
_atom_site_fract_z
Si Si1 0.333254 0.660735 0.616280
Si Si2 0.953569 0.931942 0.864002
Si Si3 0.333677 0.487298 0.166554
Si Si4 0.777336 0.124381 0.944237
Si Si5 0.637053 0.613343 0.413552
Si Si6 0.719041 0.011622 0.610007
Si Si7 0.365618 0.051786 0.743205
Si Si8 0.019930 0.716159 0.281660
O O1 0.535072 0.542905 0.731527
O O2 0.363050 0.582270 0.579098
O O3 0.505561 0.878311 0.623061
O O4 0.958685 0.644412 0.530825
O O5 0.865204 0.716371 0.862920
O O6 0.633188 0.959554 0.804632
O O7 0.009871 0.096267 0.800386
O O8 0.233542 0.948869 0.981852
O O9 0.116085 0.647557 0.070518
O O10 0.676705 0.573234 0.213055
O O11 0.487547 0.107970 0.826366
O O12 0.000000 0.000000 0.000000
O O13 0.311213 0.627398 0.353379
O O14 0.685739 0.777920 0.346050
O O15 0.021495 0.926566 0.687492
O O16 0.500000 0.000000 0.500000
O O17 0.864341 0.207068 0.641496
#
# Coordination Sequence:
#
# PCOD9110588 Si02
#       8
#     2   2   2   2   2   2   2   2
#     4  11  23  39  65  92 131 174 216 260 318 390
#     4  10  24  42  67  95 125 173 215 270 319 380
#     4  12  23  43  65  97 131 163 220 272 318 382
#     4  10  21  42  70  90 126 175 213 265 332 377
#     4  10  22  41  61  92 128 175 212 257 320 382
#     4  12  23  40  64  96 130 174 211 260 320 388
#     4  10  20  42  64  90 132 167 214 259 322 383
#     4  11  25  42  64  96 133 168 214 271 318 375
#
# _framework density 21.936841000000001
#
# number of rings (size 3 to 8) (size 9 to 14) (size 15 to 20)
#    0.000    1.250    5.000    0.375    3.500    2.500 
#    0.000    0.000    0.000    5.250    0.000    0.000 
#    0.000    0.000    0.000    0.000    0.000    0.000 
#
# Total GULP energy -89211.377408 kJ/mol
# GULP energy per Si atom -5575.711088 kJ/mol
# Density = 2.188691 g / cm^3
# Si number density = 21.936841 Si / 1000 Ang^3
#
#
#
# Elastic Constant Matrix: (Units=GPa)
#
#
# Indices 1 2 3 4 5 6 
#
# 1 65.6841 3.0215 4.8731 1.1376 2.8421 0.0773
# 2 3.0215 47.5356 -10.1184 -7.4168 4.7441 3.6766
# 3 4.8731 -10.1184 75.3723 -8.2842 -15.4861 -5.1062
# 4 1.1376 -7.4168 -8.2842 27.0613 -2.8098 4.8049
# 5 2.8421 4.7441 -15.4861 -2.8098 39.6335 -1.9390
# 6 0.0773 3.6766 -5.1062 4.8049 -1.9390 26.2657
#
#
#
# Elastic Compliance Matrix: (Units=1/GPa)
#
#
# Indices 1 2 3 4 5 6 
#
# 1 0.015528 -0.001464 -0.001754 -0.001775 -0.001749 0.000014
# 2 -0.001464 0.023631 0.003718 0.008325 -0.000885 -0.004169
# 3 -0.001754 0.003718 0.016040 0.006336 0.006491 0.001923
# 4 -0.001775 0.008325 0.006336 0.043023 0.004290 -0.007482
# 5 -0.001749 -0.000885 0.006491 0.004290 0.028435 0.002705
# 6 0.000014 -0.004169 0.001923 -0.007482 0.002705 0.040598
#
#
# Mechanical properties :
#
#
# Convention : Reuss Voigt Hill
#
# Bulk Modulus (GPa) = 17.79380 20.46048 19.12714
# Shear Modulus (GPa) = 27.02864 31.31316 29.17090
#
# Velocity S-wave (km/s) = 3.51395 3.78222 3.65055
# Velocity P-wave (km/s) = 4.95911 5.33112 5.14848
#
# Compressibility (1/GPa) = 0.05619936
#
# Stress axis : x y z
#
# Youngs Moduli (GPa) = 64.39885 42.31759 62.34287
#
# Poissons Ratio (x) = 0.06194 0.10934
# Poissons Ratio (y) = 0.09427 -0.23177
# Poissons Ratio (z) = 0.11295 -0.15732
#
# Static dielectric constant tensor:
#      x y z
#    x 1.808970 -0.003470 -0.015950 
#    y -0.003470 1.829460 -0.000430 
#    z -0.015950 -0.000430 1.833670 
# 
# From -- ./inp_files/208495.got.cif
#   From: 2010.05.17/outbox.cif.g08.bks.cpg/sg2_105_cif.got.tgz:208495.got - 2010.06.03 11:33:40.
