data_PCOD9110239
_publ_section_title
;
Structure prediction by ZEFSAII (Michael W. Deem and Ramdas Pophale) SiO2 
 PCOD9110239
Probable space group: P -1
;
_chemical_formula_sum "Si O2"
_cell_formula_units_Z 12
_cell_length_a 11.763668
_cell_length_b 9.594253
_cell_length_c 8.012234
_cell_angle_alpha 66.890090
_cell_angle_beta 52.526964
_cell_angle_gamma 42.578078
_cell_volume 482.978262
_symmetry_space_group_name_H-M "P -1"
_symmetry_group_IT_number 2
_symmetry_cell_setting 'triclinic'
loop_
_space_group_symop_operation_xyz
x,y,z
-x,-y,-z
loop_
_atom_site_type_symbol
_atom_site_label
_atom_site_fract_x
_atom_site_fract_y
_atom_site_fract_z
Si Si1 0.893367 0.256070 0.504948
Si Si2 0.788935 0.571567 0.681348
Si Si3 0.856746 0.931357 0.968374
Si Si4 0.482813 0.039402 0.694888
Si Si5 0.719769 0.154982 0.493475
Si Si6 0.221602 0.714312 0.960633
O O1 0.781281 0.485377 0.554271
O O2 0.731559 0.248173 0.604282
O O3 0.065197 0.086452 0.565304
O O4 0.014788 0.175460 0.262445
O O5 0.641950 0.811574 0.735852
O O6 0.000000 0.500000 0.500000
O O7 0.732922 0.479016 0.905445
O O8 0.724673 0.878707 0.111243
O O9 0.747052 0.171061 0.988384
O O10 0.997591 0.838760 0.046176
O O11 0.500000 0.000000 0.500000
O O12 0.547968 0.157832 0.636102
O O13 0.701248 0.273326 0.289992
#
# Coordination Sequence:
#
# PCOD9110239 Si02
#       6
#     2   2   2   2   2   2
#     4  10  21  41  71  97 126 179 219 264 322 400
#     4  12  24  42  68  98 131 171 226 271 320 388
#     4  10  21  39  73  95 131 171 222 261 331 386
#     4  12  24  43  69 100 131 171 223 274 323 383
#     4  10  20  42  72  92 133 174 221 255 333 393
#     4  10  20  41  71  93 128 183 220 251 330 407
#
# _framework density 24.845839000000002
#
# number of rings (size 3 to 8) (size 9 to 14) (size 15 to 20)
#    0.000    1.333    3.333    5.000    0.000    1.333 
#    0.000    8.333    0.000    0.000    0.000    0.000 
#    0.000    0.000    0.000    0.000    0.000    0.000 
#
# Total GULP energy -66953.609490 kJ/mol
# GULP energy per Si atom -5579.467458 kJ/mol
# Density = 2.478929 g / cm^3
# Si number density = 24.845839 Si / 1000 Ang^3
#
#
#
# Elastic Constant Matrix: (Units=GPa)
#
#
# Indices 1 2 3 4 5 6 
#
# 1 168.3365 15.3379 80.2268 -9.9100 -32.6277 32.8410
# 2 15.3379 29.7912 27.2579 -18.6322 -4.4060 12.4399
# 3 80.2268 27.2579 144.7434 -27.6440 -0.8684 8.9437
# 4 -9.9100 -18.6322 -27.6440 27.5880 10.4219 -5.8775
# 5 -32.6277 -4.4060 -0.8684 10.4219 62.6049 -7.8116
# 6 32.8410 12.4399 8.9437 -5.8775 -7.8116 36.7749
#
#
#
# Elastic Compliance Matrix: (Units=1/GPa)
#
#
# Indices 1 2 3 4 5 6 
#
# 1 0.012024 0.001255 -0.007588 -0.006724 0.006238 -0.009067
# 2 0.001255 0.069246 -0.005099 0.039603 -0.003343 -0.017685
# 3 -0.007588 -0.005099 0.013750 0.010804 -0.005200 0.005779
# 4 -0.006724 0.039603 0.010804 0.076308 -0.013353 -0.000659
# 5 0.006238 -0.003343 -0.005200 -0.013353 0.021035 -0.000841
# 6 -0.009067 -0.017685 0.005779 -0.000659 -0.000841 0.039582
#
#
# Mechanical properties :
#
#
# Convention : Reuss Voigt Hill
#
# Bulk Modulus (GPa) = 13.85906 65.39069 39.62487
# Shear Modulus (GPa) = 17.93007 40.06347 28.99677
#
# Velocity S-wave (km/s) = 2.68927 4.01993 3.41994
# Velocity P-wave (km/s) = 3.90295 6.92258 5.61939
#
# Compressibility (1/GPa) = 0.07215496
#
# Stress axis : x y z
#
# Youngs Moduli (GPa) = 83.16438 14.44135 72.72859
#
# Poissons Ratio (x) = -0.01812 0.55184
# Poissons Ratio (y) = -0.10435 0.37088
# Poissons Ratio (z) = 0.63102 0.07364
#
# Static dielectric constant tensor:
#      x y z
#    x 1.988980 -0.077090 -0.033110 
#    y -0.077090 2.131110 -0.033240 
#    z -0.033110 -0.033240 2.070360 
# 
# From -- ./inp_files/236991.got.cif
#   From: 2010.05.17/outbox.cif.g08.bks.cpg/sg2_119_cif.got.tgz:236991.got - 2010.06.03 11:33:40.
