data_PCOD9110476
_publ_section_title
;
Structure prediction by ZEFSAII (Michael W. Deem and Ramdas Pophale) SiO2 
 PCOD9110476
Probable space group: P -1
;
_chemical_formula_sum "Si O2"
_cell_formula_units_Z 16
_cell_length_a 9.426311
_cell_length_b 18.473039
_cell_length_c 21.497260
_cell_angle_alpha 23.145162
_cell_angle_beta 33.341378
_cell_angle_gamma 43.102488
_cell_volume 796.074309
_symmetry_space_group_name_H-M "P -1"
_symmetry_group_IT_number 2
_symmetry_cell_setting 'triclinic'
loop_
_space_group_symop_operation_xyz
x,y,z
-x,-y,-z
loop_
_atom_site_type_symbol
_atom_site_label
_atom_site_fract_x
_atom_site_fract_y
_atom_site_fract_z
Si Si1 0.099813 0.688864 0.348249
Si Si2 0.411072 0.200586 0.499751
Si Si3 0.036703 0.785677 0.652708
Si Si4 0.146851 0.469739 0.196552
Si Si5 0.131465 0.828476 0.836116
Si Si6 0.705810 0.365751 0.541323
Si Si7 0.571303 0.958493 0.934879
Si Si8 0.649668 0.448004 0.108980
O O1 0.856696 0.790979 0.372268
O O2 0.000000 0.500000 0.500000
O O3 0.215066 0.640281 0.410886
O O4 0.323636 0.804028 0.131893
O O5 0.493713 0.378201 0.283532
O O6 0.659111 0.208016 0.447753
O O7 0.341545 0.011512 0.633162
O O8 0.949825 0.687757 0.695781
O O9 0.855305 0.642676 0.879880
O O10 0.000000 0.000000 0.500000
O O11 0.954751 0.430909 0.355874
O O12 0.435527 0.464531 0.120923
O O13 0.126178 0.670349 0.016021
O O14 0.204815 0.720724 0.833212
O O15 0.848108 0.888913 0.886183
O O16 0.500000 0.500000 0.500000
O O17 0.590633 0.149536 0.739296
O O18 0.500000 0.000000 0.000000
#
# Coordination Sequence:
#
# PCOD9110476 Si02
#       8
#     2   2   2   2   2   2   2   2
#     4  11  25  43  66  94 130 164 214 265 326 372
#     4  12  23  42  64  95 128 166 212 271 318 375
#     4  11  25  42  61  94 137 167 205 265 323 376
#     4  11  22  42  65  97 126 169 214 260 318 383
#     4  11  21  38  71  91 129 168 212 262 313 389
#     4  11  23  42  69  95 125 166 219 262 308 389
#     4  10  20  42  62  94 122 172 210 252 315 380
#     4  11  23  42  66  96 125 170 221 255 320 383
#
# _framework density 20.098627
#
# number of rings (size 3 to 8) (size 9 to 14) (size 15 to 20)
#    0.000    1.000    3.750    5.250    5.250    1.000 
#    2.250    0.625    0.000    0.000    0.000    0.000 
#    0.000    0.000    0.000    0.000    0.000    0.000 
#
# Total GULP energy -89380.119825 kJ/mol
# GULP energy per Si atom -5586.257489 kJ/mol
# Density = 2.005288 g / cm^3
# Si number density = 20.098627 Si / 1000 Ang^3
#
#
#
# Elastic Constant Matrix: (Units=GPa)
#
#
# Indices 1 2 3 4 5 6 
#
# 1 65.1816 31.7724 29.0720 1.0434 -13.0807 -25.9715
# 2 31.7724 110.3664 50.9331 -0.3885 -8.3531 -35.5383
# 3 29.0720 50.9331 144.3861 -6.1630 -15.9343 -12.1702
# 4 1.0434 -0.3885 -6.1630 38.7531 0.8945 -3.9510
# 5 -13.0807 -8.3531 -15.9343 0.8945 36.3629 4.9938
# 6 -25.9715 -35.5383 -12.1702 -3.9510 4.9938 35.5465
#
#
#
# Elastic Compliance Matrix: (Units=1/GPa)
#
#
# Indices 1 2 3 4 5 6 
#
# 1 0.023983 -0.000118 -0.002874 0.000381 0.005170 0.015737
# 2 -0.000118 0.015632 -0.004286 0.000935 -0.000306 0.014222
# 3 -0.002874 -0.004286 0.009030 0.001057 0.002395 -0.003512
# 4 0.000381 0.000935 0.001057 0.026449 -0.000464 0.004581
# 5 0.005170 -0.000306 0.002395 -0.000464 0.030354 -0.000024
# 6 0.015737 0.014222 -0.003512 0.004581 -0.000024 0.053159
#
#
# Mechanical properties :
#
#
# Convention : Reuss Voigt Hill
#
# Bulk Modulus (GPa) = 29.33447 60.38766 44.86106
# Shear Modulus (GPa) = 27.09653 36.00963 31.55308
#
# Velocity S-wave (km/s) = 3.67574 4.23738 3.96651
# Velocity P-wave (km/s) = 5.71329 7.35196 6.58381
#
# Compressibility (1/GPa) = 0.03408959
#
# Stress axis : x y z
#
# Youngs Moduli (GPa) = 41.69643 63.97078 110.74535
#
# Poissons Ratio (x) = 0.00754 0.31828
# Poissons Ratio (y) = 0.00492 0.47461
# Poissons Ratio (z) = 0.11984 0.27415
#
# Static dielectric constant tensor:
#      x y z
#    x 1.729760 0.020100 -0.053550 
#    y 0.020100 1.713530 -0.034390 
#    z -0.053550 -0.034390 1.846830 
# 
# From -- ./inp_files/189817.got.cif
#   From: 2010.05.17/outbox.cif.g08.bks.cpg/sg2_95_cif.got.tgz:189817.got - 2010.06.03 11:33:40.
