data_PCOD9110868
_publ_section_title
;
Structure prediction by ZEFSAII (Michael W. Deem and Ramdas Pophale) SiO2 
 PCOD9110868
Probable space group: P -1
;
_chemical_formula_sum "Si O2"
_cell_formula_units_Z 14
_cell_length_a 9.539653
_cell_length_b 11.711450
_cell_length_c 11.548219
_cell_angle_alpha 154.974624
_cell_angle_beta 106.011474
_cell_angle_gamma 79.282182
_cell_volume 518.077063
_symmetry_space_group_name_H-M "P -1"
_symmetry_group_IT_number 2
_symmetry_cell_setting 'triclinic'
loop_
_space_group_symop_operation_xyz
x,y,z
-x,-y,-z
loop_
_atom_site_type_symbol
_atom_site_label
_atom_site_fract_x
_atom_site_fract_y
_atom_site_fract_z
Si Si1 0.427399 0.341922 0.697103
Si Si2 0.097386 0.847877 0.569503
Si Si3 0.302914 0.987681 0.527421
Si Si4 0.494141 0.743535 0.889419
Si Si5 0.740993 0.958519 0.820170
Si Si6 0.738534 0.565658 0.632391
Si Si7 0.900158 0.295292 0.985046
O O1 0.556269 0.159040 0.551934
O O2 0.485340 0.624328 0.907617
O O3 0.297736 0.216587 0.464559
O O4 0.359381 0.285439 0.756756
O O5 0.204978 0.967941 0.600943
O O6 0.179751 0.668862 0.512296
O O7 0.023884 0.096034 0.830055
O O8 0.971426 0.608487 0.271887
O O9 0.208235 0.811951 0.243470
O O10 0.652298 0.707663 0.842597
O O11 0.379623 0.580057 0.621917
O O12 0.419980 0.014122 0.135880
O O13 0.825442 0.807404 0.795331
O O14 0.821976 0.240080 0.042318
#
# Coordination Sequence:
#
# PCOD9110868 Si02
#       7
#     2   2   2   2   2   2   2
#     4   9  20  41  68 102 128 169 223 284 351 390
#     4  12  26  47  67 101 137 186 227 271 328 410
#     4  10  21  45  67  97 135 175 227 283 335 397
#     4  10  20  42  67 100 132 166 221 290 347 395
#     4  10  23  41  68  99 135 175 222 284 336 407
#     4  10  23  39  69  98 133 172 223 280 347 396
#     4  11  28  45  69  95 141 187 229 269 328 398
#
# _framework density 27.023007
#
# number of rings (size 3 to 8) (size 9 to 14) (size 15 to 20)
#    0.000    1.714    1.429    1.286    8.000    2.286 
#    5.143    2.143    0.000    0.000    0.000    0.000 
#    0.000    0.000    0.000    0.000    0.000    0.000 
#
# Total GULP energy -78428.767786 kJ/mol
# GULP energy per Si atom -5602.054842 kJ/mol
# Density = 2.696150 g / cm^3
# Si number density = 27.023007 Si / 1000 Ang^3
#
#
#
# Elastic Constant Matrix: (Units=GPa)
#
#
# Indices 1 2 3 4 5 6 
#
# 1 125.3492 61.6394 30.9466 7.7078 -21.0972 9.2517
# 2 61.6394 180.5760 40.5888 5.8696 -8.3572 8.2045
# 3 30.9466 40.5888 86.8142 6.3001 -18.2564 2.8789
# 4 7.7078 5.8696 6.3001 37.8870 -11.2726 2.9587
# 5 -21.0972 -8.3572 -18.2564 -11.2726 46.7111 6.6945
# 6 9.2517 8.2045 2.8789 2.9587 6.6945 40.1075
#
#
#
# Elastic Compliance Matrix: (Units=1/GPa)
#
#
# Indices 1 2 3 4 5 6 
#
# 1 0.010687 -0.003020 -0.001462 -0.000072 0.004043 -0.002412
# 2 -0.003020 0.007094 -0.002428 -0.000373 -0.001081 -0.000372
# 3 -0.001462 -0.002428 0.014174 -0.000270 0.004511 -0.000917
# 4 -0.000072 -0.000373 -0.000270 0.028917 0.007237 -0.003229
# 5 0.004043 -0.001081 0.004511 0.007237 0.027432 -0.006148
# 6 -0.002412 -0.000372 -0.000917 -0.003229 -0.006148 0.026896
#
#
# Mechanical properties :
#
#
# Convention : Reuss Voigt Hill
#
# Bulk Modulus (GPa) = 55.14433 73.23212 64.18823
# Shear Modulus (GPa) = 37.01984 42.24541 39.63263
#
# Velocity S-wave (km/s) = 3.70528 3.95816 3.83381
# Velocity P-wave (km/s) = 6.22545 6.93168 6.58803
#
# Compressibility (1/GPa) = 0.01813423
#
# Stress axis : x y z
#
# Youngs Moduli (GPa) = 93.57336 140.97403 70.55348
#
# Poissons Ratio (x) = 0.42578 0.10315
# Poissons Ratio (y) = 0.28262 0.17128
# Poissons Ratio (z) = 0.13680 0.34223
#
# Static dielectric constant tensor:
#      x y z
#    x 2.163670 0.001670 0.083420 
#    y 0.001670 2.085560 0.004140 
#    z 0.083420 0.004140 2.104120 
# 
# From -- ./inp_files/364289.got.cif
#   From: 2010.05.17/outbox.cif.g08.bks.cpg/sg2_183_cif.got.tgz:364289.got - 2010.06.03 11:33:40.
