data_PCOD9110245
_publ_section_title
;
Structure prediction by ZEFSAII (Michael W. Deem and Ramdas Pophale) SiO2 
 PCOD9110245
Probable space group: P -1
;
_chemical_formula_sum "Si O2"
_cell_formula_units_Z 10
_cell_length_a 7.675492
_cell_length_b 9.721120
_cell_length_c 8.478814
_cell_angle_alpha 65.120142
_cell_angle_beta 37.871821
_cell_angle_gamma 71.832732
_cell_volume 352.097727
_symmetry_space_group_name_H-M "P -1"
_symmetry_group_IT_number 2
_symmetry_cell_setting 'triclinic'
loop_
_space_group_symop_operation_xyz
x,y,z
-x,-y,-z
loop_
_atom_site_type_symbol
_atom_site_label
_atom_site_fract_x
_atom_site_fract_y
_atom_site_fract_z
Si Si1 0.700937 0.606770 0.933606
Si Si2 0.660944 0.126037 0.940723
Si Si3 0.281888 0.439727 0.541256
Si Si4 0.340117 0.098059 0.697412
Si Si5 0.906999 0.166375 0.443517
O O1 0.537468 0.748133 0.899566
O O2 0.968631 0.508517 0.742098
O O3 0.878467 0.727219 0.862085
O O4 0.461779 0.497962 0.232379
O O5 0.807984 0.021426 0.014555
O O6 0.853724 0.221381 0.633968
O O7 0.500000 0.000000 0.000000
O O8 0.500000 0.500000 0.500000
O O9 0.219315 0.259278 0.663274
O O10 0.615581 0.160467 0.567507
O O11 0.500000 0.000000 0.500000
O O12 0.000000 0.000000 0.500000
#
# Coordination Sequence:
#
# PCOD9110245 Si02
#       5
#     2   2   2   2   2
#     4  12  22  41  70 102 126 181 244 280 320 409
#     4  10  20  41  71  95 130 184 235 266 325 428
#     4  12  25  40  69 103 141 173 231 290 346 397
#     4  11  25  44  67 106 144 176 222 296 356 398
#     4  11  21  39  77  99 130 185 246 271 326 428
#
# _framework density 28.401204
#
# number of rings (size 3 to 8) (size 9 to 14) (size 15 to 20)
#    0.000    0.800    8.000    1.800    0.000    0.000 
#    0.000    6.000    0.000    0.000    0.000    0.000 
#    0.000    0.000    0.000    0.000    0.000    0.000 
#
# Total GULP energy -55733.632857 kJ/mol
# GULP energy per Si atom -5573.363286 kJ/mol
# Density = 2.833656 g / cm^3
# Si number density = 28.401204 Si / 1000 Ang^3
#
#
#
# Elastic Constant Matrix: (Units=GPa)
#
#
# Indices 1 2 3 4 5 6 
#
# 1 85.1469 45.4033 14.1046 -1.3655 12.9667 -5.4557
# 2 45.4033 319.3163 111.5821 3.0267 -4.0173 -16.1908
# 3 14.1046 111.5821 132.8427 4.5076 -22.7927 1.8277
# 4 -1.3655 3.0267 4.5076 63.4046 0.7922 -18.6902
# 5 12.9667 -4.0173 -22.7927 0.7922 32.7765 -0.4306
# 6 -5.4557 -16.1908 1.8277 -18.6902 -0.4306 41.4255
#
#
#
# Elastic Compliance Matrix: (Units=1/GPa)
#
#
# Indices 1 2 3 4 5 6 
#
# 1 0.013921 -0.001482 -0.001442 0.001066 -0.006694 0.001729
# 2 -0.001482 0.004955 -0.004375 0.000727 -0.001837 0.002243
# 3 -0.001442 -0.004375 0.013021 -0.001803 0.009090 -0.003193
# 4 0.001066 0.000727 -0.001803 0.018518 -0.001918 0.008839
# 5 -0.006694 -0.001837 0.009090 -0.001918 0.039268 -0.002458
# 6 0.001729 0.002243 -0.003193 0.008839 -0.002458 0.029347
#
#
# Mechanical properties :
#
#
# Convention : Reuss Voigt Hill
#
# Bulk Modulus (GPa) = 57.80947 97.72067 77.76507
# Shear Modulus (GPa) = 35.86930 51.93571 43.90251
#
# Velocity S-wave (km/s) = 3.55766 4.28090 3.93593
# Velocity P-wave (km/s) = 6.10530 7.67573 6.93511
#
# Compressibility (1/GPa) = 0.01729820
#
# Stress axis : x y z
#
# Youngs Moduli (GPa) = 71.83389 201.80921 76.80061
#
# Poissons Ratio (x) = 0.29915 0.11071
# Poissons Ratio (y) = 0.10648 0.33604
# Poissons Ratio (z) = 0.10355 0.88301
#
# Static dielectric constant tensor:
#      x y z
#    x 2.326300 0.055240 -0.073090 
#    y 0.055240 2.353080 0.050040 
#    z -0.073090 0.050040 2.627000 
# 
# From -- ./inp_files/184590.got.cif
#   From: 2010.05.17/outbox.cif.g08.bks.cpg/sg2_93_cif.got.tgz:184590.got - 2010.06.03 11:33:40.
