data_PCOD9110043
_publ_section_title
;
Structure prediction by ZEFSAII (Michael W. Deem and Ramdas Pophale) SiO2 
 PCOD9110043
Probable space group: P -1
;
_chemical_formula_sum "Si O2"
_cell_formula_units_Z 16
_cell_length_a 9.841891
_cell_length_b 9.387889
_cell_length_c 21.122771
_cell_angle_alpha 38.183759
_cell_angle_beta 35.757482
_cell_angle_gamma 55.055319
_cell_volume 693.472433
_symmetry_space_group_name_H-M "P -1"
_symmetry_group_IT_number 2
_symmetry_cell_setting 'triclinic'
loop_
_space_group_symop_operation_xyz
x,y,z
-x,-y,-z
loop_
_atom_site_type_symbol
_atom_site_label
_atom_site_fract_x
_atom_site_fract_y
_atom_site_fract_z
Si Si1 0.713369 0.407946 0.419034
Si Si2 0.078882 0.982913 0.548492
Si Si3 0.666659 0.075108 0.007085
Si Si4 0.946927 0.461086 0.446553
Si Si5 0.425344 0.406823 0.721341
Si Si6 0.157408 0.983481 0.177024
Si Si7 0.780339 0.520438 0.886393
Si Si8 0.918278 0.396688 0.135580
O O1 0.500000 0.500000 0.500000
O O2 0.897230 0.450798 0.392996
O O3 0.301794 0.547739 0.420018
O O4 0.686460 0.132172 0.506915
O O5 0.904122 0.773002 0.723630
O O6 0.064098 0.233741 0.496205
O O7 0.000000 0.000000 0.500000
O O8 0.401940 0.100840 0.076672
O O9 0.640646 0.863071 0.140032
O O10 0.802826 0.309461 0.904466
O O11 0.793588 0.008381 0.919269
O O12 0.276906 0.467675 0.695873
O O13 0.895600 0.287283 0.688585
O O14 0.333830 0.551524 0.763287
O O15 0.948716 0.125234 0.220429
O O16 0.890290 0.487163 0.924907
O O17 0.500000 0.500000 0.000000
O O18 0.000000 0.500000 0.000000
#
# Coordination Sequence:
#
# PCOD9110043 Si02
#       8
#     2   2   2   2   2   2   2   2
#     4   9  19  39  67 102 143 180 233 297 355 439
#     4  10  20  41  69 107 142 181 241 302 361 433
#     4  11  24  44  72 102 136 195 245 295 359 446
#     4  10  23  42  70 106 142 186 236 303 374 432
#     4  11  23  42  70 100 142 187 241 297 374 439
#     4  11  25  46  69 100 152 185 244 302 366 437
#     4  12  24  44  77 104 139 192 247 298 357 445
#     4  12  26  48  71 107 153 188 244 310 372 437
#
# _framework density 23.072293999999999
#
# number of rings (size 3 to 8) (size 9 to 14) (size 15 to 20)
#    0.000    1.250    3.750    2.250    0.000    2.500 
#    0.000    5.000    0.000    0.000    0.000    0.000 
#    0.000    0.000    0.000    0.000    0.000    0.000 
#
# Total GULP energy -89351.029256 kJ/mol
# GULP energy per Si atom -5584.439328 kJ/mol
# Density = 2.301978 g / cm^3
# Si number density = 23.072294 Si / 1000 Ang^3
#
#
#
# Elastic Constant Matrix: (Units=GPa)
#
#
# Indices 1 2 3 4 5 6 
#
# 1 87.2887 26.3985 33.0486 -1.0535 26.6279 15.7506
# 2 26.3985 157.0184 51.1045 8.6656 -1.3484 -4.4335
# 3 33.0486 51.1045 119.9577 4.5737 23.7584 8.9638
# 4 -1.0535 8.6656 4.5737 44.6620 0.1296 -1.9253
# 5 26.6279 -1.3484 23.7584 0.1296 44.8449 3.6578
# 6 15.7506 -4.4335 8.9638 -1.9253 3.6578 34.6063
#
#
#
# Elastic Compliance Matrix: (Units=1/GPa)
#
#
# Indices 1 2 3 4 5 6 
#
# 1 0.016612 -0.002699 -0.001228 0.000781 -0.008757 -0.006620
# 2 -0.002699 0.008166 -0.003597 -0.001171 0.003531 0.002768
# 3 -0.001228 -0.003597 0.011444 -0.000589 -0.005249 -0.002344
# 4 0.000781 -0.001171 -0.000589 0.022738 -0.000330 0.000947
# 5 -0.008757 0.003531 -0.005249 -0.000330 0.030176 0.002590
# 6 -0.006620 0.002768 -0.002344 0.000947 0.002590 0.032650
#
#
# Mechanical properties :
#
#
# Convention : Reuss Voigt Hill
#
# Bulk Modulus (GPa) = 47.22343 65.04090 56.13217
# Shear Modulus (GPa) = 34.74821 41.73686 38.24254
#
# Velocity S-wave (km/s) = 3.88501 4.25780 4.07567
# Velocity P-wave (km/s) = 6.37467 7.24038 6.82127
#
# Compressibility (1/GPa) = 0.02117593
#
# Stress axis : x y z
#
# Youngs Moduli (GPa) = 60.19564 122.45631 87.38018
#
# Poissons Ratio (x) = 0.33045 0.10729
# Poissons Ratio (y) = 0.16244 0.31431
# Poissons Ratio (z) = 0.07391 0.44048
#
# Static dielectric constant tensor:
#      x y z
#    x 1.987160 -0.088340 -0.002460 
#    y -0.088340 1.966240 0.047980 
#    z -0.002460 0.047980 1.895130 
# 
# From -- ./inp_files/303449.got.cif
#   From: 2010.05.17/outbox.cif.g08.bks.cpg/sg2_152_cif.got.tgz:303449.got - 2010.06.03 11:33:40.
