data_PCOD9110407
_publ_section_title
;
Structure prediction by ZEFSAII (Michael W. Deem and Ramdas Pophale) SiO2 
 PCOD9110407
Probable space group: P -1
;
_chemical_formula_sum "Si O2"
_cell_formula_units_Z 13
_cell_length_a 13.005300
_cell_length_b 9.593290
_cell_length_c 8.894743
_cell_angle_alpha 124.513683
_cell_angle_beta 118.974700
_cell_angle_gamma 36.294780
_cell_volume 540.402293
_symmetry_space_group_name_H-M "P -1"
_symmetry_group_IT_number 2
_symmetry_cell_setting 'triclinic'
loop_
_space_group_symop_operation_xyz
x,y,z
-x,-y,-z
loop_
_atom_site_type_symbol
_atom_site_label
_atom_site_fract_x
_atom_site_fract_y
_atom_site_fract_z
Si Si1 0.000000 0.500000 0.500000
Si Si2 0.860532 0.688369 0.218795
Si Si3 0.633625 0.344572 0.657264
Si Si4 0.515977 0.110877 0.440899
Si Si5 0.982591 0.115737 0.214417
Si Si6 0.834866 0.090977 0.356153
Si Si7 0.356088 0.286259 0.124384
O O1 0.980526 0.491139 0.664489
O O2 0.951602 0.349288 0.338295
O O3 0.700910 0.872880 0.342282
O O4 0.859684 0.864048 0.235302
O O5 0.816673 0.587343 0.008678
O O6 0.533810 0.286375 0.610652
O O7 0.669920 0.296191 0.472704
O O8 0.590796 0.582952 0.810545
O O9 0.828118 0.108332 0.714164
O O10 0.369984 0.261848 0.299657
O O11 0.500000 0.000000 0.500000
O O12 0.838835 0.171727 0.246778
O O13 0.000000 0.000000 0.000000
O O14 0.000000 0.000000 0.500000
O O15 0.500000 0.000000 0.000000
#
# Coordination Sequence:
#
# PCOD9110407 Si02
#       7
#     1   2   2   2   2   2   2
#     4  12  20  40  66  90 138 162 214 274 326 378
#     4  10  21  40  61  90 131 164 217 263 319 395
#     4  10  20  42  61  87 130 171 216 258 330 389
#     4  10  21  40  63  91 123 167 218 267 326 376
#     4  11  23  39  63  97 133 168 215 266 330 395
#     4   9  18  40  59  84 128 170 205 249 328 399
#     4  10  22  40  64  91 124 171 224 266 319 394
#
# _framework density 24.056151
#
# number of rings (size 3 to 8) (size 9 to 14) (size 15 to 20)
#    0.000    1.846    4.615    1.385    0.000    2.462 
#    2.769    5.385    0.000    0.000    0.000    0.000 
#    0.000    0.000    0.000    0.000    0.000    0.000 
#
# Total GULP energy -72399.676477 kJ/mol
# GULP energy per Si atom -5569.205883 kJ/mol
# Density = 2.400140 g / cm^3
# Si number density = 24.056151 Si / 1000 Ang^3
#
#
#
# Elastic Constant Matrix: (Units=GPa)
#
#
# Indices 1 2 3 4 5 6 
#
# 1 172.8319 57.4352 77.2606 19.5467 5.8190 40.8014
# 2 57.4352 77.8995 32.3007 21.8219 5.6861 36.6198
# 3 77.2606 32.3007 164.1427 5.3389 28.3258 32.5565
# 4 19.5467 21.8219 5.3389 29.2435 11.9536 10.9386
# 5 5.8190 5.6861 28.3258 11.9536 36.2642 11.5708
# 6 40.8014 36.6198 32.5565 10.9386 11.5708 51.8066
#
#
#
# Elastic Compliance Matrix: (Units=1/GPa)
#
#
# Indices 1 2 3 4 5 6 
#
# 1 0.009616 -0.003340 -0.003899 -0.003869 0.004223 -0.002889
# 2 -0.003340 0.025578 -0.001581 -0.014459 0.006638 -0.012886
# 3 -0.003899 -0.001581 0.009733 0.005874 -0.008242 -0.001328
# 4 -0.003869 -0.014459 0.005874 0.053767 -0.020303 0.002759
# 5 0.004223 0.006638 -0.008242 -0.020303 0.041481 -0.007817
# 6 -0.002889 -0.012886 -0.001328 0.002759 -0.007817 0.032684
#
#
# Mechanical properties :
#
#
# Convention : Reuss Voigt Hill
#
# Bulk Modulus (GPa) = 36.64488 83.20746 59.92617
# Shear Modulus (GPa) = 25.05073 39.98802 32.51938
#
# Velocity S-wave (km/s) = 3.23049 4.08153 3.68069
# Velocity P-wave (km/s) = 5.40193 7.54160 6.55960
#
# Compressibility (1/GPa) = 0.02728894
#
# Stress axis : x y z
#
# Youngs Moduli (GPa) = 103.99156 39.09537 102.74155
#
# Poissons Ratio (x) = 0.13056 0.40060
# Poissons Ratio (y) = 0.34729 0.16241
# Poissons Ratio (z) = 0.40547 0.06180
#
# Static dielectric constant tensor:
#      x y z
#    x 1.922360 -0.094050 -0.003980 
#    y -0.094050 2.376830 -0.306280 
#    z -0.003980 -0.306280 2.106770 
# 
# From -- ./inp_files/220977.got.cif
#   From: 2010.05.17/outbox.cif.g08.bks.cpg/sg2_111_cif.got.tgz:220977.got - 2010.06.03 11:33:40.
