data_PCOD9110763
_publ_section_title
;
Structure prediction by ZEFSAII (Michael W. Deem and Ramdas Pophale) SiO2 
 PCOD9110763
Probable space group: P -1
;
_chemical_formula_sum "Si O2"
_cell_formula_units_Z 16
_cell_length_a 10.682203
_cell_length_b 10.811723
_cell_length_c 6.139503
_cell_angle_alpha 98.472055
_cell_angle_beta 69.544381
_cell_angle_gamma 99.538976
_cell_volume 652.097370
_symmetry_space_group_name_H-M "P -1"
_symmetry_group_IT_number 2
_symmetry_cell_setting 'triclinic'
loop_
_space_group_symop_operation_xyz
x,y,z
-x,-y,-z
loop_
_atom_site_type_symbol
_atom_site_label
_atom_site_fract_x
_atom_site_fract_y
_atom_site_fract_z
Si Si1 0.165793 0.139729 0.395153
Si Si2 0.362346 0.820918 0.472069
Si Si3 0.712318 0.528565 0.361506
Si Si4 0.081762 0.383607 0.359057
Si Si5 0.125752 0.683896 0.842143
Si Si6 0.027621 0.912734 0.160878
Si Si7 0.560817 0.924866 0.749427
Si Si8 0.506056 0.605031 0.214924
O O1 0.073136 0.233296 0.363790
O O2 0.325357 0.161065 0.270881
O O3 0.118462 0.139266 0.671709
O O4 0.116060 0.002659 0.296281
O O5 0.215996 0.746674 0.599072
O O6 0.447549 0.844661 0.651417
O O7 0.446557 0.736268 0.240798
O O8 0.363615 0.961197 0.414599
O O9 0.796336 0.586685 0.533291
O O10 0.792962 0.428018 0.163477
O O11 0.652819 0.616032 0.241091
O O12 0.591795 0.447482 0.543077
O O13 0.000000 0.500000 0.500000
O O14 0.026324 0.371943 0.141977
O O15 0.111221 0.797497 0.038576
O O16 0.000000 0.000000 0.000000
O O17 0.500000 0.000000 0.000000
O O18 0.500000 0.500000 0.000000
#
# Coordination Sequence:
#
# PCOD9110763 Si02
#       8
#     2   2   2   2   2   2   2   2
#     4  11  24  39  66  95 128 169 218 265 327 394
#     4  10  23  41  63  94 129 161 221 271 316 394
#     4   9  21  41  62  91 131 162 219 265 315 386
#     4  10  21  42  64  92 133 172 209 272 317 379
#     4  10  20  42  66  89 132 173 209 269 327 383
#     4  11  22  40  63  95 126 168 214 263 326 389
#     4  11  24  42  65  94 127 167 213 275 330 377
#     4  10  21  40  65  92 124 174 213 265 325 383
#
# _framework density 24.536211000000002
#
# number of rings (size 3 to 8) (size 9 to 14) (size 15 to 20)
#    0.000    1.750    1.250    2.250    1.750    6.000 
#    9.000    1.250    0.000    0.000    0.000    0.000 
#    0.000    0.000    0.000    0.000    0.000    0.000 
#
# Total GULP energy -89110.956198 kJ/mol
# GULP energy per Si atom -5569.434762 kJ/mol
# Density = 2.448037 g / cm^3
# Si number density = 24.536211 Si / 1000 Ang^3
#
#
#
# Elastic Constant Matrix: (Units=GPa)
#
#
# Indices 1 2 3 4 5 6 
#
# 1 127.0266 25.5694 30.7435 12.5282 -1.6980 -13.3192
# 2 25.5694 85.0967 30.8333 38.4269 -14.8779 -11.0443
# 3 30.7435 30.8333 78.2747 30.6182 -23.4661 -11.2301
# 4 12.5282 38.4269 30.6182 45.2670 2.1071 -0.9246
# 5 -1.6980 -14.8779 -23.4661 2.1071 29.6601 9.9327
# 6 -13.3192 -11.0443 -11.2301 -0.9246 9.9327 31.5330
#
#
#
# Elastic Compliance Matrix: (Units=1/GPa)
#
#
# Indices 1 2 3 4 5 6 
#
# 1 0.009932 -0.004168 -0.006378 0.005541 -0.008017 0.003152
# 2 -0.004168 0.026868 0.009264 -0.028854 0.021503 0.003330
# 3 -0.006378 0.009264 0.033270 -0.030079 0.032290 0.001347
# 4 0.005541 -0.028854 -0.030079 0.067263 -0.041592 -0.003404
# 5 -0.008017 0.021503 0.032290 -0.041592 0.075699 -0.009419
# 6 0.003152 0.003330 0.001347 -0.003404 -0.009419 0.037557
#
#
# Mechanical properties :
#
#
# Convention : Reuss Voigt Hill
#
# Bulk Modulus (GPa) = 14.81328 51.63224 33.22276
# Shear Modulus (GPa) = 18.13864 34.84214 26.49039
#
# Velocity S-wave (km/s) = 2.72188 3.77242 3.28936
# Velocity P-wave (km/s) = 3.99107 6.32960 5.29114
#
# Compressibility (1/GPa) = 0.06750700
#
# Stress axis : x y z
#
# Youngs Moduli (GPa) = 100.68734 37.21878 30.05675
#
# Poissons Ratio (x) = 0.15513 0.19169
# Poissons Ratio (y) = 0.41968 -0.27845
# Poissons Ratio (z) = 0.64215 -0.34480
#
# Static dielectric constant tensor:
#      x y z
#    x 2.017580 0.043770 -0.032240 
#    y 0.043770 1.979240 -0.009480 
#    z -0.032240 -0.009480 1.968210 
# 
# From -- ./inp_files/71652.got.cif
#   From: 2010.05.17/outbox.cif.g08.bks.cpg/sg2_36_cif.got.tgz:71652.got - 2010.06.03 11:33:40.
