data_PCOD9110542
_publ_section_title
;
Structure prediction by ZEFSAII (Michael W. Deem and Ramdas Pophale) SiO2 
 PCOD9110542
Probable space group: P -1
;
_chemical_formula_sum "Si O2"
_cell_formula_units_Z 13
_cell_length_a 10.858701
_cell_length_b 11.993038
_cell_length_c 11.897294
_cell_angle_alpha 89.684410
_cell_angle_beta 77.680012
_cell_angle_gamma 25.886383
_cell_volume 594.373184
_symmetry_space_group_name_H-M "P -1"
_symmetry_group_IT_number 2
_symmetry_cell_setting 'triclinic'
loop_
_space_group_symop_operation_xyz
x,y,z
-x,-y,-z
loop_
_atom_site_type_symbol
_atom_site_label
_atom_site_fract_x
_atom_site_fract_y
_atom_site_fract_z
Si Si1 0.000000 0.000000 0.500000
Si Si2 0.386996 0.191009 0.732580
Si Si3 0.445742 0.704069 0.210992
Si Si4 0.898677 0.136769 0.133360
Si Si5 0.485310 0.262975 0.274092
Si Si6 0.366642 0.178579 0.132706
Si Si7 0.788922 0.924701 0.443119
O O1 0.256022 0.804946 0.351004
O O2 0.103529 0.043440 0.526261
O O3 0.439659 0.267897 0.778726
O O4 0.534498 0.079021 0.579431
O O5 0.004886 0.485310 0.812279
O O6 0.586267 0.942203 0.769928
O O7 0.736069 0.385574 0.135694
O O8 0.198573 0.910150 0.156632
O O9 0.656081 0.244785 0.236463
O O10 0.000000 0.000000 0.000000
O O11 0.532157 0.157033 0.148590
O O12 0.635891 0.073256 0.350334
O O13 0.109012 0.590464 0.368823
O O14 0.500000 0.000000 0.000000
#
# Coordination Sequence:
#
# PCOD9110542 Si02
#       7
#     1   2   2   2   2   2   2
#     4  10  20  42  64 102 140 168 210 268 344 408
#     4  11  26  46  70 102 132 184 224 281 332 399
#     4  11  24  42  71  98 139 174 223 274 345 402
#     4  12  25  43  66 103 137 179 222 280 338 407
#     4  12  25  44  71 101 136 181 226 282 337 394
#     4  12  28  49  69  97 138 185 231 275 331 406
#     4  11  24  43  71 104 136 175 222 284 343 399
#
# _framework density 21.871780000000001
#
# number of rings (size 3 to 8) (size 9 to 14) (size 15 to 20)
#    0.000    0.615    3.077    3.692    4.308    8.615 
#    0.000    0.000    0.000    0.000    0.000    0.000 
#    0.000    0.000    0.000    0.000    0.000    0.000 
#
# Total GULP energy -72461.745748 kJ/mol
# GULP energy per Si atom -5573.980442 kJ/mol
# Density = 2.182200 g / cm^3
# Si number density = 21.871780 Si / 1000 Ang^3
#
#
#
# Elastic Constant Matrix: (Units=GPa)
#
#
# Indices 1 2 3 4 5 6 
#
# 1 29.2833 34.4270 2.7592 -53.2582 23.9547 -5.9448
# 2 34.4270 83.4873 16.2439 53.8048 9.8570 -4.8209
# 3 2.7592 16.2439 81.4064 10.0148 25.3836 -11.9633
# 4 -53.2582 53.8048 10.0148 -32.1358 6.4137 -4.9682
# 5 23.9547 9.8570 25.3836 6.4137 39.9549 1.5463
# 6 -5.9448 -4.8209 -11.9633 -4.9682 1.5463 24.5438
#
#
#
# Elastic Compliance Matrix: (Units=1/GPa)
#
#
# Indices 1 2 3 4 5 6 
#
# 1 0.011785 0.004285 0.003447 -0.013428 -0.008280 0.003180
# 2 0.004285 0.008063 -0.000073 0.004695 -0.005415 0.003877
# 3 0.003447 -0.000073 0.018305 -0.004299 -0.013364 0.009715
# 4 -0.013428 0.004695 -0.004299 0.000372 0.009756 -0.004965
# 5 -0.008280 -0.005415 -0.013364 0.009756 0.038641 -0.010043
# 6 0.003180 0.003877 0.009715 -0.004965 -0.010043 0.046638
#
#
# Mechanical properties :
#
#
# Convention : Reuss Voigt Hill
#
# Bulk Modulus (GPa) = 18.70270 33.44857 26.07563
# Shear Modulus (GPa) = 39.58487 15.85573 27.72030
#
# Velocity S-wave (km/s) = 4.25886 2.69539 3.56392
# Velocity P-wave (km/s) = 5.72307 5.00131 5.37432
#
# Compressibility (1/GPa) = 0.05346822
#
# Stress axis : x y z
#
# Youngs Moduli (GPa) = 84.85355 124.03010 54.62885
#
# Poissons Ratio (x) = -0.53141 -0.18828
# Poissons Ratio (y) = -0.36356 0.00401
# Poissons Ratio (z) = -0.29245 0.00911
#
# Static dielectric constant tensor:
#      x y z
#    x 1.838640 0.011280 0.008230 
#    y 0.011280 1.755130 -0.003360 
#    z 0.008230 -0.003360 1.767120 
# 
# From -- ./inp_files/61536.got.cif
#   From: 2010.05.17/outbox.cif.g08.bks.cpg/sg2_31_cif.got.tgz:61536.got - 2010.06.03 11:33:40.
