data_PCOD9110468
_publ_section_title
;
Structure prediction by ZEFSAII (Michael W. Deem and Ramdas Pophale) SiO2 
 PCOD9110468
Probable space group: P -1
;
_chemical_formula_sum "Si O2"
_cell_formula_units_Z 16
_cell_length_a 9.249809
_cell_length_b 16.228341
_cell_length_c 14.901211
_cell_angle_alpha 150.865346
_cell_angle_beta 75.923302
_cell_angle_gamma 83.586553
_cell_volume 768.176129
_symmetry_space_group_name_H-M "P -1"
_symmetry_group_IT_number 2
_symmetry_cell_setting 'triclinic'
loop_
_space_group_symop_operation_xyz
x,y,z
-x,-y,-z
loop_
_atom_site_type_symbol
_atom_site_label
_atom_site_fract_x
_atom_site_fract_y
_atom_site_fract_z
Si Si1 0.238027 0.278416 0.256983
Si Si2 0.142499 0.064412 0.939719
Si Si3 0.405709 0.531028 0.946569
Si Si4 0.354827 0.946307 0.073815
Si Si5 0.736740 0.272247 0.248887
Si Si6 0.952867 0.735502 0.219336
Si Si7 0.622051 0.080202 0.746450
Si Si8 0.329846 0.994691 0.655977
O O1 0.000000 0.500000 0.500000
O O2 0.299822 0.160396 0.232564
O O3 0.405212 0.280035 0.198506
O O4 0.268151 0.104050 0.014638
O O5 0.200085 0.846879 0.776105
O O6 0.202213 0.035091 0.800379
O O7 0.901334 0.281871 0.202003
O O8 0.164450 0.674975 0.125514
O O9 0.444466 0.672214 0.018891
O O10 0.500000 0.500000 0.000000
O O11 0.514281 0.278549 0.651569
O O12 0.319834 0.989424 0.224865
O O13 0.231721 0.898288 0.993761
O O14 0.500000 0.500000 0.500000
O O15 0.813776 0.903775 0.483500
O O16 0.818787 0.862680 0.270550
O O17 0.000000 0.500000 0.000000
O O18 0.453007 0.071960 0.734359
#
# Coordination Sequence:
#
# PCOD9110468 Si02
#       8
#     2   2   2   2   2   2   2   2
#     4  10  20  42  62  91 131 178 224 274 336 404
#     4  10  23  40  64  97 131 182 225 277 342 400
#     4  12  27  48  75 102 139 188 229 291 350 412
#     4  10  23  39  64  96 131 173 228 278 331 403
#     4  10  22  41  64  93 138 175 224 283 333 400
#     4  12  26  47  75 102 141 187 227 286 359 412
#     4  12  25  48  70 104 144 179 237 291 345 419
#     4  12  26  48  70 103 148 178 235 291 344 421
#
# _framework density 20.828555999999999
#
# number of rings (size 3 to 8) (size 9 to 14) (size 15 to 20)
#    0.000    1.000    3.750    2.250    3.500    1.000 
#    2.250    0.000    0.000    0.000    0.000    0.000 
#    0.000    0.000    0.000    0.000    0.000    0.000 
#
# Total GULP energy -89379.866980 kJ/mol
# GULP energy per Si atom -5586.241686 kJ/mol
# Density = 2.078115 g / cm^3
# Si number density = 20.828556 Si / 1000 Ang^3
#
#
#
# Elastic Constant Matrix: (Units=GPa)
#
#
# Indices 1 2 3 4 5 6 
#
# 1 148.5632 57.7399 47.4099 -7.3132 -5.4659 0.2120
# 2 57.7399 181.1666 66.1051 -22.7904 -8.1254 -20.8500
# 3 47.4099 66.1051 86.7739 2.8296 -18.7469 -4.2429
# 4 -7.3132 -22.7904 2.8296 28.3196 3.1327 3.4154
# 5 -5.4659 -8.1254 -18.7469 3.1327 40.4841 2.7416
# 6 0.2120 -20.8500 -4.2429 3.4154 2.7416 35.3850
#
#
#
# Elastic Compliance Matrix: (Units=1/GPa)
#
#
# Indices 1 2 3 4 5 6 
#
# 1 0.008570 -0.001174 -0.004147 0.001962 -0.001059 -0.001348
# 2 -0.001174 0.010169 -0.007734 0.008408 -0.002652 0.004465
# 3 -0.004147 -0.007734 0.021864 -0.010271 0.008916 -0.001610
# 4 0.001962 0.008408 -0.010271 0.044309 -0.006227 -0.000084
# 5 -0.001059 -0.002652 0.008916 -0.006227 0.028780 -0.002116
# 6 -0.001348 0.004465 -0.001610 -0.000084 -0.002116 0.030879
#
#
# Mechanical properties :
#
#
# Convention : Reuss Voigt Hill
#
# Bulk Modulus (GPa) = 68.99611 84.33481 76.66546
# Shear Modulus (GPa) = 28.48821 37.18766 32.83794
#
# Velocity S-wave (km/s) = 3.70232 4.23000 3.97493
# Velocity P-wave (km/s) = 7.17453 8.02715 7.61279
#
# Compressibility (1/GPa) = 0.01449357
#
# Stress axis : x y z
#
# Youngs Moduli (GPa) = 116.68121 98.34262 45.73725
#
# Poissons Ratio (x) = 0.11546 0.18966
# Poissons Ratio (y) = 0.13700 0.35372
# Poissons Ratio (z) = 0.48386 0.76056
#
# Static dielectric constant tensor:
#      x y z
#    x 1.758100 0.037500 0.027250 
#    y 0.037500 1.718850 0.036300 
#    z 0.027250 0.036300 1.805460 
# 
# From -- ./inp_files/505751.got.cif
#   From: 2010.05.17/outbox.cif.g08.bks.cpg/sg2_253_cif.got.tgz:505751.got - 2010.06.03 11:33:40.
