data_PCOD9110924
_publ_section_title
;
Structure prediction by ZEFSAII (Michael W. Deem and Ramdas Pophale) SiO2 
 PCOD9110924
Probable space group: P -1
;
_chemical_formula_sum "Si O2"
_cell_formula_units_Z 15
_cell_length_a 22.818073
_cell_length_b 5.306148
_cell_length_c 9.193698
_cell_angle_alpha 49.502013
_cell_angle_beta 131.895929
_cell_angle_gamma 131.153334
_cell_volume 578.439451
_symmetry_space_group_name_H-M "P -1"
_symmetry_group_IT_number 2
_symmetry_cell_setting 'triclinic'
loop_
_space_group_symop_operation_xyz
x,y,z
-x,-y,-z
loop_
_atom_site_type_symbol
_atom_site_label
_atom_site_fract_x
_atom_site_fract_y
_atom_site_fract_z
Si Si1 0.461548 0.572371 0.554567
Si Si2 0.000000 0.000000 0.000000
Si Si3 0.164001 0.851300 0.306784
Si Si4 0.565750 0.486992 0.992716
Si Si5 0.830354 0.175916 0.002008
Si Si6 0.725437 0.402090 0.227005
Si Si7 0.996632 0.832943 0.716576
Si Si8 0.313242 0.689471 0.143547
O O1 0.500000 0.500000 0.500000
O O2 0.495882 0.342517 0.804070
O O3 0.363107 0.483157 0.387061
O O4 0.500000 0.000000 0.500000
O O5 0.907682 0.015708 0.807614
O O6 0.024607 0.040955 0.837076
O O7 0.199864 0.953703 0.164026
O O8 0.228873 0.842853 0.541308
O O9 0.100590 0.433815 0.327172
O O10 0.628291 0.887796 0.892817
O O11 0.500000 0.500000 0.000000
O O12 0.641297 0.353231 0.200991
O O13 0.776951 0.386840 0.901111
O O14 0.935436 0.371905 0.105818
O O15 0.798362 0.810844 0.182675
O O16 0.692321 0.326437 0.034426
O O17 0.000000 0.000000 0.500000
#
# Coordination Sequence:
#
# PCOD9110924 Si02
#       8
#     2   1   2   2   2   2   2   2
#     4  10  20  42  67  92 133 180 226 283 351 426
#     4  10  24  40  66  98 128 184 232 278 356 412
#     4  11  25  44  67  98 138 176 235 286 344 428
#     4  10  23  42  64  95 131 177 228 282 351 427
#     4  10  23  42  63  96 132 177 227 288 344 417
#     4  11  23  42  64  98 134 173 230 281 355 414
#     4  11  23  45  69  96 138 183 234 290 348 423
#     4  10  23  42  64  94 133 174 226 286 347 425
#
# _framework density 25.931837000000002
#
# number of rings (size 3 to 8) (size 9 to 14) (size 15 to 20)
#    0.000    1.600    2.667    1.600    3.733    5.333 
#    2.400    0.000    0.000    0.000    0.000    0.000 
#    0.000    0.000    0.000    0.000    0.000    0.000 
#
# Total GULP energy -83523.730544 kJ/mol
# GULP energy per Si atom -5568.248703 kJ/mol
# Density = 2.587282 g / cm^3
# Si number density = 25.931837 Si / 1000 Ang^3
#
#
#
# Elastic Constant Matrix: (Units=GPa)
#
#
# Indices 1 2 3 4 5 6 
#
# 1 182.2767 9.9693 76.7530 3.1834 14.3324 -11.9407
# 2 9.9693 45.6562 -4.6242 10.6983 2.9973 16.0745
# 3 76.7530 -4.6242 209.7259 6.5107 33.3262 -5.8407
# 4 3.1834 10.6983 6.5107 30.9384 -0.5918 -2.3390
# 5 14.3324 2.9973 33.3262 -0.5918 58.1236 3.7809
# 6 -11.9407 16.0745 -5.8407 -2.3390 3.7809 54.6403
#
#
#
# Elastic Compliance Matrix: (Units=1/GPa)
#
#
# Indices 1 2 3 4 5 6 
#
# 1 0.006817 -0.002659 -0.002485 0.000892 -0.000244 0.002061
# 2 -0.002659 0.028485 0.001905 -0.010694 -0.001421 -0.009117
# 3 -0.002485 0.001905 0.006255 -0.001801 -0.003071 -0.000299
# 4 0.000892 -0.010694 -0.001801 0.036684 0.001437 0.004619
# 5 -0.000244 -0.001421 -0.003071 0.001437 0.019194 -0.001230
# 6 0.002061 -0.009117 -0.000299 0.004619 -0.001230 0.021685
#
#
# Mechanical properties :
#
#
# Convention : Reuss Voigt Hill
#
# Bulk Modulus (GPa) = 28.50650 66.87279 47.68964
# Shear Modulus (GPa) = 36.41940 52.44451 44.43196
#
# Velocity S-wave (km/s) = 3.75164 4.50199 4.14383
# Velocity P-wave (km/s) = 5.45739 7.27102 6.42848
#
# Compressibility (1/GPa) = 0.03507972
#
# Stress axis : x y z
#
# Youngs Moduli (GPa) = 146.70268 35.10587 159.87210
#
# Poissons Ratio (x) = 0.09334 0.39724
# Poissons Ratio (y) = 0.39006 -0.30457
# Poissons Ratio (z) = 0.36452 -0.06688
#
# Static dielectric constant tensor:
#      x y z
#    x 2.049510 0.055540 -0.014060 
#    y 0.055540 1.990420 0.008180 
#    z -0.014060 0.008180 1.998430 
# 
# From -- ./inp_files/41717.got.cif
#   From: 2010.05.17/outbox.cif.g08.bks.cpg/sg2_21_cif.got.tgz:41717.got - 2010.06.03 11:33:40.
