data_PCOD9110211
_publ_section_title
;
Structure prediction by ZEFSAII (Michael W. Deem and Ramdas Pophale) SiO2 
 PCOD9110211
Probable space group: P -1
;
_chemical_formula_sum "Si O2"
_cell_formula_units_Z 16
_cell_length_a 11.736256
_cell_length_b 14.776115
_cell_length_c 6.522042
_cell_angle_alpha 103.499533
_cell_angle_beta 124.330760
_cell_angle_gamma 112.519199
_cell_volume 697.137826
_symmetry_space_group_name_H-M "P -1"
_symmetry_group_IT_number 2
_symmetry_cell_setting 'triclinic'
loop_
_space_group_symop_operation_xyz
x,y,z
-x,-y,-z
loop_
_atom_site_type_symbol
_atom_site_label
_atom_site_fract_x
_atom_site_fract_y
_atom_site_fract_z
Si Si1 0.834735 0.116761 0.857176
Si Si2 0.887861 0.535154 0.304306
Si Si3 0.901103 0.792336 0.171650
Si Si4 0.446902 0.085075 0.846531
Si Si5 0.836512 0.208854 0.318447
Si Si6 0.688663 0.628750 0.221345
Si Si7 0.494244 0.282698 0.709647
Si Si8 0.747910 0.915496 0.963747
O O1 0.012598 0.208118 0.950258
O O2 0.667494 0.027416 0.487282
O O3 0.835448 0.021795 0.940953
O O4 0.812413 0.188944 0.037349
O O5 0.825313 0.602888 0.398557
O O6 0.000000 0.500000 0.500000
O O7 0.047413 0.654904 0.402052
O O8 0.695539 0.413619 0.964847
O O9 0.047004 0.828117 0.509186
O O10 0.727178 0.673447 0.045711
O O11 0.122829 0.109823 0.840339
O O12 0.500149 0.201938 0.837043
O O13 0.633073 0.123988 0.136339
O O14 0.333066 0.068389 0.915138
O O15 0.659650 0.710953 0.363250
O O16 0.500000 0.500000 0.000000
O O17 0.417715 0.207938 0.383418
#
# Coordination Sequence:
#
# PCOD9110211 Si02
#       8
#     2   2   2   2   2   2   2   2
#     4  11  26  42  70 102 139 185 233 284 348 406
#     4  10  20  41  71 100 131 177 226 290 338 404
#     4  11  24  42  68 104 137 177 232 282 343 408
#     4  11  23  45  69  99 140 186 227 288 343 413
#     4  11  25  44  70  99 142 180 235 287 349 411
#     4   9  20  41  69  96 138 177 223 279 340 406
#     4  10  21  43  67 102 137 180 227 276 353 410
#     4  11  25  43  70 101 142 184 231 283 341 417
#
# _framework density 22.950986
#
# number of rings (size 3 to 8) (size 9 to 14) (size 15 to 20)
#    0.000    1.500    2.500    1.500    3.500    6.000 
#    0.000   10.000    0.000    0.000    0.000    0.000 
#    0.000    0.000    0.000    0.000    0.000    0.000 
#
# Total GULP energy -89185.679912 kJ/mol
# GULP energy per Si atom -5574.104995 kJ/mol
# Density = 2.289875 g / cm^3
# Si number density = 22.950986 Si / 1000 Ang^3
#
#
#
# Elastic Constant Matrix: (Units=GPa)
#
#
# Indices 1 2 3 4 5 6 
#
# 1 63.6280 26.0482 5.0556 -13.0984 9.9593 -1.9854
# 2 26.0482 124.4882 57.4454 4.4600 8.1671 14.2315
# 3 5.0556 57.4454 86.9011 1.5485 -0.3276 -3.5819
# 4 -13.0984 4.4600 1.5485 37.8659 -4.3381 12.2487
# 5 9.9593 8.1671 -0.3276 -4.3381 35.0728 -9.3454
# 6 -1.9854 14.2315 -3.5819 12.2487 -9.3454 50.9172
#
#
#
# Elastic Compliance Matrix: (Units=1/GPa)
#
#
# Indices 1 2 3 4 5 6 
#
# 1 0.019597 -0.005084 0.002086 0.006880 -0.003501 0.000034
# 2 -0.005084 0.014279 -0.009332 -0.001829 -0.003542 -0.005056
# 3 0.002086 -0.009332 0.017751 -0.000018 0.002939 0.004482
# 4 0.006880 -0.001829 -0.000018 0.031214 0.000567 -0.006626
# 5 -0.003501 -0.003542 0.002939 0.000567 0.032252 0.006843
# 6 0.000034 -0.005056 0.004482 -0.006626 0.006843 0.024220
#
#
# Mechanical properties :
#
#
# Convention : Reuss Voigt Hill
#
# Bulk Modulus (GPa) = 37.08191 50.23506 43.65848
# Shear Modulus (GPa) = 28.90796 37.20238 33.05517
#
# Velocity S-wave (km/s) = 3.55287 4.03047 3.79918
# Velocity P-wave (km/s) = 5.74653 6.60266 6.18941
#
# Compressibility (1/GPa) = 0.02696733
#
# Stress axis : x y z
#
# Youngs Moduli (GPa) = 51.02719 70.03269 56.33397
#
# Poissons Ratio (x) = 0.35604 -0.11753
# Poissons Ratio (y) = 0.25942 0.52573
# Poissons Ratio (z) = -0.10646 0.65358
#
# Static dielectric constant tensor:
#      x y z
#    x 1.968230 -0.019420 0.028070 
#    y -0.019420 1.952800 0.039460 
#    z 0.028070 0.039460 1.876010 
# 
# From -- ./inp_files/80848.got.cif
#   From: 2010.05.17/outbox.cif.g08.bks.cpg/sg2_41_cif.got.tgz:80848.got - 2010.06.03 11:33:40.
