data_PCOD9110425
_publ_section_title
;
Structure prediction by ZEFSAII (Michael W. Deem and Ramdas Pophale) SiO2 
 PCOD9110425
Probable space group: P -1
;
_chemical_formula_sum "Si O2"
_cell_formula_units_Z 16
_cell_length_a 13.015380
_cell_length_b 9.370373
_cell_length_c 8.535689
_cell_angle_alpha 67.158289
_cell_angle_beta 125.794275
_cell_angle_gamma 120.040576
_cell_volume 724.180067
_symmetry_space_group_name_H-M "P -1"
_symmetry_group_IT_number 2
_symmetry_cell_setting 'triclinic'
loop_
_space_group_symop_operation_xyz
x,y,z
-x,-y,-z
loop_
_atom_site_type_symbol
_atom_site_label
_atom_site_fract_x
_atom_site_fract_y
_atom_site_fract_z
Si Si1 0.199163 0.308669 0.599825
Si Si2 0.965221 0.353014 0.158359
Si Si3 0.493900 0.586586 0.297913
Si Si4 0.780725 0.982622 0.103078
Si Si5 0.849583 0.442819 0.324240
Si Si6 0.572060 0.112953 0.770584
Si Si7 0.633576 0.188054 0.452039
Si Si8 0.590679 0.656962 0.902811
O O1 0.355132 0.364406 0.659868
O O2 0.160328 0.112095 0.678299
O O3 0.197338 0.409002 0.717251
O O4 0.099740 0.350905 0.371750
O O5 0.865353 0.388617 0.184120
O O6 0.891929 0.167327 0.099515
O O7 0.000000 0.500000 0.000000
O O8 0.500000 0.500000 0.500000
O O9 0.458477 0.746790 0.225002
O O10 0.374374 0.449494 0.153903
O O11 0.712193 0.827031 0.987763
O O12 0.643718 0.023079 0.988047
O O13 0.758345 0.288171 0.412446
O O14 0.000000 0.500000 0.500000
O O15 0.664614 0.181092 0.666836
O O16 0.437475 0.989979 0.617065
O O17 0.521849 0.274285 0.297346
O O18 0.500000 0.500000 0.000000
#
# Coordination Sequence:
#
# PCOD9110425 Si02
#       8
#     2   2   2   2   2   2   2   2
#     4  11  24  49  69 102 145 188 236 291 357 428
#     4  11  28  49  74 104 137 190 247 299 349 428
#     4  12  23  41  71 107 143 185 231 292 357 419
#     4  11  25  45  71 101 147 184 238 294 356 422
#     4  10  22  42  75  93 136 188 236 284 359 415
#     4  10  24  38  69 106 142 182 231 297 352 417
#     4  10  20  42  62 103 142 179 232 287 358 423
#     4  11  21  40  68 100 140 179 224 293 351 422
#
# _framework density 22.093952999999999
#
# number of rings (size 3 to 8) (size 9 to 14) (size 15 to 20)
#    0.000    1.250    3.750    0.375    7.000    2.500 
#    0.000    0.625    0.000    0.000    0.000    0.000 
#    0.000    0.000    0.000    0.000    0.000    0.000 
#
# Total GULP energy -89124.158564 kJ/mol
# GULP energy per Si atom -5570.259910 kJ/mol
# Density = 2.204367 g / cm^3
# Si number density = 22.093953 Si / 1000 Ang^3
#
#
#
# Elastic Constant Matrix: (Units=GPa)
#
#
# Indices 1 2 3 4 5 6 
#
# 1 113.1445 65.4844 32.4603 -5.0783 -4.1119 -9.0224
# 2 65.4844 200.3143 66.1280 -1.9657 -6.8359 -16.4506
# 3 32.4603 66.1280 111.9197 -8.7623 5.8141 -4.8204
# 4 -5.0783 -1.9657 -8.7623 42.4753 1.5671 -1.2029
# 5 -4.1119 -6.8359 5.8141 1.5671 26.9694 -9.5859
# 6 -9.0224 -16.4506 -4.8204 -1.2029 -9.5859 44.5528
#
#
#
# Elastic Compliance Matrix: (Units=1/GPa)
#
#
# Indices 1 2 3 4 5 6 
#
# 1 0.011202 -0.003009 -0.001430 0.000882 0.001697 0.001392
# 2 -0.003009 0.007485 -0.003673 -0.000818 0.003134 0.002409
# 3 -0.001430 -0.003673 0.011864 0.002229 -0.004270 -0.001221
# 4 0.000882 -0.000818 0.002229 0.024149 -0.001823 0.000377
# 5 0.001697 0.003134 -0.004270 -0.001823 0.042782 0.010195
# 6 0.001392 0.002409 -0.001221 0.000377 0.010195 0.025688
#
#
# Mechanical properties :
#
#
# Convention : Reuss Voigt Hill
#
# Bulk Modulus (GPa) = 69.80055 83.72486 76.76271
# Shear Modulus (GPa) = 34.68109 40.21989 37.45049
#
# Velocity S-wave (km/s) = 3.96625 4.27125 4.12157
# Velocity P-wave (km/s) = 7.25507 7.89316 7.58083
#
# Compressibility (1/GPa) = 0.01432653
#
# Stress axis : x y z
#
# Youngs Moduli (GPa) = 89.26644 133.59705 84.29000
#
# Poissons Ratio (x) = 0.40201 0.12056
# Poissons Ratio (y) = 0.26861 0.30960
# Poissons Ratio (z) = 0.12768 0.49071
#
# Static dielectric constant tensor:
#      x y z
#    x 1.856720 0.016370 0.010220 
#    y 0.016370 1.813230 -0.101210 
#    z 0.010220 -0.101210 1.662820 
# 
# From -- ./inp_files/243201.got.cif
#   From: 2010.05.17/outbox.cif.g08.bks.cpg/sg2_122_cif.got.tgz:243201.got - 2010.06.03 11:33:40.
