data_PCOD9110618
_publ_section_title
;
Structure prediction by ZEFSAII (Michael W. Deem and Ramdas Pophale) SiO2 
 PCOD9110618
Probable space group: P -1
;
_chemical_formula_sum "Si O2"
_cell_formula_units_Z 16
_cell_length_a 15.188498
_cell_length_b 15.029678
_cell_length_c 5.311595
_cell_angle_alpha 94.311570
_cell_angle_beta 77.348248
_cell_angle_gamma 148.108814
_cell_volume 610.425686
_symmetry_space_group_name_H-M "P -1"
_symmetry_group_IT_number 2
_symmetry_cell_setting 'triclinic'
loop_
_space_group_symop_operation_xyz
x,y,z
-x,-y,-z
loop_
_atom_site_type_symbol
_atom_site_label
_atom_site_fract_x
_atom_site_fract_y
_atom_site_fract_z
Si Si1 0.929423 0.612147 0.710472
Si Si2 0.835385 0.292773 0.086555
Si Si3 0.855061 0.067565 0.523739
Si Si4 0.300637 0.748363 0.330508
Si Si5 0.315246 0.498388 0.776765
Si Si6 0.665463 0.763968 0.879669
Si Si7 0.521136 0.785026 0.360178
Si Si8 0.106130 0.178993 0.015771
O O1 0.859128 0.457597 0.634336
O O2 0.073063 0.718155 0.863724
O O3 0.029763 0.748285 0.453392
O O4 0.769568 0.527179 0.929475
O O5 0.713562 0.220755 0.379627
O O6 0.728088 0.210047 0.877083
O O7 0.000000 0.500000 0.000000
O O8 0.973288 0.127096 0.240710
O O9 0.818288 0.956115 0.713093
O O10 0.665259 0.932439 0.507871
O O11 0.469323 0.826328 0.235058
O O12 0.507992 0.626970 0.752009
O O13 0.349538 0.602462 0.570838
O O14 0.191732 0.309036 0.766511
O O15 0.732604 0.723488 0.902144
O O16 0.595907 0.764371 0.155153
O O17 0.000000 0.000000 0.000000
#
# Coordination Sequence:
#
# PCOD9110618 Si02
#       8
#     2   2   2   2   2   2   2   2
#     4  10  20  42  64  96 122 166 215 263 325 375
#     4  10  21  38  65  98 128 167 214 274 321 382
#     4  10  24  42  62  90 129 164 208 270 322 381
#     4  11  22  40  67  95 130 169 219 268 321 388
#     4  10  23  40  64  88 126 164 215 260 314 390
#     4  11  22  42  61  87 124 168 208 256 323 385
#     4  11  22  41  63  91 125 170 210 260 320 389
#     4  11  22  42  61  93 122 163 210 267 323 373
#
# _framework density 26.211217999999999
#
# number of rings (size 3 to 8) (size 9 to 14) (size 15 to 20)
#    0.000    1.500    2.500    3.750    1.750    1.500 
#    9.000    1.250    0.000    0.000    0.000    0.000 
#    0.000    0.000    0.000    0.000    0.000    0.000 
#
# Total GULP energy -89541.395297 kJ/mol
# GULP energy per Si atom -5596.337206 kJ/mol
# Density = 2.615156 g / cm^3
# Si number density = 26.211218 Si / 1000 Ang^3
#
#
#
# Elastic Constant Matrix: (Units=GPa)
#
#
# Indices 1 2 3 4 5 6 
#
# 1 145.6946 9.4339 18.6691 -6.9024 22.9886 20.5804
# 2 9.4339 70.3993 25.1674 -29.0724 1.3371 -2.6913
# 3 18.6691 25.1674 104.9319 -20.0201 13.9239 -0.2316
# 4 -6.9024 -29.0724 -20.0201 41.7007 -4.1228 8.2918
# 5 22.9886 1.3371 13.9239 -4.1228 41.2770 -0.0338
# 6 20.5804 -2.6913 -0.2316 8.2918 -0.0338 32.0669
#
#
#
# Elastic Compliance Matrix: (Units=1/GPa)
#
#
# Indices 1 2 3 4 5 6 
#
# 1 0.008578 -0.000438 -0.000541 0.001603 -0.004426 -0.005965
# 2 -0.000438 0.020702 -0.002528 0.013626 0.001786 -0.001521
# 3 -0.000541 -0.002528 0.011288 0.003394 -0.003086 -0.000664
# 4 0.001603 0.013626 0.003394 0.037393 0.001248 -0.009529
# 5 -0.004426 0.001786 -0.003086 0.001248 0.027801 0.002675
# 6 -0.005965 -0.001521 -0.000664 -0.009529 0.002675 0.037348
#
#
# Mechanical properties :
#
#
# Convention : Reuss Voigt Hill
#
# Bulk Modulus (GPa) = 29.80253 47.50742 38.65497
# Shear Modulus (GPa) = 30.99640 40.85928 35.92784
#
# Velocity S-wave (km/s) = 3.44257 3.95251 3.70632
# Velocity P-wave (km/s) = 5.21503 6.24451 5.75285
#
# Compressibility (1/GPa) = 0.03355420
#
# Stress axis : x y z
#
# Youngs Moduli (GPa) = 116.57337 48.30473 88.58762
#
# Poissons Ratio (x) = 0.02115 0.04794
# Poissons Ratio (y) = 0.05105 0.22395
# Poissons Ratio (z) = 0.06309 0.12212
#
# Static dielectric constant tensor:
#      x y z
#    x 2.172070 -0.034900 0.044690 
#    y -0.034900 2.179180 0.021980 
#    z 0.044690 0.021980 2.034630 
# 
# From -- ./inp_files/97895.got.cif
#   From: 2010.05.17/outbox.cif.g08.bks.cpg/sg2_49_cif.got.tgz:97895.got - 2010.06.03 11:33:40.
