data_PCOD9110313
_publ_section_title
;
Structure prediction by ZEFSAII (Michael W. Deem and Ramdas Pophale) SiO2 
 PCOD9110313
Probable space group: P -1
;
_chemical_formula_sum "Si O2"
_cell_formula_units_Z 16
_cell_length_a 10.176791
_cell_length_b 19.872776
_cell_length_c 16.139410
_cell_angle_alpha 159.568625
_cell_angle_beta 34.676885
_cell_angle_gamma 145.539653
_cell_volume 623.967602
_symmetry_space_group_name_H-M "P -1"
_symmetry_group_IT_number 2
_symmetry_cell_setting 'triclinic'
loop_
_space_group_symop_operation_xyz
x,y,z
-x,-y,-z
loop_
_atom_site_type_symbol
_atom_site_label
_atom_site_fract_x
_atom_site_fract_y
_atom_site_fract_z
Si Si1 0.834648 0.041608 0.242549
Si Si2 0.421154 0.800150 0.724768
Si Si3 0.085612 0.291199 0.059988
Si Si4 0.858498 0.382606 0.858992
Si Si5 0.652222 0.849287 0.939238
Si Si6 0.455887 0.605307 0.314972
Si Si7 0.678979 0.547525 0.383941
Si Si8 0.654438 0.913717 0.440982
O O1 0.617244 0.104514 0.471266
O O2 0.101311 0.188305 0.267329
O O3 0.879301 0.849437 0.043664
O O4 0.737396 0.973456 0.122180
O O5 0.364096 0.648203 0.501308
O O6 0.646395 0.751611 0.595567
O O7 0.197586 0.743218 0.837393
O O8 0.442404 0.015534 0.922065
O O9 0.206973 0.211756 0.829288
O O10 0.231737 0.513586 0.265877
O O11 0.040494 0.434673 0.746333
O O12 0.788792 0.146315 0.638748
O O13 0.620929 0.454420 0.053655
O O14 0.000000 0.500000 0.000000
O O15 0.451396 0.647094 0.827987
O O16 0.620035 0.812201 0.431799
O O17 0.500000 0.500000 0.500000
#
# Coordination Sequence:
#
# PCOD9110313 Si02
#       8
#     2   2   2   2   2   2   2   2
#     4  10  20  41  73 100 141 181 226 285 356 418
#     4  11  25  46  71 105 141 183 238 288 347 424
#     4  11  25  43  72 111 147 175 233 303 360 413
#     4  12  28  50  70 101 143 192 244 281 341 432
#     4  10  23  44  71 103 136 189 235 284 348 421
#     4  12  25  45  75 105 140 190 235 287 356 427
#     4  12  29  46  72  99 142 190 237 291 347 417
#     4  12  26  44  72 108 145 185 227 299 358 409
#
# _framework density 25.642358000000002
#
# number of rings (size 3 to 8) (size 9 to 14) (size 15 to 20)
#    0.000    0.750    3.750    2.625    7.000    2.000 
#    0.000    0.000    0.000    0.000    0.000    0.000 
#    0.000    0.000    0.000    0.000    0.000    0.000 
#
# Total GULP energy -89660.628748 kJ/mol
# GULP energy per Si atom -5603.789297 kJ/mol
# Density = 2.558399 g / cm^3
# Si number density = 25.642358 Si / 1000 Ang^3
#
#
#
# Elastic Constant Matrix: (Units=GPa)
#
#
# Indices 1 2 3 4 5 6 
#
# 1 37.6448 1.2735 12.7639 -1.8265 -4.5027 6.9978
# 2 1.2735 117.4942 31.0539 -15.3577 2.3129 12.1983
# 3 12.7639 31.0539 104.9936 -28.4423 -1.2955 5.9459
# 4 -1.8265 -15.3577 -28.4423 52.3293 -2.7877 -3.7440
# 5 -4.5027 2.3129 -1.2955 -2.7877 41.8575 -2.4423
# 6 6.9978 12.1983 5.9459 -3.7440 -2.4423 32.2556
#
#
#
# Elastic Compliance Matrix: (Units=1/GPa)
#
#
# Indices 1 2 3 4 5 6 
#
# 1 0.029175 0.001123 -0.003779 -0.000999 0.002544 -0.005981
# 2 0.001123 0.009677 -0.002475 0.001263 -0.000602 -0.003346
# 3 -0.003779 -0.002475 0.012300 0.005870 0.000514 0.000209
# 4 -0.000999 0.001263 0.005870 0.022824 0.001608 0.001428
# 5 0.002544 -0.000602 0.000514 0.001608 0.024415 0.001616
# 6 -0.005981 -0.003346 0.000209 0.001428 0.001616 0.033815
#
#
# Mechanical properties :
#
#
# Convention : Reuss Voigt Hill
#
# Bulk Modulus (GPa) = 24.45540 38.92391 31.68965
# Shear Modulus (GPa) = 32.03111 39.62459 35.82785
#
# Velocity S-wave (km/s) = 3.53816 3.93527 3.74199
# Velocity P-wave (km/s) = 5.12341 5.98840 5.57271
#
# Compressibility (1/GPa) = 0.04089077
#
# Stress axis : x y z
#
# Youngs Moduli (GPa) = 34.27578 103.33540 81.29856
#
# Poissons Ratio (x) = -0.11604 0.30726
# Poissons Ratio (y) = -0.03849 0.20118
# Poissons Ratio (z) = 0.12954 0.25571
#
# Static dielectric constant tensor:
#      x y z
#    x 2.011360 -0.031200 0.033090 
#    y -0.031200 1.994000 -0.021820 
#    z 0.033090 -0.021820 2.023730 
# 
# From -- ./inp_files/570781.got.cif
#   From: 2010.05.17/outbox.cif.g08.bks.cpg/sg2_286_cif.got.tgz:570781.got - 2010.06.03 11:33:40.
