data_PCOD9110371
_publ_section_title
;
Structure prediction by ZEFSAII (Michael W. Deem and Ramdas Pophale) SiO2 
 PCOD9110371
Probable space group: P -1
;
_chemical_formula_sum "Si O2"
_cell_formula_units_Z 14
_cell_length_a 10.447213
_cell_length_b 9.375176
_cell_length_c 7.594964
_cell_angle_alpha 95.773981
_cell_angle_beta 121.668674
_cell_angle_gamma 98.185608
_cell_volume 612.942165
_symmetry_space_group_name_H-M "P -1"
_symmetry_group_IT_number 2
_symmetry_cell_setting 'triclinic'
loop_
_space_group_symop_operation_xyz
x,y,z
-x,-y,-z
loop_
_atom_site_type_symbol
_atom_site_label
_atom_site_fract_x
_atom_site_fract_y
_atom_site_fract_z
Si Si1 0.131921 0.503432 0.331175
Si Si2 0.940117 0.211925 0.521409
Si Si3 0.248443 0.251105 0.531815
Si Si4 0.809540 0.310984 0.954475
Si Si5 0.242027 0.959166 0.337163
Si Si6 0.603036 0.108909 0.224478
Si Si7 0.469797 0.659690 0.007409
O O1 0.073263 0.621246 0.425936
O O2 0.248814 0.414837 0.486993
O O3 0.199472 0.598960 0.221729
O O4 0.983379 0.375179 0.154181
O O5 0.912318 0.123998 0.675295
O O6 0.782607 0.138143 0.297125
O O7 0.093985 0.205034 0.532443
O O8 0.391938 0.249056 0.761368
O O9 0.246264 0.131077 0.362373
O O10 0.764866 0.138204 0.852573
O O11 0.689506 0.348753 0.008307
O O12 0.379382 0.934890 0.565585
O O13 0.545117 0.258674 0.176350
O O14 0.500000 0.000000 0.000000
O O15 0.500000 0.500000 0.000000
#
# Coordination Sequence:
#
# PCOD9110371 Si02
#       7
#     2   2   2   2   2   2   2
#     4  10  21  40  63  87 121 161 200 246 305 346
#     4   9  19  37  63  87 124 153 195 250 295 349
#     4  12  21  36  62  96 119 152 209 249 287 359
#     4  10  23  44  60  83 126 164 193 247 309 356
#     4   9  22  39  63  87 123 159 200 240 306 353
#     4  10  20  42  59  91 122 159 196 242 306 356
#     4  12  24  38  64  92 118 158 207 246 296 361
#
# _framework density 22.840655000000002
#
# number of rings (size 3 to 8) (size 9 to 14) (size 15 to 20)
#    0.857    0.857    1.429    3.429    0.000    1.714 
#    0.000    0.000    0.000    0.000    0.000    0.000 
#    0.000    0.000    0.000    0.000    0.000    0.000 
#
# Total GULP energy -78199.121906 kJ/mol
# GULP energy per Si atom -5585.651565 kJ/mol
# Density = 2.278867 g / cm^3
# Si number density = 22.840655 Si / 1000 Ang^3
#
#
#
# Elastic Constant Matrix: (Units=GPa)
#
#
# Indices 1 2 3 4 5 6 
#
# 1 30.7407 5.3502 3.2023 -7.6981 -9.5851 -1.0365
# 2 5.3502 104.9238 7.6421 17.7817 -8.1329 -22.6900
# 3 3.2023 7.6421 63.7596 13.9980 3.2810 2.5150
# 4 -7.6981 17.7817 13.9980 45.8777 -5.3600 -1.3368
# 5 -9.5851 -8.1329 3.2810 -5.3600 23.8813 10.1008
# 6 -1.0365 -22.6900 2.5150 -1.3368 10.1008 20.3077
#
#
#
# Elastic Compliance Matrix: (Units=1/GPa)
#
#
# Indices 1 2 3 4 5 6 
#
# 1 0.045512 -0.005650 -0.005489 0.014191 0.026958 -0.015784
# 2 -0.005650 0.014558 -0.000386 -0.006713 -0.006781 0.018957
# 3 -0.005489 -0.000386 0.017865 -0.006959 -0.006231 -0.000283
# 4 0.014191 -0.006713 -0.006959 0.030455 0.016279 -0.012006
# 5 0.026958 -0.006781 -0.006231 0.016279 0.071854 -0.040097
# 6 -0.015784 0.018957 -0.000283 -0.012006 -0.040097 0.088805
#
#
# Mechanical properties :
#
#
# Convention : Reuss Voigt Hill
#
# Bulk Modulus (GPa) = 18.21942 25.75703 21.98822
# Shear Modulus (GPa) = 16.10847 30.22864 23.16855
#
# Velocity S-wave (km/s) = 2.65854 3.64188 3.18835
# Velocity P-wave (km/s) = 4.17347 5.38384 4.81682
#
# Compressibility (1/GPa) = 0.05488649
#
# Stress axis : x y z
#
# Youngs Moduli (GPa) = 21.97204 68.68907 55.97412
#
# Poissons Ratio (x) = 0.38808 0.30723
# Poissons Ratio (y) = 0.12414 0.02162
# Poissons Ratio (z) = 0.12060 0.02653
#
# Static dielectric constant tensor:
#      x y z
#    x 1.836830 0.061020 -0.028710 
#    y 0.061020 1.900260 -0.001110 
#    z -0.028710 -0.001110 1.917240 
# 
# From -- ./inp_files/240760.got.cif
#   From: 2010.05.17/outbox.cif.g08.bks.cpg/sg2_121_cif.got.tgz:240760.got - 2010.06.03 11:33:40.
