data_PCOD9110370
_publ_section_title
;
Structure prediction by ZEFSAII (Michael W. Deem and Ramdas Pophale) SiO2 
 PCOD9110370
Probable space group: P -1
;
_chemical_formula_sum "Si O2"
_cell_formula_units_Z 16
_cell_length_a 9.303498
_cell_length_b 19.121076
_cell_length_c 9.474875
_cell_angle_alpha 133.318030
_cell_angle_beta 111.977716
_cell_angle_gamma 34.566302
_cell_volume 617.064697
_symmetry_space_group_name_H-M "P -1"
_symmetry_group_IT_number 2
_symmetry_cell_setting 'triclinic'
loop_
_space_group_symop_operation_xyz
x,y,z
-x,-y,-z
loop_
_atom_site_type_symbol
_atom_site_label
_atom_site_fract_x
_atom_site_fract_y
_atom_site_fract_z
Si Si1 0.200283 0.270784 0.213510
Si Si2 0.683900 0.996569 0.238184
Si Si3 0.392397 0.451402 0.666086
Si Si4 0.619081 0.524978 0.730421
Si Si5 0.829235 0.487755 0.041068
Si Si6 0.067769 0.961483 0.731682
Si Si7 0.618975 0.166885 0.049268
Si Si8 0.221782 0.258523 0.630474
O O1 0.408164 0.173376 0.287752
O O2 0.340824 0.253423 0.110465
O O3 0.871654 0.468094 0.389298
O O4 0.207197 0.155301 0.008694
O O5 0.916247 0.960514 0.266287
O O6 0.531171 0.063580 0.425124
O O7 0.456514 0.512049 0.682955
O O8 0.273447 0.522389 0.880449
O O9 0.686668 0.241104 0.496076
O O10 0.465587 0.677258 0.779726
O O11 0.959115 0.337978 0.568040
O O12 0.622919 0.577030 0.955452
O O13 0.814902 0.608572 0.235333
O O14 0.128898 0.302863 0.821654
O O15 0.172756 0.956524 0.911088
O O16 0.780219 0.060250 0.814818
#
# Coordination Sequence:
#
# PCOD9110370 Si02
#       8
#     2   2   2   2   2   2   2   2
#     4  10  24  36  65  86 126 148 199 242 293 362
#     4  10  20  42  59  90 118 159 191 243 302 342
#     4  12  22  38  60  93 115 159 195 244 296 346
#     4  10  22  36  62  81 123 153 197 241 286 349
#     4   9  20  38  60  87 116 155 200 249 283 347
#     4  10  23  37  62  83 128 150 196 244 296 354
#     4  10  22  41  55  91 117 161 192 244 296 346
#     4   9  19  36  65  82 116 155 194 245 289 344
#
# _framework density 25.929209
#
# number of rings (size 3 to 8) (size 9 to 14) (size 15 to 20)
#    0.750    1.250    1.250    1.875    3.500    2.500 
#    0.000    1.250    2.750    0.000    0.000    0.000 
#    0.000    0.000    0.000    0.000    0.000    0.000 
#
# Total GULP energy -89424.991745 kJ/mol
# GULP energy per Si atom -5589.061984 kJ/mol
# Density = 2.587019 g / cm^3
# Si number density = 25.929209 Si / 1000 Ang^3
#
#
#
# Elastic Constant Matrix: (Units=GPa)
#
#
# Indices 1 2 3 4 5 6 
#
# 1 167.4036 4.7886 35.7870 18.1171 -29.7027 -3.8183
# 2 4.7886 46.2856 8.7974 -0.3411 -1.4396 -0.3908
# 3 35.7870 8.7974 110.3871 2.5517 -38.6691 4.7611
# 4 18.1171 -0.3411 2.5517 24.0857 -5.2663 0.5345
# 5 -29.7027 -1.4396 -38.6691 -5.2663 42.0493 4.8879
# 6 -3.8183 -0.3908 4.7611 0.5345 4.8879 29.4733
#
#
#
# Elastic Compliance Matrix: (Units=1/GPa)
#
#
# Indices 1 2 3 4 5 6 
#
# 1 0.007360 -0.000488 -0.001001 -0.004661 0.003609 0.000595
# 2 -0.000488 0.022039 -0.002236 0.000530 -0.001680 0.000859
# 3 -0.001001 -0.002236 0.014351 0.002200 0.013237 -0.004713
# 4 -0.004661 0.000530 0.002200 0.045905 0.004798 -0.002580
# 5 0.003609 -0.001680 0.013237 0.004798 0.040026 -0.008418
# 6 0.000595 0.000859 -0.004713 -0.002580 -0.008418 0.036222
#
#
# Mechanical properties :
#
#
# Convention : Reuss Voigt Hill
#
# Bulk Modulus (GPa) = 27.54805 46.98026 37.26416
# Shear Modulus (GPa) = 26.96091 37.43520 32.19805
#
# Velocity S-wave (km/s) = 3.22807 3.80379 3.52770
# Velocity P-wave (km/s) = 4.95392 6.11962 5.56736
#
# Compressibility (1/GPa) = 0.03630021
#
# Stress axis : x y z
#
# Youngs Moduli (GPa) = 135.87253 45.37321 69.68043
#
# Poissons Ratio (x) = 0.02216 0.06974
# Poissons Ratio (y) = 0.06635 0.15581
# Poissons Ratio (z) = 0.13598 0.10146
#
# Static dielectric constant tensor:
#      x y z
#    x 2.051120 -0.036380 -0.050330 
#    y -0.036380 2.078190 -0.015090 
#    z -0.050330 -0.015090 2.074950 
# 
# From -- ./inp_files/225765.got.cif
#   From: 2010.05.17/outbox.cif.g08.bks.cpg/sg2_113_cif.got.tgz:225765.got - 2010.06.03 11:33:40.
