data_PCOD9110977
_publ_section_title
;
Structure prediction by ZEFSAII (Michael W. Deem and Ramdas Pophale) SiO2 
 PCOD9110977
Probable space group: P -1
;
_chemical_formula_sum "Si O2"
_cell_formula_units_Z 16
_cell_length_a 8.810007
_cell_length_b 20.651178
_cell_length_c 7.915824
_cell_angle_alpha 83.238246
_cell_angle_beta 51.755669
_cell_angle_gamma 121.691034
_cell_volume 720.663951
_symmetry_space_group_name_H-M "P -1"
_symmetry_group_IT_number 2
_symmetry_cell_setting 'triclinic'
loop_
_space_group_symop_operation_xyz
x,y,z
-x,-y,-z
loop_
_atom_site_type_symbol
_atom_site_label
_atom_site_fract_x
_atom_site_fract_y
_atom_site_fract_z
Si Si1 0.689156 0.600755 0.230386
Si Si2 0.821363 0.658524 0.654723
Si Si3 0.771408 0.497307 0.721269
Si Si4 0.774724 0.736877 0.361409
Si Si5 0.356070 0.104040 0.220589
Si Si6 0.621255 0.038219 0.097690
Si Si7 0.588764 0.154760 0.656755
Si Si8 0.615936 0.253417 0.294908
O O1 0.500000 0.500000 0.500000
O O2 0.490632 0.555031 0.215816
O O3 0.716553 0.682058 0.250451
O O4 0.026281 0.661704 0.975050
O O5 0.911307 0.605383 0.618270
O O6 0.893017 0.710838 0.411803
O O7 0.048281 0.752124 0.599131
O O8 0.460766 0.577210 0.943497
O O9 0.000000 0.500000 0.500000
O O10 0.474295 0.695329 0.635392
O O11 0.024736 0.858053 0.160009
O O12 0.486419 0.072683 0.229962
O O13 0.470313 0.190698 0.238700
O O14 0.459962 0.137311 0.941024
O O15 0.000000 0.000000 0.500000
O O16 0.520992 0.946096 0.282508
O O17 0.500000 0.000000 0.000000
O O18 0.507567 0.183642 0.554964
#
# Coordination Sequence:
#
# PCOD9110977 Si02
#       8
#     2   2   2   2   2   2   2   2
#     4  12  26  48  69 104 145 181 242 306 358 433
#     4  11  23  46  69 102 144 184 235 301 358 433
#     4  11  27  45  72 102 135 189 241 293 370 432
#     4  12  25  44  74 102 142 189 237 298 364 431
#     4  11  24  44  71 105 147 194 239 294 367 425
#     4  10  20  42  68 100 143 185 233 292 351 424
#     4  11  24  46  72 102 150 188 245 300 351 437
#     4  12  27  47  73 109 146 192 245 297 364 427
#
# _framework density 22.201751000000002
#
# number of rings (size 3 to 8) (size 9 to 14) (size 15 to 20)
#    0.000    0.750    6.250    1.500    3.500    3.000 
#    2.250    0.000    0.000    0.000    0.000    0.000 
#    0.000    0.000    0.000    0.000    0.000    0.000 
#
# Total GULP energy -89272.299644 kJ/mol
# GULP energy per Si atom -5579.518728 kJ/mol
# Density = 2.215122 g / cm^3
# Si number density = 22.201751 Si / 1000 Ang^3
#
#
#
# Elastic Constant Matrix: (Units=GPa)
#
#
# Indices 1 2 3 4 5 6 
#
# 1 61.5162 13.4009 35.0819 3.4363 4.3694 -9.3481
# 2 13.4009 83.4097 43.3831 -7.1238 -7.4676 -6.1950
# 3 35.0819 43.3831 117.2971 -10.0332 -14.4019 -16.8777
# 4 3.4363 -7.1238 -10.0332 36.7441 -12.4375 -7.5318
# 5 4.3694 -7.4676 -14.4019 -12.4375 45.7191 0.8547
# 6 -9.3481 -6.1950 -16.8777 -7.5318 0.8547 38.8105
#
#
#
# Elastic Compliance Matrix: (Units=1/GPa)
#
#
# Indices 1 2 3 4 5 6 
#
# 1 0.021478 -0.000637 -0.007335 -0.006035 -0.006125 0.000846
# 2 -0.000637 0.015014 -0.004900 0.002273 0.001578 0.000519
# 3 -0.007335 -0.004900 0.014610 0.006876 0.006280 0.005001
# 4 -0.006035 0.002273 0.006876 0.036203 0.012801 0.008643
# 5 -0.006125 0.001578 0.006280 0.012801 0.028114 0.003373
# 6 0.000846 0.000519 0.005001 0.008643 0.003373 0.029831
#
#
# Mechanical properties :
#
#
# Convention : Reuss Voigt Hill
#
# Bulk Modulus (GPa) = 39.43266 49.55052 44.49159
# Shear Modulus (GPa) = 27.86380 35.61188 31.73784
#
# Velocity S-wave (km/s) = 3.54648 4.00936 3.78500
# Velocity P-wave (km/s) = 5.87959 6.61816 6.25978
#
# Compressibility (1/GPa) = 0.02535969
#
# Stress axis : x y z
#
# Youngs Moduli (GPa) = 46.55885 66.60594 68.44585
#
# Poissons Ratio (x) = 0.04241 0.50204
# Poissons Ratio (y) = 0.02964 0.33536
# Poissons Ratio (z) = 0.34150 0.32634
#
# Static dielectric constant tensor:
#      x y z
#    x 1.867230 0.067710 0.056620 
#    y 0.067710 1.852000 0.039790 
#    z 0.056620 0.039790 2.131140 
# 
# From -- ./inp_files/223578.got.cif
#   From: 2010.05.17/outbox.cif.g08.bks.cpg/sg2_112_cif.got.tgz:223578.got - 2010.06.03 11:33:40.
