data_PCOD9110568
_publ_section_title
;
Structure prediction by ZEFSAII (Michael W. Deem and Ramdas Pophale) SiO2 
 PCOD9110568
Probable space group: P -1
;
_chemical_formula_sum "Si O2"
_cell_formula_units_Z 14
_cell_length_a 20.684739
_cell_length_b 9.238262
_cell_length_c 11.484489
_cell_angle_alpha 39.728515
_cell_angle_beta 29.325438
_cell_angle_gamma 42.316843
_cell_volume 670.133672
_symmetry_space_group_name_H-M "P -1"
_symmetry_group_IT_number 2
_symmetry_cell_setting 'triclinic'
loop_
_space_group_symop_operation_xyz
x,y,z
-x,-y,-z
loop_
_atom_site_type_symbol
_atom_site_label
_atom_site_fract_x
_atom_site_fract_y
_atom_site_fract_z
Si Si1 0.999306 0.211090 0.956415
Si Si2 0.871557 0.535912 0.590969
Si Si3 0.826174 0.032951 0.965870
Si Si4 0.426784 0.406680 0.372041
Si Si5 0.433268 0.994688 0.453904
Si Si6 0.856180 0.564859 0.118201
Si Si7 0.416723 0.180342 0.110026
O O1 0.095097 0.350171 0.652409
O O2 0.048747 0.079272 0.079141
O O3 0.871265 0.410727 0.073174
O O4 0.000000 0.000000 0.000000
O O5 0.737636 0.699357 0.755591
O O6 0.000000 0.500000 0.500000
O O7 0.835640 0.291933 0.765054
O O8 0.699575 0.031133 0.250352
O O9 0.825634 0.845554 0.980970
O O10 0.471672 0.221823 0.311538
O O11 0.264629 0.488855 0.579842
O O12 0.462814 0.244015 0.530772
O O13 0.504031 0.613108 0.122514
O O14 0.410409 0.044926 0.324309
O O15 0.000000 0.500000 0.000000
O O16 0.500000 0.000000 0.000000
#
# Coordination Sequence:
#
# PCOD9110568 Si02
#       7
#     2   2   2   2   2   2   2
#     4  11  22  39  65  88 132 171 203 261 329 382
#     4  12  25  41  66  97 130 176 218 266 329 386
#     4  10  20  42  64  89 126 162 219 264 315 384
#     4  10  22  42  69  93 129 166 223 268 322 392
#     4  10  21  43  67  92 126 171 215 268 330 380
#     4   9  22  40  65  97 123 168 211 269 322 379
#     4  12  27  41  65  99 135 174 220 271 328 396
#
# _framework density 20.891354
#
# number of rings (size 3 to 8) (size 9 to 14) (size 15 to 20)
#    0.000    1.429    4.286    0.429    2.000    2.286 
#    0.000    0.000    0.000    0.000    0.000    0.000 
#    0.000    0.000    0.000    0.000    0.000    0.000 
#
# Total GULP energy -78066.675200 kJ/mol
# GULP energy per Si atom -5576.191086 kJ/mol
# Density = 2.084380 g / cm^3
# Si number density = 20.891354 Si / 1000 Ang^3
#
#
#
# Elastic Constant Matrix: (Units=GPa)
#
#
# Indices 1 2 3 4 5 6 
#
# 1 45.8935 31.2562 11.4608 2.8304 3.0393 0.9339
# 2 31.2562 128.5899 53.9541 -4.0606 13.2222 14.5685
# 3 11.4608 53.9541 87.9891 -8.3071 1.2403 -0.3863
# 4 2.8304 -4.0606 -8.3071 42.4173 -5.0956 -9.6942
# 5 3.0393 13.2222 1.2403 -5.0956 21.8659 6.5689
# 6 0.9339 14.5685 -0.3863 -9.6942 6.5689 36.0908
#
#
#
# Elastic Compliance Matrix: (Units=1/GPa)
#
#
# Indices 1 2 3 4 5 6 
#
# 1 0.026447 -0.006878 0.000599 -0.001988 -0.000512 0.001658
# 2 -0.006878 0.013736 -0.007608 -0.001512 -0.005831 -0.004793
# 3 0.000599 -0.007608 0.016265 0.003643 0.003363 0.003596
# 4 -0.001988 -0.001512 0.003643 0.026460 0.005083 0.006883
# 5 -0.000512 -0.005831 0.003363 0.005083 0.052037 -0.005703
# 6 0.001658 -0.004793 0.003596 0.006883 -0.005703 0.032525
#
#
# Mechanical properties :
#
#
# Convention : Reuss Voigt Hill
#
# Bulk Modulus (GPa) = 34.87515 50.64608 42.76062
# Shear Modulus (GPa) = 24.41394 31.12822 27.77108
#
# Velocity S-wave (km/s) = 3.42221 3.86425 3.64993
# Velocity P-wave (km/s) = 5.68728 6.64869 6.18669
#
# Compressibility (1/GPa) = 0.02867371
#
# Stress axis : x y z
#
# Youngs Moduli (GPa) = 37.81159 72.80388 61.48328
#
# Poissons Ratio (x) = 0.50073 -0.03685
# Poissons Ratio (y) = 0.26006 0.46778
# Poissons Ratio (z) = -0.02266 0.55391
#
# Static dielectric constant tensor:
#      x y z
#    x 1.894760 0.040430 -0.044110 
#    y 0.040430 1.885590 0.033270 
#    z -0.044110 0.033270 1.740600 
# 
# From -- ./inp_files/257847.got.cif
#   From: 2010.05.17/outbox.cif.g08.bks.cpg/sg2_129_cif.got.tgz:257847.got - 2010.06.03 11:33:40.
