data_PCOD9110027
_publ_section_title
;
Structure prediction by ZEFSAII (Michael W. Deem and Ramdas Pophale) SiO2 
 PCOD9110027
Probable space group: P -1
;
_chemical_formula_sum "Si O2"
_cell_formula_units_Z 14
_cell_length_a 8.830020
_cell_length_b 17.203196
_cell_length_c 6.719040
_cell_angle_alpha 73.367664
_cell_angle_beta 56.214863
_cell_angle_gamma 109.371538
_cell_volume 640.039147
_symmetry_space_group_name_H-M "P -1"
_symmetry_group_IT_number 2
_symmetry_cell_setting 'triclinic'
loop_
_space_group_symop_operation_xyz
x,y,z
-x,-y,-z
loop_
_atom_site_type_symbol
_atom_site_label
_atom_site_fract_x
_atom_site_fract_y
_atom_site_fract_z
Si Si1 0.399861 0.126516 0.983274
Si Si2 0.646853 0.870584 0.517112
Si Si3 0.149215 0.940094 0.023398
Si Si4 0.874984 0.234924 0.672640
Si Si5 0.212188 0.605054 0.365887
Si Si6 0.587457 0.616782 0.829066
Si Si7 0.462948 0.697630 0.506434
O O1 0.367649 0.129545 0.237410
O O2 0.238309 0.012277 0.101090
O O3 0.665079 0.170835 0.715667
O O4 0.373360 0.206906 0.838363
O O5 0.441660 0.763942 0.638546
O O6 0.877062 0.884974 0.267461
O O7 0.703958 0.975314 0.315623
O O8 0.177325 0.852132 0.074505
O O9 0.838474 0.316194 0.709936
O O10 0.142775 0.301926 0.371164
O O11 0.255207 0.615627 0.567159
O O12 0.000000 0.500000 0.500000
O O13 0.436655 0.628906 0.080924
O O14 0.546093 0.643821 0.617542
O O15 0.500000 0.500000 0.000000
#
# Coordination Sequence:
#
# PCOD9110027 Si02
#       7
#     2   2   2   2   2   2   2
#     4  10  22  41  68 101 140 184 224 282 343 406
#     4  10  20  41  69 101 141 180 225 286 335 410
#     4  10  21  38  66 102 141 178 231 277 339 411
#     4  11  23  43  68 101 138 178 233 280 335 413
#     4  11  25  48  70  99 136 178 230 290 345 404
#     4  12  25  48  71  98 139 180 231 293 339 406
#     4  10  22  41  71  99 136 179 225 280 348 401
#
# _framework density 21.873660999999998
#
# number of rings (size 3 to 8) (size 9 to 14) (size 15 to 20)
#    0.000    1.429    2.857    2.571    0.000    1.714 
#    0.000    7.143    0.000    0.000    0.000    0.000 
#    0.000    0.000    0.000    0.000    0.000    0.000 
#
# Total GULP energy -77994.379620 kJ/mol
# GULP energy per Si atom -5571.027116 kJ/mol
# Density = 2.182388 g / cm^3
# Si number density = 21.873661 Si / 1000 Ang^3
#
#
#
# Elastic Constant Matrix: (Units=GPa)
#
#
# Indices 1 2 3 4 5 6 
#
# 1 134.1533 67.3468 62.3839 -9.9356 5.6434 2.4734
# 2 67.3468 122.0366 41.8127 -16.3852 20.4831 5.8330
# 3 62.3839 41.8127 91.6966 6.8308 17.3340 4.4332
# 4 -9.9356 -16.3852 6.8308 37.4207 2.5077 13.0964
# 5 5.6434 20.4831 17.3340 2.5077 52.3482 -8.6634
# 6 2.4734 5.8330 4.4332 13.0964 -8.6634 62.4894
#
#
#
# Elastic Compliance Matrix: (Units=1/GPa)
#
#
# Indices 1 2 3 4 5 6 
#
# 1 0.013655 -0.005072 -0.007752 0.002484 0.003024 0.000382
# 2 -0.005072 0.013516 -0.002131 0.006297 -0.004817 -0.002897
# 3 -0.007752 -0.002131 0.018390 -0.006032 -0.004149 -0.000110
# 4 0.002484 0.006297 -0.006032 0.034272 -0.003692 -0.007953
# 5 0.003024 -0.004817 -0.004149 -0.003692 0.022971 0.004583
# 6 0.000382 -0.002897 -0.000110 -0.007953 0.004583 0.018568
#
#
# Mechanical properties :
#
#
# Convention : Reuss Voigt Hill
#
# Bulk Modulus (GPa) = 63.89315 76.77483 70.33399
# Shear Modulus (GPa) = 31.94916 42.20787 37.07851
#
# Velocity S-wave (km/s) = 3.82596 4.39751 4.12165
# Velocity P-wave (km/s) = 6.98504 7.80766 7.40778
#
# Compressibility (1/GPa) = 0.01565113
#
# Stress axis : x y z
#
# Youngs Moduli (GPa) = 73.23395 73.98749 54.37643
#
# Poissons Ratio (x) = 0.37524 0.42154
# Poissons Ratio (y) = 0.37142 0.11588
# Poissons Ratio (z) = 0.56772 0.15767
#
# Static dielectric constant tensor:
#      x y z
#    x 1.879040 0.023260 0.000270 
#    y 0.023260 1.818830 -0.037770 
#    z 0.000270 -0.037770 1.856970 
# 
# From -- ./inp_files/46996.got.cif
#   From: 2010.05.17/outbox.cif.g08.bks.cpg/sg2_24_cif.got.tgz:46996.got - 2010.06.03 11:33:40.
