data_PCOD9110067
_publ_section_title
;
Structure prediction by ZEFSAII (Michael W. Deem and Ramdas Pophale) SiO2 
 PCOD9110067
Probable space group: P -1
;
_chemical_formula_sum "Si O2"
_cell_formula_units_Z 15
_cell_length_a 16.317038
_cell_length_b 9.761631
_cell_length_c 10.202049
_cell_angle_alpha 72.132075
_cell_angle_beta 53.826725
_cell_angle_gamma 34.955372
_cell_volume 694.385939
_symmetry_space_group_name_H-M "P -1"
_symmetry_group_IT_number 2
_symmetry_cell_setting 'triclinic'
loop_
_space_group_symop_operation_xyz
x,y,z
-x,-y,-z
loop_
_atom_site_type_symbol
_atom_site_label
_atom_site_fract_x
_atom_site_fract_y
_atom_site_fract_z
Si Si1 0.887102 0.332274 0.989152
Si Si2 0.491185 0.181238 0.449075
Si Si3 0.163606 0.752553 0.655639
Si Si4 0.419562 0.797704 0.910687
Si Si5 0.233055 0.712170 0.131425
Si Si6 0.698072 0.815144 0.917010
Si Si7 0.771137 0.010124 0.408616
Si Si8 0.000000 0.500000 0.500000
O O1 0.798047 0.340641 0.956210
O O2 0.773178 0.614154 0.013173
O O3 0.090140 0.126430 0.804764
O O4 0.879512 0.259383 0.154913
O O5 0.288271 0.486696 0.547977
O O6 0.590331 0.111145 0.243713
O O7 0.500000 0.000000 0.500000
O O8 0.593977 0.136331 0.486181
O O9 0.264200 0.788565 0.560533
O O10 0.966435 0.018670 0.702083
O O11 0.631083 0.533805 0.830620
O O12 0.333047 0.743199 0.997473
O O13 0.319142 0.008434 0.054071
O O14 0.840800 0.647022 0.713781
O O15 0.500000 0.000000 0.000000
O O16 0.874489 0.785070 0.478668
#
# Coordination Sequence:
#
# PCOD9110067 Si02
#       8
#     2   2   2   2   2   2   2   1
#     4  10  20  41  69  93 124 172 228 268 330 398
#     4  12  27  40  61  96 139 175 216 275 335 400
#     4  11  23  41  68  96 127 178 227 275 327 399
#     4  11  24  42  63  94 132 171 213 272 349 391
#     4  10  22  41  66  93 126 170 218 277 335 397
#     4  11  23  43  70  94 131 178 220 280 331 400
#     4  10  23  43  67  96 133 173 225 278 320 402
#     4  10  26  42  72 104 128 172 238 270 330 402
#
# _framework density 21.601818999999999
#
# number of rings (size 3 to 8) (size 9 to 14) (size 15 to 20)
#    0.000    1.333    1.333    4.400    3.733    4.800 
#    0.000    4.667    0.000    0.000    0.000    0.000 
#    0.000    0.000    0.000    0.000    0.000    0.000 
#
# Total GULP energy -83640.291708 kJ/mol
# GULP energy per Si atom -5576.019447 kJ/mol
# Density = 2.155265 g / cm^3
# Si number density = 21.601819 Si / 1000 Ang^3
#
#
#
# Elastic Constant Matrix: (Units=GPa)
#
#
# Indices 1 2 3 4 5 6 
#
# 1 64.3496 31.5488 15.6500 6.6593 -13.2546 -0.0446
# 2 31.5488 121.9769 15.4023 5.2314 -7.1480 14.5017
# 3 15.6500 15.4023 40.1079 -6.7357 -0.6646 6.6397
# 4 6.6593 5.2314 -6.7357 44.8987 2.6599 -6.8400
# 5 -13.2546 -7.1480 -0.6646 2.6599 10.3293 -1.3067
# 6 -0.0446 14.5017 6.6397 -6.8400 -1.3067 22.3644
#
#
#
# Elastic Compliance Matrix: (Units=1/GPa)
#
#
# Indices 1 2 3 4 5 6 
#
# 1 0.028146 -0.004324 -0.010842 -0.006426 0.034860 0.006150
# 2 -0.004324 0.010478 -0.001502 -0.001925 0.001233 -0.006874
# 3 -0.010842 -0.001502 0.031780 0.006333 -0.015480 -0.007451
# 4 -0.006426 -0.001925 0.006333 0.026287 -0.015116 0.006512
# 5 0.034860 0.001233 -0.015480 -0.015116 0.146279 0.007790
# 6 0.006150 -0.006874 -0.007451 0.006512 0.007790 0.053842
#
#
# Mechanical properties :
#
#
# Convention : Reuss Voigt Hill
#
# Bulk Modulus (GPa) = 26.97564 39.07076 33.02320
# Shear Modulus (GPa) = 14.59834 26.44071 20.51953
#
# Velocity S-wave (km/s) = 2.60242 3.50237 3.08539
# Velocity P-wave (km/s) = 4.64165 5.87210 5.29275
#
# Compressibility (1/GPa) = 0.03707048
#
# Stress axis : x y z
#
# Youngs Moduli (GPa) = 35.52866 95.43617 31.46599
#
# Poissons Ratio (x) = 0.41263 0.34115
# Poissons Ratio (y) = 0.15361 0.04725
# Poissons Ratio (z) = 0.38520 0.14332
#
# Static dielectric constant tensor:
#      x y z
#    x 1.786020 -0.014130 0.007530 
#    y -0.014130 1.796770 0.018790 
#    z 0.007530 0.018790 1.757110 
# 
# From -- ./inp_files/298170.got.cif
#   From: 2010.05.17/outbox.cif.g08.bks.cpg/sg2_150_cif.got.tgz:298170.got - 2010.06.03 11:33:40.
