data_PCOD9110514
_publ_section_title
;
Structure prediction by ZEFSAII (Michael W. Deem and Ramdas Pophale) SiO2 
 PCOD9110514
Probable space group: P -1
;
_chemical_formula_sum "Si O2"
_cell_formula_units_Z 16
_cell_length_a 18.257977
_cell_length_b 8.938292
_cell_length_c 18.846954
_cell_angle_alpha 152.762117
_cell_angle_beta 28.883631
_cell_angle_gamma 137.009283
_cell_volume 664.398567
_symmetry_space_group_name_H-M "P -1"
_symmetry_group_IT_number 2
_symmetry_cell_setting 'triclinic'
loop_
_space_group_symop_operation_xyz
x,y,z
-x,-y,-z
loop_
_atom_site_type_symbol
_atom_site_label
_atom_site_fract_x
_atom_site_fract_y
_atom_site_fract_z
Si Si1 0.961989 0.531731 0.860624
Si Si2 0.174872 0.968973 0.930729
Si Si3 0.499501 0.921596 0.271543
Si Si4 0.731675 0.109937 0.924060
Si Si5 0.556402 0.289693 0.615698
Si Si6 0.345683 0.811455 0.229253
Si Si7 0.788887 0.696392 0.561766
Si Si8 0.134764 0.367257 0.274001
O O1 0.061066 0.338577 0.629620
O O2 0.844796 0.806522 0.029352
O O3 0.863845 0.327507 0.904222
O O4 0.080205 0.688367 0.873727
O O5 0.100364 0.181549 0.152848
O O6 0.358692 0.896145 0.760026
O O7 0.427526 0.841949 0.372804
O O8 0.388398 0.053377 0.356218
O O9 0.561138 0.551428 0.029740
O O10 0.788573 0.833906 0.698812
O O11 0.734657 0.903736 0.907670
O O12 0.574641 0.368258 0.141947
O O13 0.718578 0.366807 0.484797
O O14 0.500000 0.000000 0.500000
O O15 0.195611 0.692262 0.335703
O O16 0.329592 0.020419 0.260052
O O17 0.000000 0.500000 0.500000
#
# Coordination Sequence:
#
# PCOD9110514 Si02
#       8
#     2   2   2   2   2   2   2   2
#     4  11  23  43  68  94 130 178 227 274 344 396
#     4  10  22  41  66  88 137 177 216 276 338 398
#     4  10  20  42  63  91 131 174 216 274 334 385
#     4  12  24  43  71  98 137 175 230 277 334 405
#     4  12  26  43  63 101 141 176 221 275 337 404
#     4  10  22  39  69  95 132 167 221 280 331 388
#     4  12  24  41  73 103 126 175 233 278 334 405
#     4  11  23  42  67 103 135 174 227 282 338 398
#
# _framework density 24.081928999999999
#
# number of rings (size 3 to 8) (size 9 to 14) (size 15 to 20)
#    0.000    1.000    2.500    4.500    7.000    0.500 
#    2.250    1.250    0.000    0.000    0.000    0.000 
#    0.000    0.000    0.000    0.000    0.000    0.000 
#
# Total GULP energy -89416.218993 kJ/mol
# GULP energy per Si atom -5588.513687 kJ/mol
# Density = 2.402712 g / cm^3
# Si number density = 24.081929 Si / 1000 Ang^3
#
#
#
# Elastic Constant Matrix: (Units=GPa)
#
#
# Indices 1 2 3 4 5 6 
#
# 1 134.0182 37.2021 4.2368 14.7317 27.2158 3.3708
# 2 37.2021 118.3253 -5.1029 -2.7579 16.8500 3.1367
# 3 4.2368 -5.1029 48.5133 1.4755 17.1055 -1.3352
# 4 14.7317 -2.7579 1.4755 22.1106 -4.2576 8.9872
# 5 27.2158 16.8500 17.1055 -4.2576 22.1501 -4.5551
# 6 3.3708 3.1367 -1.3352 8.9872 -4.5551 28.9823
#
#
#
# Elastic Compliance Matrix: (Units=1/GPa)
#
#
# Indices 1 2 3 4 5 6 
#
# 1 0.014625 -0.000671 0.008726 -0.015361 -0.027305 -0.000754
# 2 -0.000671 0.010664 0.005289 0.000266 -0.011893 -0.002784
# 3 0.008726 0.005289 0.037463 -0.015772 -0.047199 -0.002389
# 4 -0.015361 0.000266 -0.015772 0.070324 0.041436 -0.014264
# 5 -0.027305 -0.011893 -0.047199 0.041436 0.134327 0.010551
# 6 -0.000754 -0.002784 -0.002389 -0.014264 0.010551 0.040864
#
#
# Mechanical properties :
#
#
# Convention : Reuss Voigt Hill
#
# Bulk Modulus (GPa) = 11.18071 41.50321 26.34196
# Shear Modulus (GPa) = 16.05686 32.28333 24.17010
#
# Velocity S-wave (km/s) = 2.58497 3.66534 3.17150
# Velocity P-wave (km/s) = 3.68270 5.93166 4.93694
#
# Compressibility (1/GPa) = 0.08943973
#
# Stress axis : x y z
#
# Youngs Moduli (GPa) = 68.37751 93.77204 26.69290
#
# Poissons Ratio (x) = 0.06296 -0.23293
# Poissons Ratio (y) = 0.04591 -0.14118
# Poissons Ratio (z) = -0.59667 -0.49598
#
# Static dielectric constant tensor:
#      x y z
#    x 2.377800 -0.021470 -0.228660 
#    y -0.021470 1.869300 0.004050 
#    z -0.228660 0.004050 2.080900 
# 
# From -- ./inp_files/495016.got.cif
#   From: 2010.05.17/outbox.cif.g08.bks.cpg/sg2_248_cif.got.tgz:495016.got - 2010.06.03 11:33:40.
