data_PCOD9110340
_publ_section_title
;
Structure prediction by ZEFSAII (Michael W. Deem and Ramdas Pophale) SiO2 
 PCOD9110340
Probable space group: P -1
;
_chemical_formula_sum "Si O2"
_cell_formula_units_Z 16
_cell_length_a 11.644872
_cell_length_b 10.217420
_cell_length_c 8.656030
_cell_angle_alpha 94.826633
_cell_angle_beta 130.602681
_cell_angle_gamma 109.206957
_cell_volume 671.497711
_symmetry_space_group_name_H-M "P -1"
_symmetry_group_IT_number 2
_symmetry_cell_setting 'triclinic'
loop_
_space_group_symop_operation_xyz
x,y,z
-x,-y,-z
loop_
_atom_site_type_symbol
_atom_site_label
_atom_site_fract_x
_atom_site_fract_y
_atom_site_fract_z
Si Si1 0.211405 0.787259 0.705637
Si Si2 0.210228 0.658374 0.382034
Si Si3 0.648284 0.646922 0.231006
Si Si4 0.079457 0.330193 0.291940
Si Si5 0.883961 0.897639 0.243665
Si Si6 0.547794 0.895589 0.198467
Si Si7 0.602072 0.908284 0.772593
Si Si8 0.104807 0.881397 0.157390
O O1 0.144049 0.667312 0.497089
O O2 0.077155 0.736040 0.724437
O O3 0.282060 0.951845 0.701938
O O4 0.396015 0.812105 0.929567
O O5 0.116455 0.480850 0.247913
O O6 0.423006 0.747686 0.583453
O O7 0.163169 0.760498 0.244069
O O8 0.745856 0.617785 0.452096
O O9 0.786177 0.734562 0.223385
O O10 0.594212 0.766612 0.262701
O O11 0.500000 0.500000 0.000000
O O12 0.025299 0.195596 0.108936
O O13 0.009794 0.907744 0.218037
O O14 0.729273 0.912896 0.022532
O O15 0.000000 0.000000 0.500000
O O16 0.460229 0.967764 0.239062
O O17 0.724119 0.966188 0.735156
#
# Coordination Sequence:
#
# PCOD9110340 Si02
#       8
#     2   2   2   2   2   2   2   2
#     4  10  20  41  74 107 136 192 243 302 353 433
#     4  11  25  45  73 106 149 193 246 294 361 444
#     4  12  27  47  74 112 147 192 247 301 372 430
#     4  12  25  47  70 109 153 193 241 307 364 435
#     4  12  28  49  77 108 145 187 252 310 362 442
#     4  10  22  41  77 105 144 185 246 301 358 432
#     4  11  24  50  72 109 145 190 245 302 369 435
#     4  12  27  48  70 110 145 198 244 301 374 430
#
# _framework density 23.827332999999999
#
# number of rings (size 3 to 8) (size 9 to 14) (size 15 to 20)
#    0.000    0.750    1.250    6.750    7.000    1.000 
#    4.500    1.250    0.000    0.000    0.000    0.000 
#    0.000    0.000    0.000    0.000    0.000    0.000 
#
# Total GULP energy -89508.658025 kJ/mol
# GULP energy per Si atom -5594.291127 kJ/mol
# Density = 2.377310 g / cm^3
# Si number density = 23.827333 Si / 1000 Ang^3
#
#
#
# Elastic Constant Matrix: (Units=GPa)
#
#
# Indices 1 2 3 4 5 6 
#
# 1 144.9961 39.5145 50.3305 7.8144 4.1781 25.6128
# 2 39.5145 108.5504 41.2575 10.7947 11.1244 5.9779
# 3 50.3305 41.2575 146.8366 6.4118 6.5097 7.0696
# 4 7.8144 10.7947 6.4118 43.3340 -7.3394 9.8508
# 5 4.1781 11.1244 6.5097 -7.3394 34.5451 -9.5357
# 6 25.6128 5.9779 7.0696 9.8508 -9.5357 30.6207
#
#
#
# Elastic Compliance Matrix: (Units=1/GPa)
#
#
# Indices 1 2 3 4 5 6 
#
# 1 0.009705 -0.002051 -0.002290 0.000559 -0.002185 -0.008049
# 2 -0.002051 0.011467 -0.002224 -0.002717 -0.003681 -0.000282
# 3 -0.002290 -0.002224 0.008243 -0.000439 -0.000537 0.000421
# 4 0.000559 -0.002717 -0.000439 0.026032 0.004545 -0.006795
# 5 -0.002185 -0.003681 -0.000537 0.004545 0.034788 0.012041
# 6 -0.008049 -0.000282 0.000421 -0.006795 0.012041 0.045284
#
#
# Mechanical properties :
#
#
# Convention : Reuss Voigt Hill
#
# Bulk Modulus (GPa) = 61.40463 73.62090 67.51276
# Shear Modulus (GPa) = 32.45122 39.65201 36.05161
#
# Velocity S-wave (km/s) = 3.69444 4.08381 3.89400
# Velocity P-wave (km/s) = 6.63514 7.29393 6.97232
#
# Compressibility (1/GPa) = 0.01628542
#
# Stress axis : x y z
#
# Youngs Moduli (GPa) = 103.03603 87.20765 121.31662
#
# Poissons Ratio (x) = 0.17885 0.27787
# Poissons Ratio (y) = 0.21131 0.26976
# Poissons Ratio (z) = 0.23600 0.19391
#
# Static dielectric constant tensor:
#      x y z
#    x 1.974270 -0.071250 -0.067170 
#    y -0.071250 2.144990 0.702500 
#    z -0.067170 0.702500 4.479800 
# 
# From -- ./inp_files/262629.got.cif
#   From: 2010.05.17/outbox.cif.g08.bks.cpg/sg2_132_cif.got.tgz:262629.got - 2010.06.03 11:33:40.
