data_PCOD9110832
_publ_section_title
;
Structure prediction by ZEFSAII (Michael W. Deem and Ramdas Pophale) SiO2 
 PCOD9110832
Probable space group: P -1
;
_chemical_formula_sum "Si O2"
_cell_formula_units_Z 16
_cell_length_a 12.679609
_cell_length_b 8.816695
_cell_length_c 15.703968
_cell_angle_alpha 148.411787
_cell_angle_beta 117.599822
_cell_angle_gamma 74.618374
_cell_volume 782.643142
_symmetry_space_group_name_H-M "P -1"
_symmetry_group_IT_number 2
_symmetry_cell_setting 'triclinic'
loop_
_space_group_symop_operation_xyz
x,y,z
-x,-y,-z
loop_
_atom_site_type_symbol
_atom_site_label
_atom_site_fract_x
_atom_site_fract_y
_atom_site_fract_z
Si Si1 0.622849 0.777667 0.155883
Si Si2 0.864314 0.319236 0.265546
Si Si3 0.297696 0.311532 0.041202
Si Si4 0.399191 0.572294 0.557833
Si Si5 0.788001 0.853601 0.420241
Si Si6 0.449673 0.292760 0.618809
Si Si7 0.880697 0.275558 0.802675
Si Si8 0.862104 0.676761 0.611819
O O1 0.725179 0.869993 0.313691
O O2 0.575752 0.068994 0.256034
O O3 0.500000 0.500000 0.000000
O O4 0.698041 0.718875 0.073556
O O5 0.840930 0.564857 0.309268
O O6 0.854451 0.452862 0.420877
O O7 0.000308 0.282456 0.282796
O O8 0.766051 0.994499 0.078911
O O9 0.440339 0.432971 0.176108
O O10 0.225216 0.554010 0.153977
O O11 0.500000 0.500000 0.500000
O O12 0.414076 0.399195 0.566272
O O13 0.251327 0.447497 0.425457
O O14 0.668429 0.774568 0.398406
O O15 0.881988 0.137810 0.641094
O O16 0.500000 0.000000 0.500000
O O17 0.852881 0.986835 0.715643
O O18 0.000000 0.500000 0.000000
#
# Coordination Sequence:
#
# PCOD9110832 Si02
#       8
#     2   2   2   2   2   2   2   2
#     4  12  27  42  63 105 144 175 222 286 347 398
#     4  10  21  40  69  94 128 178 229 277 328 413
#     4  12  23  39  70 100 133 174 232 280 337 406
#     4  12  26  43  69  99 139 180 220 284 350 405
#     4  11  23  43  67  98 138 180 226 279 344 402
#     4  12  22  41  68  99 135 180 228 279 338 409
#     4  11  22  41  72  98 126 177 231 278 334 410
#     4  10  20  42  66  95 130 173 229 273 340 403
#
# _framework density 20.443543999999999
#
# number of rings (size 3 to 8) (size 9 to 14) (size 15 to 20)
#    0.000    0.750    7.500    0.750    3.500    1.000 
#    0.000    2.500    0.000    2.250    0.000    0.000 
#    0.000    0.000    0.000    0.000    0.000    0.000 
#
# Total GULP energy -89280.682303 kJ/mol
# GULP energy per Si atom -5580.042644 kJ/mol
# Density = 2.039701 g / cm^3
# Si number density = 20.443544 Si / 1000 Ang^3
#
#
#
# Elastic Constant Matrix: (Units=GPa)
#
#
# Indices 1 2 3 4 5 6 
#
# 1 63.1685 13.4727 28.4616 -4.0768 8.2094 4.2681
# 2 13.4727 92.4379 39.4613 4.1696 -6.1404 -13.0797
# 3 28.4616 39.4613 105.0128 11.8062 18.7124 -2.8354
# 4 -4.0768 4.1696 11.8062 43.0849 -8.6044 -1.0523
# 5 8.2094 -6.1404 18.7124 -8.6044 36.4038 2.2426
# 6 4.2681 -13.0797 -2.8354 -1.0523 2.2426 24.0270
#
#
#
# Elastic Compliance Matrix: (Units=1/GPa)
#
#
# Indices 1 2 3 4 5 6 
#
# 1 0.018972 -0.001560 -0.004814 0.002936 -0.001092 -0.004557
# 2 -0.001560 0.015095 -0.006300 0.001502 0.006044 0.007252
# 3 -0.004814 -0.006300 0.015532 -0.005975 -0.009365 -0.000129
# 4 0.002936 0.001502 -0.005975 0.026774 0.008996 -0.000076
# 5 -0.001092 0.006044 -0.009365 0.008996 0.035710 -0.000560
# 6 -0.004557 0.007252 -0.000129 -0.000076 -0.000560 0.046411
#
#
# Mechanical properties :
#
#
# Convention : Reuss Voigt Hill
#
# Bulk Modulus (GPa) = 41.23530 47.04560 44.14045
# Shear Modulus (GPa) = 26.05192 32.65138 29.35165
#
# Velocity S-wave (km/s) = 3.57366 4.00077 3.79323
# Velocity P-wave (km/s) = 6.10263 6.66363 6.38929
#
# Compressibility (1/GPa) = 0.02425106
#
# Stress axis : x y z
#
# Youngs Moduli (GPa) = 52.70987 66.24900 64.38410
#
# Poissons Ratio (x) = 0.10332 0.30997
# Poissons Ratio (y) = 0.08221 0.40559
# Poissons Ratio (z) = 0.25377 0.41734
#
# Static dielectric constant tensor:
#      x y z
#    x 1.734280 -0.046590 0.030870 
#    y -0.046590 1.572350 0.014390 
#    z 0.030870 0.014390 1.785150 
# 
# From -- ./inp_files/299615.got.cif
#   From: 2010.05.17/outbox.cif.g08.bks.cpg/sg2_150_cif.got.tgz:299615.got - 2010.06.03 11:33:40.
