data_PCOD9110607
_publ_section_title
;
Structure prediction by ZEFSAII (Michael W. Deem and Ramdas Pophale) SiO2 
 PCOD9110607
Probable space group: P -1
;
_chemical_formula_sum "Si O2"
_cell_formula_units_Z 16
_cell_length_a 10.414682
_cell_length_b 5.739263
_cell_length_c 11.289528
_cell_angle_alpha 94.535358
_cell_angle_beta 78.291477
_cell_angle_gamma 102.473559
_cell_volume 644.728247
_symmetry_space_group_name_H-M "P -1"
_symmetry_group_IT_number 2
_symmetry_cell_setting 'triclinic'
loop_
_space_group_symop_operation_xyz
x,y,z
-x,-y,-z
loop_
_atom_site_type_symbol
_atom_site_label
_atom_site_fract_x
_atom_site_fract_y
_atom_site_fract_z
Si Si1 0.256963 0.449469 0.027578
Si Si2 0.747595 0.851983 0.196227
Si Si3 0.675487 0.329724 0.203202
Si Si4 0.588626 0.507318 0.770927
Si Si5 0.615556 0.166309 0.561289
Si Si6 0.010554 0.185016 0.217077
Si Si7 0.187860 0.138952 0.388315
Si Si8 0.879948 0.507783 0.425249
O O1 0.366309 0.550918 0.109859
O O2 0.121612 0.323406 0.112374
O O3 0.302596 0.247876 0.928278
O O4 0.244883 0.642859 0.936600
O O5 0.726367 0.597947 0.259972
O O6 0.687257 0.081544 0.248447
O O7 0.903863 0.973945 0.169538
O O8 0.521017 0.329569 0.202425
O O9 0.541565 0.297785 0.678016
O O10 0.724596 0.637415 0.687869
O O11 0.731326 0.345615 0.473265
O O12 0.500000 0.000000 0.500000
O O13 0.710330 0.028142 0.611340
O O14 0.938486 0.385971 0.297779
O O15 0.075289 0.060401 0.308162
O O16 0.140848 0.227109 0.525850
O O17 0.000000 0.500000 0.500000
#
# Coordination Sequence:
#
# PCOD9110607 Si02
#       8
#     2   2   2   2   2   2   2   2
#     4   9  22  41  62  95 130 175 223 275 330 399
#     4  10  24  42  62 101 131 178 220 279 326 396
#     4  10  24  41  66  95 140 171 224 273 336 393
#     4  10  22  42  64  95 126 178 214 274 338 407
#     4  11  25  40  66  98 131 170 226 281 341 405
#     4  10  20  42  64  93 127 174 226 271 337 400
#     4   9  22  42  64  91 130 172 219 278 333 406
#     4   9  21  42  62  92 130 168 224 272 341 400
#
# _framework density 24.816655000000001
#
# number of rings (size 3 to 8) (size 9 to 14) (size 15 to 20)
#    0.750    1.500    0.000    1.500    3.500    8.000 
#    9.000    0.000    0.000    0.000    0.000    0.000 
#    0.000    0.000    0.000    0.000    0.000    0.000 
#
# Total GULP energy -89198.457034 kJ/mol
# GULP energy per Si atom -5574.903565 kJ/mol
# Density = 2.476017 g / cm^3
# Si number density = 24.816655 Si / 1000 Ang^3
#
#
#
# Elastic Constant Matrix: (Units=GPa)
#
#
# Indices 1 2 3 4 5 6 
#
# 1 107.7662 39.8588 17.7544 1.6335 4.9447 11.0063
# 2 39.8588 102.0424 34.7550 -5.7037 2.4414 6.8226
# 3 17.7544 34.7550 115.3890 7.4313 5.7374 7.3953
# 4 1.6335 -5.7037 7.4313 27.5927 6.5294 -6.5520
# 5 4.9447 2.4414 5.7374 6.5294 30.6787 7.3780
# 6 11.0063 6.8226 7.3953 -6.5520 7.3780 54.9330
#
#
#
# Elastic Compliance Matrix: (Units=1/GPa)
#
#
# Indices 1 2 3 4 5 6 
#
# 1 0.011118 -0.004249 -0.000171 -0.001775 -0.000610 -0.001807
# 2 -0.004249 0.012864 -0.003470 0.004061 -0.000624 0.000289
# 3 -0.000171 -0.003470 0.010075 -0.003596 -0.000514 -0.001251
# 4 -0.001775 0.004061 -0.003596 0.042093 -0.009932 0.006690
# 5 -0.000610 -0.000624 -0.000514 -0.009932 0.036348 -0.005798
# 6 -0.001807 0.000289 -0.001251 0.006690 -0.005798 0.020275
#
#
# Mechanical properties :
#
#
# Convention : Reuss Voigt Hill
#
# Bulk Modulus (GPa) = 54.70789 56.65935 55.68362
# Shear Modulus (GPa) = 32.33205 38.16283 35.24744
#
# Velocity S-wave (km/s) = 3.61340 3.92572 3.77279
# Velocity P-wave (km/s) = 6.28503 6.59008 6.43936
#
# Compressibility (1/GPa) = 0.01827890
#
# Stress axis : x y z
#
# Youngs Moduli (GPa) = 89.94187 77.73707 99.25504
#
# Poissons Ratio (x) = 0.33028 0.01693
# Poissons Ratio (y) = 0.38213 0.34441
# Poissons Ratio (z) = 0.01534 0.26974
#
# Static dielectric constant tensor:
#      x y z
#    x 2.008810 0.023610 0.039180 
#    y 0.023610 2.035600 -0.027210 
#    z 0.039180 -0.027210 2.022960 
# 
# From -- ./inp_files/488647.got.cif
#   From: 2010.05.17/outbox.cif.g08.bks.cpg/sg2_245_cif.got.tgz:488647.got - 2010.06.03 11:33:40.
