data_PCOD9110111
_publ_section_title
;
Structure prediction by ZEFSAII (Michael W. Deem and Ramdas Pophale) SiO2 
 PCOD9110111
Probable space group: P -1
;
_chemical_formula_sum "Si O2"
_cell_formula_units_Z 16
_cell_length_a 21.809795
_cell_length_b 9.487117
_cell_length_c 11.235830
_cell_angle_alpha 42.905694
_cell_angle_beta 151.495198
_cell_angle_gamma 138.420855
_cell_volume 715.305334
_symmetry_space_group_name_H-M "P -1"
_symmetry_group_IT_number 2
_symmetry_cell_setting 'triclinic'
loop_
_space_group_symop_operation_xyz
x,y,z
-x,-y,-z
loop_
_atom_site_type_symbol
_atom_site_label
_atom_site_fract_x
_atom_site_fract_y
_atom_site_fract_z
Si Si1 0.325170 0.067643 0.801298
Si Si2 0.184250 0.595452 0.912707
Si Si3 0.066228 0.120988 0.914087
Si Si4 0.288775 0.319739 0.799991
Si Si5 0.622826 0.805382 0.641564
Si Si6 0.453580 0.785680 0.728677
Si Si7 0.986175 0.844300 0.459505
Si Si8 0.602076 0.602331 0.482693
O O1 0.324466 0.212932 0.598628
O O2 0.011496 0.935032 0.310453
O O3 0.269893 0.808398 0.852522
O O4 0.477572 0.146357 0.065995
O O5 0.073632 0.683591 0.732895
O O6 0.100321 0.380333 0.832174
O O7 0.292465 0.525569 0.220822
O O8 0.215426 0.104817 0.153297
O O9 0.000000 0.000000 0.000000
O O10 0.330152 0.563536 0.667096
O O11 0.176186 0.284653 0.729285
O O12 0.247028 0.146305 0.726759
O O13 0.427660 0.274200 0.101200
O O14 0.574390 0.733395 0.467764
O O15 0.537566 0.569971 0.696482
O O16 0.579172 0.001622 0.499478
O O17 0.000000 0.000000 0.500000
#
# Coordination Sequence:
#
# PCOD9110111 Si02
#       8
#     2   2   2   2   2   2   2   2
#     4  10  20  41  69  97 140 183 227 298 355 416
#     4  11  24  46  71 100 145 188 235 292 361 418
#     4  11  29  48  69 106 146 187 242 302 348 430
#     4   9  21  39  63 100 133 184 238 281 354 428
#     4  10  22  41  65  99 140 175 238 289 359 418
#     4   9  19  40  64  96 144 180 227 293 365 418
#     4  12  25  47  74  98 143 196 243 289 359 429
#     4  10  22  41  66 105 136 176 239 298 344 435
#
# _framework density 22.368072000000002
#
# number of rings (size 3 to 8) (size 9 to 14) (size 15 to 20)
#    0.750    1.000    2.500    0.375    7.000    1.500 
#    2.250    2.500    0.000    0.000    0.000    0.000 
#    0.000    0.000    0.000    0.000    0.000    0.000 
#
# Total GULP energy -89121.330142 kJ/mol
# GULP energy per Si atom -5570.083134 kJ/mol
# Density = 2.231716 g / cm^3
# Si number density = 22.368072 Si / 1000 Ang^3
#
#
#
# Elastic Constant Matrix: (Units=GPa)
#
#
# Indices 1 2 3 4 5 6 
#
# 1 98.6222 46.4503 40.6232 -4.4725 -12.4358 7.4496
# 2 46.4503 121.8946 32.0931 -19.7148 -15.1132 6.8140
# 3 40.6232 32.0931 68.6932 -9.1865 1.1650 10.8370
# 4 -4.4725 -19.7148 -9.1865 38.8454 -2.5674 -1.6011
# 5 -12.4358 -15.1132 1.1650 -2.5674 35.7419 -1.4101
# 6 7.4496 6.8140 10.8370 -1.6011 -1.4101 40.8610
#
#
#
# Elastic Compliance Matrix: (Units=1/GPa)
#
#
# Indices 1 2 3 4 5 6 
#
# 1 0.015462 -0.003624 -0.007721 -0.001626 0.003979 -0.000093
# 2 -0.003624 0.011629 -0.002637 0.005122 0.004101 -0.000237
# 3 -0.007721 -0.002637 0.021360 0.002368 -0.004481 -0.003879
# 4 -0.001626 0.005122 0.002368 0.028957 0.003606 0.000073
# 5 0.003979 0.004101 -0.004481 0.003606 0.031542 0.001009
# 6 -0.000093 -0.000237 -0.003879 0.000073 0.001009 0.025596
#
#
# Mechanical properties :
#
#
# Convention : Reuss Voigt Hill
#
# Bulk Modulus (GPa) = 48.81011 58.61591 53.71301
# Shear Modulus (GPa) = 29.52657 34.42587 31.97622
#
# Velocity S-wave (km/s) = 3.63717 3.92735 3.78504
# Velocity P-wave (km/s) = 6.28549 6.84306 6.57019
#
# Compressibility (1/GPa) = 0.02048756
#
# Stress axis : x y z
#
# Youngs Moduli (GPa) = 64.67601 85.99009 46.81597
#
# Poissons Ratio (x) = 0.31159 0.36146
# Poissons Ratio (y) = 0.23436 0.12347
# Poissons Ratio (z) = 0.49935 0.22679
#
# Static dielectric constant tensor:
#      x y z
#    x 1.869090 0.043040 -0.005150 
#    y 0.043040 1.884730 0.092430 
#    z -0.005150 0.092430 1.929310 
# 
# From -- ./inp_files/544951.got.cif
#   From: 2010.05.17/outbox.cif.g08.bks.cpg/sg2_273_cif.got.tgz:544951.got - 2010.06.03 11:33:40.
