data_PCOD9110259
_publ_section_title
;
Structure prediction by ZEFSAII (Michael W. Deem and Ramdas Pophale) SiO2 
 PCOD9110259
Probable space group: P -1
;
_chemical_formula_sum "Si O2"
_cell_formula_units_Z 16
_cell_length_a 8.326306
_cell_length_b 15.253687
_cell_length_c 8.010929
_cell_angle_alpha 97.255373
_cell_angle_beta 121.388393
_cell_angle_gamma 49.771580
_cell_volume 627.720052
_symmetry_space_group_name_H-M "P -1"
_symmetry_group_IT_number 2
_symmetry_cell_setting 'triclinic'
loop_
_space_group_symop_operation_xyz
x,y,z
-x,-y,-z
loop_
_atom_site_type_symbol
_atom_site_label
_atom_site_fract_x
_atom_site_fract_y
_atom_site_fract_z
Si Si1 0.039948 0.795428 0.851312
Si Si2 0.004757 0.894517 0.508149
Si Si3 0.188590 0.284519 0.858092
Si Si4 0.066680 0.348966 0.437363
Si Si5 0.340384 0.501209 0.266674
Si Si6 0.478773 0.274966 0.422080
Si Si7 0.436569 0.093381 0.183780
Si Si8 0.405905 0.403457 0.926599
O O1 0.327005 0.690947 0.051637
O O2 0.063874 0.855431 0.723945
O O3 0.969209 0.727028 0.707038
O O4 0.801241 0.886869 0.867650
O O5 0.228781 0.788706 0.478695
O O6 0.710462 0.961562 0.335137
O O7 0.000000 0.000000 0.500000
O O8 0.059606 0.321981 0.616721
O O9 0.944612 0.365992 0.870051
O O10 0.373568 0.145323 0.975857
O O11 0.336264 0.329991 0.945481
O O12 0.349076 0.297943 0.535891
O O13 0.836517 0.486783 0.287098
O O14 0.500000 0.500000 0.500000
O O15 0.309963 0.410288 0.293598
O O16 0.448737 0.453255 0.125199
O O17 0.449810 0.188454 0.297462
#
# Coordination Sequence:
#
# PCOD9110259 Si02
#       8
#     2   2   2   2   2   2   2   2
#     4  11  22  40  67  98 131 168 226 280 328 400
#     4  10  20  41  71  98 125 174 224 277 336 393
#     4  12  24  42  63  96 140 183 220 270 329 394
#     4  11  25  41  62  99 140 176 223 270 330 395
#     4  12  23  38  68  97 137 174 219 272 337 398
#     4  10  20  42  65  96 131 175 214 278 332 392
#     4  10  22  41  68  96 129 176 229 274 329 385
#     4  12  22  42  63  98 141 179 216 270 332 404
#
# _framework density 25.489070000000002
#
# number of rings (size 3 to 8) (size 9 to 14) (size 15 to 20)
#    0.000    1.000    3.750    4.500    0.000    1.000 
#    0.000    1.250    0.000    0.000    0.000    0.000 
#    0.000    0.000    0.000    0.000    0.000    0.000 
#
# Total GULP energy -89508.673867 kJ/mol
# GULP energy per Si atom -5594.292117 kJ/mol
# Density = 2.543106 g / cm^3
# Si number density = 25.489070 Si / 1000 Ang^3
#
#
#
# Elastic Constant Matrix: (Units=GPa)
#
#
# Indices 1 2 3 4 5 6 
#
# 1 133.2818 9.9805 33.6411 -15.1336 1.6386 -33.4609
# 2 9.9805 21.6696 29.5497 1.9776 1.8103 -5.5245
# 3 33.6411 29.5497 119.3709 -11.3744 8.2032 -18.2769
# 4 -15.1336 1.9776 -11.3744 45.1699 10.2987 8.0049
# 5 1.6386 1.8103 8.2032 10.2987 38.9796 -8.1949
# 6 -33.4609 -5.5245 -18.2769 8.0049 -8.1949 42.3941
#
#
#
# Elastic Compliance Matrix: (Units=1/GPa)
#
#
# Indices 1 2 3 4 5 6 
#
# 1 0.009831 -0.001155 -0.001343 0.001559 0.000966 0.006923
# 2 -0.001155 0.073315 -0.018513 -0.009691 0.003777 0.003221
# 3 -0.001343 -0.018513 0.014147 0.004381 -0.002960 0.001228
# 4 0.001559 -0.009691 0.004381 0.027052 -0.008723 -0.004938
# 5 0.000966 0.003777 -0.002960 -0.008723 0.029924 0.007410
# 6 0.006923 0.003221 0.001228 -0.004938 0.007410 0.032366
#
#
# Mechanical properties :
#
#
# Convention : Reuss Voigt Hill
#
# Bulk Modulus (GPa) = 18.09247 46.74054 32.41651
# Shear Modulus (GPa) = 20.23621 38.71877 29.47749
#
# Velocity S-wave (km/s) = 2.82071 3.90171 3.40439
# Velocity P-wave (km/s) = 4.20976 6.21893 5.31023
#
# Compressibility (1/GPa) = 0.05527161
#
# Stress axis : x y z
#
# Youngs Moduli (GPa) = 101.71433 13.63976 70.68522
#
# Poissons Ratio (x) = 0.01576 0.09490
# Poissons Ratio (y) = 0.11753 1.30860
# Poissons Ratio (z) = 0.13656 0.25251
#
# Static dielectric constant tensor:
#      x y z
#    x 2.033890 -0.034030 0.025240 
#    y -0.034030 2.000690 0.042640 
#    z 0.025240 0.042640 2.031930 
# 
# From -- ./inp_files/215161.got.cif
#   From: 2010.05.17/outbox.cif.g08.bks.cpg/sg2_108_cif.got.tgz:215161.got - 2010.06.03 11:33:40.
