data_PCOD9110329
_publ_section_title
;
Structure prediction by ZEFSAII (Michael W. Deem and Ramdas Pophale) SiO2 
 PCOD9110329
Probable space group: P -1
;
_chemical_formula_sum "Si O2"
_cell_formula_units_Z 14
_cell_length_a 10.045845
_cell_length_b 11.179229
_cell_length_c 9.984180
_cell_angle_alpha 90.132309
_cell_angle_beta 39.537640
_cell_angle_gamma 110.619380
_cell_volume 595.936479
_symmetry_space_group_name_H-M "P -1"
_symmetry_group_IT_number 2
_symmetry_cell_setting 'triclinic'
loop_
_space_group_symop_operation_xyz
x,y,z
-x,-y,-z
loop_
_atom_site_type_symbol
_atom_site_label
_atom_site_fract_x
_atom_site_fract_y
_atom_site_fract_z
Si Si1 0.694203 0.461634 0.976107
Si Si2 0.145583 0.022655 0.594753
Si Si3 0.896708 0.756471 0.985312
Si Si4 0.790992 0.093013 0.736251
Si Si5 0.401966 0.585553 0.497024
Si Si6 0.831540 0.587681 0.589522
Si Si7 0.287406 0.721624 0.814295
O O1 0.392400 0.385020 0.208782
O O2 0.743710 0.360457 0.024921
O O3 0.800358 0.613941 0.968825
O O4 0.802373 0.495971 0.742692
O O5 0.026174 0.895023 0.793421
O O6 0.173355 0.963552 0.431814
O O7 0.425762 0.147082 0.416565
O O8 0.961736 0.076745 0.711949
O O9 0.090868 0.764456 0.942193
O O10 0.650612 0.728143 0.249237
O O11 0.910313 0.260767 0.622899
O O12 0.500000 0.000000 0.000000
O O13 0.500000 0.500000 0.500000
O O14 0.247081 0.498320 0.487845
O O15 0.255867 0.619336 0.715741
#
# Coordination Sequence:
#
# PCOD9110329 Si02
#       7
#     2   2   2   2   2   2   2
#     4  10  20  41  73  97 138 176 234 284 341 412
#     4  11  25  45  68 100 144 185 229 285 349 416
#     4  11  24  43  69  99 140 186 228 283 352 412
#     4  11  24  45  71 102 142 183 234 285 349 417
#     4  11  23  41  69 102 137 175 234 295 344 407
#     4  10  20  42  72 101 137 179 230 297 347 400
#     4  12  24  44  70 103 139 185 229 286 349 414
#
# _framework density 23.492436000000001
#
# number of rings (size 3 to 8) (size 9 to 14) (size 15 to 20)
#    0.000    1.143    5.714    0.857    0.000    4.000 
#    0.000    0.714    0.000    0.000    0.000    0.000 
#    0.000    0.000    0.000    0.000    0.000    0.000 
#
# Total GULP energy -78504.731316 kJ/mol
# GULP energy per Si atom -5607.480808 kJ/mol
# Density = 2.343897 g / cm^3
# Si number density = 23.492436 Si / 1000 Ang^3
#
#
#
# Elastic Constant Matrix: (Units=GPa)
#
#
# Indices 1 2 3 4 5 6 
#
# 1 100.5613 20.7437 62.5191 -0.7029 18.0421 2.2856
# 2 20.7437 55.5559 41.0324 -9.7507 11.0747 4.7626
# 3 62.5191 41.0324 182.9043 -29.1110 8.0776 -3.8050
# 4 -0.7029 -9.7507 -29.1110 44.2613 0.9186 4.3977
# 5 18.0421 11.0747 8.0776 0.9186 53.0128 -5.4108
# 6 2.2856 4.7626 -3.8050 4.3977 -5.4108 37.0113
#
#
#
# Elastic Compliance Matrix: (Units=1/GPa)
#
#
# Indices 1 2 3 4 5 6 
#
# 1 0.013886 -0.001291 -0.004795 -0.003001 -0.003815 -0.001386
# 2 -0.001291 0.023339 -0.004242 0.002850 -0.004281 -0.004324
# 3 -0.004795 -0.004242 0.008762 0.004589 0.001244 0.001379
# 4 -0.003001 0.002850 0.004589 0.026512 -0.001040 -0.003012
# 5 -0.003815 -0.004281 0.001244 -0.001040 0.021308 0.004153
# 6 -0.001386 -0.004324 0.001379 -0.003012 0.004153 0.028768
#
#
# Mechanical properties :
#
#
# Convention : Reuss Voigt Hill
#
# Bulk Modulus (GPa) = 39.47561 65.29023 52.38292
# Shear Modulus (GPa) = 32.96506 41.17216 37.06861
#
# Velocity S-wave (km/s) = 3.75002 4.19091 3.97658
# Velocity P-wave (km/s) = 5.96576 7.16036 6.59018
#
# Compressibility (1/GPa) = 0.02533210
#
# Stress axis : x y z
#
# Youngs Moduli (GPa) = 72.01240 42.84669 114.12746
#
# Poissons Ratio (x) = 0.05531 0.54723
# Poissons Ratio (y) = 0.09296 0.48412
# Poissons Ratio (z) = 0.34529 0.18175
#
# Static dielectric constant tensor:
#      x y z
#    x 1.887030 0.007080 -0.040440 
#    y 0.007080 1.894960 0.035910 
#    z -0.040440 0.035910 1.890020 
# 
# From -- ./inp_files/419331.got.cif
#   From: 2010.05.17/outbox.cif.g08.bks.cpg/sg2_210_cif.got.tgz:419331.got - 2010.06.03 11:33:40.
