data_PCOD9110369
_publ_section_title
;
Structure prediction by ZEFSAII (Michael W. Deem and Ramdas Pophale) SiO2 
 PCOD9110369
Probable space group: P -1
;
_chemical_formula_sum "Si O2"
_cell_formula_units_Z 16
_cell_length_a 8.594714
_cell_length_b 9.316743
_cell_length_c 12.008763
_cell_angle_alpha 85.447900
_cell_angle_beta 84.530974
_cell_angle_gamma 129.578272
_cell_volume 725.380664
_symmetry_space_group_name_H-M "P -1"
_symmetry_group_IT_number 2
_symmetry_cell_setting 'triclinic'
loop_
_space_group_symop_operation_xyz
x,y,z
-x,-y,-z
loop_
_atom_site_type_symbol
_atom_site_label
_atom_site_fract_x
_atom_site_fract_y
_atom_site_fract_z
Si Si1 0.609278 0.531332 0.872720
Si Si2 0.068115 0.531724 0.119034
Si Si3 0.011177 0.761195 0.448713
Si Si4 0.329256 0.145535 0.272704
Si Si5 0.374921 0.283594 0.492776
Si Si6 0.468771 0.718257 0.292372
Si Si7 0.964685 0.433536 0.360776
Si Si8 0.410078 0.943904 0.131418
O O1 0.765878 0.496667 0.888646
O O2 0.717451 0.734648 0.796823
O O3 0.478352 0.383924 0.787422
O O4 0.500000 0.500000 0.000000
O O5 0.911298 0.398943 0.236732
O O6 0.178379 0.744820 0.139548
O O7 0.000000 0.500000 0.000000
O O8 0.851306 0.783967 0.501620
O O9 0.120400 0.746935 0.546721
O O10 0.919797 0.564472 0.405903
O O11 0.151961 0.932728 0.343123
O O12 0.439239 0.251488 0.374499
O O13 0.438121 0.113657 0.175501
O O14 0.500000 0.500000 0.500000
O O15 0.410415 0.210619 0.604599
O O16 0.218777 0.565827 0.341152
O O17 0.509092 0.885181 0.209085
O O18 0.500000 0.000000 0.000000
#
# Coordination Sequence:
#
# PCOD9110369 Si02
#       8
#     2   2   2   2   2   2   2   2
#     4  10  21  39  67  88 122 171 211 253 328 374
#     4  10  21  42  63  85 122 163 216 256 304 379
#     4  11  21  39  64  91 129 168 199 262 314 381
#     4  12  22  41  67  95 126 167 212 262 324 373
#     4  12  23  38  62  97 130 160 211 257 314 381
#     4  10  20  42  59  88 127 163 206 256 305 388
#     4   9  19  40  64  83 128 172 200 240 339 370
#     4  10  22  45  63  86 125 165 208 264 315 368
#
# _framework density 22.057382
#
# number of rings (size 3 to 8) (size 9 to 14) (size 15 to 20)
#    0.000    1.750    5.000    2.625    0.000    1.500 
#    6.750    0.625    0.000    0.000    0.000    0.000 
#    0.000    0.000    0.000    0.000    0.000    0.000 
#
# Total GULP energy -89223.314431 kJ/mol
# GULP energy per Si atom -5576.457152 kJ/mol
# Density = 2.200718 g / cm^3
# Si number density = 22.057382 Si / 1000 Ang^3
#
#
#
# Elastic Constant Matrix: (Units=GPa)
#
#
# Indices 1 2 3 4 5 6 
#
# 1 37.4825 26.6351 35.4832 13.0503 9.9313 -15.8934
# 2 26.6351 68.7765 28.0935 15.1324 8.8957 -12.9611
# 3 35.4832 28.0935 186.2162 24.9516 16.7446 -10.3201
# 4 13.0503 15.1324 24.9516 48.8153 -11.5909 -6.7303
# 5 9.9313 8.8957 16.7446 -11.5909 44.5800 -1.7198
# 6 -15.8934 -12.9611 -10.3201 -6.7303 -1.7198 14.4152
#
#
#
# Elastic Compliance Matrix: (Units=1/GPa)
#
#
# Indices 1 2 3 4 5 6 
#
# 1 0.071008 -0.010723 -0.006802 -0.006475 -0.010512 0.059501
# 2 -0.010723 0.020715 -0.000147 -0.003378 -0.002381 0.004836
# 3 -0.006802 -0.000147 0.007004 -0.002752 -0.001961 -0.004137
# 4 -0.006475 -0.003378 -0.002752 0.027384 0.010342 0.001873
# 5 -0.010512 -0.002381 -0.001961 0.010342 0.028407 -0.006917
# 6 0.059501 0.004836 -0.004137 0.001873 -0.006917 0.136410
#
#
# Mechanical properties :
#
#
# Convention : Reuss Voigt Hill
#
# Bulk Modulus (GPa) = 15.77734 52.54433 34.16083
# Shear Modulus (GPa) = 14.39255 35.04632 24.71943
#
# Velocity S-wave (km/s) = 2.55719 3.99039 3.35130
# Velocity P-wave (km/s) = 3.98589 6.71597 5.52230
#
# Compressibility (1/GPa) = 0.06338204
#
# Stress axis : x y z
#
# Youngs Moduli (GPa) = 14.08297 48.27308 142.76870
#
# Poissons Ratio (x) = 0.51765 0.97116
# Poissons Ratio (y) = 0.15102 0.02100
# Poissons Ratio (z) = 0.09580 0.00710
#
# Static dielectric constant tensor:
#      x y z
#    x 1.924350 0.066480 -0.005500 
#    y 0.066480 1.906930 -0.019280 
#    z -0.005500 -0.019280 1.873440 
# 
# From -- ./inp_files/379135.got.cif
#   From: 2010.05.17/outbox.cif.g08.bks.cpg/sg2_190_cif.got.tgz:379135.got - 2010.06.03 11:33:40.
