data_PCOD9110998
_publ_section_title
;
Structure prediction by ZEFSAII (Michael W. Deem and Ramdas Pophale) SiO2 
 PCOD9110998
Probable space group: P -1
;
_chemical_formula_sum "Si O2"
_cell_formula_units_Z 16
_cell_length_a 13.928445
_cell_length_b 15.094591
_cell_length_c 5.082877
_cell_angle_alpha 57.599604
_cell_angle_beta 80.061722
_cell_angle_gamma 46.209966
_cell_volume 615.934069
_symmetry_space_group_name_H-M "P -1"
_symmetry_group_IT_number 2
_symmetry_cell_setting 'triclinic'
loop_
_space_group_symop_operation_xyz
x,y,z
-x,-y,-z
loop_
_atom_site_type_symbol
_atom_site_label
_atom_site_fract_x
_atom_site_fract_y
_atom_site_fract_z
Si Si1 0.078375 0.566337 0.124949
Si Si2 0.360672 0.312440 0.697255
Si Si3 0.671396 0.436900 0.586372
Si Si4 0.238091 0.062493 0.777489
Si Si5 0.609589 0.123908 0.496740
Si Si6 0.299245 0.713438 0.673095
Si Si7 0.806950 0.693621 0.905832
Si Si8 0.050056 0.800822 0.466978
O O1 0.202190 0.456118 0.444923
O O2 0.132217 0.456419 0.026443
O O3 0.060461 0.699478 0.833637
O O4 0.924067 0.642728 0.137796
O O5 0.396080 0.396230 0.684419
O O6 0.458230 0.222309 0.541250
O O7 0.339591 0.226316 0.021601
O O8 0.371159 0.617196 0.523437
O O9 0.837802 0.314956 0.627493
O O10 0.663739 0.400525 0.941921
O O11 0.202947 0.205847 0.463055
O O12 0.107520 0.084578 0.747967
O O13 0.361075 0.930201 0.729864
O O14 0.286450 0.017942 0.125275
O O15 0.650136 0.213664 0.376407
O O16 0.130093 0.838658 0.496552
#
# Coordination Sequence:
#
# PCOD9110998 Si02
#       8
#     2   2   2   2   2   2   2   2
#     4  10  20  42  68 109 124 163 221 283 356 376
#     4  12  24  41  71  97 142 166 220 277 335 414
#     4  10  21  40  71 104 126 164 221 283 348 374
#     4  11  28  46  64  97 136 184 228 269 315 402
#     4  12  30  45  63  96 141 189 226 253 325 408
#     4  10  22  43  66 102 129 176 220 277 338 378
#     4  10  23  42  72  96 130 172 218 291 329 388
#     4   9  21  41  72  99 133 161 224 288 331 381
#
# _framework density 25.976804000000001
#
# number of rings (size 3 to 8) (size 9 to 14) (size 15 to 20)
#    0.750    0.750    2.500    1.125    5.250    3.000 
#    0.000    0.000    0.000    0.000    0.000    0.000 
#    0.000    0.000    0.000    0.000    0.000    0.000 
#
# Total GULP energy -89566.057544 kJ/mol
# GULP energy per Si atom -5597.878597 kJ/mol
# Density = 2.591768 g / cm^3
# Si number density = 25.976804 Si / 1000 Ang^3
#
#
#
# Elastic Constant Matrix: (Units=GPa)
#
#
# Indices 1 2 3 4 5 6 
#
# 1 103.2507 14.0078 15.2299 0.4146 -5.7670 -26.0118
# 2 14.0078 95.6582 -10.3429 7.7889 -1.7262 -10.7161
# 3 15.2299 -10.3429 69.2134 -4.4367 -6.5183 -8.5417
# 4 0.4146 7.7889 -4.4367 30.9742 -4.2222 4.0370
# 5 -5.7670 -1.7262 -6.5183 -4.2222 31.1742 8.7289
# 6 -26.0118 -10.7161 -8.5417 4.0370 8.7289 32.7832
#
#
#
# Elastic Compliance Matrix: (Units=1/GPa)
#
#
# Indices 1 2 3 4 5 6 
#
# 1 0.012439 -0.000839 -0.001882 -0.001616 -0.001040 0.009581
# 2 -0.000839 0.011537 0.002161 -0.003229 -0.000692 0.004250
# 3 -0.001882 0.002161 0.015848 0.001799 0.002653 0.002415
# 4 -0.001616 -0.003229 0.001799 0.035376 0.006951 -0.008076
# 5 -0.001040 -0.000692 0.002653 0.006951 0.036397 -0.010908
# 6 0.009581 0.004250 0.002415 -0.008076 -0.010908 0.044023
#
#
# Mechanical properties :
#
#
# Convention : Reuss Voigt Hill
#
# Bulk Modulus (GPa) = 25.83640 33.99021 29.91331
# Shear Modulus (GPa) = 29.47414 35.60147 32.53780
#
# Velocity S-wave (km/s) = 3.37209 3.70606 3.54301
# Velocity P-wave (km/s) = 5.01287 5.60592 5.31767
#
# Compressibility (1/GPa) = 0.03870508
#
# Stress axis : x y z
#
# Youngs Moduli (GPa) = 80.39504 86.67805 63.09877
#
# Poissons Ratio (x) = 0.07271 0.11872
# Poissons Ratio (y) = 0.06744 -0.13636
# Poissons Ratio (z) = 0.15126 -0.18731
#
# Static dielectric constant tensor:
#      x y z
#    x 2.105130 -0.056850 0.035180 
#    y -0.056850 2.026140 -0.036000 
#    z 0.035180 -0.036000 2.026610 
# 
# From -- ./inp_files/78685.got.cif
#   From: 2010.05.17/outbox.cif.g08.bks.cpg/sg2_40_cif.got.tgz:78685.got - 2010.06.03 11:33:40.
