data_PCOD9110907
_publ_section_title
;
Structure prediction by ZEFSAII (Michael W. Deem and Ramdas Pophale) SiO2 
 PCOD9110907
Probable space group: P -1
;
_chemical_formula_sum "Si O2"
_cell_formula_units_Z 14
_cell_length_a 7.350515
_cell_length_b 11.722235
_cell_length_c 12.939479
_cell_angle_alpha 43.648909
_cell_angle_beta 96.846679
_cell_angle_gamma 126.921668
_cell_volume 504.785200
_symmetry_space_group_name_H-M "P -1"
_symmetry_group_IT_number 2
_symmetry_cell_setting 'triclinic'
loop_
_space_group_symop_operation_xyz
x,y,z
-x,-y,-z
loop_
_atom_site_type_symbol
_atom_site_label
_atom_site_fract_x
_atom_site_fract_y
_atom_site_fract_z
Si Si1 0.967376 0.711946 0.942602
Si Si2 0.279885 0.606738 0.406253
Si Si3 0.974343 0.179797 0.535710
Si Si4 0.712459 0.318172 0.870944
Si Si5 0.554703 0.955558 0.379266
Si Si6 0.436253 0.289000 0.278808
Si Si7 0.781483 0.826774 0.006950
O O1 0.109455 0.701937 0.050574
O O2 0.646986 0.440183 0.096878
O O3 0.942039 0.878772 0.881133
O O4 0.139431 0.785254 0.804926
O O5 0.360436 0.753765 0.208558
O O6 0.489876 0.779147 0.399169
O O7 0.000000 0.500000 0.500000
O O8 0.194363 0.365957 0.519948
O O9 0.685212 0.070205 0.622967
O O10 0.094211 0.387280 0.321005
O O11 0.875488 0.941060 0.634934
O O12 0.430491 0.165346 0.012997
O O13 0.532365 0.847206 0.556482
O O14 0.565439 0.525515 0.200475
O O15 0.000000 0.000000 0.000000
#
# Coordination Sequence:
#
# PCOD9110907 Si02
#       7
#     2   2   2   2   2   2   2
#     4  10  23  39  68  94 127 173 215 264 322 379
#     4   8  17  33  60  93 123 157 217 258 303 382
#     4   9  19  37  64  92 129 170 214 257 327 385
#     4  10  20  42  67  90 133 173 210 264 330 374
#     4  11  19  38  66  98 127 164 224 263 316 386
#     4  10  22  41  62  94 133 167 213 267 320 386
#     4  10  23  42  62  96 130 169 217 264 322 389
#
# _framework density 27.734570000000001
#
# number of rings (size 3 to 8) (size 9 to 14) (size 15 to 20)
#    1.714    0.571    1.429    1.286    0.000    3.429 
#    2.571    4.286    0.000    1.714    0.000    0.000 
#    0.000    0.000    0.000    0.000    0.000    0.000 
#
# Total GULP energy -78201.141531 kJ/mol
# GULP energy per Si atom -5585.795824 kJ/mol
# Density = 2.767144 g / cm^3
# Si number density = 27.734570 Si / 1000 Ang^3
#
#
#
# Elastic Constant Matrix: (Units=GPa)
#
#
# Indices 1 2 3 4 5 6 
#
# 1 102.8108 15.2635 27.2281 9.3959 -30.0378 -17.8264
# 2 15.2635 170.0192 33.8070 -32.2057 7.4917 3.8527
# 3 27.2281 33.8070 110.8447 2.8096 -16.8472 -8.9767
# 4 9.3959 -32.2057 2.8096 58.9664 -15.7545 1.5425
# 5 -30.0378 7.4917 -16.8472 -15.7545 38.8662 7.0860
# 6 -17.8264 3.8527 -8.9767 1.5425 7.0860 34.5737
#
#
#
# Elastic Compliance Matrix: (Units=1/GPa)
#
#
# Indices 1 2 3 4 5 6 
#
# 1 0.013990 -0.001725 -0.001032 -0.000736 0.009445 0.005235
# 2 -0.001725 0.007395 -0.002377 0.004010 -0.001772 -0.002146
# 3 -0.001032 -0.002377 0.010725 -0.000704 0.003697 0.001791
# 4 -0.000736 0.004010 -0.000704 0.021448 0.007693 -0.003542
# 5 0.009445 -0.001772 0.003697 0.007693 0.038494 -0.002205
# 6 0.005235 -0.002146 0.001791 -0.003542 -0.002205 0.032937
#
#
# Mechanical properties :
#
#
# Convention : Reuss Voigt Hill
#
# Bulk Modulus (GPa) = 45.78148 59.58575 52.68362
# Shear Modulus (GPa) = 35.07834 46.97300 41.02567
#
# Velocity S-wave (km/s) = 3.56024 4.11988 3.85024
# Velocity P-wave (km/s) = 5.78302 6.64546 6.22918
#
# Compressibility (1/GPa) = 0.02184289
#
# Stress axis : x y z
#
# Youngs Moduli (GPa) = 71.47720 135.21899 93.24073
#
# Poissons Ratio (x) = 0.23323 0.09627
# Poissons Ratio (y) = 0.12329 0.22160
# Poissons Ratio (z) = 0.07380 0.32137
#
# Static dielectric constant tensor:
#      x y z
#    x 2.159940 -0.089010 0.051890 
#    y -0.089010 2.214670 -0.056070 
#    z 0.051890 -0.056070 2.249870 
# 
# From -- ./inp_files/498845.got.cif
#   From: 2010.05.17/outbox.cif.g08.bks.cpg/sg2_250_cif.got.tgz:498845.got - 2010.06.03 11:33:40.
