data_PCOD9110298
_publ_section_title
;
Structure prediction by ZEFSAII (Michael W. Deem and Ramdas Pophale) SiO2 
 PCOD9110298
Probable space group: P -1
;
_chemical_formula_sum "Si O2"
_cell_formula_units_Z 16
_cell_length_a 14.583926
_cell_length_b 8.673769
_cell_length_c 8.913085
_cell_angle_alpha 110.737996
_cell_angle_beta 104.969902
_cell_angle_gamma 125.990749
_cell_volume 671.825224
_symmetry_space_group_name_H-M "P -1"
_symmetry_group_IT_number 2
_symmetry_cell_setting 'triclinic'
loop_
_space_group_symop_operation_xyz
x,y,z
-x,-y,-z
loop_
_atom_site_type_symbol
_atom_site_label
_atom_site_fract_x
_atom_site_fract_y
_atom_site_fract_z
Si Si1 0.962027 0.313632 0.293617
Si Si2 0.112435 0.267019 0.557966
Si Si3 0.670750 0.796134 0.076175
Si Si4 0.591134 0.494066 0.351590
Si Si5 0.735064 0.491793 0.020999
Si Si6 0.575844 0.941974 0.316364
Si Si7 0.611073 0.869356 0.618078
Si Si8 0.815240 0.388141 0.752771
O O1 0.000000 0.500000 0.500000
O O2 0.035840 0.250993 0.380720
O O3 0.036083 0.444404 0.211147
O O4 0.794507 0.049962 0.121415
O O5 0.261356 0.383769 0.605320
O O6 0.166052 0.447978 0.782692
O O7 0.000000 0.000000 0.500000
O O8 0.652541 0.890943 0.245763
O O9 0.518736 0.597860 0.858484
O O10 0.717397 0.668167 0.080792
O O11 0.634305 0.706316 0.545735
O O12 0.490683 0.244545 0.322607
O O13 0.801846 0.526823 0.902322
O O14 0.573436 0.210000 0.876875
O O15 0.698712 0.232301 0.512252
O O16 0.524172 0.815828 0.415617
O O17 0.756350 0.162798 0.756448
#
# Coordination Sequence:
#
# PCOD9110298 Si02
#       8
#     2   2   2   2   2   2   2   2
#     4  12  27  49  72 100 147 197 232 292 371 425
#     4  12  28  45  72 107 146 179 244 299 351 422
#     4  12  22  44  75 103 139 195 245 284 351 440
#     4  11  23  44  74 109 133 189 247 294 347 428
#     4  12  23  43  71 108 141 187 242 295 358 420
#     4  10  20  41  72  97 142 185 234 290 356 417
#     4   9  22  42  71 102 145 183 236 296 357 416
#     4  10  25  44  67 105 146 188 231 299 361 418
#
# _framework density 23.815718
#
# number of rings (size 3 to 8) (size 9 to 14) (size 15 to 20)
#    0.750    0.250    5.000    1.500    3.500    1.500 
#    4.500    3.125    0.000    0.000    0.000    0.000 
#    0.000    0.000    0.000    0.000    0.000    0.000 
#
# Total GULP energy -89355.796885 kJ/mol
# GULP energy per Si atom -5584.737305 kJ/mol
# Density = 2.376151 g / cm^3
# Si number density = 23.815718 Si / 1000 Ang^3
#
#
#
# Elastic Constant Matrix: (Units=GPa)
#
#
# Indices 1 2 3 4 5 6 
#
# 1 105.0895 48.8393 31.4051 3.9269 -17.2021 31.6915
# 2 48.8393 142.4952 5.6965 11.1753 -1.6602 36.8486
# 3 31.4051 5.6965 66.5771 6.5370 0.5815 14.2040
# 4 3.9269 11.1753 6.5370 28.1706 7.6471 2.2259
# 5 -17.2021 -1.6602 0.5815 7.6471 41.6004 -0.2892
# 6 31.6915 36.8486 14.2040 2.2259 -0.2892 42.0008
#
#
#
# Elastic Compliance Matrix: (Units=1/GPa)
#
#
# Indices 1 2 3 4 5 6 
#
# 1 0.016046 -0.003258 -0.005723 -0.000863 0.006693 -0.007222
# 2 -0.003258 0.010142 0.002533 -0.003490 -0.000386 -0.007114
# 3 -0.005723 0.002533 0.018752 -0.003730 -0.001870 -0.004060
# 4 -0.000863 -0.003490 -0.003730 0.039744 -0.007730 0.002815
# 5 0.006693 -0.000386 -0.001870 -0.007730 0.028214 -0.003476
# 6 -0.007222 -0.007114 -0.004060 0.002815 -0.003476 0.036700
#
#
# Mechanical properties :
#
#
# Convention : Reuss Voigt Hill
#
# Bulk Modulus (GPa) = 31.20753 54.00484 42.60618
# Shear Modulus (GPa) = 28.87257 37.56907 33.22082
#
# Velocity S-wave (km/s) = 3.48563 3.97607 3.73890
# Velocity P-wave (km/s) = 5.41588 6.61848 6.04715
#
# Compressibility (1/GPa) = 0.03204354
#
# Stress axis : x y z
#
# Youngs Moduli (GPa) = 62.32185 98.60061 53.32764
#
# Poissons Ratio (x) = 0.32120 0.30520
# Poissons Ratio (y) = 0.20302 -0.13506
# Poissons Ratio (z) = 0.35668 -0.24972
#
# Static dielectric constant tensor:
#      x y z
#    x 1.927820 -0.040790 -0.015820 
#    y -0.040790 1.947010 -0.015530 
#    z -0.015820 -0.015530 1.942760 
# 
# From -- ./inp_files/299263.got.cif
#   From: 2010.05.17/outbox.cif.g08.bks.cpg/sg2_150_cif.got.tgz:299263.got - 2010.06.03 11:33:40.
