data_PCOD9110676
_publ_section_title
;
Structure prediction by ZEFSAII (Michael W. Deem and Ramdas Pophale) SiO2 
 PCOD9110676
Probable space group: P -1
;
_chemical_formula_sum "Si O2"
_cell_formula_units_Z 14
_cell_length_a 8.452336
_cell_length_b 9.399550
_cell_length_c 11.180243
_cell_angle_alpha 99.752437
_cell_angle_beta 45.730515
_cell_angle_gamma 110.429709
_cell_volume 592.376291
_symmetry_space_group_name_H-M "P -1"
_symmetry_group_IT_number 2
_symmetry_cell_setting 'triclinic'
loop_
_space_group_symop_operation_xyz
x,y,z
-x,-y,-z
loop_
_atom_site_type_symbol
_atom_site_label
_atom_site_fract_x
_atom_site_fract_y
_atom_site_fract_z
Si Si1 0.798880 0.310317 0.195735
Si Si2 0.111276 0.285994 0.364774
Si Si3 0.474861 0.163888 0.009413
Si Si4 0.266194 0.014662 0.863133
Si Si5 0.536618 0.521654 0.624939
Si Si6 0.759691 0.490254 0.876833
Si Si7 0.611929 0.214668 0.548437
O O1 0.678316 0.423123 0.216787
O O2 0.677112 0.249783 0.380185
O O3 0.065884 0.399416 0.103875
O O4 0.738627 0.156336 0.130105
O O5 0.273643 0.200972 0.200260
O O6 0.231095 0.345569 0.436144
O O7 0.125733 0.436497 0.298794
O O8 0.837455 0.194833 0.493070
O O9 0.390061 0.139151 0.913645
O O10 0.707860 0.312593 0.907580
O O11 0.500000 0.000000 0.000000
O O12 0.389803 0.072467 0.680006
O O13 0.000000 0.000000 0.000000
O O14 0.500000 0.500000 0.500000
O O15 0.550879 0.364019 0.644998
O O16 0.500000 0.500000 0.000000
#
# Coordination Sequence:
#
# PCOD9110676 Si02
#       7
#     2   2   2   2   2   2   2
#     4  10  22  41  64  95 128 161 209 268 317 364
#     4  10  20  42  65  89 125 171 213 254 311 387
#     4  11  24  41  63  95 131 167 207 256 316 374
#     4  12  24  41  63  93 127 166 210 260 316 379
#     4  10  21  37  62  96 124 154 209 271 316 361
#     4   9  19  39  64  87 121 169 208 244 303 379
#     4  10  22  41  65  89 121 170 215 257 313 382
#
# _framework density 23.633626
#
# number of rings (size 3 to 8) (size 9 to 14) (size 15 to 20)
#    0.000    1.714    0.000    5.143    0.000    4.571 
#    0.000   12.857    0.000    0.000    0.000    0.000 
#    0.000    0.000    0.000    0.000    0.000    0.000 
#
# Total GULP energy -78198.223343 kJ/mol
# GULP energy per Si atom -5585.587382 kJ/mol
# Density = 2.357984 g / cm^3
# Si number density = 23.633626 Si / 1000 Ang^3
#
#
#
# Elastic Constant Matrix: (Units=GPa)
#
#
# Indices 1 2 3 4 5 6 
#
# 1 73.1690 24.8690 35.9587 7.5773 -9.4706 2.1737
# 2 24.8690 154.2220 41.2273 8.2995 -10.2552 -10.6334
# 3 35.9587 41.2273 104.8399 -15.2716 -9.0175 0.4433
# 4 7.5773 8.2995 -15.2716 35.8908 3.9434 -3.3755
# 5 -9.4706 -10.2552 -9.0175 3.9434 36.7877 9.0991
# 6 2.1737 -10.6334 0.4433 -3.3755 9.0991 44.0660
#
#
#
# Elastic Compliance Matrix: (Units=1/GPa)
#
#
# Indices 1 2 3 4 5 6 
#
# 1 0.018652 -0.000665 -0.006829 -0.007401 0.004348 -0.002477
# 2 -0.000665 0.007781 -0.003173 -0.003000 0.001178 0.001469
# 3 -0.006829 -0.003173 0.014332 0.008284 -0.000035 0.000069
# 4 -0.007401 -0.003000 0.008284 0.034526 -0.005223 0.003281
# 5 0.004348 0.001178 -0.000035 -0.005223 0.030839 -0.006698
# 6 -0.002477 0.001469 0.000069 0.003281 -0.006698 0.024804
#
#
# Mechanical properties :
#
#
# Convention : Reuss Voigt Hill
#
# Bulk Modulus (GPa) = 51.47012 59.59340 55.53176
# Shear Modulus (GPa) = 31.49680 38.69397 35.09539
#
# Velocity S-wave (km/s) = 3.65459 4.05067 3.85772
# Velocity P-wave (km/s) = 6.29553 6.86641 6.58716
#
# Compressibility (1/GPa) = 0.01942875
#
# Stress axis : x y z
#
# Youngs Moduli (GPa) = 53.61303 128.51960 69.77338
#
# Poissons Ratio (x) = 0.08553 0.47650
# Poissons Ratio (y) = 0.03568 0.22142
# Poissons Ratio (z) = 0.36614 0.40785
#
# Static dielectric constant tensor:
#      x y z
#    x 1.907390 -0.001320 0.008730 
#    y -0.001320 2.313090 -0.000320 
#    z 0.008730 -0.000320 1.948840 
# 
# From -- ./inp_files/226172.got.cif
#   From: 2010.05.17/outbox.cif.g08.bks.cpg/sg2_114_cif.got.tgz:226172.got - 2010.06.03 11:33:40.
