data_PCOD9110444
_publ_section_title
;
Structure prediction by ZEFSAII (Michael W. Deem and Ramdas Pophale) SiO2 
 PCOD9110444
Probable space group: P -1
;
_chemical_formula_sum "Si O2"
_cell_formula_units_Z 15
_cell_length_a 13.483586
_cell_length_b 6.888746
_cell_length_c 8.746902
_cell_angle_alpha 74.187767
_cell_angle_beta 51.114336
_cell_angle_gamma 65.098184
_cell_volume 573.582390
_symmetry_space_group_name_H-M "P -1"
_symmetry_group_IT_number 2
_symmetry_cell_setting 'triclinic'
loop_
_space_group_symop_operation_xyz
x,y,z
-x,-y,-z
loop_
_atom_site_type_symbol
_atom_site_label
_atom_site_fract_x
_atom_site_fract_y
_atom_site_fract_z
Si Si1 0.642339 0.449701 0.199647
Si Si2 0.443077 0.858996 0.473160
Si Si3 0.942496 0.826718 0.397174
Si Si4 0.909868 0.283668 0.432347
Si Si5 0.500000 0.500000 0.000000
Si Si6 0.328292 0.178142 0.240965
Si Si7 0.886051 0.658044 0.185402
Si Si8 0.788583 0.757422 0.955465
O O1 0.558841 0.648664 0.344504
O O2 0.662046 0.235541 0.321248
O O3 0.555526 0.442845 0.136072
O O4 0.768098 0.525757 0.016139
O O5 0.500000 0.000000 0.500000
O O6 0.384779 0.996507 0.350085
O O7 0.076576 0.738350 0.391659
O O8 0.831103 0.726194 0.586332
O O9 0.946426 0.779449 0.224482
O O10 0.881647 0.077469 0.441096
O O11 0.065837 0.245252 0.242126
O O12 0.828741 0.498222 0.373213
O O13 0.405848 0.345400 0.138327
O O14 0.323571 0.100433 0.085475
O O15 0.786601 0.809309 0.125605
O O16 0.000000 0.500000 0.000000
#
# Coordination Sequence:
#
# PCOD9110444 Si02
#       8
#     2   2   2   2   1   2   2   2
#     4  10  23  41  65  90 129 159 212 265 306 386
#     4  11  23  41  64  92 123 167 214 256 322 371
#     4  10  21  38  66  91 124 163 214 253 307 384
#     4   9  20  41  61  90 124 164 206 257 309 372
#     4  10  20  42  62  88 128 162 204 266 310 362
#     4  10  22  41  63  91 127 170 210 259 316 374
#     4  10  21  37  62  90 128 164 203 257 312 362
#     4   9  21  38  60  90 127 162 205 257 312 370
#
# _framework density 26.151432
#
# number of rings (size 3 to 8) (size 9 to 14) (size 15 to 20)
#    0.000    2.133    1.333    0.400    3.733    4.267 
#    0.000    2.667   14.667    0.000    0.000    0.000 
#    0.000    0.000    0.000    0.000    0.000    0.000 
#
# Total GULP energy -83567.979771 kJ/mol
# GULP energy per Si atom -5571.198651 kJ/mol
# Density = 2.609191 g / cm^3
# Si number density = 26.151432 Si / 1000 Ang^3
#
#
#
# Elastic Constant Matrix: (Units=GPa)
#
#
# Indices 1 2 3 4 5 6 
#
# 1 140.0319 55.3620 69.2433 4.1681 50.3698 37.7630
# 2 55.3620 91.3473 52.4087 -8.8590 27.8275 25.1676
# 3 69.2433 52.4087 121.8430 -20.0239 51.5062 16.5108
# 4 4.1681 -8.8590 -20.0239 53.2575 6.1523 4.2765
# 5 50.3698 27.8275 51.5062 6.1523 77.9333 -2.8150
# 6 37.7630 25.1676 16.5108 4.2765 -2.8150 39.4360
#
#
#
# Elastic Compliance Matrix: (Units=1/GPa)
#
#
# Indices 1 2 3 4 5 6 
#
# 1 0.015870 -0.001801 -0.003270 -0.000807 -0.007864 -0.013152
# 2 -0.001801 0.017771 -0.003550 0.002849 -0.003374 -0.008680
# 3 -0.003270 -0.003550 0.016679 0.007134 -0.008312 -0.002953
# 4 -0.000807 0.002849 0.007134 0.023411 -0.007315 -0.007093
# 5 -0.007864 -0.003374 -0.008312 -0.007315 0.025760 0.015796
# 6 -0.013152 -0.008680 -0.002953 -0.007093 0.015796 0.046624
#
#
# Mechanical properties :
#
#
# Convention : Reuss Voigt Hill
#
# Bulk Modulus (GPa) = 30.23163 78.58336 54.40749
# Shear Modulus (GPa) = 28.67279 45.87258 37.27269
#
# Velocity S-wave (km/s) = 3.31481 4.19276 3.77936
# Velocity P-wave (km/s) = 5.12210 7.31803 6.31623
#
# Compressibility (1/GPa) = 0.03307794
#
# Stress axis : x y z
#
# Youngs Moduli (GPa) = 63.01344 56.27163 59.95697
#
# Poissons Ratio (x) = 0.10134 0.19607
# Poissons Ratio (y) = 0.11348 0.21283
# Poissons Ratio (z) = 0.20606 0.19974
#
# Static dielectric constant tensor:
#      x y z
#    x 2.110490 -0.073020 0.030020 
#    y -0.073020 2.079340 0.033460 
#    z 0.030020 0.033460 2.177740 
# 
# From -- ./inp_files/288591.got.cif
#   From: 2010.05.17/outbox.cif.g08.bks.cpg/sg2_145_cif.got.tgz:288591.got - 2010.06.03 11:33:40.
