data_PCOD9110115
_publ_section_title
;
Structure prediction by ZEFSAII (Michael W. Deem and Ramdas Pophale) SiO2 
 PCOD9110115
Probable space group: P -1
;
_chemical_formula_sum "Si O2"
_cell_formula_units_Z 12
_cell_length_a 10.890949
_cell_length_b 16.718384
_cell_length_c 17.090940
_cell_angle_alpha 26.013393
_cell_angle_beta 147.543567
_cell_angle_gamma 153.139301
_cell_volume 602.600443
_symmetry_space_group_name_H-M "P -1"
_symmetry_group_IT_number 2
_symmetry_cell_setting 'triclinic'
loop_
_space_group_symop_operation_xyz
x,y,z
-x,-y,-z
loop_
_atom_site_type_symbol
_atom_site_label
_atom_site_fract_x
_atom_site_fract_y
_atom_site_fract_z
Si Si1 0.338016 0.821660 0.410110
Si Si2 0.076721 0.447806 0.004801
Si Si3 0.809385 0.563908 0.623245
Si Si4 0.931733 0.954128 0.596641
Si Si5 0.991743 0.569917 0.301676
Si Si6 0.706404 0.802942 0.971298
O O1 0.604989 0.818173 0.552513
O O2 0.232633 0.763655 0.314957
O O3 0.141358 0.638637 0.528179
O O4 0.371032 0.049685 0.247898
O O5 0.412166 0.626262 0.013075
O O6 0.892063 0.468757 0.822909
O O7 0.983851 0.195971 0.185799
O O8 0.000000 0.500000 0.000000
O O9 0.500000 0.500000 0.500000
O O10 0.903821 0.490906 0.663255
O O11 0.965475 0.821664 0.500215
O O12 0.000000 0.000000 0.500000
O O13 0.790082 0.652071 0.106139
O O14 0.000000 0.000000 0.000000
#
# Coordination Sequence:
#
# PCOD9110115 Si02
#       6
#     2   2   2   2   2   2
#     4  10  20  41  69  98 133 187 221 274 349 420
#     4  12  25  45  74 103 137 188 239 286 349 424
#     4  12  28  45  67 105 142 181 235 298 349 410
#     4  12  23  44  71  98 136 185 236 281 350 421
#     4  10  23  40  68 100 142 173 232 286 349 408
#     4  10  21  41  70 105 134 178 233 284 342 417
#
# _framework density 19.913692000000001
#
# number of rings (size 3 to 8) (size 9 to 14) (size 15 to 20)
#    0.000    1.000    5.000    1.000    0.000    4.667 
#    0.000    0.000    0.000    0.000    0.000    0.000 
#    0.000    0.000    0.000    0.000    0.000    0.000 
#
# Total GULP energy -66803.629826 kJ/mol
# GULP energy per Si atom -5566.969152 kJ/mol
# Density = 1.986837 g / cm^3
# Si number density = 19.913692 Si / 1000 Ang^3
#
#
#
# Elastic Constant Matrix: (Units=GPa)
#
#
# Indices 1 2 3 4 5 6 
#
# 1 172.0978 42.8665 66.7798 13.1759 21.1697 -12.6864
# 2 42.8665 41.7586 33.4382 14.7297 -3.8699 2.5733
# 3 66.7798 33.4382 176.6430 -4.7389 26.6098 -16.8022
# 4 13.1759 14.7297 -4.7389 34.3955 -5.0193 10.1096
# 5 21.1697 -3.8699 26.6098 -5.0193 35.7325 -1.0282
# 6 -12.6864 2.5733 -16.8022 10.1096 -1.0282 22.5479
#
#
#
# Elastic Compliance Matrix: (Units=1/GPa)
#
#
# Indices 1 2 3 4 5 6 
#
# 1 0.010132 -0.010521 -0.000087 -0.002714 -0.007236 0.007724
# 2 -0.010521 0.048596 -0.009148 -0.012109 0.016259 -0.012112
# 3 -0.000087 -0.009148 0.009204 0.002240 -0.007291 0.006517
# 4 -0.002714 -0.012109 0.002240 0.041095 0.003920 -0.016723
# 5 -0.007236 0.016259 -0.007291 0.003920 0.039689 -0.011308
# 6 0.007724 -0.012112 0.006517 -0.016723 -0.011308 0.061916
#
#
# Mechanical properties :
#
#
# Convention : Reuss Voigt Hill
#
# Bulk Modulus (GPa) = 35.18471 75.18538 55.18504
# Shear Modulus (GPa) = 19.25906 35.02950 27.14428
#
# Velocity S-wave (km/s) = 3.11324 4.19867 3.69602
# Velocity P-wave (km/s) = 5.53444 7.83216 6.78132
#
# Compressibility (1/GPa) = 0.02842144
#
# Stress axis : x y z
#
# Youngs Moduli (GPa) = 98.69549 20.57762 108.64689
#
# Poissons Ratio (x) = 0.21649 0.00945
# Poissons Ratio (y) = 1.03833 0.99392
# Poissons Ratio (z) = 0.00859 0.18825
#
# Static dielectric constant tensor:
#      x y z
#    x 1.636860 -0.227850 -0.097430 
#    y -0.227850 0.895930 -0.386390 
#    z -0.097430 -0.386390 1.569420 
# 
# From -- ./inp_files/174702.got.cif
#   From: 2010.05.17/outbox.cif.g08.bks.cpg/sg2_88_cif.got.tgz:174702.got - 2010.06.03 11:33:40.
