data_PCOD9110052
_publ_section_title
;
Structure prediction by ZEFSAII (Michael W. Deem and Ramdas Pophale) SiO2 
 PCOD9110052
Probable space group: P -1
;
_chemical_formula_sum "Si O2"
_cell_formula_units_Z 12
_cell_length_a 14.562240
_cell_length_b 5.109715
_cell_length_c 7.439661
_cell_angle_alpha 113.716336
_cell_angle_beta 106.196031
_cell_angle_gamma 100.479977
_cell_volume 458.678868
_symmetry_space_group_name_H-M "P -1"
_symmetry_group_IT_number 2
_symmetry_cell_setting 'triclinic'
loop_
_space_group_symop_operation_xyz
x,y,z
-x,-y,-z
loop_
_atom_site_type_symbol
_atom_site_label
_atom_site_fract_x
_atom_site_fract_y
_atom_site_fract_z
Si Si1 0.900398 0.277053 0.277545
Si Si2 0.718158 0.582970 0.588709
Si Si3 0.958517 0.728685 0.150484
Si Si4 0.586735 0.320855 0.124318
Si Si5 0.444886 0.679214 0.281920
Si Si6 0.826613 0.142996 0.567628
O O1 0.819271 0.116680 0.340779
O O2 0.000000 0.500000 0.500000
O O3 0.879725 0.500872 0.182519
O O4 0.925027 0.995529 0.124809
O O5 0.667298 0.358924 0.334609
O O6 0.631105 0.538486 0.676590
O O7 0.806767 0.461628 0.677635
O O8 0.755721 0.906205 0.602091
O O9 0.064911 0.899281 0.355795
O O10 0.000000 0.500000 0.000000
O O11 0.533746 0.565064 0.223025
O O12 0.619486 0.333538 0.938692
O O13 0.500000 0.000000 0.000000
O O14 0.500000 0.000000 0.500000
#
# Coordination Sequence:
#
# PCOD9110052 Si02
#       6
#     2   2   2   2   2   2
#     4  10  20  41  69  89 127 181 220 260 323 416
#     4  12  25  44  67 102 144 175 223 295 350 392
#     4  11  22  42  69  97 130 176 231 268 327 414
#     4  11  25  44  73  98 131 185 245 265 340 427
#     4  11  24  46  72  98 134 186 232 283 335 419
#     4  11  24  43  64 100 136 175 218 281 352 391
#
# _framework density 26.162092999999999
#
# number of rings (size 3 to 8) (size 9 to 14) (size 15 to 20)
#    0.000    1.000    1.667    7.000    4.667    0.000 
#    9.000    0.000    0.000    0.000    0.000    0.000 
#    0.000    0.000    0.000    0.000    0.000    0.000 
#
# Total GULP energy -67029.905785 kJ/mol
# GULP energy per Si atom -5585.825482 kJ/mol
# Density = 2.610255 g / cm^3
# Si number density = 26.162093 Si / 1000 Ang^3
#
#
#
# Elastic Constant Matrix: (Units=GPa)
#
#
# Indices 1 2 3 4 5 6 
#
# 1 73.7315 31.6081 25.2605 -1.7256 -16.8144 -6.2517
# 2 31.6081 184.5615 48.6074 -2.3563 -25.6665 29.1751
# 3 25.2605 48.6074 115.3841 7.7862 -32.0424 5.6651
# 4 -1.7256 -2.3563 7.7862 44.3616 -1.9468 -30.6319
# 5 -16.8144 -25.6665 -32.0424 -1.9468 35.3659 -6.5928
# 6 -6.2517 29.1751 5.6651 -30.6319 -6.5928 44.7404
#
#
#
# Elastic Compliance Matrix: (Units=1/GPa)
#
#
# Indices 1 2 3 4 5 6 
#
# 1 0.019004 -0.003737 -0.001811 0.010768 0.007857 0.013852
# 2 -0.003737 0.007969 -0.001517 -0.006066 0.000508 -0.009605
# 3 -0.001811 -0.001517 0.012446 -0.003088 0.008836 -0.001652
# 4 0.010768 -0.006066 -0.003088 0.054158 0.009155 0.044280
# 5 0.007857 0.000508 0.008836 0.009155 0.043179 0.012279
# 6 0.013852 -0.009605 -0.001652 0.044280 0.012279 0.062886
#
#
# Mechanical properties :
#
#
# Convention : Reuss Voigt Hill
#
# Bulk Modulus (GPa) = 39.54398 64.95881 52.25139
# Shear Modulus (GPa) = 22.50218 42.77366 32.63792
#
# Velocity S-wave (km/s) = 2.93594 4.04784 3.53587
# Velocity P-wave (km/s) = 5.16147 6.83593 6.05684
#
# Compressibility (1/GPa) = 0.02528830
#
# Stress axis : x y z
#
# Youngs Moduli (GPa) = 52.62153 125.48015 80.35005
#
# Poissons Ratio (x) = 0.46895 0.14550
# Poissons Ratio (y) = 0.19666 0.12190
# Poissons Ratio (z) = 0.09529 0.19037
#
# Static dielectric constant tensor:
#      x y z
#    x 2.190830 -0.019510 0.114840 
#    y -0.019510 2.072180 -0.040550 
#    z 0.114840 -0.040550 2.235860 
# 
# From -- ./inp_files/289277.got.cif
#   From: 2010.05.17/outbox.cif.g08.bks.cpg/sg2_145_cif.got.tgz:289277.got - 2010.06.03 11:33:40.
