data_PCOD9110428
_publ_section_title
;
Structure prediction by ZEFSAII (Michael W. Deem and Ramdas Pophale) SiO2 
 PCOD9110428
Probable space group: P -1
;
_chemical_formula_sum "Si O2"
_cell_formula_units_Z 16
_cell_length_a 8.096248
_cell_length_b 9.271967
_cell_length_c 12.150737
_cell_angle_alpha 68.306521
_cell_angle_beta 88.345657
_cell_angle_gamma 125.095950
_cell_volume 657.556687
_symmetry_space_group_name_H-M "P -1"
_symmetry_group_IT_number 2
_symmetry_cell_setting 'triclinic'
loop_
_space_group_symop_operation_xyz
x,y,z
-x,-y,-z
loop_
_atom_site_type_symbol
_atom_site_label
_atom_site_fract_x
_atom_site_fract_y
_atom_site_fract_z
Si Si1 0.577804 0.688665 0.014365
Si Si2 0.382002 0.957673 0.126488
Si Si3 0.591342 0.651880 0.270605
Si Si4 0.474308 0.819979 0.378036
Si Si5 0.085025 0.784004 0.668850
Si Si6 0.955193 0.932291 0.802943
Si Si7 0.917942 0.206577 0.571782
Si Si8 0.095843 0.430854 0.721855
O O1 0.831741 0.835578 0.946856
O O2 0.534105 0.820379 0.912817
O O3 0.500000 0.500000 0.000000
O O4 0.504707 0.646516 0.153512
O O5 0.461879 0.894917 0.238008
O O6 0.125364 0.779853 0.169597
O O7 0.500000 0.000000 0.000000
O O8 0.463545 0.634306 0.386884
O O9 0.682357 0.531459 0.283456
O O10 0.810255 0.875070 0.223784
O O11 0.290087 0.811009 0.443022
O O12 0.690997 0.991199 0.387802
O O13 0.985660 0.768016 0.556648
O O14 0.955340 0.775411 0.776334
O O15 0.105132 0.609661 0.718008
O O16 0.879987 0.024393 0.692245
O O17 0.050076 0.388396 0.603923
#
# Coordination Sequence:
#
# PCOD9110428 Si02
#       8
#     2   2   2   2   2   2   2   2
#     4  12  24  36  62  89 120 150 198 237 295 354
#     4  11  22  41  60  83 122 162 187 240 307 349
#     4  10  21  40  59  85 121 161 185 238 300 350
#     4  10  21  38  62  86 119 155 198 239 296 351
#     4  11  23  37  62  92 114 156 206 245 283 346
#     4  10  22  40  61  86 121 156 196 240 293 352
#     4  10  20  42  62  83 121 160 192 247 303 338
#     4  10  23  39  61  85 126 151 200 244 287 354
#
# _framework density 24.332502000000002
#
# number of rings (size 3 to 8) (size 9 to 14) (size 15 to 20)
#    0.000    1.500    5.000    1.500    3.500    0.000 
#    0.000    1.875    0.000    0.000    0.000    0.000 
#    0.000    0.000    0.000    0.000    0.000    0.000 
#
# Total GULP energy -89171.712002 kJ/mol
# GULP energy per Si atom -5573.232000 kJ/mol
# Density = 2.427712 g / cm^3
# Si number density = 24.332502 Si / 1000 Ang^3
#
#
#
# Elastic Constant Matrix: (Units=GPa)
#
#
# Indices 1 2 3 4 5 6 
#
# 1 60.4570 24.5908 -8.1486 -6.8531 3.4576 -18.4656
# 2 24.5908 128.3717 19.2516 12.2185 3.1358 -40.7791
# 3 -8.1486 19.2516 48.5039 14.5908 -11.1384 -7.2696
# 4 -6.8531 12.2185 14.5908 30.9707 -9.1134 -3.5571
# 5 3.4576 3.1358 -11.1384 -9.1134 32.5088 0.2533
# 6 -18.4656 -40.7791 -7.2696 -3.5571 0.2533 52.9653
#
#
#
# Elastic Compliance Matrix: (Units=1/GPa)
#
#
# Indices 1 2 3 4 5 6 
#
# 1 0.020670 -0.003325 0.004419 0.004712 0.000914 0.005565
# 2 -0.003325 0.011663 -0.003740 -0.003687 -0.003141 0.007074
# 3 0.004419 -0.003740 0.027134 -0.008090 0.006905 0.001809
# 4 0.004712 -0.003687 -0.008090 0.041183 0.008624 0.000418
# 5 0.000914 -0.003141 0.006905 0.008624 0.035756 -0.000744
# 6 0.005565 0.007074 0.001809 0.000418 -0.000744 0.026547
#
#
# Mechanical properties :
#
#
# Convention : Reuss Voigt Hill
#
# Bulk Modulus (GPa) = 18.45875 34.30225 26.38050
# Shear Modulus (GPa) = 26.83788 36.73155 31.78472
#
# Velocity S-wave (km/s) = 3.32469 3.88953 3.61815
# Velocity P-wave (km/s) = 4.72659 5.85655 5.32164
#
# Compressibility (1/GPa) = 0.05417486
#
# Stress axis : x y z
#
# Youngs Moduli (GPa) = 48.37837 85.74461 36.85382
#
# Poissons Ratio (x) = 0.28514 -0.16285
# Poissons Ratio (y) = 0.16088 0.13782
# Poissons Ratio (z) = -0.21378 0.32065
#
# Static dielectric constant tensor:
#      x y z
#    x 2.157490 -0.069670 -0.076360 
#    y -0.069670 1.945450 -0.051280 
#    z -0.076360 -0.051280 1.951640 
# 
# From -- ./inp_files/201935.got.cif
#   From: 2010.05.17/outbox.cif.g08.bks.cpg/sg2_101_cif.got.tgz:201935.got - 2010.06.03 11:33:40.
