data_PCOD9110749
_publ_section_title
;
Structure prediction by ZEFSAII (Michael W. Deem and Ramdas Pophale) SiO2 
 PCOD9110749
Probable space group: P -1
;
_chemical_formula_sum "Si O2"
_cell_formula_units_Z 16
_cell_length_a 21.944723
_cell_length_b 9.422082
_cell_length_c 18.852263
_cell_angle_alpha 34.415729
_cell_angle_beta 20.953685
_cell_angle_gamma 34.895421
_cell_volume 763.581103
_symmetry_space_group_name_H-M "P -1"
_symmetry_group_IT_number 2
_symmetry_cell_setting 'triclinic'
loop_
_space_group_symop_operation_xyz
x,y,z
-x,-y,-z
loop_
_atom_site_type_symbol
_atom_site_label
_atom_site_fract_x
_atom_site_fract_y
_atom_site_fract_z
Si Si1 0.603581 0.735288 0.079977
Si Si2 0.325220 0.231962 0.175862
Si Si3 0.053924 0.034839 0.809735
Si Si4 0.042117 0.578359 0.113075
Si Si5 0.604455 0.440484 0.517210
Si Si6 0.536355 0.077830 0.621005
Si Si7 0.078040 0.861586 0.638332
Si Si8 0.226024 0.807570 0.079570
O O1 0.458610 0.584457 0.323787
O O2 0.512301 0.035663 0.071451
O O3 0.657547 0.708695 0.950409
O O4 0.766749 0.597850 0.005839
O O5 0.269417 0.498213 0.169145
O O6 0.182348 0.066018 0.412726
O O7 0.253741 0.029203 0.571661
O O8 0.045636 0.756858 0.966679
O O9 0.013505 0.234072 0.837217
O O10 0.904303 0.122022 0.876415
O O11 0.931064 0.366826 0.311098
O O12 0.517528 0.262095 0.634559
O O13 0.542498 0.727782 0.437687
O O14 0.810425 0.300625 0.350973
O O15 0.411859 0.882348 0.840322
O O16 0.889081 0.022999 0.803510
#
# Coordination Sequence:
#
# PCOD9110749 Si02
#       8
#     2   2   2   2   2   2   2   2
#     4  10  20  42  66  86 134 172 217 270 320 389
#     4  10  24  43  64  93 132 179 224 278 313 383
#     4  11  24  43  68 102 141 160 220 279 326 408
#     4  11  23  43  66 101 130 178 213 273 340 389
#     4  10  21  40  63 100 133 168 218 271 328 403
#     4  11  23  39  69  98 135 175 208 272 343 391
#     4  11  24  42  69  93 134 180 223 270 329 384
#     4  12  24  44  67 102 133 176 220 272 329 392
#
# _framework density 20.953897000000001
#
# number of rings (size 3 to 8) (size 9 to 14) (size 15 to 20)
#    0.000    1.250    3.750    1.875    1.750    4.500 
#    2.250    5.625    0.000    0.000    0.000    0.000 
#    0.000    0.000    0.000    0.000    0.000    0.000 
#
# Total GULP energy -89288.494986 kJ/mol
# GULP energy per Si atom -5580.530937 kJ/mol
# Density = 2.090620 g / cm^3
# Si number density = 20.953897 Si / 1000 Ang^3
#
#
#
# Elastic Constant Matrix: (Units=GPa)
#
#
# Indices 1 2 3 4 5 6 
#
# 1 -8.4831 20.0311 -8.0996 6.4513 15.6099 20.2515
# 2 20.0311 96.2667 36.4550 -7.5343 -16.2015 -7.4070
# 3 -8.0996 36.4550 105.3389 -0.4108 -11.1008 19.9024
# 4 6.4513 -7.5343 -0.4108 37.7242 -0.1848 -10.5749
# 5 15.6099 -16.2015 -11.1008 -0.1848 20.3471 -5.8458
# 6 20.2515 -7.4070 19.9024 -10.5749 -5.8458 15.9845
#
#
#
# Elastic Compliance Matrix: (Units=1/GPa)
#
#
# Indices 1 2 3 4 5 6 
#
# 1 -0.002758 0.007753 -0.006412 0.009194 0.012238 0.025629
# 2 0.007753 0.008748 -0.001665 -0.000945 -0.001275 -0.004788
# 3 -0.006412 -0.001665 0.011119 0.000001 0.008710 -0.003306
# 4 0.009194 -0.000945 0.000001 0.025302 -0.006972 0.002101
# 5 0.012238 -0.001275 0.008710 -0.006972 0.038402 -0.017508
# 6 0.025629 -0.004788 -0.003306 0.002101 -0.017508 0.026975
#
#
# Mechanical properties :
#
#
# Convention : Reuss Voigt Hill
#
# Bulk Modulus (GPa) = 60.74665 32.21061 46.47863
# Shear Modulus (GPa) = 43.88964 24.46021 34.17493
#
# Velocity S-wave (km/s) = 4.58162 3.42033 4.04289
# Velocity P-wave (km/s) = 7.55261 5.56810 6.63497
#
# Compressibility (1/GPa) = 0.01646181
#
# Stress axis : x y z
#
# Youngs Moduli (GPa) = -362.59669 114.31006 89.93791
#
# Poissons Ratio (x) = -0.88626 0.57667
# Poissons Ratio (y) = 2.81126 0.14973
# Poissons Ratio (z) = -2.32494 0.19031
#
# Static dielectric constant tensor:
#      x y z
#    x 1.818220 -0.008430 -0.024310 
#    y -0.008430 1.746390 0.030650 
#    z -0.024310 0.030650 1.811510 
# 
# From -- ./inp_files/446456.got.cif
#   From: 2010.05.17/outbox.cif.g08.bks.cpg/sg2_224_cif.got.tgz:446456.got - 2010.06.03 11:33:40.
