data_PCOD9110548
_publ_section_title
;
Structure prediction by ZEFSAII (Michael W. Deem and Ramdas Pophale) SiO2 
 PCOD9110548
Probable space group: P -1
;
_chemical_formula_sum "Si O2"
_cell_formula_units_Z 12
_cell_length_a 4.945314
_cell_length_b 17.925803
_cell_length_c 5.241344
_cell_angle_alpha 105.147985
_cell_angle_beta 90.225675
_cell_angle_gamma 101.972994
_cell_volume 437.904730
_symmetry_space_group_name_H-M "P -1"
_symmetry_group_IT_number 2
_symmetry_cell_setting 'triclinic'
loop_
_space_group_symop_operation_xyz
x,y,z
-x,-y,-z
loop_
_atom_site_type_symbol
_atom_site_label
_atom_site_fract_x
_atom_site_fract_y
_atom_site_fract_z
Si Si1 0.030840 0.074182 0.747367
Si Si2 0.640943 0.396122 0.291446
Si Si3 0.814278 0.535497 0.831153
Si Si4 0.519145 0.260505 0.541758
Si Si5 0.613857 0.133880 0.081699
Si Si6 0.004092 0.762546 0.187788
O O1 0.956785 0.144979 0.639727
O O2 0.340365 0.104120 0.882641
O O3 0.193970 0.930233 0.023990
O O4 0.000000 0.000000 0.500000
O O5 0.715132 0.466700 0.563123
O O6 0.456503 0.428069 0.103866
O O7 0.479448 0.319457 0.370625
O O8 0.948779 0.391273 0.204934
O O9 0.000000 0.500000 0.000000
O O10 0.826007 0.284095 0.676495
O O11 0.315792 0.266424 0.779978
O O12 0.492366 0.170977 0.359227
O O13 0.835088 0.213464 0.054447
#
# Coordination Sequence:
#
# PCOD9110548 Si02
#       6
#     2   2   2   2   2   2
#     4  10  20  42  64  84 125 166 203 262 312 361
#     4  10  23  39  63  92 127 162 212 269 302 379
#     4  10  21  43  62  91 126 164 215 255 311 380
#     4  12  22  41  62  93 127 163 205 260 322 362
#     4  10  22  39  60  89 124 158 208 260 306 378
#     4  10  22  39  61  87 128 159 205 261 307 382
#
# _framework density 27.403224000000002
#
# number of rings (size 3 to 8) (size 9 to 14) (size 15 to 20)
#    1.000    0.667    1.667    3.000    0.000    1.333 
#    3.000    5.000    0.000    0.000    0.000    0.000 
#    0.000    0.000    0.000    0.000    0.000    0.000 
#
# Total GULP energy -66943.234275 kJ/mol
# GULP energy per Si atom -5578.602856 kJ/mol
# Density = 2.734085 g / cm^3
# Si number density = 27.403224 Si / 1000 Ang^3
#
#
#
# Elastic Constant Matrix: (Units=GPa)
#
#
# Indices 1 2 3 4 5 6 
#
# 1 207.4803 12.9327 35.2802 -2.4795 1.6284 9.8812
# 2 12.9327 70.7997 18.0486 3.9151 9.9759 -7.7458
# 3 35.2802 18.0486 124.2609 32.5793 -3.6616 -4.0991
# 4 -2.4795 3.9151 32.5793 50.3797 -0.1880 -2.7666
# 5 1.6284 9.9759 -3.6616 -0.1880 24.5184 -14.8981
# 6 9.8812 -7.7458 -4.0991 -2.7666 -14.8981 30.5362
#
#
#
# Elastic Compliance Matrix: (Units=1/GPa)
#
#
# Indices 1 2 3 4 5 6 
#
# 1 0.005379 -0.000571 -0.001988 0.001412 -0.002332 -0.003162
# 2 -0.000571 0.015784 -0.002363 0.000298 -0.006206 0.000871
# 3 -0.001988 -0.002363 0.010984 -0.006828 0.004588 0.003138
# 4 0.001412 0.000298 -0.006828 0.024339 -0.000706 0.000563
# 5 -0.002332 -0.006206 0.004588 -0.000706 0.062516 0.030233
# 6 -0.003162 0.000871 0.003138 0.000563 0.030233 0.049214
#
#
# Mechanical properties :
#
#
# Convention : Reuss Voigt Hill
#
# Bulk Modulus (GPa) = 44.83441 59.45157 52.14299
# Shear Modulus (GPa) = 26.95499 43.50548 35.23024
#
# Velocity S-wave (km/s) = 3.13971 3.98880 3.58945
# Velocity P-wave (km/s) = 5.43509 6.55410 6.02065
#
# Compressibility (1/GPa) = 0.02230430
#
# Stress axis : x y z
#
# Youngs Moduli (GPa) = 185.90514 63.35444 91.04233
#
# Poissons Ratio (x) = 0.03620 0.18095
# Poissons Ratio (y) = 0.10622 0.21510
# Poissons Ratio (z) = 0.36949 0.14968
#
# Static dielectric constant tensor:
#      x y z
#    x 2.108460 0.017590 -0.062750 
#    y 0.017590 2.305040 -0.071360 
#    z -0.062750 -0.071360 2.169530 
# 
# From -- ./inp_files/11562.got.cif
#   From: 2010.05.17/outbox.cif.g08.bks.cpg/sg2_6_cif.got.tgz:11562.got - 2010.06.03 11:33:40.
