data_PCOD9110966
_publ_section_title
;
Structure prediction by ZEFSAII (Michael W. Deem and Ramdas Pophale) SiO2 
 PCOD9110966
Probable space group: P -1
;
_chemical_formula_sum "Si O2"
_cell_formula_units_Z 14
_cell_length_a 18.812761
_cell_length_b 10.056979
_cell_length_c 8.890589
_cell_angle_alpha 150.001181
_cell_angle_beta 70.497537
_cell_angle_gamma 122.647912
_cell_volume 671.669837
_symmetry_space_group_name_H-M "P -1"
_symmetry_group_IT_number 2
_symmetry_cell_setting 'triclinic'
loop_
_space_group_symop_operation_xyz
x,y,z
-x,-y,-z
loop_
_atom_site_type_symbol
_atom_site_label
_atom_site_fract_x
_atom_site_fract_y
_atom_site_fract_z
Si Si1 0.729876 0.683496 0.216711
Si Si2 0.166433 0.611856 0.278875
Si Si3 0.574211 0.784714 0.827665
Si Si4 0.852668 0.583247 0.551582
Si Si5 0.526875 0.293279 0.871850
Si Si6 0.687178 0.505490 0.411594
Si Si7 0.969900 0.329922 0.192080
O O1 0.719390 0.678611 0.398749
O O2 0.778116 0.024789 0.444281
O O3 0.789737 0.544032 0.996178
O O4 0.630932 0.476003 0.016255
O O5 0.171720 0.551688 0.393861
O O6 0.062253 0.463475 0.170608
O O7 0.500000 0.500000 0.500000
O O8 0.644624 0.677279 0.696741
O O9 0.528600 0.798635 0.025375
O O10 0.618795 0.131810 0.065078
O O11 0.766711 0.525547 0.469107
O O12 0.900649 0.424643 0.280084
O O13 0.921088 0.957729 0.879530
O O14 0.500000 0.000000 0.500000
O O15 0.500000 0.500000 0.000000
O O16 0.000000 0.500000 0.500000
#
# Coordination Sequence:
#
# PCOD9110966 Si02
#       7
#     2   2   2   2   2   2   2
#     4  12  26  44  64 100 142 173 219 282 345 393
#     4  11  23  41  70  97 133 177 219 279 343 393
#     4  12  26  48  72  94 138 192 227 269 346 412
#     4  11  23  42  70  99 131 174 233 278 325 413
#     4  12  28  45  69 102 138 174 231 287 336 398
#     4  12  27  45  70 101 138 181 233 276 336 412
#     4  10  20  42  67  99 132 174 223 277 339 403
#
# _framework density 20.843574
#
# number of rings (size 3 to 8) (size 9 to 14) (size 15 to 20)
#    0.000    0.571    1.429    8.143    8.000    0.000 
#    0.000    4.286    0.000    0.000    0.000    0.000 
#    0.000    0.000    0.000    0.000    0.000    0.000 
#
# Total GULP energy -78360.185854 kJ/mol
# GULP energy per Si atom -5597.156132 kJ/mol
# Density = 2.079613 g / cm^3
# Si number density = 20.843574 Si / 1000 Ang^3
#
#
#
# Elastic Constant Matrix: (Units=GPa)
#
#
# Indices 1 2 3 4 5 6 
#
# 1 110.8795 55.1549 42.7273 1.7498 -20.0914 23.4984
# 2 55.1549 125.1848 80.7487 14.8247 6.4553 20.0560
# 3 42.7273 80.7487 154.7716 19.5806 -23.2585 12.5389
# 4 1.7498 14.8247 19.5806 41.9348 2.9787 -6.6970
# 5 -20.0914 6.4553 -23.2585 2.9787 40.1671 -8.7093
# 6 23.4984 20.0560 12.5389 -6.6970 -8.7093 33.1067
#
#
#
# Elastic Compliance Matrix: (Units=1/GPa)
#
#
# Indices 1 2 3 4 5 6 
#
# 1 0.014304 -0.006710 0.001100 -0.000007 0.007911 -0.004425
# 2 -0.006710 0.018910 -0.009091 -0.002377 -0.013036 -0.007160
# 3 0.001100 -0.009091 0.012641 -0.003135 0.009982 0.001931
# 4 -0.000007 -0.002377 -0.003135 0.027513 -0.001802 0.007724
# 5 0.007911 -0.013036 0.009982 -0.001802 0.038663 0.008308
# 6 -0.004425 -0.007160 0.001931 0.007724 0.008308 0.040700
#
#
# Mechanical properties :
#
#
# Convention : Reuss Voigt Hill
#
# Bulk Modulus (GPa) = 60.78296 83.12197 71.95246
# Shear Modulus (GPa) = 26.65002 37.18870 31.91936
#
# Velocity S-wave (km/s) = 3.57959 4.22854 3.91753
# Velocity P-wave (km/s) = 6.80510 7.98788 7.42010
#
# Compressibility (1/GPa) = 0.01645198
#
# Stress axis : x y z
#
# Youngs Moduli (GPa) = 69.91052 52.88291 79.10795
#
# Poissons Ratio (x) = 0.35485 -0.08704
# Poissons Ratio (y) = 0.46911 0.71921
# Poissons Ratio (z) = -0.07692 0.48078
#
# Static dielectric constant tensor:
#      x y z
#    x 1.770600 0.018860 0.004460 
#    y 0.018860 1.728590 0.002440 
#    z 0.004460 0.002440 1.707750 
# 
# From -- ./inp_files/329717.got.cif
#   From: 2010.05.17/outbox.cif.g08.bks.cpg/sg2_165_cif.got.tgz:329717.got - 2010.06.03 11:33:40.
