data_PCOD9110140
_publ_section_title
;
Structure prediction by ZEFSAII (Michael W. Deem and Ramdas Pophale) SiO2 
 PCOD9110140
Probable space group: P -1
;
_chemical_formula_sum "Si O2"
_cell_formula_units_Z 14
_cell_length_a 16.694744
_cell_length_b 15.956282
_cell_length_c 15.058336
_cell_angle_alpha 161.402449
_cell_angle_beta 143.948337
_cell_angle_gamma 43.215799
_cell_volume 737.708263
_symmetry_space_group_name_H-M "P -1"
_symmetry_group_IT_number 2
_symmetry_cell_setting 'triclinic'
loop_
_space_group_symop_operation_xyz
x,y,z
-x,-y,-z
loop_
_atom_site_type_symbol
_atom_site_label
_atom_site_fract_x
_atom_site_fract_y
_atom_site_fract_z
Si Si1 0.190351 0.033858 0.114548
Si Si2 0.164058 0.538454 0.705841
Si Si3 0.190695 0.336048 0.252357
Si Si4 0.038883 0.349362 0.569598
Si Si5 0.660738 0.594192 0.718989
Si Si6 0.185040 0.832638 0.505256
Si Si7 0.959239 0.916186 0.518925
O O1 0.205423 0.276458 0.440089
O O2 0.254675 0.166516 0.213488
O O3 0.234939 0.795237 0.970199
O O4 0.031072 0.913562 0.816091
O O5 0.156621 0.533288 0.800655
O O6 0.000000 0.500000 0.500000
O O7 0.300698 0.470019 0.412385
O O8 0.098227 0.525132 0.407046
O O9 0.076957 0.137576 0.893384
O O10 0.095203 0.275511 0.640430
O O11 0.500000 0.500000 0.500000
O O12 0.747241 0.425890 0.688893
O O13 0.712000 0.910564 0.101310
O O14 0.043957 0.780088 0.385221
O O15 0.144741 0.934566 0.476169
#
# Coordination Sequence:
#
# PCOD9110140 Si02
#       7
#     2   2   2   2   2   2   2
#     4  10  18  28  40  65  98 139 157 187 235 299
#     4  10  17  25  40  62 100 137 155 185 235 294
#     4  10  19  30  50  72 101 133 165 201 245 292
#     4  10  17  27  44  70 102 132 160 192 238 300
#     4  11  23  38  53  72  98 133 173 210 246 283
#     4  10  21  37  53  71  99 131 167 208 250 295
#     4   9  20  30  51  76 100 131 166 200 251 305
#
# _framework density 18.977692999999999
#
# number of rings (size 3 to 8) (size 9 to 14) (size 15 to 20)
#    0.000    2.000    4.286    2.143    4.000    1.714 
#    0.000    0.000    0.000    0.000    0.000    0.000 
#    0.000    6.857    0.000    0.286    0.000    0.000 
#
# Total GULP energy -77970.390612 kJ/mol
# GULP energy per Si atom -5569.313615 kJ/mol
# Density = 1.893450 g / cm^3
# Si number density = 18.977693 Si / 1000 Ang^3
#
#
#
# Elastic Constant Matrix: (Units=GPa)
#
#
# Indices 1 2 3 4 5 6 
#
# 1 111.8603 52.4456 23.1202 4.8497 9.4943 33.9584
# 2 52.4456 60.3999 11.6825 16.9917 12.2708 24.8179
# 3 23.1202 11.6825 54.1943 18.1515 -4.3086 -0.2634
# 4 4.8497 16.9917 18.1515 22.3480 0.4606 6.5929
# 5 9.4943 12.2708 -4.3086 0.4606 19.2058 9.0642
# 6 33.9584 24.8179 -0.2634 6.5929 9.0642 36.8790
#
#
#
# Elastic Compliance Matrix: (Units=1/GPa)
#
#
# Indices 1 2 3 4 5 6 
#
# 1 0.024765 -0.021057 -0.014754 0.026826 0.004124 -0.014548
# 2 -0.021057 0.047914 0.010659 -0.039673 -0.016037 -0.001745
# 3 -0.014754 0.010659 0.035276 -0.037312 0.003392 0.012501
# 4 0.026826 -0.039673 -0.037312 0.104963 0.010449 -0.019603
# 5 0.004124 -0.016037 0.003392 0.010449 0.066012 -0.011073
# 6 -0.014548 -0.001745 0.012501 -0.019603 -0.011073 0.048001
#
#
# Mechanical properties :
#
#
# Convention : Reuss Voigt Hill
#
# Bulk Modulus (GPa) = 17.34544 44.55010 30.94777
# Shear Modulus (GPa) = 12.61183 24.96696 18.78940
#
# Velocity S-wave (km/s) = 2.58070 3.63105 3.14996
# Velocity P-wave (km/s) = 4.24733 6.41134 5.43806
#
# Compressibility (1/GPa) = 0.05765203
#
# Stress axis : x y z
#
# Youngs Moduli (GPa) = 40.37947 20.87056 28.34758
#
# Poissons Ratio (x) = 0.43947 0.41824
# Poissons Ratio (y) = 0.85026 -0.30215
# Poissons Ratio (z) = 0.59575 -0.22245
#
# Static dielectric constant tensor:
#      x y z
#    x 1.759750 0.069960 -0.009750 
#    y 0.069960 1.678310 0.054220 
#    z -0.009750 0.054220 1.726700 
# 
# From -- ./inp_files/124811.got.cif
#   From: 2010.05.17/outbox.cif.g08.bks.cpg/sg2_63_cif.got.tgz:124811.got - 2010.06.03 11:33:40.
