data_PCOD9110599
_publ_section_title
;
Structure prediction by ZEFSAII (Michael W. Deem and Ramdas Pophale) SiO2 
 PCOD9110599
Probable space group: P -1
;
_chemical_formula_sum "Si O2"
_cell_formula_units_Z 16
_cell_length_a 9.313351
_cell_length_b 10.117158
_cell_length_c 11.731671
_cell_angle_alpha 85.452227
_cell_angle_beta 94.459184
_cell_angle_gamma 41.919748
_cell_volume 720.502605
_symmetry_space_group_name_H-M "P -1"
_symmetry_group_IT_number 2
_symmetry_cell_setting 'triclinic'
loop_
_space_group_symop_operation_xyz
x,y,z
-x,-y,-z
loop_
_atom_site_type_symbol
_atom_site_label
_atom_site_fract_x
_atom_site_fract_y
_atom_site_fract_z
Si Si1 0.719956 0.843827 0.099062
Si Si2 0.196075 0.110558 0.254105
Si Si3 0.496617 0.149493 0.239033
Si Si4 0.720880 0.543303 0.172325
Si Si5 0.798792 0.429849 0.924048
Si Si6 0.736922 0.218287 0.796284
Si Si7 0.216972 0.018639 0.515297
Si Si8 0.758848 0.288696 0.536732
O O1 0.717044 0.704666 0.172389
O O2 0.951326 0.690696 0.058858
O O3 0.692100 0.987029 0.172495
O O4 0.500000 0.000000 0.000000
O O5 0.334018 0.137833 0.215399
O O6 0.281801 0.011046 0.391306
O O7 0.950460 0.328897 0.241196
O O8 0.190416 0.985868 0.180814
O O9 0.357368 0.377078 0.184550
O O10 0.605469 0.064107 0.374976
O O11 0.525725 0.611461 0.223698
O O12 0.705646 0.519350 0.038337
O O13 0.803817 0.274353 0.894237
O O14 0.806370 0.223457 0.676801
O O15 0.965199 0.236124 0.513942
O O16 0.220938 0.856466 0.528971
O O17 0.500000 0.500000 0.500000
#
# Coordination Sequence:
#
# PCOD9110599 Si02
#       8
#     2   2   2   2   2   2   2   2
#     4  12  24  44  69  96 132 178 222 267 332 390
#     4  11  24  44  66  95 141 169 213 276 333 385
#     4  12  23  43  69  97 135 171 225 270 321 398
#     4  12  24  44  67  97 133 176 219 269 333 388
#     4  12  26  42  70 100 129 176 225 270 322 396
#     4  11  25  42  65 100 131 173 215 273 330 387
#     4  10  23  39  67  98 127 174 219 267 328 386
#     4  10  20  42  64  92 134 174 216 270 327 386
#
# _framework density 22.206721000000002
#
# number of rings (size 3 to 8) (size 9 to 14) (size 15 to 20)
#    0.000    0.750    3.750    4.125    0.000    3.500 
#    0.000    0.625    0.000    0.000    0.000    0.000 
#    0.000    0.000    0.000    0.000    0.000    0.000 
#
# Total GULP energy -89414.843960 kJ/mol
# GULP energy per Si atom -5588.427747 kJ/mol
# Density = 2.215618 g / cm^3
# Si number density = 22.206721 Si / 1000 Ang^3
#
#
#
# Elastic Constant Matrix: (Units=GPa)
#
#
# Indices 1 2 3 4 5 6 
#
# 1 72.3332 23.6650 6.5076 7.7846 -0.6640 -5.6323
# 2 23.6650 105.4878 17.2726 0.4166 16.7950 -7.6753
# 3 6.5076 17.2726 62.9731 -3.4957 10.6016 4.5603
# 4 7.7846 0.4166 -3.4957 29.8018 -9.0279 -1.3516
# 5 -0.6640 16.7950 10.6016 -9.0279 30.2673 4.2305
# 6 -5.6323 -7.6753 4.5603 -1.3516 4.2305 31.1941
#
#
#
# Elastic Compliance Matrix: (Units=1/GPa)
#
#
# Indices 1 2 3 4 5 6 
#
# 1 0.015585 -0.003347 -0.001246 -0.003701 0.001274 0.001839
# 2 -0.003347 0.011932 -0.002103 -0.001466 -0.006886 0.003509
# 3 -0.001246 -0.002103 0.017565 0.000977 -0.004347 -0.002679
# 4 -0.003701 -0.001466 0.000977 0.038225 0.011950 -0.001136
# 5 0.001274 -0.006886 -0.004347 0.011950 0.042830 -0.006119
# 6 0.001839 0.003509 -0.002679 -0.001136 -0.006119 0.034425
#
#
# Mechanical properties :
#
#
# Convention : Reuss Voigt Hill
#
# Bulk Modulus (GPa) = 31.55452 37.29829 34.42640
# Shear Modulus (GPa) = 27.09742 31.14257 29.12000
#
# Velocity S-wave (km/s) = 3.49698 3.74892 3.62514
# Velocity P-wave (km/s) = 5.52679 5.96419 5.74965
#
# Compressibility (1/GPa) = 0.03169118
#
# Stress axis : x y z
#
# Youngs Moduli (GPa) = 64.16352 83.80533 56.92987
#
# Poissons Ratio (x) = 0.28048 0.07092
# Poissons Ratio (y) = 0.21474 0.11974
# Poissons Ratio (z) = 0.07993 0.17627
#
# Static dielectric constant tensor:
#      x y z
#    x 1.838800 -0.009200 -0.014730 
#    y -0.009200 1.831700 0.011100 
#    z -0.014730 0.011100 1.827380 
# 
# From -- ./inp_files/141596.got.cif
#   From: 2010.05.17/outbox.cif.g08.bks.cpg/sg2_71_cif.got.tgz:141596.got - 2010.06.03 11:33:40.
