data_PCOD9110206
_publ_section_title
;
Structure prediction by ZEFSAII (Michael W. Deem and Ramdas Pophale) SiO2 
 PCOD9110206
Probable space group: P -1
;
_chemical_formula_sum "Si O2"
_cell_formula_units_Z 14
_cell_length_a 11.207601
_cell_length_b 9.293419
_cell_length_c 11.876040
_cell_angle_alpha 39.400813
_cell_angle_beta 131.124086
_cell_angle_gamma 115.737777
_cell_volume 584.330015
_symmetry_space_group_name_H-M "P -1"
_symmetry_group_IT_number 2
_symmetry_cell_setting 'triclinic'
loop_
_space_group_symop_operation_xyz
x,y,z
-x,-y,-z
loop_
_atom_site_type_symbol
_atom_site_label
_atom_site_fract_x
_atom_site_fract_y
_atom_site_fract_z
Si Si1 0.150883 0.654775 0.715674
Si Si2 0.601185 0.812356 0.543850
Si Si3 0.687759 0.242410 0.447858
Si Si4 0.437938 0.122382 0.769242
Si Si5 0.130350 0.945145 0.739962
Si Si6 0.065797 0.733950 0.227514
Si Si7 0.276078 0.637663 0.206080
O O1 0.304675 0.631109 0.743714
O O2 0.168907 0.722333 0.816443
O O3 0.063048 0.436235 0.770876
O O4 0.040617 0.897465 0.465773
O O5 0.467153 0.711351 0.595573
O O6 0.533659 0.946785 0.304914
O O7 0.731455 0.606988 0.704146
O O8 0.682459 0.978493 0.573167
O O9 0.846907 0.285702 0.585939
O O10 0.539475 0.328274 0.709295
O O11 0.250799 0.118015 0.671595
O O12 0.500000 0.000000 0.000000
O O13 0.173604 0.844921 0.949573
O O14 0.209073 0.654301 0.278218
O O15 0.000000 0.000000 0.000000
#
# Coordination Sequence:
#
# PCOD9110206 Si02
#       7
#     2   2   2   2   2   2   2
#     4  11  24  45  69  94 144 180 227 283 346 413
#     4  11  23  44  72 100 136 183 229 286 343 404
#     4  11  25  44  66 100 142 181 226 283 351 403
#     4  10  20  41  70  99 129 167 237 284 329 402
#     4  10  23  42  71 105 125 183 235 283 341 408
#     4  12  27  44  68 102 137 180 230 286 345 411
#     4  11  24  42  73  97 135 177 235 286 338 409
#
# _framework density 23.959063
#
# number of rings (size 3 to 8) (size 9 to 14) (size 15 to 20)
#    0.000    1.143    2.857    2.571    6.000    0.571 
#    5.143    0.714    0.000    0.000    0.000    0.000 
#    0.000    0.000    0.000    0.000    0.000    0.000 
#
# Total GULP energy -78077.494516 kJ/mol
# GULP energy per Si atom -5576.963894 kJ/mol
# Density = 2.390453 g / cm^3
# Si number density = 23.959063 Si / 1000 Ang^3
#
#
#
# Elastic Constant Matrix: (Units=GPa)
#
#
# Indices 1 2 3 4 5 6 
#
# 1 122.5116 12.5828 14.5090 -2.9366 -22.4600 -9.9068
# 2 12.5828 61.8298 16.3253 -11.0847 -7.5508 -11.9897
# 3 14.5090 16.3253 59.5681 -5.3309 -15.8809 -2.7305
# 4 -2.9366 -11.0847 -5.3309 32.1002 -4.9114 -1.7760
# 5 -22.4600 -7.5508 -15.8809 -4.9114 32.5157 -1.6088
# 6 -9.9068 -11.9897 -2.7305 -1.7760 -1.6088 42.3782
#
#
#
# Elastic Compliance Matrix: (Units=1/GPa)
#
#
# Indices 1 2 3 4 5 6 
#
# 1 0.009748 -0.000232 -0.000136 0.002008 0.007043 0.002556
# 2 -0.000232 0.020088 -0.003392 0.007327 0.004246 0.005879
# 3 -0.000136 -0.003392 0.020768 0.003826 0.009883 0.000882
# 4 0.002008 0.007327 0.003826 0.036398 0.010689 0.004720
# 5 0.007043 0.004246 0.009883 0.010689 0.043322 0.005577
# 6 0.002556 0.005879 0.000882 0.004720 0.005577 0.026324
#
#
# Mechanical properties :
#
#
# Convention : Reuss Voigt Hill
#
# Bulk Modulus (GPa) = 23.21033 36.74930 29.97981
# Shear Modulus (GPa) = 28.00626 34.76498 31.38562
#
# Velocity S-wave (km/s) = 3.42266 3.81335 3.62328
# Velocity P-wave (km/s) = 5.03269 5.89581 5.48126
#
# Compressibility (1/GPa) = 0.04308427
#
# Stress axis : x y z
#
# Youngs Moduli (GPa) = 102.58012 49.78025 48.15110
#
# Poissons Ratio (x) = 0.01156 0.00656
# Poissons Ratio (y) = 0.02382 0.16332
# Poissons Ratio (z) = 0.01398 0.16884
#
# Static dielectric constant tensor:
#      x y z
#    x 1.907900 -0.012060 -0.012440 
#    y -0.012060 1.934940 0.039380 
#    z -0.012440 0.039380 1.920450 
# 
# From -- ./inp_files/259297.got.cif
#   From: 2010.05.17/outbox.cif.g08.bks.cpg/sg2_130_cif.got.tgz:259297.got - 2010.06.03 11:33:40.
