data_PCOD9110346
_publ_section_title
;
Structure prediction by ZEFSAII (Michael W. Deem and Ramdas Pophale) SiO2 
 PCOD9110346
Probable space group: P -1
;
_chemical_formula_sum "Si O2"
_cell_formula_units_Z 13
_cell_length_a 7.075754
_cell_length_b 5.345473
_cell_length_c 15.894273
_cell_angle_alpha 118.916678
_cell_angle_beta 115.878615
_cell_angle_gamma 74.392899
_cell_volume 472.166735
_symmetry_space_group_name_H-M "P -1"
_symmetry_group_IT_number 2
_symmetry_cell_setting 'triclinic'
loop_
_space_group_symop_operation_xyz
x,y,z
-x,-y,-z
loop_
_atom_site_type_symbol
_atom_site_label
_atom_site_fract_x
_atom_site_fract_y
_atom_site_fract_z
Si Si1 0.171338 0.489296 0.847274
Si Si2 0.253902 0.023699 0.549411
Si Si3 0.134521 0.906878 0.335812
Si Si4 0.000000 0.000000 0.000000
Si Si5 0.525437 0.763713 0.894786
Si Si6 0.855026 0.304658 0.868099
Si Si7 0.724294 0.301297 0.331598
O O1 0.408971 0.493555 0.865983
O O2 0.023000 0.350532 0.727567
O O3 0.091284 0.812450 0.903709
O O4 0.096909 0.316471 0.885447
O O5 0.297226 0.356376 0.616667
O O6 0.292170 0.908467 0.443432
O O7 0.339507 0.832551 0.613343
O O8 0.000000 0.000000 0.500000
O O9 0.239776 0.845525 0.255222
O O10 0.969693 0.185607 0.347175
O O11 0.830031 0.178077 0.932835
O O12 0.768696 0.645699 0.907492
O O13 0.409456 0.812803 0.791103
O O14 0.500000 0.000000 0.000000
#
# Coordination Sequence:
#
# PCOD9110346 Si02
#       7
#     2   2   2   1   2   2   2
#     4  10  24  45  68 100 152 189 244 305 373 440
#     4  10  20  41  75 109 145 190 255 307 376 444
#     4   9  21  44  73 103 148 193 242 313 377 437
#     4  12  22  44  74 102 142 202 246 316 352 462
#     4  12  26  47  72 106 149 202 246 307 375 452
#     4  10  26  45  69 107 146 188 257 298 380 438
#     4  11  23  42  72 111 146 196 253 305 372 456
#
# _framework density 27.532647000000001
#
# number of rings (size 3 to 8) (size 9 to 14) (size 15 to 20)
#    0.923    0.615    0.000    6.000    2.154    1.846 
#    8.308    2.308    0.000    0.000    0.000    1.077 
#    0.000    0.000    0.000    0.000    0.000    0.000 
#
# Total GULP energy -72548.459568 kJ/mol
# GULP energy per Si atom -5580.650736 kJ/mol
# Density = 2.746998 g / cm^3
# Si number density = 27.532647 Si / 1000 Ang^3
#
#
#
# Elastic Constant Matrix: (Units=GPa)
#
#
# Indices 1 2 3 4 5 6 
#
# 1 97.0005 19.9558 42.7763 -9.3787 21.6579 -3.4211
# 2 19.9558 178.1944 105.6211 -21.9170 -12.8408 17.1137
# 3 42.7763 105.6211 265.0414 -26.3841 -19.3228 10.8512
# 4 -9.3787 -21.9170 -26.3841 59.3852 0.1532 0.4628
# 5 21.6579 -12.8408 -19.3228 0.1532 31.7481 11.4991
# 6 -3.4211 17.1137 10.8512 0.4628 11.4991 30.3614
#
#
#
# Elastic Compliance Matrix: (Units=1/GPa)
#
#
# Indices 1 2 3 4 5 6 
#
# 1 0.017091 -0.002168 -0.003743 0.000194 -0.019052 0.011699
# 2 -0.002168 0.008382 -0.002109 0.001850 0.005927 -0.006488
# 3 -0.003743 -0.002109 0.006005 0.001312 0.006787 -0.003970
# 4 0.000194 0.001850 0.001312 0.018150 0.002279 -0.002630
# 5 -0.019052 0.005927 0.006787 0.002279 0.062459 -0.031604
# 6 0.011699 -0.006488 -0.003970 -0.002630 -0.031604 0.051341
#
#
# Mechanical properties :
#
#
# Convention : Reuss Voigt Hill
#
# Bulk Modulus (GPa) = 64.76904 97.43810 81.10357
# Shear Modulus (GPa) = 27.08338 49.09113 38.08726
#
# Velocity S-wave (km/s) = 3.13977 4.22716 3.72337
# Velocity P-wave (km/s) = 6.05968 7.70013 6.92863
#
# Compressibility (1/GPa) = 0.01543948
#
# Stress axis : x y z
#
# Youngs Moduli (GPa) = 58.50947 119.30021 166.51616
#
# Poissons Ratio (x) = 0.25864 0.62330
# Poissons Ratio (y) = 0.12685 0.35112
# Poissons Ratio (z) = 0.21901 0.25156
#
# Static dielectric constant tensor:
#      x y z
#    x 2.024660 -0.118130 -0.070390 
#    y -0.118130 1.976770 -0.018930 
#    z -0.070390 -0.018930 2.200310 
# 
# From -- ./inp_files/486727.got.cif
#   From: 2010.05.17/outbox.cif.g08.bks.cpg/sg2_244_cif.got.tgz:486727.got - 2010.06.03 11:33:40.
