data_PCOD9110397
_publ_section_title
;
Structure prediction by ZEFSAII (Michael W. Deem and Ramdas Pophale) SiO2 
 PCOD9110397
Probable space group: P -1
;
_chemical_formula_sum "Si O2"
_cell_formula_units_Z 13
_cell_length_a 6.551208
_cell_length_b 14.887241
_cell_length_c 14.789083
_cell_angle_alpha 27.859491
_cell_angle_beta 110.116400
_cell_angle_gamma 122.714567
_cell_volume 533.216191
_symmetry_space_group_name_H-M "P -1"
_symmetry_group_IT_number 2
_symmetry_cell_setting 'triclinic'
loop_
_space_group_symop_operation_xyz
x,y,z
-x,-y,-z
loop_
_atom_site_type_symbol
_atom_site_label
_atom_site_fract_x
_atom_site_fract_y
_atom_site_fract_z
Si Si1 0.002511 0.970871 0.420349
Si Si2 0.879364 0.208100 0.939412
Si Si3 0.580128 0.315991 0.658246
Si Si4 0.500000 0.500000 0.000000
Si Si5 0.438842 0.828428 0.411643
Si Si6 0.123087 0.587940 0.754975
Si Si7 0.646750 0.765735 0.928994
O O1 0.043073 0.766436 0.595871
O O2 0.736881 0.915158 0.388062
O O3 0.230455 0.182617 0.205405
O O4 0.000000 0.000000 0.500000
O O5 0.795743 0.325442 0.747797
O O6 0.883510 0.335524 0.919036
O O7 0.150830 0.223873 0.978190
O O8 0.670834 0.939433 0.139679
O O9 0.500000 0.500000 0.500000
O O10 0.658980 0.311971 0.570913
O O11 0.301781 0.586245 0.860033
O O12 0.428567 0.516493 0.086853
O O13 0.285274 0.672586 0.611392
O O14 0.403439 0.041211 0.224570
#
# Coordination Sequence:
#
# PCOD9110397 Si02
#       7
#     2   2   2   1   2   2   2
#     4  11  21  39  66  96 132 179 218 265 329 387
#     4  10  23  46  65  98 134 170 220 281 328 395
#     4  11  24  46  71  94 132 174 225 276 335 398
#     4  10  20  42  60  96 138 172 214 270 318 396
#     4  11  23  42  68  96 128 177 222 270 333 392
#     4  10  23  43  66  96 138 172 222 273 326 394
#     4  10  22  42  64  95 138 167 218 270 322 395
#
# _framework density 24.380352999999999
#
# number of rings (size 3 to 8) (size 9 to 14) (size 15 to 20)
#    0.000    1.538    1.538    2.769    2.154    3.692 
#   19.385    4.615    0.000    0.000    0.000    0.000 
#    0.000    0.000    0.000    0.000    0.000    0.000 
#
# Total GULP energy -72498.150760 kJ/mol
# GULP energy per Si atom -5576.780828 kJ/mol
# Density = 2.432486 g / cm^3
# Si number density = 24.380353 Si / 1000 Ang^3
#
#
#
# Elastic Constant Matrix: (Units=GPa)
#
#
# Indices 1 2 3 4 5 6 
#
# 1 129.6483 79.4850 101.3102 13.9328 42.6553 -0.4176
# 2 79.4850 173.2885 60.2064 29.6442 25.7295 24.6821
# 3 101.3102 60.2064 152.5094 1.4617 49.8610 6.7917
# 4 13.9328 29.6442 1.4617 49.3991 0.6347 13.9467
# 5 42.6553 25.7295 49.8610 0.6347 68.2146 1.0252
# 6 -0.4176 24.6821 6.7917 13.9467 1.0252 51.5239
#
#
#
# Elastic Compliance Matrix: (Units=1/GPa)
#
#
# Indices 1 2 3 4 5 6 
#
# 1 0.021240 -0.005533 -0.011108 -0.003822 -0.003121 0.005383
# 2 -0.005533 0.009278 0.000253 -0.002963 -0.000141 -0.003718
# 3 -0.011108 0.000253 0.015369 0.003454 -0.004369 -0.003085
# 4 -0.003822 -0.002963 0.003454 0.024608 0.000840 -0.005744
# 5 -0.003121 -0.000141 -0.004369 0.000840 0.019850 -0.000004
# 6 0.005383 -0.003718 -0.003085 -0.005744 -0.000004 0.023195
#
#
# Mechanical properties :
#
#
# Convention : Reuss Voigt Hill
#
# Bulk Modulus (GPa) = 76.27445 104.16105 90.21775
# Shear Modulus (GPa) = 33.18128 48.12382 40.65255
#
# Velocity S-wave (km/s) = 3.69315 4.44765 4.08785
# Velocity P-wave (km/s) = 7.03839 8.31815 7.70489
#
# Compressibility (1/GPa) = 0.01311055
#
# Stress axis : x y z
#
# Youngs Moduli (GPa) = 47.08015 107.77961 65.06645
#
# Poissons Ratio (x) = 0.59633 0.72278
# Poissons Ratio (y) = 0.26049 -0.01645
# Poissons Ratio (z) = 0.52298 -0.02725
#
# Static dielectric constant tensor:
#      x y z
#    x 2.009260 0.062070 -0.150380 
#    y 0.062070 2.290200 -0.278520 
#    z -0.150380 -0.278520 2.215130 
# 
# From -- ./inp_files/365908.got.cif
#   From: 2010.05.17/outbox.cif.g08.bks.cpg/sg2_183_cif.got.tgz:365908.got - 2010.06.03 11:33:40.
