data_PCOD9110203
_publ_section_title
;
Structure prediction by ZEFSAII (Michael W. Deem and Ramdas Pophale) SiO2 
 PCOD9110203
Probable space group: P -1
;
_chemical_formula_sum "Si O2"
_cell_formula_units_Z 12
_cell_length_a 9.492688
_cell_length_b 8.373191
_cell_length_c 12.317429
_cell_angle_alpha 136.389051
_cell_angle_beta 130.732897
_cell_angle_gamma 74.739077
_cell_volume 468.919292
_symmetry_space_group_name_H-M "P -1"
_symmetry_group_IT_number 2
_symmetry_cell_setting 'triclinic'
loop_
_space_group_symop_operation_xyz
x,y,z
-x,-y,-z
loop_
_atom_site_type_symbol
_atom_site_label
_atom_site_fract_x
_atom_site_fract_y
_atom_site_fract_z
Si Si1 0.915316 0.367205 0.007851
Si Si2 0.740717 0.981682 0.490786
Si Si3 0.867020 0.098186 0.266670
Si Si4 0.881705 0.591396 0.646496
Si Si5 0.573748 0.797799 0.523780
Si Si6 0.672977 0.692377 0.106170
O O1 0.818060 0.548298 0.096727
O O2 0.062745 0.364006 0.177336
O O3 0.000000 0.500000 0.000000
O O4 0.746297 0.083249 0.769115
O O5 0.580261 0.762483 0.379349
O O6 0.752189 0.925090 0.344215
O O7 0.949249 0.980278 0.641881
O O8 0.637719 0.186086 0.544616
O O9 0.866543 0.334052 0.452835
O O10 0.934170 0.196893 0.226709
O O11 0.669820 0.839914 0.065486
O O12 0.669263 0.620188 0.537241
O O13 0.500000 0.500000 0.000000
#
# Coordination Sequence:
#
# PCOD9110203 Si02
#       6
#     2   2   2   2   2   2
#     4  12  24  40  71 106 139 184 235 287 348 411
#     4  10  20  41  70  98 135 183 236 274 338 425
#     4  10  22  42  75 100 133 191 230 280 348 409
#     4  10  22  42  70 102 145 176 231 288 347 415
#     4  10  22  39  67  99 143 180 223 292 347 402
#     4  12  24  43  71 102 136 185 242 280 334 421
#
# _framework density 25.590757
#
# number of rings (size 3 to 8) (size 9 to 14) (size 15 to 20)
#    0.000    1.333    3.333    3.000    2.333    0.000 
#    0.000    1.667   11.000    0.000    0.000    0.000 
#    0.000    0.000    0.000    0.000    0.000    0.000 
#
# Total GULP energy -66921.417865 kJ/mol
# GULP energy per Si atom -5576.784822 kJ/mol
# Density = 2.553251 g / cm^3
# Si number density = 25.590757 Si / 1000 Ang^3
#
#
#
# Elastic Constant Matrix: (Units=GPa)
#
#
# Indices 1 2 3 4 5 6 
#
# 1 163.5781 71.5745 30.5275 -7.5574 -14.0818 -21.4117
# 2 71.5745 159.9663 52.8680 -3.7724 12.3330 3.8451
# 3 30.5275 52.8680 53.7798 -8.5777 1.1938 1.7074
# 4 -7.5574 -3.7724 -8.5777 49.6244 10.8416 5.0930
# 5 -14.0818 12.3330 1.1938 10.8416 25.4602 6.9270
# 6 -21.4117 3.8451 1.7074 5.0930 6.9270 68.4320
#
#
#
# Elastic Compliance Matrix: (Units=1/GPa)
#
#
# Indices 1 2 3 4 5 6 
#
# 1 0.009092 -0.004218 -0.001395 -0.000931 0.006856 0.002492
# 2 -0.004218 0.011657 -0.008792 0.000465 -0.007484 -0.001032
# 3 -0.001395 -0.008792 0.028689 0.004029 0.000707 -0.001030
# 4 -0.000931 0.000465 0.004029 0.023144 -0.010491 -0.001078
# 5 0.006856 -0.007484 0.000707 -0.010491 0.051645 -0.001899
# 6 0.002492 -0.001032 -0.001030 -0.001078 -0.001899 0.015749
#
#
# Mechanical properties :
#
#
# Convention : Reuss Voigt Hill
#
# Bulk Modulus (GPa) = 48.47521 76.36270 62.41896
# Shear Modulus (GPa) = 28.46371 43.52693 35.99532
#
# Velocity S-wave (km/s) = 3.33868 4.12865 3.75450
# Velocity P-wave (km/s) = 5.81773 7.25482 6.57565
#
# Compressibility (1/GPa) = 0.02062910
#
# Stress axis : x y z
#
# Youngs Moduli (GPa) = 109.98145 85.78485 34.85678
#
# Poissons Ratio (x) = 0.36182 0.04861
# Poissons Ratio (y) = 0.46387 0.30647
# Poissons Ratio (z) = 0.15339 0.75424
#
# Static dielectric constant tensor:
#      x y z
#    x 1.967020 0.073650 -0.048230 
#    y 0.073650 2.061280 0.068750 
#    z -0.048230 0.068750 2.079980 
# 
# From -- ./inp_files/383647.got.cif
#   From: 2010.05.17/outbox.cif.g08.bks.cpg/sg2_192_cif.got.tgz:383647.got - 2010.06.03 11:33:40.
