data_PCOD9110336
_publ_section_title
;
Structure prediction by ZEFSAII (Michael W. Deem and Ramdas Pophale) SiO2 
 PCOD9110336
Probable space group: P -1
;
_chemical_formula_sum "Si O2"
_cell_formula_units_Z 14
_cell_length_a 14.409007
_cell_length_b 10.901291
_cell_length_c 9.526593
_cell_angle_alpha 58.349310
_cell_angle_beta 123.634199
_cell_angle_gamma 150.423432
_cell_volume 611.576845
_symmetry_space_group_name_H-M "P -1"
_symmetry_group_IT_number 2
_symmetry_cell_setting 'triclinic'
loop_
_space_group_symop_operation_xyz
x,y,z
-x,-y,-z
loop_
_atom_site_type_symbol
_atom_site_label
_atom_site_fract_x
_atom_site_fract_y
_atom_site_fract_z
Si Si1 0.007103 0.690733 0.554842
Si Si2 0.079206 0.455820 0.744437
Si Si3 0.370454 0.225952 0.593779
Si Si4 0.792402 0.714699 0.029810
Si Si5 0.617071 0.695571 0.131332
Si Si6 0.393829 0.737145 0.401538
Si Si7 0.631285 0.956697 0.750882
O O1 0.905602 0.540277 0.413659
O O2 0.833186 0.538430 0.606377
O O3 0.118855 0.659571 0.706160
O O4 0.165749 0.981334 0.492735
O O5 0.197932 0.444094 0.902460
O O6 0.855273 0.192823 0.751909
O O7 0.500000 0.500000 0.500000
O O8 0.312387 0.178395 0.736044
O O9 0.507630 0.238011 0.660070
O O10 0.741541 0.702870 0.155808
O O11 0.608658 0.586113 0.871813
O O12 0.000000 0.000000 0.000000
O O13 0.610863 0.818918 0.939421
O O14 0.415186 0.932104 0.298803
O O15 0.504537 0.803113 0.596483
#
# Coordination Sequence:
#
# PCOD9110336 Si02
#       7
#     2   2   2   2   2   2   2
#     4  10  23  42  70  99 127 176 222 270 338 385
#     4  10  20  41  74 101 126 166 230 282 315 394
#     4  12  29  45  61  97 144 176 219 274 338 403
#     4  11  24  41  69  97 133 173 223 276 322 393
#     4  11  27  43  65  99 135 181 217 269 341 391
#     4  10  23  43  72  99 130 173 220 280 326 394
#     4  10  20  44  73 101 127 169 232 273 326 396
#
# _framework density 22.891645
#
# number of rings (size 3 to 8) (size 9 to 14) (size 15 to 20)
#    0.000    1.429    2.857    0.857   12.000    2.286 
#    0.000    1.429    0.000    0.000    0.000    0.000 
#    0.000    0.000    0.000    0.000    0.000    0.000 
#
# Total GULP energy -78255.697413 kJ/mol
# GULP energy per Si atom -5589.692672 kJ/mol
# Density = 2.283954 g / cm^3
# Si number density = 22.891645 Si / 1000 Ang^3
#
#
#
# Elastic Constant Matrix: (Units=GPa)
#
#
# Indices 1 2 3 4 5 6 
#
# 1 120.3121 23.5588 8.9129 6.7089 1.6724 13.2203
# 2 23.5588 117.5277 1.6878 -16.9035 5.7609 14.2873
# 3 8.9129 1.6878 47.6270 -13.6210 6.1294 -10.3785
# 4 6.7089 -16.9035 -13.6210 22.4057 -5.2952 1.2611
# 5 1.6724 5.7609 6.1294 -5.2952 35.9491 -3.1456
# 6 13.2203 14.2873 -10.3785 1.2611 -3.1456 32.1014
#
#
#
# Elastic Compliance Matrix: (Units=1/GPa)
#
#
# Indices 1 2 3 4 5 6 
#
# 1 0.010095 -0.002507 -0.004897 -0.007826 -0.000770 -0.004393
# 2 -0.002507 0.010958 0.002411 0.010491 -0.000816 -0.003557
# 3 -0.004897 0.002411 0.030032 0.020668 -0.001385 0.009705
# 4 -0.007826 0.010491 0.020668 0.068588 0.005532 0.003084
# 5 -0.000770 -0.000816 -0.001385 0.005532 0.029287 0.002885
# 6 -0.004393 -0.003557 0.009705 0.003084 0.002885 0.037843
#
#
# Mechanical properties :
#
#
# Convention : Reuss Voigt Hill
#
# Bulk Modulus (GPa) = 24.33133 39.30952 31.82042
# Shear Modulus (GPa) = 23.75438 34.84505 29.29971
#
# Velocity S-wave (km/s) = 3.22481 3.90574 3.58149
# Velocity P-wave (km/s) = 4.95155 6.12772 5.57076
#
# Compressibility (1/GPa) = 0.04109927
#
# Stress axis : x y z
#
# Youngs Moduli (GPa) = 99.05740 91.25909 33.29828
#
# Poissons Ratio (x) = 0.22879 0.16305
# Poissons Ratio (y) = 0.24834 -0.08028
# Poissons Ratio (z) = 0.48504 -0.22003
#
# Static dielectric constant tensor:
#      x y z
#    x 1.875610 -0.023820 0.036420 
#    y -0.023820 1.920460 -0.046910 
#    z 0.036420 -0.046910 1.888650 
# 
# From -- ./inp_files/304843.got.cif
#   From: 2010.05.17/outbox.cif.g08.bks.cpg/sg2_153_cif.got.tgz:304843.got - 2010.06.03 11:33:40.
