data_PCOD9110590
_publ_section_title
;
Structure prediction by ZEFSAII (Michael W. Deem and Ramdas Pophale) SiO2 
 PCOD9110590
Probable space group: P -1
;
_chemical_formula_sum "Si O2"
_cell_formula_units_Z 16
_cell_length_a 7.595843
_cell_length_b 12.358189
_cell_length_c 14.358118
_cell_angle_alpha 114.573163
_cell_angle_beta 149.422244
_cell_angle_gamma 64.243957
_cell_volume 614.955266
_symmetry_space_group_name_H-M "P -1"
_symmetry_group_IT_number 2
_symmetry_cell_setting 'triclinic'
loop_
_space_group_symop_operation_xyz
x,y,z
-x,-y,-z
loop_
_atom_site_type_symbol
_atom_site_label
_atom_site_fract_x
_atom_site_fract_y
_atom_site_fract_z
Si Si1 0.320457 0.506129 0.215216
Si Si2 0.731019 0.740967 0.803285
Si Si3 0.326274 0.126721 0.511620
Si Si4 0.512343 0.677546 0.490766
Si Si5 0.789555 0.521779 0.267030
Si Si6 0.488738 0.321018 0.956806
Si Si7 0.931091 0.061031 0.891702
Si Si8 0.333379 0.879103 0.883161
O O1 0.386385 0.373849 0.242135
O O2 0.227370 0.606275 0.289074
O O3 0.639525 0.538640 0.309053
O O4 0.000000 0.500000 0.000000
O O5 0.490748 0.751350 0.604055
O O6 0.125097 0.715238 0.929387
O O7 0.798791 0.840481 0.948234
O O8 0.419482 0.230740 0.525134
O O9 0.545441 0.124985 0.707271
O O10 0.900872 0.145969 0.322407
O O11 0.500000 0.000000 0.500000
O O12 0.835743 0.564090 0.603674
O O13 0.754518 0.641218 0.230959
O O14 0.523805 0.441095 0.072586
O O15 0.460919 0.223027 0.991153
O O16 0.012996 0.939619 0.825471
O O17 0.000000 0.000000 0.000000
O O18 0.500000 0.000000 0.000000
#
# Coordination Sequence:
#
# PCOD9110590 Si02
#       8
#     2   2   2   2   2   2   2   2
#     4  12  24  38  64 102 128 167 230 272 321 387
#     4  11  21  40  63  95 131 168 219 274 319 386
#     4  10  21  41  66  95 127 173 217 267 333 400
#     4  11  23  44  65  92 136 177 215 269 339 398
#     4  10  22  40  66  91 130 182 212 264 333 396
#     4  10  20  42  64  90 137 174 211 263 342 385
#     4  11  22  41  70  93 127 179 219 266 341 398
#     4  11  23  42  69  99 130 171 224 277 327 393
#
# _framework density 26.018153000000002
#
# number of rings (size 3 to 8) (size 9 to 14) (size 15 to 20)
#    0.000    1.250    5.000    2.250    1.750    0.000 
#    0.000    1.875    0.000    0.000    0.000    0.000 
#    0.000    0.000    0.000    0.000    0.000    0.000 
#
# Total GULP energy -89180.947359 kJ/mol
# GULP energy per Si atom -5573.809210 kJ/mol
# Density = 2.595894 g / cm^3
# Si number density = 26.018153 Si / 1000 Ang^3
#
#
#
# Elastic Constant Matrix: (Units=GPa)
#
#
# Indices 1 2 3 4 5 6 
#
# 1 23.7910 14.2074 19.5270 -12.4094 -2.1401 12.5382
# 2 14.2074 166.6753 64.8191 -9.8986 -10.7254 28.3077
# 3 19.5270 64.8191 169.0400 -15.1970 -10.7361 28.0574
# 4 -12.4094 -9.8986 -15.1970 58.0429 -0.0193 -19.3393
# 5 -2.1401 -10.7254 -10.7361 -0.0193 30.9172 0.3403
# 6 12.5382 28.3077 28.0574 -19.3393 0.3403 50.7222
#
#
#
# Elastic Compliance Matrix: (Units=1/GPa)
#
#
# Indices 1 2 3 4 5 6 
#
# 1 0.054116 -0.001292 -0.003644 0.007842 0.002122 -0.007665
# 2 -0.001292 0.007538 -0.002196 -0.000526 0.001795 -0.002886
# 3 -0.003644 -0.002196 0.007639 0.000165 0.001661 -0.002048
# 4 0.007842 -0.000526 0.000165 0.020940 0.000362 0.006245
# 5 0.002122 0.001795 0.001661 0.000362 0.033719 -0.002533
# 6 -0.007665 -0.002886 -0.002048 0.006245 -0.002533 0.026751
#
#
# Mechanical properties :
#
#
# Convention : Reuss Voigt Hill
#
# Bulk Modulus (GPa) = 18.17189 61.84591 40.00890
# Shear Modulus (GPa) = 27.27639 45.33331 36.30485
#
# Velocity S-wave (km/s) = 3.24135 4.17870 3.73951
# Velocity P-wave (km/s) = 4.58344 6.86323 5.83575
#
# Compressibility (1/GPa) = 0.05503004
#
# Stress axis : x y z
#
# Youngs Moduli (GPa) = 18.47886 132.66122 130.91010
#
# Poissons Ratio (x) = 0.17136 0.47704
# Poissons Ratio (y) = 0.02387 0.28743
# Poissons Ratio (z) = 0.06734 0.29127
#
# Static dielectric constant tensor:
#      x y z
#    x -2.434240 -0.386520 2.414320 
#    y -0.386520 1.936540 0.119770 
#    z 2.414320 0.119770 1.186300 
# 
# From -- ./inp_files/495636.got.cif
#   From: 2010.05.17/outbox.cif.g08.bks.cpg/sg2_248_cif.got.tgz:495636.got - 2010.06.03 11:33:40.
