data_PCOD9110836
_publ_section_title
;
Structure prediction by ZEFSAII (Michael W. Deem and Ramdas Pophale) SiO2 
 PCOD9110836
Probable space group: P -1
;
_chemical_formula_sum "Si O2"
_cell_formula_units_Z 16
_cell_length_a 8.973064
_cell_length_b 23.060807
_cell_length_c 23.870995
_cell_angle_alpha 16.982064
_cell_angle_beta 26.885476
_cell_angle_gamma 31.441726
_cell_volume 652.401224
_symmetry_space_group_name_H-M "P -1"
_symmetry_group_IT_number 2
_symmetry_cell_setting 'triclinic'
loop_
_space_group_symop_operation_xyz
x,y,z
-x,-y,-z
loop_
_atom_site_type_symbol
_atom_site_label
_atom_site_fract_x
_atom_site_fract_y
_atom_site_fract_z
Si Si1 0.716057 0.003705 0.867867
Si Si2 0.509581 0.519233 0.899312
Si Si3 0.665248 0.323488 0.914114
Si Si4 0.071253 0.969472 0.069572
Si Si5 0.692147 0.588843 0.554083
Si Si6 0.209165 0.907236 0.643719
Si Si7 0.851436 0.260160 0.485350
Si Si8 0.523325 0.096026 0.268171
O O1 0.084483 0.928951 0.827195
O O2 0.762513 0.205214 0.630283
O O3 0.446178 0.894200 0.020469
O O4 0.500000 0.000000 0.000000
O O5 0.641956 0.485008 0.822576
O O6 0.823387 0.607654 0.743307
O O7 0.213674 0.671994 0.867062
O O8 0.420515 0.296274 0.150584
O O9 0.589463 0.441367 0.774438
O O10 0.450250 0.152054 0.176409
O O11 0.993029 0.189959 0.916863
O O12 0.832508 0.803070 0.329965
O O13 0.000000 0.000000 0.000000
O O14 0.418104 0.630865 0.561190
O O15 0.000000 0.500000 0.500000
O O16 0.324771 0.929387 0.520249
O O17 0.911628 0.045181 0.634481
O O18 0.500000 0.000000 0.500000
#
# Coordination Sequence:
#
# PCOD9110836 Si02
#       8
#     2   2   2   2   2   2   2   2
#     4  12  22  39  65  99 129 168 215 265 334 382
#     4   9  22  40  69  94 129 164 220 273 326 378
#     4  10  24  42  63  96 126 178 212 267 332 378
#     4  12  24  43  62  92 138 175 213 268 322 396
#     4  12  26  44  65  92 139 176 219 256 330 397
#     4  10  20  42  66  95 135 164 214 281 325 375
#     4  11  24  43  66 102 127 172 221 269 324 384
#     4  10  22  39  65  99 126 167 216 267 334 375
#
# _framework density 24.524785999999999
#
# number of rings (size 3 to 8) (size 9 to 14) (size 15 to 20)
#    0.750    0.500    6.250    0.000    5.250    2.000 
#    0.000    3.750    0.000    0.000    0.000    0.000 
#    0.000    0.000    0.000    0.000    0.000    0.000 
#
# Total GULP energy -89172.689853 kJ/mol
# GULP energy per Si atom -5573.293116 kJ/mol
# Density = 2.446897 g / cm^3
# Si number density = 24.524786 Si / 1000 Ang^3
#
#
#
# Elastic Constant Matrix: (Units=GPa)
#
#
# Indices 1 2 3 4 5 6 
#
# 1 101.4352 41.6720 29.1727 -0.0205 39.7738 -7.3983
# 2 41.6720 131.8748 8.5624 -25.2749 10.6236 1.7987
# 3 29.1727 8.5624 67.0358 -6.0687 33.2451 -8.3396
# 4 -0.0205 -25.2749 -6.0687 42.9715 7.3249 7.1923
# 5 39.7738 10.6236 33.2451 7.3249 52.6034 -1.0600
# 6 -7.3983 1.7987 -8.3396 7.1923 -1.0600 35.7653
#
#
#
# Elastic Compliance Matrix: (Units=1/GPa)
#
#
# Indices 1 2 3 4 5 6 
#
# 1 0.016449 -0.004643 -0.001072 -0.001651 -0.010523 0.003406
# 2 -0.004643 0.010318 0.001122 0.006701 -0.000267 -0.002573
# 3 -0.001072 0.001122 0.023773 0.006004 -0.015204 0.003607
# 4 -0.001651 0.006701 0.006004 0.030410 -0.008248 -0.005638
# 5 -0.010523 -0.000267 -0.015204 -0.008248 0.037719 -0.002932
# 6 0.003406 -0.002573 0.003607 -0.005638 -0.002932 0.030682
#
#
# Mechanical properties :
#
#
# Convention : Reuss Voigt Hill
#
# Bulk Modulus (GPa) = 24.18218 51.01779 37.59998
# Shear Modulus (GPa) = 29.01532 40.99727 35.00630
#
# Velocity S-wave (km/s) = 3.44336 4.09304 3.78217
# Velocity P-wave (km/s) = 5.06859 6.57153 5.86837
#
# Compressibility (1/GPa) = 0.04135277
#
# Stress axis : x y z
#
# Youngs Moduli (GPa) = 60.79474 96.91425 42.06448
#
# Poissons Ratio (x) = 0.45000 0.04509
# Poissons Ratio (y) = 0.28229 -0.04718
# Poissons Ratio (z) = 0.06517 -0.10870
#
# Static dielectric constant tensor:
#      x y z
#    x 2.022230 0.039920 -0.010450 
#    y 0.039920 1.978060 0.005070 
#    z -0.010450 0.005070 1.999240 
# 
# From -- ./inp_files/608732.got.cif
#   From: 2010.05.17/outbox.cif.g08.bks.cpg/sg2_305_cif.got.tgz:608732.got - 2010.06.03 11:33:40.
