data_PCOD9110034
_publ_section_title
;
Structure prediction by ZEFSAII (Michael W. Deem and Ramdas Pophale) SiO2 
 PCOD9110034
Probable space group: P -1
;
_chemical_formula_sum "Si O2"
_cell_formula_units_Z 14
_cell_length_a 9.150594
_cell_length_b 12.909692
_cell_length_c 8.414492
_cell_angle_alpha 126.716159
_cell_angle_beta 116.576031
_cell_angle_gamma 44.005998
_cell_volume 553.301179
_symmetry_space_group_name_H-M "P -1"
_symmetry_group_IT_number 2
_symmetry_cell_setting 'triclinic'
loop_
_space_group_symop_operation_xyz
x,y,z
-x,-y,-z
loop_
_atom_site_type_symbol
_atom_site_label
_atom_site_fract_x
_atom_site_fract_y
_atom_site_fract_z
Si Si1 0.619396 0.831939 0.235407
Si Si2 0.887992 0.439298 0.286003
Si Si3 0.595011 0.249898 0.719487
Si Si4 0.805008 0.598263 0.828143
Si Si5 0.009131 0.038121 0.855949
Si Si6 0.997328 0.249359 0.469344
Si Si7 0.599893 0.093045 0.264258
O O1 0.442531 0.841067 0.248025
O O2 0.772279 0.814796 0.428151
O O3 0.553544 0.978736 0.219429
O O4 0.750647 0.665244 0.040988
O O5 0.637211 0.574851 0.261470
O O6 0.944680 0.295948 0.300696
O O7 0.000000 0.500000 0.500000
O O8 0.011764 0.400359 0.148576
O O9 0.800029 0.217908 0.859670
O O10 0.657702 0.155482 0.497202
O O11 0.851628 0.424083 0.655848
O O12 0.600480 0.741650 0.760723
O O13 0.022840 0.891506 0.637465
O O14 0.215540 0.008150 0.867752
O O15 0.000000 0.000000 0.000000
#
# Coordination Sequence:
#
# PCOD9110034 Si02
#       7
#     2   2   2   2   2   2   2
#     4  12  24  39  75 110 134 176 227 290 342 407
#     4  10  20  41  69 103 134 171 221 292 339 400
#     4  12  23  46  72  99 141 181 231 280 346 403
#     4  11  23  42  70 108 138 167 233 286 351 395
#     4  12  30  49  67  98 140 190 237 273 338 417
#     4  11  23  43  71  96 140 180 219 291 336 402
#     4  12  25  46  68 102 143 185 225 282 341 416
#
# _framework density 25.302672999999999
#
# number of rings (size 3 to 8) (size 9 to 14) (size 15 to 20)
#    0.000    0.571    7.143    2.571    4.000    0.571 
#    0.000    0.714    0.000    0.000    0.000    0.000 
#    0.000    0.000    0.000    0.000    0.000    0.000 
#
# Total GULP energy -78360.035826 kJ/mol
# GULP energy per Si atom -5597.145416 kJ/mol
# Density = 2.524508 g / cm^3
# Si number density = 25.302673 Si / 1000 Ang^3
#
#
#
# Elastic Constant Matrix: (Units=GPa)
#
#
# Indices 1 2 3 4 5 6 
#
# 1 103.0785 46.2455 26.1441 -11.9342 -24.9113 -15.0252
# 2 46.2455 135.6884 24.8314 -11.0100 11.5313 -17.9172
# 3 26.1441 24.8314 105.4810 -1.6124 -18.8657 -2.8188
# 4 -11.9342 -11.0100 -1.6124 48.9229 0.9596 5.0956
# 5 -24.9113 11.5313 -18.8657 0.9596 45.4416 -0.6038
# 6 -15.0252 -17.9172 -2.8188 5.0956 -0.6038 39.0882
#
#
#
# Elastic Compliance Matrix: (Units=1/GPa)
#
#
# Indices 1 2 3 4 5 6 
#
# 1 0.015217 -0.005254 -0.000741 0.001980 0.009369 0.003274
# 2 -0.005254 0.010514 -0.002252 0.000885 -0.006470 0.002422
# 3 -0.000741 -0.002252 0.011027 -0.000376 0.004745 -0.000400
# 4 0.001980 0.000885 -0.000376 0.021275 0.000234 -0.001630
# 5 0.009369 -0.006470 0.004745 0.000234 0.030768 0.001423
# 6 0.003274 0.002422 -0.000400 -0.001630 0.001423 0.028158
#
#
# Mechanical properties :
#
#
# Convention : Reuss Voigt Hill
#
# Bulk Modulus (GPa) = 49.34901 59.85444 54.60172
# Shear Modulus (GPa) = 35.66124 43.15901 39.41012
#
# Velocity S-wave (km/s) = 3.75825 4.13450 3.95086
# Velocity P-wave (km/s) = 6.19503 6.81901 6.51450
#
# Compressibility (1/GPa) = 0.02026383
#
# Stress axis : x y z
#
# Youngs Moduli (GPa) = 65.71408 95.11106 90.69033
#
# Poissons Ratio (x) = 0.49971 0.06723
# Poissons Ratio (y) = 0.34526 0.20421
# Poissons Ratio (z) = 0.04872 0.21417
#
# Static dielectric constant tensor:
#      x y z
#    x 1.962540 -0.005860 0.024080 
#    y -0.005860 2.030870 0.025850 
#    z 0.024080 0.025850 2.060920 
# 
# From -- ./inp_files/190203.got.cif
#   From: 2010.05.17/outbox.cif.g08.bks.cpg/sg2_96_cif.got.tgz:190203.got - 2010.06.03 11:33:40.
