data_PCOD9110161
_publ_section_title
;
Structure prediction by ZEFSAII (Michael W. Deem and Ramdas Pophale) SiO2 
 PCOD9110161
Probable space group: P -1
;
_chemical_formula_sum "Si O2"
_cell_formula_units_Z 12
_cell_length_a 21.049550
_cell_length_b 9.029179
_cell_length_c 10.250566
_cell_angle_alpha 123.329135
_cell_angle_beta 137.269234
_cell_angle_gamma 26.772137
_cell_volume 558.257579
_symmetry_space_group_name_H-M "P -1"
_symmetry_group_IT_number 2
_symmetry_cell_setting 'triclinic'
loop_
_space_group_symop_operation_xyz
x,y,z
-x,-y,-z
loop_
_atom_site_type_symbol
_atom_site_label
_atom_site_fract_x
_atom_site_fract_y
_atom_site_fract_z
Si Si1 0.692477 0.133064 0.043869
Si Si2 0.387330 0.104945 0.761833
Si Si3 0.402373 0.114141 0.271265
Si Si4 0.607021 0.381438 0.758867
Si Si5 0.970827 0.739849 0.508895
Si Si6 0.736279 0.289491 0.650709
O O1 0.702020 0.223606 0.966125
O O2 0.684927 0.936778 0.901208
O O3 0.500000 0.500000 0.000000
O O4 0.847540 0.923023 0.282198
O O5 0.172584 0.475536 0.645791
O O6 0.445690 0.108323 0.720288
O O7 0.460924 0.781767 0.714177
O O8 0.500000 0.000000 0.000000
O O9 0.258163 0.509740 0.221401
O O10 0.500000 0.000000 0.500000
O O11 0.750738 0.166391 0.752356
O O12 0.473271 0.428490 0.570787
O O13 0.000000 0.500000 0.500000
O O14 0.869688 0.016806 0.603174
#
# Coordination Sequence:
#
# PCOD9110161 Si02
#       6
#     2   2   2   2   2   2
#     4  12  22  41  69 102 129 171 219 272 327 386
#     4  11  24  44  68  95 129 176 222 271 327 386
#     4  11  22  41  67  96 133 171 215 268 329 384
#     4  10  20  41  70  92 131 175 216 263 332 387
#     4  12  23  42  69  98 132 172 224 269 326 392
#     4  10  21  40  69  93 132 177 214 264 329 387
#
# _framework density 21.495453999999999
#
# number of rings (size 3 to 8) (size 9 to 14) (size 15 to 20)
#    0.000    1.000    5.000    2.000    0.000    0.000 
#    0.000   20.000    0.000    0.000    0.000    0.000 
#    0.000    0.000    0.000    0.000    0.000    0.000 
#
# Total GULP energy -67097.547179 kJ/mol
# GULP energy per Si atom -5591.462265 kJ/mol
# Density = 2.144653 g / cm^3
# Si number density = 21.495454 Si / 1000 Ang^3
#
#
#
# Elastic Constant Matrix: (Units=GPa)
#
#
# Indices 1 2 3 4 5 6 
#
# 1 146.3546 48.5613 47.9437 -15.6749 -42.9301 -30.8807
# 2 48.5613 94.9761 64.3053 1.9131 -6.9494 -24.6189
# 3 47.9437 64.3053 105.7987 -10.9994 -26.1144 -19.5231
# 4 -15.6749 1.9131 -10.9994 40.0577 9.8528 -0.7687
# 5 -42.9301 -6.9494 -26.1144 9.8528 43.2133 11.1642
# 6 -30.8807 -24.6189 -19.5231 -0.7687 11.1642 36.7120
#
#
#
# Elastic Compliance Matrix: (Units=1/GPa)
#
#
# Indices 1 2 3 4 5 6 
#
# 1 0.012586 -0.005517 0.001414 0.003051 0.010619 0.004473
# 2 -0.005517 0.023854 -0.013791 -0.004271 -0.010876 0.007240
# 3 0.001414 -0.013791 0.020138 0.004142 0.010532 -0.000466
# 4 0.003051 -0.004271 0.004142 0.028153 -0.002405 0.003225
# 5 0.010619 -0.010876 0.010532 -0.002405 0.040152 -0.005020
# 6 0.004473 0.007240 -0.000466 0.003225 -0.005020 0.037203
#
#
# Mechanical properties :
#
#
# Convention : Reuss Voigt Hill
#
# Bulk Modulus (GPa) = 48.10313 74.30556 61.20435
# Shear Modulus (GPa) = 24.41349 36.41786 30.41568
#
# Velocity S-wave (km/s) = 3.37375 4.12055 3.76571
# Velocity P-wave (km/s) = 6.13214 7.56846 6.88784
#
# Compressibility (1/GPa) = 0.02078867
#
# Stress axis : x y z
#
# Youngs Moduli (GPa) = 79.45520 41.92089 49.65729
#
# Poissons Ratio (x) = 0.23129 -0.07021
# Poissons Ratio (y) = 0.43838 0.68484
# Poissons Ratio (z) = -0.11234 0.57814
#
# Static dielectric constant tensor:
#      x y z
#    x 1.813880 -0.009850 0.022900 
#    y -0.009850 1.741910 0.004150 
#    z 0.022900 0.004150 1.813730 
# 
# From -- ./inp_files/378553.got.cif
#   From: 2010.05.17/outbox.cif.g08.bks.cpg/sg2_190_cif.got.tgz:378553.got - 2010.06.03 11:33:40.
