data_PCOD9110520
_publ_section_title
;
Structure prediction by ZEFSAII (Michael W. Deem and Ramdas Pophale) SiO2 
 PCOD9110520
Probable space group: P -1
;
_chemical_formula_sum "Si O2"
_cell_formula_units_Z 14
_cell_length_a 9.184819
_cell_length_b 13.677790
_cell_length_c 5.226161
_cell_angle_alpha 96.249126
_cell_angle_beta 83.054614
_cell_angle_gamma 50.598295
_cell_volume 488.638453
_symmetry_space_group_name_H-M "P -1"
_symmetry_group_IT_number 2
_symmetry_cell_setting 'triclinic'
loop_
_space_group_symop_operation_xyz
x,y,z
-x,-y,-z
loop_
_atom_site_type_symbol
_atom_site_label
_atom_site_fract_x
_atom_site_fract_y
_atom_site_fract_z
Si Si1 0.085893 0.358384 0.836163
Si Si2 0.565571 0.366821 0.049154
Si Si3 0.060551 0.823324 0.411839
Si Si4 0.256267 0.917843 0.566757
Si Si5 0.335011 0.347442 0.396407
Si Si6 0.175404 0.624783 0.713562
Si Si7 0.483542 0.075500 0.779903
O O1 0.160146 0.354951 0.530630
O O2 0.285306 0.225235 0.868285
O O3 0.000000 0.500000 0.000000
O O4 0.930733 0.349752 0.987311
O O5 0.391934 0.366558 0.113372
O O6 0.665835 0.358691 0.287281
O O7 0.500000 0.500000 0.000000
O O8 0.738967 0.256081 0.806196
O O9 0.100875 0.898314 0.612492
O O10 0.041555 0.732237 0.552865
O O11 0.880702 0.928189 0.294111
O O12 0.459995 0.795099 0.615810
O O13 0.339447 0.924869 0.281577
O O14 0.276948 0.478068 0.573598
O O15 0.500000 0.000000 0.500000
O O16 0.500000 0.000000 0.000000
#
# Coordination Sequence:
#
# PCOD9110520 Si02
#       7
#     2   2   2   2   2   2   2
#     4   9  22  43  71  99 137 185 234 300 351 424
#     4  12  23  36  66  95 125 173 219 278 344 409
#     4  11  23  40  65  96 132 172 225 280 347 407
#     4  10  23  42  63  98 134 173 225 288 342 414
#     4  10  20  42  63  92 133 169 222 280 345 413
#     4  11  21  42  67  90 133 169 228 274 341 417
#     4  11  25  47  74 101 147 195 241 291 366 435
#
# _framework density 28.651042
#
# number of rings (size 3 to 8) (size 9 to 14) (size 15 to 20)
#    0.000    1.429    2.857    2.143    2.000    2.857 
#    0.000    1.429    0.000    0.000    0.000    0.000 
#    0.000    0.000    0.000    0.000    0.000    0.000 
#
# Total GULP energy -78200.960569 kJ/mol
# GULP energy per Si atom -5585.782898 kJ/mol
# Density = 2.858583 g / cm^3
# Si number density = 28.651042 Si / 1000 Ang^3
#
#
#
# Elastic Constant Matrix: (Units=GPa)
#
#
# Indices 1 2 3 4 5 6 
#
# 1 165.6424 54.2055 55.9186 -2.3591 -44.8053 22.1871
# 2 54.2055 244.1659 65.6150 -15.9226 -10.8807 -2.0138
# 3 55.9186 65.6150 126.5591 -11.7837 -43.6560 10.5315
# 4 -2.3591 -15.9226 -11.7837 49.0333 7.6054 -12.4930
# 5 -44.8053 -10.8807 -43.6560 7.6054 59.6850 -0.0434
# 6 22.1871 -2.0138 10.5315 -12.4930 -0.0434 48.0822
#
#
#
# Elastic Compliance Matrix: (Units=1/GPa)
#
#
# Indices 1 2 3 4 5 6 
#
# 1 0.009194 -0.001743 -0.000821 -0.002517 0.006301 -0.004784
# 2 -0.001743 0.005285 -0.002908 0.001903 -0.002713 0.002155
# 3 -0.000821 -0.002908 0.012830 0.000190 0.008211 -0.002496
# 4 -0.002517 0.001903 0.000190 0.023477 -0.004390 0.007296
# 5 0.006301 -0.002713 0.008211 -0.004390 0.027551 -0.005935
# 6 -0.004784 0.002155 -0.002496 0.007296 -0.005935 0.025532
#
#
# Mechanical properties :
#
#
# Convention : Reuss Voigt Hill
#
# Bulk Modulus (GPa) = 61.10911 98.64952 79.87932
# Shear Modulus (GPa) = 41.57365 55.40199 48.48782
#
# Velocity S-wave (km/s) = 3.81338 4.40214 4.11829
# Velocity P-wave (km/s) = 6.38468 7.76817 7.11016
#
# Compressibility (1/GPa) = 0.01636417
#
# Stress axis : x y z
#
# Youngs Moduli (GPa) = 108.76551 189.21643 77.94364
#
# Poissons Ratio (x) = 0.32984 0.06403
# Poissons Ratio (y) = 0.18960 0.22664
# Poissons Ratio (z) = 0.08934 0.55018
#
# Static dielectric constant tensor:
#      x y z
#    x 2.436900 -0.008040 0.210930 
#    y -0.008040 2.331790 -0.082850 
#    z 0.210930 -0.082850 2.467080 
# 
# From -- ./inp_files/77569.got.cif
#   From: 2010.05.17/outbox.cif.g08.bks.cpg/sg2_39_cif.got.tgz:77569.got - 2010.06.03 11:33:40.
