data_PCOD9110452
_publ_section_title
;
Structure prediction by ZEFSAII (Michael W. Deem and Ramdas Pophale) SiO2 
 PCOD9110452
Probable space group: P -1
;
_chemical_formula_sum "Si O2"
_cell_formula_units_Z 16
_cell_length_a 7.207572
_cell_length_b 21.762734
_cell_length_c 5.140970
_cell_angle_alpha 85.653154
_cell_angle_beta 66.942083
_cell_angle_gamma 70.827981
_cell_volume 699.523015
_symmetry_space_group_name_H-M "P -1"
_symmetry_group_IT_number 2
_symmetry_cell_setting 'triclinic'
loop_
_space_group_symop_operation_xyz
x,y,z
-x,-y,-z
loop_
_atom_site_type_symbol
_atom_site_label
_atom_site_fract_x
_atom_site_fract_y
_atom_site_fract_z
Si Si1 0.749461 0.515601 0.120182
Si Si2 0.424234 0.088122 0.240186
Si Si3 0.434789 0.583492 0.659894
Si Si4 0.138722 0.748997 0.177334
Si Si5 0.030428 0.687126 0.738992
Si Si6 0.171858 0.121666 0.878990
Si Si7 0.403267 0.341919 0.090040
Si Si8 0.811723 0.001364 0.801067
O O1 0.644573 0.528282 0.459323
O O2 0.680444 0.455203 0.075398
O O3 0.638947 0.586329 0.033434
O O4 0.000000 0.500000 0.000000
O O5 0.348387 0.113864 0.558966
O O6 0.352884 0.022941 0.277153
O O7 0.665810 0.065775 0.010013
O O8 0.277161 0.134577 0.085851
O O9 0.230504 0.622444 0.585276
O O10 0.527751 0.640977 0.669489
O O11 0.039859 0.740513 0.508995
O O12 0.039983 0.822395 0.109418
O O13 0.392080 0.717807 0.086300
O O14 0.067408 0.707132 0.006221
O O15 0.810843 0.673714 0.826786
O O16 0.122406 0.055273 0.997004
O O17 0.000000 0.000000 0.500000
#
# Coordination Sequence:
#
# PCOD9110452 Si02
#       8
#     2   2   2   2   2   2   2   2
#     4  11  21  39  62  93 128 162 213 268 335 398
#     4   9  20  38  62  92 130 165 206 265 322 381
#     4  10  23  39  62  94 125 166 208 273 332 392
#     4  11  25  44  67  90 132 172 222 268 321 383
#     4  11  24  43  67  92 124 175 220 267 329 386
#     4  10  20  42  62  89 131 171 212 267 325 385
#     4  11  24  41  64  92 129 167 218 271 327 389
#     4   9  20  37  64  97 129 166 210 265 325 383
#
# _framework density 22.872727999999999
#
# number of rings (size 3 to 8) (size 9 to 14) (size 15 to 20)
#    0.750    1.000    2.500    1.500    1.750    1.000 
#    2.250    1.250    0.000    0.000    0.000    0.000 
#    0.000    0.000    0.000    0.000    0.000    0.000 
#
# Total GULP energy -89124.253245 kJ/mol
# GULP energy per Si atom -5570.265828 kJ/mol
# Density = 2.282067 g / cm^3
# Si number density = 22.872728 Si / 1000 Ang^3
#
#
#
# Elastic Constant Matrix: (Units=GPa)
#
#
# Indices 1 2 3 4 5 6 
#
# 1 136.2815 28.7464 43.3114 8.7978 -29.5739 -26.8928
# 2 28.7464 112.3504 32.2106 -3.9508 -8.0391 -48.5577
# 3 43.3114 32.2106 117.5525 9.7083 -13.3904 -18.7579
# 4 8.7978 -3.9508 9.7083 35.2972 -10.6885 7.9010
# 5 -29.5739 -8.0391 -13.3904 -10.6885 35.1437 3.5740
# 6 -26.8928 -48.5577 -18.7579 7.9010 3.5740 30.6952
#
#
#
# Elastic Compliance Matrix: (Units=1/GPa)
#
#
# Indices 1 2 3 4 5 6 
#
# 1 0.012579 0.006515 -0.001948 -0.003949 0.008077 0.020212
# 2 0.006515 0.033390 -0.000680 -0.010084 0.003664 0.060282
# 3 -0.001948 -0.000680 0.010457 -0.003204 0.000773 0.004342
# 4 -0.003949 -0.010084 -0.003204 0.038795 0.008235 -0.032314
# 5 0.008077 0.003664 0.000773 0.008235 0.038199 0.006777
# 6 0.020212 0.060282 0.004342 -0.032314 0.006777 0.155830
#
#
# Mechanical properties :
#
#
# Convention : Reuss Voigt Hill
#
# Bulk Modulus (GPa) = 15.57683 63.85790 39.71737
# Shear Modulus (GPa) = 16.50836 37.68829 27.09833
#
# Velocity S-wave (km/s) = 2.68945 4.06364 3.44575
# Velocity P-wave (km/s) = 4.05823 7.07085 5.76481
#
# Compressibility (1/GPa) = 0.06419792
#
# Stress axis : x y z
#
# Youngs Moduli (GPa) = 79.49854 29.94878 95.63360
#
# Poissons Ratio (x) = -0.19511 0.18633
# Poissons Ratio (y) = -0.51791 0.06506
# Poissons Ratio (z) = 0.15489 0.02037
#
# Static dielectric constant tensor:
#      x y z
#    x 1.893380 0.038530 0.106860 
#    y 0.038530 1.945580 0.051820 
#    z 0.106860 0.051820 1.993720 
# 
# From -- ./inp_files/14478.got.cif
#   From: 2010.05.17/outbox.cif.g08.bks.cpg/sg2_8_cif.got.tgz:14478.got - 2010.06.03 11:33:40.
