data_PCOD9110950
_publ_section_title
;
Structure prediction by ZEFSAII (Michael W. Deem and Ramdas Pophale) SiO2 
 PCOD9110950
Probable space group: P -1
;
_chemical_formula_sum "Si O2"
_cell_formula_units_Z 16
_cell_length_a 8.502965
_cell_length_b 8.781420
_cell_length_c 21.840575
_cell_angle_alpha 136.224792
_cell_angle_beta 42.058877
_cell_angle_gamma 138.794956
_cell_volume 668.468645
_symmetry_space_group_name_H-M "P -1"
_symmetry_group_IT_number 2
_symmetry_cell_setting 'triclinic'
loop_
_space_group_symop_operation_xyz
x,y,z
-x,-y,-z
loop_
_atom_site_type_symbol
_atom_site_label
_atom_site_fract_x
_atom_site_fract_y
_atom_site_fract_z
Si Si1 0.245341 0.868210 0.991352
Si Si2 0.241006 0.659786 0.747216
Si Si3 0.465373 0.045141 0.688365
Si Si4 0.783692 0.732045 0.641472
Si Si5 0.703574 0.588179 0.140245
Si Si6 0.309777 0.785175 0.540219
Si Si7 0.006823 0.164722 0.603786
Si Si8 0.310216 0.364006 0.072204
O O1 0.261367 0.622356 0.894792
O O2 0.978976 0.760370 0.076912
O O3 0.500000 0.000000 0.000000
O O4 0.244274 0.073765 0.006039
O O5 0.313202 0.889574 0.746540
O O6 0.498601 0.719709 0.732107
O O7 0.218617 0.430189 0.644745
O O8 0.957881 0.605754 0.841934
O O9 0.451553 0.857764 0.585379
O O10 0.361597 0.230752 0.747314
O O11 0.762597 0.215413 0.672456
O O12 0.735281 0.479037 0.547806
O O13 0.018510 0.767850 0.630457
O O14 0.928320 0.970085 0.625048
O O15 0.480107 0.471846 0.117414
O O16 0.500000 0.000000 0.500000
O O17 0.000000 0.000000 0.500000
O O18 0.500000 0.500000 0.000000
#
# Coordination Sequence:
#
# PCOD9110950 Si02
#       8
#     2   2   2   2   2   2   2   2
#     4   9  20  41  66  91 131 165 217 278 335 411
#     4  11  22  41  66  96 131 173 232 272 332 411
#     4  11  22  38  69  95 126 175 223 273 323 407
#     4  10  23  41  62  92 137 174 218 272 329 403
#     4  10  20  42  67  96 124 174 226 272 341 408
#     4  11  23  43  63  96 138 176 219 270 340 396
#     4  11  21  38  65  97 130 170 217 272 329 394
#     4  11  23  42  69  97 133 175 225 291 345 394
#
# _framework density 23.935303999999999
#
# number of rings (size 3 to 8) (size 9 to 14) (size 15 to 20)
#    0.000    1.500    2.500    3.000    0.000    3.500 
#    0.000   10.000    0.000    0.000    0.000    0.000 
#    0.000    0.000    0.000    0.000    0.000    0.000 
#
# Total GULP energy -89338.837903 kJ/mol
# GULP energy per Si atom -5583.677369 kJ/mol
# Density = 2.388083 g / cm^3
# Si number density = 23.935304 Si / 1000 Ang^3
#
#
#
# Elastic Constant Matrix: (Units=GPa)
#
#
# Indices 1 2 3 4 5 6 
#
# 1 91.6194 25.8601 22.5705 -14.8320 -28.8954 20.6268
# 2 25.8601 84.8922 34.4438 8.3366 -21.3592 -1.5757
# 3 22.5705 34.4438 75.3499 4.9315 -28.3718 -13.3688
# 4 -14.8320 8.3366 4.9315 45.6767 -2.3749 -10.4880
# 5 -28.8954 -21.3592 -28.3718 -2.3749 39.9326 -3.6338
# 6 20.6268 -1.5757 -13.3688 -10.4880 -3.6338 38.4631
#
#
#
# Elastic Compliance Matrix: (Units=1/GPa)
#
#
# Indices 1 2 3 4 5 6 
#
# 1 0.017942 -0.002813 -0.002375 0.005184 0.009347 -0.008266
# 2 -0.002813 0.015682 -0.005277 -0.003155 0.002387 -0.000318
# 3 -0.002375 -0.005277 0.023034 0.000780 0.012825 0.010488
# 4 0.005184 -0.003155 0.000780 0.025387 0.004557 0.004715
# 5 0.009347 0.002387 0.012825 0.004557 0.042906 0.004839
# 6 -0.008266 -0.000318 0.010488 0.004715 0.004839 0.035807
#
#
# Mechanical properties :
#
#
# Convention : Reuss Voigt Hill
#
# Bulk Modulus (GPa) = 27.98941 46.40115 37.19528
# Shear Modulus (GPa) = 25.82690 36.08028 30.95359
#
# Velocity S-wave (km/s) = 3.28842 3.88675 3.60004
# Velocity P-wave (km/s) = 5.11248 6.29051 5.73184
#
# Compressibility (1/GPa) = 0.03572780
#
# Stress axis : x y z
#
# Youngs Moduli (GPa) = 55.73617 63.76723 43.41422
#
# Poissons Ratio (x) = 0.17935 0.10311
# Poissons Ratio (y) = 0.15676 0.22911
# Poissons Ratio (z) = 0.13237 0.33652
#
# Static dielectric constant tensor:
#      x y z
#    x 1.908330 0.022210 -0.031290 
#    y 0.022210 1.868020 -0.009450 
#    z -0.031290 -0.009450 1.963790 
# 
# From -- ./inp_files/38184.got.cif
#   From: 2010.05.17/outbox.cif.g08.bks.cpg/sg2_20_cif.got.tgz:38184.got - 2010.06.03 11:33:40.
