data_PCOD9110771
_publ_section_title
;
Structure prediction by ZEFSAII (Michael W. Deem and Ramdas Pophale) SiO2 
 PCOD9110771
Probable space group: P -1
;
_chemical_formula_sum "Si O2"
_cell_formula_units_Z 15
_cell_length_a 15.646857
_cell_length_b 8.149998
_cell_length_c 13.076614
_cell_angle_alpha 104.545283
_cell_angle_beta 132.912592
_cell_angle_gamma 113.851393
_cell_volume 690.619299
_symmetry_space_group_name_H-M "P -1"
_symmetry_group_IT_number 2
_symmetry_cell_setting 'triclinic'
loop_
_space_group_symop_operation_xyz
x,y,z
-x,-y,-z
loop_
_atom_site_type_symbol
_atom_site_label
_atom_site_fract_x
_atom_site_fract_y
_atom_site_fract_z
Si Si1 0.895400 0.788693 0.785463
Si Si2 0.000000 0.500000 0.000000
Si Si3 0.682607 0.870977 0.569227
Si Si4 0.990931 0.188405 0.506056
Si Si5 0.332238 0.659920 0.307819
Si Si6 0.615413 0.141915 0.007673
Si Si7 0.088219 0.790011 0.785763
Si Si8 0.741161 0.110345 0.435391
O O1 0.752701 0.760569 0.614483
O O2 0.764781 0.484711 0.682467
O O3 0.057917 0.905538 0.858883
O O4 0.000000 0.000000 0.000000
O O5 0.851096 0.474143 0.923619
O O6 0.817394 0.144374 0.798229
O O7 0.449236 0.629803 0.365193
O O8 0.724137 0.002261 0.513542
O O9 0.191447 0.512131 0.763367
O O10 0.969962 0.214710 0.374966
O O11 0.803338 0.045864 0.391124
O O12 0.000000 0.000000 0.500000
O O13 0.500000 0.000000 0.500000
O O14 0.703347 0.064006 0.031725
O O15 0.500000 0.000000 0.000000
O O16 0.462739 0.038687 0.785735
O O17 0.921807 0.457303 0.632883
#
# Coordination Sequence:
#
# PCOD9110771 Si02
#       8
#     2   1   2   2   2   2   2   2
#     4  12  25  47  67  98 141 182 232 288 340 400
#     4  10  20  42  66  90 134 174 232 272 342 392
#     4  11  24  42  67  99 135 178 233 284 344 397
#     4  11  23  42  71 104 141 168 219 288 347 404
#     4  10  22  42  68  92 130 178 227 282 333 399
#     4  11  21  46  72 101 133 179 231 269 342 424
#     4  11  23  44  71  97 139 184 224 283 343 404
#     4  11  23  43  70 102 137 177 226 279 340 424
#
# _framework density 21.719635
#
# number of rings (size 3 to 8) (size 9 to 14) (size 15 to 20)
#    0.000    1.067    4.000    3.600    0.000    3.733 
#    9.600    0.000    0.000    0.000    0.000    0.000 
#    0.000    0.000    0.000    0.000    0.000    0.000 
#
# Total GULP energy -83567.644689 kJ/mol
# GULP energy per Si atom -5571.176313 kJ/mol
# Density = 2.167020 g / cm^3
# Si number density = 21.719635 Si / 1000 Ang^3
#
#
#
# Elastic Constant Matrix: (Units=GPa)
#
#
# Indices 1 2 3 4 5 6 
#
# 1 172.2233 21.6212 38.1342 -15.2947 38.1373 -8.3385
# 2 21.6212 71.1273 9.4154 -13.3383 4.2677 10.9941
# 3 38.1342 9.4154 78.1958 -9.6127 37.6624 -9.9809
# 4 -15.2947 -13.3383 -9.6127 29.0527 3.5827 -4.1150
# 5 38.1373 4.2677 37.6624 3.5827 30.6704 7.1730
# 6 -8.3385 10.9941 -9.9809 -4.1150 7.1730 18.9324
#
#
#
# Elastic Compliance Matrix: (Units=1/GPa)
#
#
# Indices 1 2 3 4 5 6 
#
# 1 0.001301 0.001929 -0.019016 -0.011603 0.028400 -0.023855
# 2 0.001929 0.014966 0.009068 0.014250 -0.018970 0.007223
# 3 -0.019016 0.009068 -0.032596 -0.036853 0.083168 -0.070345
# 4 -0.011603 0.014250 -0.036853 0.005678 0.070684 -0.058360
# 5 0.028400 -0.018970 0.083168 0.070684 -0.142424 0.136693
# 6 -0.023855 0.007223 -0.070345 -0.058360 0.136693 -0.063441
#
#
# Mechanical properties :
#
#
# Convention : Reuss Voigt Hill
#
# Bulk Modulus (GPa) = -30.89463 51.09865 10.10201
# Shear Modulus (GPa) = -23.66683 32.55616 4.44467
#
# Velocity S-wave (km/s) = -3.30457 3.87580 1.43207
# Velocity P-wave (km/s) = 5.36800 6.60353 2.71949
#
# Compressibility (1/GPa) = -0.03236808
#
# Stress axis : x y z
#
# Youngs Moduli (GPa) = 768.90752 66.81621 -30.67857
#
# Poissons Ratio (x) = -0.12891 -0.58340
# Poissons Ratio (y) = -1.48344 0.27818
# Poissons Ratio (z) = 14.62184 -0.60586
#
# Static dielectric constant tensor:
#      x y z
#    x 1.814790 -0.010510 -0.009260 
#    y -0.010510 1.783560 -0.011170 
#    z -0.009260 -0.011170 1.811430 
# 
# From -- ./inp_files/446139.got.cif
#   From: 2010.05.17/outbox.cif.g08.bks.cpg/sg2_224_cif.got.tgz:446139.got - 2010.06.03 11:33:40.
