data_PCOD9110419
_publ_section_title
;
Structure prediction by ZEFSAII (Michael W. Deem and Ramdas Pophale) SiO2 
 PCOD9110419
Probable space group: P -1
;
_chemical_formula_sum "Si O2"
_cell_formula_units_Z 15
_cell_length_a 9.792304
_cell_length_b 13.023645
_cell_length_c 7.759601
_cell_angle_alpha 102.647210
_cell_angle_beta 76.247685
_cell_angle_gamma 146.818311
_cell_volume 525.702083
_symmetry_space_group_name_H-M "P -1"
_symmetry_group_IT_number 2
_symmetry_cell_setting 'triclinic'
loop_
_space_group_symop_operation_xyz
x,y,z
-x,-y,-z
loop_
_atom_site_type_symbol
_atom_site_label
_atom_site_fract_x
_atom_site_fract_y
_atom_site_fract_z
Si Si1 0.040596 0.988602 0.748268
Si Si2 0.381640 0.909688 0.782538
Si Si3 0.238544 0.442181 0.764364
Si Si4 0.000000 0.500000 0.000000
Si Si5 0.484583 0.560070 0.201594
Si Si6 0.856313 0.146911 0.523124
Si Si7 0.078742 0.491890 0.295809
Si Si8 0.842401 0.054090 0.948159
O O1 0.288803 0.215576 0.762497
O O2 0.064908 0.923560 0.562267
O O3 0.048158 0.922603 0.894666
O O4 0.810206 0.926811 0.805141
O O5 0.259305 0.875925 0.625384
O O6 0.372252 0.998703 0.951989
O O7 0.162404 0.690740 0.823241
O O8 0.635237 0.014804 0.681896
O O9 0.483296 0.519522 0.708787
O O10 0.211810 0.536442 0.898348
O O11 0.101783 0.358645 0.591532
O O12 0.049177 0.252244 0.864783
O O13 0.828622 0.366513 0.818743
O O14 0.249789 0.494335 0.255053
O O15 0.500000 0.500000 0.000000
O O16 0.000000 0.500000 0.500000
#
# Coordination Sequence:
#
# PCOD9110419 Si02
#       8
#     2   2   2   1   2   2   2   2
#     4   9  19  37  64  93 125 180 220 276 347 411
#     4  10  20  42  61  94 134 179 218 283 351 402
#     4  11  23  43  68 100 137 181 230 291 349 409
#     4  12  24  44  68 106 140 186 238 286 350 428
#     4  11  22  44  70  96 144 190 224 285 356 426
#     4  10  22  39  68  97 135 169 231 295 342 413
#     4  12  24  43  72  99 141 190 235 285 352 432
#     4   9  18  36  61  89 129 166 225 269 334 405
#
# _framework density 28.533270000000002
#
# number of rings (size 3 to 8) (size 9 to 14) (size 15 to 20)
#    0.000    1.600    2.667    2.400    0.000    4.800 
#    2.400    2.667    5.867    0.000    0.000    0.000 
#    0.000    0.000    0.000    0.000    0.000    0.000 
#
# Total GULP energy -83740.162294 kJ/mol
# GULP energy per Si atom -5582.677486 kJ/mol
# Density = 2.846833 g / cm^3
# Si number density = 28.533270 Si / 1000 Ang^3
#
#
#
# Elastic Constant Matrix: (Units=GPa)
#
#
# Indices 1 2 3 4 5 6 
#
# 1 258.0596 29.4566 93.4356 -6.2231 -55.8194 14.7775
# 2 29.4566 75.7208 9.4097 -8.4810 -21.6594 -0.2162
# 3 93.4356 9.4097 195.9543 8.8383 -45.4053 9.9216
# 4 -6.2231 -8.4810 8.8383 38.5852 -4.6511 -3.3573
# 5 -55.8194 -21.6594 -45.4053 -4.6511 70.4021 -2.0764
# 6 14.7775 -0.2162 9.9216 -3.3573 -2.0764 46.4436
#
#
#
# Elastic Compliance Matrix: (Units=1/GPa)
#
#
# Indices 1 2 3 4 5 6 
#
# 1 0.005358 -0.000897 -0.001862 0.001340 0.002828 -0.001088
# 2 -0.000897 0.015215 0.000560 0.003687 0.004595 0.000709
# 3 -0.001862 0.000560 0.006749 -0.001441 0.002930 -0.000820
# 4 0.001340 0.003687 -0.001441 0.027834 0.003166 0.002052
# 5 0.002828 0.004595 0.002930 0.003166 0.019947 -0.000384
# 6 -0.001088 0.000709 -0.000820 0.002052 -0.000384 0.022187
#
#
# Mechanical properties :
#
#
# Convention : Reuss Voigt Hill
#
# Bulk Modulus (GPa) = 43.62210 88.25984 65.94097
# Shear Modulus (GPa) = 45.73296 57.58171 51.65733
#
# Velocity S-wave (km/s) = 4.00783 4.49715 4.25952
# Velocity P-wave (km/s) = 6.06122 7.61349 6.88126
#
# Compressibility (1/GPa) = 0.02292416
#
# Stress axis : x y z
#
# Youngs Moduli (GPa) = 186.64308 65.72359 148.15974
#
# Poissons Ratio (x) = 0.05896 0.27584
# Poissons Ratio (y) = 0.16745 -0.08293
# Poissons Ratio (z) = 0.34749 -0.03679
#
# Static dielectric constant tensor:
#      x y z
#    x 2.182420 0.266840 -0.026170 
#    y 0.266840 1.988120 0.166230 
#    z -0.026170 0.166230 2.177210 
# 
# From -- ./inp_files/208230.got.cif
#   From: 2010.05.17/outbox.cif.g08.bks.cpg/sg2_105_cif.got.tgz:208230.got - 2010.06.03 11:33:40.
