data_PCOD9110895
_publ_section_title
;
Structure prediction by ZEFSAII (Michael W. Deem and Ramdas Pophale) SiO2 
 PCOD9110895
Probable space group: P -1
;
_chemical_formula_sum "Si O2"
_cell_formula_units_Z 14
_cell_length_a 6.072120
_cell_length_b 12.394688
_cell_length_c 8.920610
_cell_angle_alpha 87.597059
_cell_angle_beta 115.071977
_cell_angle_gamma 109.215708
_cell_volume 570.495636
_symmetry_space_group_name_H-M "P -1"
_symmetry_group_IT_number 2
_symmetry_cell_setting 'triclinic'
loop_
_space_group_symop_operation_xyz
x,y,z
-x,-y,-z
loop_
_atom_site_type_symbol
_atom_site_label
_atom_site_fract_x
_atom_site_fract_y
_atom_site_fract_z
Si Si1 0.854502 0.031608 0.158297
Si Si2 0.894121 0.338558 0.994336
Si Si3 0.406696 0.503927 0.139703
Si Si4 0.602625 0.847668 0.554649
Si Si5 0.302671 0.382216 0.523262
Si Si6 0.246347 0.747396 0.740289
Si Si7 0.630343 0.101329 0.808254
O O1 0.802934 0.141526 0.211327
O O2 0.138592 0.056658 0.307442
O O3 0.638847 0.922491 0.176424
O O4 0.776292 0.033331 0.959519
O O5 0.710878 0.310268 0.090530
O O6 0.198509 0.376963 0.122390
O O7 0.792204 0.429416 0.879017
O O8 0.826753 0.229108 0.877556
O O9 0.659831 0.575978 0.297998
O O10 0.500000 0.500000 0.000000
O O11 0.641870 0.736179 0.490684
O O12 0.441389 0.793477 0.659412
O O13 0.464155 0.904303 0.390055
O O14 0.500000 0.500000 0.500000
O O15 0.007480 0.348063 0.393036
#
# Coordination Sequence:
#
# PCOD9110895 Si02
#       7
#     2   2   2   2   2   2   2
#     4   9  22  43  63  91 126 160 201 264 302 360
#     4  10  22  41  56  89 124 154 204 255 300 364
#     4  11  24  38  61  86 117 163 202 251 304 362
#     4  11  23  41  65  91 125 166 201 253 311 364
#     4  11  23  41  59  89 124 161 204 252 305 361
#     4  10  23  39  62  90 123 159 205 251 305 369
#     4  10  20  42  67  87 125 163 205 255 308 361
#
# _framework density 24.540064000000001
#
# number of rings (size 3 to 8) (size 9 to 14) (size 15 to 20)
#    0.000    1.714    2.857    0.429    4.000    1.143 
#    0.000    7.857    0.000    0.000    0.000    0.000 
#    0.000    0.000    0.000    0.000    0.000    0.000 
#
# Total GULP energy -77979.103098 kJ/mol
# GULP energy per Si atom -5569.935936 kJ/mol
# Density = 2.448421 g / cm^3
# Si number density = 24.540064 Si / 1000 Ang^3
#
#
#
# Elastic Constant Matrix: (Units=GPa)
#
#
# Indices 1 2 3 4 5 6 
#
# 1 45.9108 20.4583 31.9655 -3.6414 6.4288 8.7510
# 2 20.4583 62.5336 32.8671 13.7655 12.2597 16.0305
# 3 31.9655 32.8671 180.5084 26.4318 -4.0731 9.2469
# 4 -3.6414 13.7655 26.4318 43.1235 9.4570 7.3015
# 5 6.4288 12.2597 -4.0731 9.4570 37.5298 7.9780
# 6 8.7510 16.0305 9.2469 7.3015 7.9780 35.6884
#
#
#
# Elastic Compliance Matrix: (Units=1/GPa)
#
#
# Indices 1 2 3 4 5 6 
#
# 1 0.031330 -0.007570 -0.005605 0.010294 -0.005299 -0.003752
# 2 -0.007570 0.022840 -0.001876 -0.004913 -0.003843 -0.006053
# 3 -0.005605 -0.001876 0.007738 -0.005515 0.003693 0.000514
# 4 0.010294 -0.004913 -0.005515 0.031338 -0.007903 -0.003534
# 5 -0.005299 -0.003843 0.003693 -0.007903 0.031935 -0.003453
# 6 -0.003752 -0.006053 0.000514 -0.003534 -0.003453 0.033021
#
#
# Mechanical properties :
#
#
# Convention : Reuss Voigt Hill
#
# Bulk Modulus (GPa) = 31.43749 51.05942 41.24846
# Shear Modulus (GPa) = 25.13753 36.84581 30.99167
#
# Velocity S-wave (km/s) = 3.20401 3.87907 3.55759
# Velocity P-wave (km/s) = 5.15035 6.39645 5.80692
#
# Compressibility (1/GPa) = 0.03180915
#
# Stress axis : x y z
#
# Youngs Moduli (GPa) = 31.91791 43.78226 129.22570
#
# Poissons Ratio (x) = 0.33142 0.72427
# Poissons Ratio (y) = 0.24161 0.24237
# Poissons Ratio (z) = 0.17889 0.08212
#
# Static dielectric constant tensor:
#      x y z
#    x 1.997950 0.014930 0.045480 
#    y 0.014930 2.107980 -0.041760 
#    z 0.045480 -0.041760 2.072700 
# 
# From -- ./inp_files/36996.got.cif
#   From: 2010.05.17/outbox.cif.g08.bks.cpg/sg2_19_cif.got.tgz:36996.got - 2010.06.03 11:33:40.
