data_PCOD9110426
_publ_section_title
;
Structure prediction by ZEFSAII (Michael W. Deem and Ramdas Pophale) SiO2 
 PCOD9110426
Probable space group: P -1
;
_chemical_formula_sum "Si O2"
_cell_formula_units_Z 15
_cell_length_a 14.494377
_cell_length_b 15.560607
_cell_length_c 10.385745
_cell_angle_alpha 102.597049
_cell_angle_beta 110.704497
_cell_angle_gamma 18.855022
_cell_volume 653.439375
_symmetry_space_group_name_H-M "P -1"
_symmetry_group_IT_number 2
_symmetry_cell_setting 'triclinic'
loop_
_space_group_symop_operation_xyz
x,y,z
-x,-y,-z
loop_
_atom_site_type_symbol
_atom_site_label
_atom_site_fract_x
_atom_site_fract_y
_atom_site_fract_z
Si Si1 0.122717 0.330409 0.895577
Si Si2 0.072783 0.178815 0.905903
Si Si3 0.736398 0.296292 0.669888
Si Si4 0.353086 0.426693 0.927243
Si Si5 0.924644 0.779551 0.575959
Si Si6 0.500000 0.500000 0.000000
Si Si7 0.130677 0.791863 0.697191
Si Si8 0.835984 0.586535 0.564425
O O1 0.016028 0.319684 0.854338
O O2 0.000315 0.469572 0.743203
O O3 0.000000 0.500000 0.000000
O O4 0.500000 0.000000 0.000000
O O5 0.913042 0.236719 0.764077
O O6 0.895255 0.340476 0.006454
O O7 0.430333 0.839986 0.006185
O O8 0.500000 0.500000 0.500000
O O9 0.510638 0.468613 0.740504
O O10 0.976431 0.014476 0.659700
O O11 0.568543 0.332537 0.991398
O O12 0.155091 0.573958 0.747635
O O13 0.952133 0.858988 0.578169
O O14 0.076243 0.589172 0.480270
O O15 0.551105 0.072979 0.511678
O O16 0.147655 0.775575 0.854344
O O17 0.000000 0.500000 0.500000
#
# Coordination Sequence:
#
# PCOD9110426 Si02
#       8
#     2   2   2   2   2   1   2   2
#     4  12  30  52  79 109 145 193 251 316 379 451
#     4  12  25  45  73 102 146 191 250 298 377 430
#     4  12  25  43  67 102 145 196 240 296 350 443
#     4  11  24  42  72 105 145 191 238 299 352 442
#     4  11  26  45  74 108 144 191 237 306 369 449
#     4  10  20  42  62 104 140 186 234 278 342 396
#     4  11  24  42  68 100 147 184 237 286 358 423
#     4  12  28  52  80 106 144 188 252 315 383 441
#
# _framework density 22.955459000000001
#
# number of rings (size 3 to 8) (size 9 to 14) (size 15 to 20)
#    0.000    0.533    2.667    4.000    9.333    4.267 
#    0.000    0.000    0.000    0.000    0.000    0.000 
#    0.000    0.000    0.000    0.000    0.000    0.000 
#
# Total GULP energy -83677.159669 kJ/mol
# GULP energy per Si atom -5578.477311 kJ/mol
# Density = 2.290321 g / cm^3
# Si number density = 22.955459 Si / 1000 Ang^3
#
#
#
# Elastic Constant Matrix: (Units=GPa)
#
#
# Indices 1 2 3 4 5 6 
#
# 1 82.3668 3.0550 23.7693 3.3853 -0.1704 14.7892
# 2 3.0550 119.6312 43.2453 5.8227 4.4716 11.8806
# 3 23.7693 43.2453 149.0433 0.3572 0.0368 5.4103
# 4 3.3853 5.8227 0.3572 29.5638 -1.6371 9.1279
# 5 -0.1704 4.4716 0.0368 -1.6371 28.9941 -0.8587
# 6 14.7892 11.8806 5.4103 9.1279 -0.8587 31.6897
#
#
#
# Elastic Compliance Matrix: (Units=1/GPa)
#
#
# Indices 1 2 3 4 5 6 
#
# 1 0.013944 0.001136 -0.002314 0.000234 -0.000273 -0.006613
# 2 0.001136 0.009839 -0.002907 -0.001056 -0.001669 -0.003463
# 3 -0.002314 -0.002907 0.007896 0.000561 0.000476 0.000673
# 4 0.000234 -0.001056 0.000561 0.037355 0.001961 -0.010516
# 5 -0.000273 -0.001669 0.000476 0.001961 0.034887 0.001052
# 6 -0.006613 -0.003463 0.000673 -0.010516 0.001052 0.038883
#
#
# Mechanical properties :
#
#
# Convention : Reuss Voigt Hill
#
# Bulk Modulus (GPa) = 42.53834 54.57559 48.55696
# Shear Modulus (GPa) = 31.48425 36.78097 34.13261
#
# Velocity S-wave (km/s) = 3.70744 4.00719 3.86023
# Velocity P-wave (km/s) = 6.07436 6.72579 6.40836
#
# Compressibility (1/GPa) = 0.02350821
#
# Stress axis : x y z
#
# Youngs Moduli (GPa) = 71.71763 101.63973 126.64495
#
# Poissons Ratio (x) = -0.11545 0.29302
# Poissons Ratio (y) = -0.08146 0.36818
# Poissons Ratio (z) = 0.16593 0.29549
#
# Static dielectric constant tensor:
#      x y z
#    x 1.842970 0.169860 0.121750 
#    y 0.169860 1.838270 -0.104170 
#    z 0.121750 -0.104170 1.716040 
# 
# From -- ./inp_files/454869.got.cif
#   From: 2010.05.17/outbox.cif.g08.bks.cpg/sg2_228_cif.got.tgz:454869.got - 2010.06.03 11:33:40.
