data_PCOD9110686
_publ_section_title
;
Structure prediction by ZEFSAII (Michael W. Deem and Ramdas Pophale) SiO2 
 PCOD9110686
Probable space group: P -1
;
_chemical_formula_sum "Si O2"
_cell_formula_units_Z 16
_cell_length_a 11.600994
_cell_length_b 23.554031
_cell_length_c 9.157167
_cell_angle_alpha 129.149517
_cell_angle_beta 36.823068
_cell_angle_gamma 148.328763
_cell_volume 777.424670
_symmetry_space_group_name_H-M "P -1"
_symmetry_group_IT_number 2
_symmetry_cell_setting 'triclinic'
loop_
_space_group_symop_operation_xyz
x,y,z
-x,-y,-z
loop_
_atom_site_type_symbol
_atom_site_label
_atom_site_fract_x
_atom_site_fract_y
_atom_site_fract_z
Si Si1 0.214495 0.129347 0.847461
Si Si2 0.325757 0.652512 0.390027
Si Si3 0.141262 0.966399 0.240206
Si Si4 0.401990 0.821102 0.037882
Si Si5 0.764887 0.541650 0.887106
Si Si6 0.271520 0.390541 0.654621
Si Si7 0.663188 0.749148 0.514278
Si Si8 0.342085 0.031820 0.697177
O O1 0.468303 0.257465 0.795072
O O2 0.349516 0.085980 0.636219
O O3 0.013247 0.088594 0.847733
O O4 0.997795 0.077175 0.115546
O O5 0.247351 0.549689 0.249350
O O6 0.491586 0.694165 0.444885
O O7 0.068074 0.636940 0.652198
O O8 0.998009 0.863274 0.320109
O O9 0.000000 0.000000 0.500000
O O10 0.468577 0.081840 0.053124
O O11 0.534298 0.883416 0.159384
O O12 0.059670 0.714855 0.231837
O O13 0.531234 0.780428 0.786099
O O14 0.500000 0.500000 0.000000
O O15 0.759893 0.574263 0.104599
O O16 0.500000 0.500000 0.500000
O O17 0.373985 0.337309 0.503343
O O18 0.500000 0.000000 0.500000
#
# Coordination Sequence:
#
# PCOD9110686 Si02
#       8
#     2   2   2   2   2   2   2   2
#     4   9  20  38  61  91 121 161 207 257 318 386
#     4  10  21  40  68  89 122 165 214 274 323 363
#     4   8  17  36  65  90 115 152 201 258 320 372
#     4  10  22  41  60  90 127 164 208 259 323 382
#     4  11  23  42  65  94 125 164 223 268 314 376
#     4  12  27  41  61  96 133 172 219 262 319 389
#     4  10  20  42  65  91 124 161 207 270 324 379
#     4  10  22  39  60  91 131 166 208 253 319 395
#
# _framework density 20.580772
#
# number of rings (size 3 to 8) (size 9 to 14) (size 15 to 20)
#    0.000    2.000    2.500    0.000    0.000    9.000 
#    2.250    0.000    0.000    0.000    0.000    0.000 
#    0.000    0.000    0.000    0.000    0.000    0.000 
#
# Total GULP energy -89102.747958 kJ/mol
# GULP energy per Si atom -5568.921747 kJ/mol
# Density = 2.053393 g / cm^3
# Si number density = 20.580772 Si / 1000 Ang^3
#
#
#
# Elastic Constant Matrix: (Units=GPa)
#
#
# Indices 1 2 3 4 5 6 
#
# 1 50.4972 21.9047 10.9954 -14.0404 -24.0811 -3.5761
# 2 21.9047 98.5568 19.6209 -24.9780 -2.8038 -5.5048
# 3 10.9954 19.6209 30.6312 -1.3907 -14.9996 11.9170
# 4 -14.0404 -24.9780 -1.3907 48.2657 3.6179 0.8404
# 5 -24.0811 -2.8038 -14.9996 3.6179 28.9351 1.6267
# 6 -3.5761 -5.5048 11.9170 0.8404 1.6267 34.9132
#
#
#
# Elastic Compliance Matrix: (Units=1/GPa)
#
#
# Indices 1 2 3 4 5 6 
#
# 1 0.040824 -0.009355 0.011807 0.004522 0.038807 -0.003241
# 2 -0.009355 0.018194 -0.020590 0.007294 -0.018148 0.009608
# 3 0.011807 -0.020590 0.078354 -0.008264 0.051223 -0.030969
# 4 0.004522 0.007294 -0.008264 0.025746 -0.003255 0.003966
# 5 0.038807 -0.018148 0.051223 -0.003255 0.093219 -0.020636
# 6 -0.003241 0.009608 -0.030969 0.003966 -0.020636 0.041262
#
#
# Mechanical properties :
#
#
# Convention : Reuss Voigt Hill
#
# Bulk Modulus (GPa) = 9.89155 31.63635 20.76395
# Shear Modulus (GPa) = 13.60276 30.90042 22.25159
#
# Velocity S-wave (km/s) = 2.57367 3.87902 3.29170
# Velocity P-wave (km/s) = 3.69437 5.95547 4.95560
#
# Compressibility (1/GPa) = 0.10109637
#
# Stress axis : x y z
#
# Youngs Moduli (GPa) = 24.49531 54.96444 12.76261
#
# Poissons Ratio (x) = 0.51418 -0.15069
# Poissons Ratio (y) = 0.22915 0.26278
# Poissons Ratio (z) = -0.28922 1.13171
#
# Static dielectric constant tensor:
#      x y z
#    x 1.781660 -0.031390 -0.008720 
#    y -0.031390 1.798960 -0.066790 
#    z -0.008720 -0.066790 1.739160 
# 
# From -- ./inp_files/284908.got.cif
#   From: 2010.05.17/outbox.cif.g08.bks.cpg/sg2_143_cif.got.tgz:284908.got - 2010.06.03 11:33:40.
