data_PCOD9110341
_publ_section_title
;
Structure prediction by ZEFSAII (Michael W. Deem and Ramdas Pophale) SiO2 
 PCOD9110341
Probable space group: P -1
;
_chemical_formula_sum "Si O2"
_cell_formula_units_Z 12
_cell_length_a 9.588139
_cell_length_b 14.194536
_cell_length_c 12.043864
_cell_angle_alpha 150.025770
_cell_angle_beta 37.613539
_cell_angle_gamma 131.612876
_cell_volume 498.511794
_symmetry_space_group_name_H-M "P -1"
_symmetry_group_IT_number 2
_symmetry_cell_setting 'triclinic'
loop_
_space_group_symop_operation_xyz
x,y,z
-x,-y,-z
loop_
_atom_site_type_symbol
_atom_site_label
_atom_site_fract_x
_atom_site_fract_y
_atom_site_fract_z
Si Si1 0.021636 0.891520 0.994803
Si Si2 0.418846 0.217368 0.740507
Si Si3 0.214227 0.850374 0.215073
Si Si4 0.128478 0.736700 0.397847
Si Si5 0.541772 0.804813 0.567728
Si Si6 0.247758 0.483866 0.686463
O O1 0.815600 0.758092 0.016160
O O2 0.271654 0.782545 0.730318
O O3 0.986960 0.063110 0.280937
O O4 0.000000 0.000000 0.000000
O O5 0.646797 0.322692 0.732858
O O6 0.388443 0.223078 0.633320
O O7 0.500000 0.000000 0.500000
O O8 0.228028 0.760876 0.236582
O O9 0.426656 0.978211 0.195124
O O10 0.177605 0.689802 0.986640
O O11 0.000000 0.000000 0.500000
O O12 0.932588 0.593368 0.362996
O O13 0.708012 0.666800 0.395622
O O14 0.500000 0.500000 0.500000
#
# Coordination Sequence:
#
# PCOD9110341 Si02
#       6
#     2   2   2   2   2   2
#     4  11  20  39  77 113 147 193 251 301 375 448
#     4  10  20  41  74 111 141 198 243 301 371 443
#     4  12  25  47  78 106 150 203 248 304 378 449
#     4  11  22  44  74 108 150 191 249 307 367 449
#     4  12  24  46  79 107 151 194 246 312 374 438
#     4  12  30  47  72 116 151 193 258 310 372 447
#
# _framework density 24.071646000000001
#
# number of rings (size 3 to 8) (size 9 to 14) (size 15 to 20)
#    0.000    0.667    8.333    1.500    2.333    1.333 
#    0.000    1.667    3.667    0.000    0.000    0.000 
#    0.000    0.000    0.000    0.000    0.000    0.000 
#
# Total GULP energy -67191.760060 kJ/mol
# GULP energy per Si atom -5599.313338 kJ/mol
# Density = 2.401686 g / cm^3
# Si number density = 24.071646 Si / 1000 Ang^3
#
#
#
# Elastic Constant Matrix: (Units=GPa)
#
#
# Indices 1 2 3 4 5 6 
#
# 1 108.7559 56.7851 25.4138 5.3794 1.9050 32.0087
# 2 56.7851 140.8678 33.4693 -17.8487 0.6846 35.8014
# 3 25.4138 33.4693 93.9283 -6.7371 -5.4169 18.0512
# 4 5.3794 -17.8487 -6.7371 38.6567 7.6717 -6.9928
# 5 1.9050 0.6846 -5.4169 7.6717 39.6290 -0.5483
# 6 32.0087 35.8014 18.0512 -6.9928 -0.5483 46.8295
#
#
#
# Elastic Compliance Matrix: (Units=1/GPa)
#
#
# Indices 1 2 3 4 5 6 
#
# 1 0.013952 -0.004332 -0.001358 -0.005389 0.000172 -0.006504
# 2 -0.004332 0.010877 -0.001655 0.004850 -0.001200 -0.004006
# 3 -0.001358 -0.001655 0.012208 0.000811 0.001573 -0.002373
# 4 -0.005389 0.004850 0.000811 0.030879 -0.005633 0.004208
# 5 0.000172 -0.001200 0.001573 -0.005633 0.026547 -0.000336
# 6 -0.006504 -0.004006 -0.002373 0.004208 -0.000336 0.030401
#
#
# Mechanical properties :
#
#
# Convention : Reuss Voigt Hill
#
# Bulk Modulus (GPa) = 44.74910 63.87649 54.31279
# Shear Modulus (GPa) = 34.01265 40.21530 37.11397
#
# Velocity S-wave (km/s) = 3.76303 4.09179 3.93085
# Velocity P-wave (km/s) = 6.12461 6.99409 6.57374
#
# Compressibility (1/GPa) = 0.02234682
#
# Stress axis : x y z
#
# Youngs Moduli (GPa) = 71.67470 91.93710 81.91019
#
# Poissons Ratio (x) = 0.39830 0.11123
# Poissons Ratio (y) = 0.31052 0.13556
# Poissons Ratio (z) = 0.09733 0.15216
#
# Static dielectric constant tensor:
#      x y z
#    x 1.987710 -0.043040 0.035690 
#    y -0.043040 2.206360 -0.036170 
#    z 0.035690 -0.036170 1.926340 
# 
# From -- ./inp_files/251555.got.cif
#   From: 2010.05.17/outbox.cif.g08.bks.cpg/sg2_126_cif.got.tgz:251555.got - 2010.06.03 11:33:40.
