data_PCOD9110768
_publ_section_title
;
Structure prediction by ZEFSAII (Michael W. Deem and Ramdas Pophale) SiO2 
 PCOD9110768
Probable space group: P -1
;
_chemical_formula_sum "Si O2"
_cell_formula_units_Z 14
_cell_length_a 14.263922
_cell_length_b 15.393676
_cell_length_c 10.681395
_cell_angle_alpha 43.085580
_cell_angle_beta 107.365415
_cell_angle_gamma 143.363243
_cell_volume 677.548897
_symmetry_space_group_name_H-M "P -1"
_symmetry_group_IT_number 2
_symmetry_cell_setting 'triclinic'
loop_
_space_group_symop_operation_xyz
x,y,z
-x,-y,-z
loop_
_atom_site_type_symbol
_atom_site_label
_atom_site_fract_x
_atom_site_fract_y
_atom_site_fract_z
Si Si1 0.267613 0.048873 0.803788
Si Si2 0.818866 0.349031 0.996095
Si Si3 0.389645 0.694426 0.465370
Si Si4 0.160339 0.660344 0.276393
Si Si5 0.066144 0.283434 0.199774
Si Si6 0.012855 0.084107 0.047751
Si Si7 0.750426 0.755264 0.800328
O O1 0.496949 0.297624 0.560484
O O2 0.065064 0.807812 0.874905
O O3 0.268388 0.924760 0.021782
O O4 0.214256 0.114583 0.787769
O O5 0.900264 0.441351 0.786485
O O6 0.795902 0.462525 0.924762
O O7 0.000000 0.500000 0.000000
O O8 0.594620 0.006629 0.281435
O O9 0.300122 0.699147 0.331525
O O10 0.188071 0.404902 0.769392
O O11 0.000000 0.500000 0.500000
O O12 0.219914 0.347237 0.146236
O O13 0.867934 0.993360 0.507854
O O14 0.105345 0.093424 0.176182
O O15 0.000000 0.000000 0.000000
O O16 0.500000 0.500000 0.000000
#
# Coordination Sequence:
#
# PCOD9110768 Si02
#       7
#     2   2   2   2   2   2   2
#     4  10  20  42  66  90 131 163 213 270 322 378
#     4  11  22  41  70  97 127 175 217 266 332 393
#     4  11  23  42  67  95 134 169 210 269 336 384
#     4  11  22  41  64  97 136 168 209 273 327 389
#     4  10  21  42  65  93 127 165 214 273 316 381
#     4  11  25  43  63  93 127 173 218 263 321 391
#     4  10  23  43  65  90 127 169 216 272 317 374
#
# _framework density 20.662714999999999
#
# number of rings (size 3 to 8) (size 9 to 14) (size 15 to 20)
#    0.000    1.429    4.286    2.571    2.000    0.571 
#    7.714    3.571    0.000    0.000    0.000    0.000 
#    0.000    0.000    0.000    0.000    0.000    0.000 
#
# Total GULP energy -78038.744649 kJ/mol
# GULP energy per Si atom -5574.196046 kJ/mol
# Density = 2.061569 g / cm^3
# Si number density = 20.662715 Si / 1000 Ang^3
#
#
#
# Elastic Constant Matrix: (Units=GPa)
#
#
# Indices 1 2 3 4 5 6 
#
# 1 119.5855 42.1902 26.0431 -10.2310 -25.9924 -3.5207
# 2 42.1902 88.6469 26.6885 11.7214 -5.5157 -9.2592
# 3 26.0431 26.6885 75.2883 1.1479 -7.5806 7.6589
# 4 -10.2310 11.7214 1.1479 23.9575 3.4259 0.8542
# 5 -25.9924 -5.5157 -7.5806 3.4259 31.8599 3.2757
# 6 -3.5207 -9.2592 7.6589 0.8542 3.2757 46.2465
#
#
#
# Elastic Compliance Matrix: (Units=1/GPa)
#
#
# Indices 1 2 3 4 5 6 
#
# 1 0.013579 -0.006581 -0.001515 0.007859 0.008816 -0.000803
# 2 -0.006581 0.017453 -0.004430 -0.010905 -0.002652 0.004116
# 3 -0.001515 -0.004430 0.015969 0.000587 0.002125 -0.003808
# 4 0.007859 -0.010905 0.000587 0.050569 -0.000509 -0.002580
# 5 0.008816 -0.002652 0.002125 -0.000509 0.038986 -0.002964
# 6 -0.000803 0.004116 -0.003808 -0.002580 -0.002964 0.023275
#
#
# Mechanical properties :
#
#
# Convention : Reuss Voigt Hill
#
# Bulk Modulus (GPa) = 45.55880 52.59602 49.07741
# Shear Modulus (GPa) = 26.01475 32.98603 29.50039
#
# Velocity S-wave (km/s) = 3.55212 3.99984 3.78261
# Velocity P-wave (km/s) = 6.23859 6.84408 6.54834
#
# Compressibility (1/GPa) = 0.02194966
#
# Stress axis : x y z
#
# Youngs Moduli (GPa) = 73.64401 57.29522 62.62110
#
# Poissons Ratio (x) = 0.37707 0.09485
# Poissons Ratio (y) = 0.48466 0.27741
# Poissons Ratio (z) = 0.11155 0.25382
#
# Static dielectric constant tensor:
#      x y z
#    x 1.797570 -0.021520 -0.002890 
#    y -0.021520 1.736560 0.003400 
#    z -0.002890 0.003400 1.739130 
# 
# From -- ./inp_files/314716.got.cif
#   From: 2010.05.17/outbox.cif.g08.bks.cpg/sg2_158_cif.got.tgz:314716.got - 2010.06.03 11:33:40.
