data_PCOD9110228
_publ_section_title
;
Structure prediction by ZEFSAII (Michael W. Deem and Ramdas Pophale) SiO2 
 PCOD9110228
Probable space group: P -1
;
_chemical_formula_sum "Si O2"
_cell_formula_units_Z 14
_cell_length_a 10.393691
_cell_length_b 6.964767
_cell_length_c 13.650513
_cell_angle_alpha 60.004742
_cell_angle_beta 129.299350
_cell_angle_gamma 136.683348
_cell_volume 523.169434
_symmetry_space_group_name_H-M "P -1"
_symmetry_group_IT_number 2
_symmetry_cell_setting 'triclinic'
loop_
_space_group_symop_operation_xyz
x,y,z
-x,-y,-z
loop_
_atom_site_type_symbol
_atom_site_label
_atom_site_fract_x
_atom_site_fract_y
_atom_site_fract_z
Si Si1 0.998957 0.792300 0.477481
Si Si2 0.705070 0.068203 0.808369
Si Si3 0.745526 0.847592 0.205233
Si Si4 0.289727 0.410790 0.014857
Si Si5 0.242387 0.728588 0.750614
Si Si6 0.329455 0.057168 0.395297
Si Si7 0.177944 0.372478 0.189898
O O1 0.042158 0.621550 0.613089
O O2 0.799482 0.676002 0.341700
O O3 0.192195 0.944455 0.456269
O O4 0.000000 0.000000 0.500000
O O5 0.800678 0.374065 0.813364
O O6 0.763903 0.891728 0.938390
O O7 0.453982 0.882395 0.750023
O O8 0.762350 0.069552 0.723831
O O9 0.540906 0.647000 0.092145
O O10 0.780079 0.500914 0.132273
O O11 0.714579 0.029225 0.217376
O O12 0.199413 0.422415 0.071820
O O13 0.041692 0.916414 0.809850
O O14 0.361482 0.351416 0.320676
O O15 0.500000 0.000000 0.500000
#
# Coordination Sequence:
#
# PCOD9110228 Si02
#       7
#     2   2   2   2   2   2   2
#     4   9  20  41  73 107 148 188 247 307 376 440
#     4  11  23  43  71 106 145 197 245 307 372 444
#     4  10  22  45  73 105 145 192 245 315 370 440
#     4  11  24  45  74 104 146 198 254 303 371 452
#     4  11  21  43  72 103 145 202 245 304 376 447
#     4  10  20  41  71 107 142 193 249 304 366 444
#     4  10  24  45  71 107 150 192 249 312 377 442
#
# _framework density 26.759975000000001
#
# number of rings (size 3 to 8) (size 9 to 14) (size 15 to 20)
#    0.000    1.714    2.857    0.857    0.000    1.143 
#    7.714    2.857    0.000    0.000    0.000    0.000 
#    0.000    0.000    0.000    0.000    0.000    0.000 
#
# Total GULP energy -78492.917605 kJ/mol
# GULP energy per Si atom -5606.636972 kJ/mol
# Density = 2.669907 g / cm^3
# Si number density = 26.759975 Si / 1000 Ang^3
#
#
#
# Elastic Constant Matrix: (Units=GPa)
#
#
# Indices 1 2 3 4 5 6 
#
# 1 166.9751 49.0725 54.9274 -13.0743 -13.4749 -23.7546
# 2 49.0725 176.6695 90.7860 -25.6940 2.5187 -28.6625
# 3 54.9274 90.7860 218.4774 -51.5512 3.4567 13.5724
# 4 -13.0743 -25.6940 -51.5512 43.5682 -0.3633 -0.8160
# 5 -13.4749 2.5187 3.4567 -0.3633 52.6989 2.8396
# 6 -23.7546 -28.6625 13.5724 -0.8160 2.8396 45.4639
#
#
#
# Elastic Compliance Matrix: (Units=1/GPa)
#
#
# Indices 1 2 3 4 5 6 
#
# 1 0.007512 -0.000417 -0.002091 -0.000373 0.001851 0.004164
# 2 -0.000417 0.008936 -0.003839 0.000721 -0.000633 0.006614
# 3 -0.002091 -0.003839 0.008836 0.007446 -0.000557 -0.005982
# 4 -0.000373 0.000721 0.007446 0.032048 -0.000323 -0.001368
# 5 0.001851 -0.000633 -0.000557 -0.000323 0.019540 -0.000492
# 6 0.004164 0.006614 -0.005982 -0.001368 -0.000492 0.030133
#
#
# Mechanical properties :
#
#
# Convention : Reuss Voigt Hill
#
# Bulk Modulus (GPa) = 79.43576 105.74376 92.58976
# Shear Modulus (GPa) = 40.35639 52.83526 46.59583
#
# Velocity S-wave (km/s) = 3.88762 4.44826 4.17736
# Velocity P-wave (km/s) = 7.06403 8.12306 7.61198
#
# Compressibility (1/GPa) = 0.01258879
#
# Stress axis : x y z
#
# Youngs Moduli (GPa) = 133.12096 111.90768 113.17734
#
# Poissons Ratio (x) = 0.04666 0.23668
# Poissons Ratio (y) = 0.05550 0.43452
# Poissons Ratio (z) = 0.27838 0.42964
#
# Static dielectric constant tensor:
#      x y z
#    x 2.129200 0.025280 0.056870 
#    y 0.025280 2.067460 -0.026250 
#    z 0.056870 -0.026250 2.086790 
# 
# From -- ./inp_files/510340.got.cif
#   From: 2010.05.17/outbox.cif.g08.bks.cpg/sg2_256_cif.got.tgz:510340.got - 2010.06.03 11:33:40.
