data_PCOD9110893
_publ_section_title
;
Structure prediction by ZEFSAII (Michael W. Deem and Ramdas Pophale) SiO2 
 PCOD9110893
Probable space group: P -1
;
_chemical_formula_sum "Si O2"
_cell_formula_units_Z 16
_cell_length_a 9.282603
_cell_length_b 11.956170
_cell_length_c 11.496604
_cell_angle_alpha 97.362914
_cell_angle_beta 128.054348
_cell_angle_gamma 58.941990
_cell_volume 825.887674
_symmetry_space_group_name_H-M "P -1"
_symmetry_group_IT_number 2
_symmetry_cell_setting 'triclinic'
loop_
_space_group_symop_operation_xyz
x,y,z
-x,-y,-z
loop_
_atom_site_type_symbol
_atom_site_label
_atom_site_fract_x
_atom_site_fract_y
_atom_site_fract_z
Si Si1 0.294328 0.507799 0.840759
Si Si2 0.535094 0.013015 0.880834
Si Si3 0.493590 0.746971 0.247267
Si Si4 0.010003 0.826293 0.979062
Si Si5 0.911121 0.825078 0.688598
Si Si6 0.005082 0.436053 0.113925
Si Si7 0.224408 0.971688 0.558308
Si Si8 0.585330 0.753307 0.563231
O O1 0.376344 0.403461 0.762874
O O2 0.100194 0.665415 0.738222
O O3 0.189882 0.464566 0.882493
O O4 0.500000 0.500000 0.000000
O O5 0.389528 0.969141 0.734602
O O6 0.794222 0.915057 0.962069
O O7 0.472446 0.155892 0.807894
O O8 0.500000 0.000000 0.000000
O O9 0.568138 0.735693 0.416055
O O10 0.234845 0.803556 0.131012
O O11 0.981835 0.879437 0.838545
O O12 0.031356 0.683952 0.949966
O O13 0.689951 0.842600 0.629263
O O14 0.850432 0.907723 0.553289
O O15 0.231440 0.377091 0.289552
O O16 0.000000 0.500000 0.000000
O O17 0.359209 0.833781 0.531288
O O18 0.000000 0.000000 0.500000
#
# Coordination Sequence:
#
# PCOD9110893 Si02
#       8
#     2   2   2   2   2   2   2   2
#     4  10  21  40  65  95 124 167 221 254 316 387
#     4  12  27  41  62 100 133 165 212 276 324 375
#     4  12  23  41  69  96 127 168 222 267 309 393
#     4  10  22  43  65  93 126 173 217 249 326 387
#     4  10  20  42  67  87 123 177 213 255 315 391
#     4  10  22  41  69  90 129 176 207 264 326 385
#     4  12  25  42  64  94 132 167 212 268 330 379
#     4  10  22  43  66  90 124 173 216 257 321 375
#
# _framework density 19.373093000000001
#
# number of rings (size 3 to 8) (size 9 to 14) (size 15 to 20)
#    0.000    1.500    6.250    1.500    5.250    3.000 
#    0.000    0.625    0.000    0.000    0.000    0.000 
#    0.000    0.000    0.000    0.000    0.000    0.000 
#
# Total GULP energy -89202.004749 kJ/mol
# GULP energy per Si atom -5575.125297 kJ/mol
# Density = 1.932900 g / cm^3
# Si number density = 19.373093 Si / 1000 Ang^3
#
#
#
# Elastic Constant Matrix: (Units=GPa)
#
#
# Indices 1 2 3 4 5 6 
#
# 1 130.8214 37.3209 65.1962 -11.3826 -10.5905 -26.1647
# 2 37.3209 61.2342 30.5056 4.8912 -6.8390 -23.5444
# 3 65.1962 30.5056 133.7395 -1.1057 -26.6672 -4.5533
# 4 -11.3826 4.8912 -1.1057 20.3830 -2.2938 2.1155
# 5 -10.5905 -6.8390 -26.6672 -2.2938 41.3283 -3.5655
# 6 -26.1647 -23.5444 -4.5533 2.1155 -3.5655 28.2895
#
#
#
# Elastic Compliance Matrix: (Units=1/GPa)
#
#
# Indices 1 2 3 4 5 6 
#
# 1 0.013640 -0.002478 -0.005578 0.007028 0.000671 0.009214
# 2 -0.002478 0.030201 -0.004393 -0.010960 0.002932 0.023326
# 3 -0.005578 -0.004393 0.011987 -0.000198 0.005030 -0.006237
# 4 0.007028 -0.010960 -0.000198 0.056560 0.002432 -0.006576
# 5 0.000671 0.002932 0.005030 0.002432 0.028866 0.007327
# 6 0.009214 0.023326 -0.006237 -0.006576 0.007327 0.063695
#
#
# Mechanical properties :
#
#
# Convention : Reuss Voigt Hill
#
# Bulk Modulus (GPa) = 32.33070 65.76007 49.04538
# Shear Modulus (GPa) = 20.81974 30.85167 25.83570
#
# Velocity S-wave (km/s) = 3.28178 3.99494 3.65579
# Velocity P-wave (km/s) = 5.57537 7.43621 6.57198
#
# Compressibility (1/GPa) = 0.03093036
#
# Stress axis : x y z
#
# Youngs Moduli (GPa) = 73.31633 33.11186 83.42045
#
# Poissons Ratio (x) = 0.08204 0.46535
# Poissons Ratio (y) = 0.18165 0.36644
# Poissons Ratio (z) = 0.40899 0.14545
#
# Static dielectric constant tensor:
#      x y z
#    x 1.690660 -0.001580 -0.011040 
#    y -0.001580 1.720490 -0.018590 
#    z -0.011040 -0.018590 1.719160 
# 
# From -- ./inp_files/390516.got.cif
#   From: 2010.05.17/outbox.cif.g08.bks.cpg/sg2_196_cif.got.tgz:390516.got - 2010.06.03 11:33:40.
