data_PCOD9110405
_publ_section_title
;
Structure prediction by ZEFSAII (Michael W. Deem and Ramdas Pophale) SiO2 
 PCOD9110405
Probable space group: P -1
;
_chemical_formula_sum "Si O2"
_cell_formula_units_Z 16
_cell_length_a 13.243966
_cell_length_b 8.862258
_cell_length_c 12.483654
_cell_angle_alpha 122.597055
_cell_angle_beta 93.430977
_cell_angle_gamma 44.393575
_cell_volume 720.323064
_symmetry_space_group_name_H-M "P -1"
_symmetry_group_IT_number 2
_symmetry_cell_setting 'triclinic'
loop_
_space_group_symop_operation_xyz
x,y,z
-x,-y,-z
loop_
_atom_site_type_symbol
_atom_site_label
_atom_site_fract_x
_atom_site_fract_y
_atom_site_fract_z
Si Si1 0.386209 0.821915 0.560217
Si Si2 0.380623 0.425959 0.719986
Si Si3 0.029414 0.779429 0.844461
Si Si4 0.282782 0.941135 0.967846
Si Si5 0.460602 0.804882 0.126453
Si Si6 0.821210 0.148504 0.556069
Si Si7 0.472578 0.890999 0.799157
Si Si8 0.120412 0.159944 0.347639
O O1 0.500000 0.500000 0.500000
O O2 0.471062 0.784137 0.442209
O O3 0.212222 0.964462 0.574009
O O4 0.388683 0.966369 0.707465
O O5 0.233887 0.485997 0.721906
O O6 0.304557 0.734871 0.816931
O O7 0.416638 0.374719 0.830562
O O8 0.950228 0.880303 0.759328
O O9 0.000000 0.000000 0.000000
O O10 0.913112 0.792156 0.898607
O O11 0.335494 0.031152 0.933610
O O12 0.429929 0.722767 0.988780
O O13 0.484254 0.964477 0.138559
O O14 0.279828 0.033985 0.259310
O O15 0.651990 0.520342 0.681882
O O16 0.824942 0.037257 0.624623
O O17 0.000000 0.000000 0.500000
O O18 0.000000 0.500000 0.500000
#
# Coordination Sequence:
#
# PCOD9110405 Si02
#       8
#     2   2   2   2   2   2   2   2
#     4  10  21  38  61  89 122 157 202 251 309 365
#     4  11  20  40  65  91 121 160 211 254 315 365
#     4   9  23  38  64  92 122 166 204 259 312 373
#     4  10  20  42  61  86 126 164 210 250 309 373
#     4  11  23  38  61  93 121 165 205 259 310 366
#     4  11  23  39  61  91 122 165 203 253 314 370
#     4  11  23  40  63  89 126 166 205 252 313 373
#     4  11  23  40  61  93 128 159 209 265 307 369
#
# _framework density 22.212254000000001
#
# number of rings (size 3 to 8) (size 9 to 14) (size 15 to 20)
#    0.000    1.500    3.750    1.500    5.250    3.500 
#    0.000    0.625    0.000    0.000    0.000    0.000 
#    0.000    0.000    0.000    0.000    0.000    0.000 
#
# Total GULP energy -89109.626068 kJ/mol
# GULP energy per Si atom -5569.351629 kJ/mol
# Density = 2.216170 g / cm^3
# Si number density = 22.212254 Si / 1000 Ang^3
#
#
#
# Elastic Constant Matrix: (Units=GPa)
#
#
# Indices 1 2 3 4 5 6 
#
# 1 172.8694 58.0692 39.6938 -17.8864 -28.9610 -23.3492
# 2 58.0692 61.4296 19.8570 -21.4961 -2.7442 -2.5219
# 3 39.6938 19.8570 50.2108 -25.7969 -7.8807 -1.8592
# 4 -17.8864 -21.4961 -25.7969 26.8134 -2.4169 1.8986
# 5 -28.9610 -2.7442 -7.8807 -2.4169 37.7596 -8.7432
# 6 -23.3492 -2.5219 -1.8592 1.8986 -8.7432 41.8009
#
#
#
# Elastic Compliance Matrix: (Units=1/GPa)
#
#
# Indices 1 2 3 4 5 6 
#
# 1 0.013968 -0.012789 -0.008997 -0.009383 0.009395 0.009022
# 2 -0.012789 0.034812 0.010520 0.029556 -0.004794 -0.006921
# 3 -0.008997 0.010520 0.050511 0.051876 0.007025 -0.003031
# 4 -0.009383 0.029556 0.051876 0.105947 0.011748 -0.003506
# 5 0.009395 -0.004794 0.007025 0.011748 0.038521 0.012794
# 6 0.009022 -0.006921 -0.003031 -0.003506 0.012794 0.031245
#
#
# Mechanical properties :
#
#
# Convention : Reuss Voigt Hill
#
# Bulk Modulus (GPa) = 13.02786 57.74997 35.38892
# Shear Modulus (GPa) = 15.47388 32.40076 23.93732
#
# Velocity S-wave (km/s) = 2.64225 3.82342 3.28634
# Velocity P-wave (km/s) = 3.89699 6.74885 5.51061
#
# Compressibility (1/GPa) = 0.07675857
#
# Stress axis : x y z
#
# Youngs Moduli (GPa) = 71.59074 28.72539 19.79758
#
# Poissons Ratio (x) = 0.36738 0.17812
# Poissons Ratio (y) = 0.91560 -0.20826
# Poissons Ratio (z) = 0.64410 -0.30218
#
# Static dielectric constant tensor:
#      x y z
#    x 1.794310 -0.027330 -0.000860 
#    y -0.027330 1.791280 -0.036850 
#    z -0.000860 -0.036850 1.827680 
# 
# From -- ./inp_files/209393.got.cif
#   From: 2010.05.17/outbox.cif.g08.bks.cpg/sg2_105_cif.got.tgz:209393.got - 2010.06.03 11:33:40.
