data_PCOD9110888
_publ_section_title
;
Structure prediction by ZEFSAII (Michael W. Deem and Ramdas Pophale) SiO2 
 PCOD9110888
Probable space group: P -1
;
_chemical_formula_sum "Si O2"
_cell_formula_units_Z 14
_cell_length_a 14.525818
_cell_length_b 10.816232
_cell_length_c 16.636786
_cell_angle_alpha 151.035334
_cell_angle_beta 152.319396
_cell_angle_gamma 33.061092
_cell_volume 564.267702
_symmetry_space_group_name_H-M "P -1"
_symmetry_group_IT_number 2
_symmetry_cell_setting 'triclinic'
loop_
_space_group_symop_operation_xyz
x,y,z
-x,-y,-z
loop_
_atom_site_type_symbol
_atom_site_label
_atom_site_fract_x
_atom_site_fract_y
_atom_site_fract_z
Si Si1 0.217986 0.792457 0.757677
Si Si2 0.054316 0.528713 0.235973
Si Si3 0.609205 0.120259 0.721333
Si Si4 0.963891 0.611156 0.681924
Si Si5 0.851833 0.312909 0.756409
Si Si6 0.279988 0.902454 0.041692
Si Si7 0.619590 0.582467 0.877537
O O1 0.152467 0.518630 0.547726
O O2 0.330377 0.847815 0.956802
O O3 0.390138 0.777502 0.813637
O O4 0.999040 0.016745 0.712785
O O5 0.041356 0.561379 0.340241
O O6 0.199847 0.635671 0.348718
O O7 0.824472 0.667115 0.103574
O O8 0.129142 0.206746 0.098011
O O9 0.619495 0.392476 0.845877
O O10 0.500000 0.000000 0.500000
O O11 0.831502 0.907286 0.770577
O O12 0.550917 0.121039 0.770478
O O13 0.172912 0.670995 0.850941
O O14 0.668665 0.409358 0.734628
O O15 0.000000 0.500000 0.000000
#
# Coordination Sequence:
#
# PCOD9110888 Si02
#       7
#     2   2   2   2   2   2   2
#     4  12  24  38  66 102 124 168 221 261 311 391
#     4  10  20  42  67  86 126 181 209 260 323 378
#     4  11  20  39  64  95 133 167 204 267 326 381
#     4  11  21  38  67  95 132 166 215 262 321 384
#     4  10  22  43  65  88 128 176 217 259 324 370
#     4  11  21  40  64  94 129 173 208 255 334 383
#     4  11  21  40  65  93 128 166 214 264 321 366
#
# _framework density 24.810918999999998
#
# number of rings (size 3 to 8) (size 9 to 14) (size 15 to 20)
#    0.000    1.143    7.143    1.286    0.000    3.429 
#    0.000    0.714    0.000    0.000    0.000    0.000 
#    0.000    0.000    0.000    0.000    0.000    0.000 
#
# Total GULP energy -78040.131905 kJ/mol
# GULP energy per Si atom -5574.295136 kJ/mol
# Density = 2.475445 g / cm^3
# Si number density = 24.810919 Si / 1000 Ang^3
#
#
#
# Elastic Constant Matrix: (Units=GPa)
#
#
# Indices 1 2 3 4 5 6 
#
# 1 125.3635 59.8908 8.2317 -8.5231 -18.7276 -9.6922
# 2 59.8908 93.4066 11.7611 7.1688 -15.3265 -7.4052
# 3 8.2317 11.7611 58.8675 -3.6813 -17.6924 -5.0641
# 4 -8.5231 7.1688 -3.6813 26.6996 0.5752 -3.5000
# 5 -18.7276 -15.3265 -17.6924 0.5752 15.9762 1.4491
# 6 -9.6922 -7.4052 -5.0641 -3.5000 1.4491 41.6004
#
#
#
# Elastic Compliance Matrix: (Units=1/GPa)
#
#
# Indices 1 2 3 4 5 6 
#
# 1 0.014054 -0.007716 0.004235 0.007192 0.013271 0.002559
# 2 -0.007716 0.017523 -0.000671 -0.007369 0.007254 0.000367
# 3 0.004235 -0.000671 0.027414 0.005026 0.034186 0.003436
# 4 0.007192 -0.007369 0.005026 0.042892 0.004983 0.004411
# 5 0.013271 0.007254 0.034186 0.004983 0.122362 0.004702
# 6 0.002559 0.000367 0.003436 0.004411 0.004702 0.025325
#
#
# Mechanical properties :
#
#
# Convention : Reuss Voigt Hill
#
# Bulk Modulus (GPa) = 19.72919 48.60052 34.16486
# Shear Modulus (GPa) = 18.19708 30.03886 24.11797
#
# Velocity S-wave (km/s) = 2.71113 3.48330 3.12119
# Velocity P-wave (km/s) = 4.21537 5.98404 5.17582
#
# Compressibility (1/GPa) = 0.05068632
#
# Stress axis : x y z
#
# Youngs Moduli (GPa) = 71.15251 57.06867 36.47819
#
# Poissons Ratio (x) = 0.44035 -0.15448
# Poissons Ratio (y) = 0.54902 0.02447
# Poissons Ratio (z) = -0.30131 0.03828
#
# Static dielectric constant tensor:
#      x y z
#    x 2.102410 -0.026610 0.010790 
#    y -0.026610 2.037030 -0.051730 
#    z 0.010790 -0.051730 2.020060 
# 
# From -- ./inp_files/181016.got.cif
#   From: 2010.05.17/outbox.cif.g08.bks.cpg/sg2_91_cif.got.tgz:181016.got - 2010.06.03 11:33:40.
