data_PCOD9110390
_publ_section_title
;
Structure prediction by ZEFSAII (Michael W. Deem and Ramdas Pophale) SiO2 
 PCOD9110390
Probable space group: P -1
;
_chemical_formula_sum "Si O2"
_cell_formula_units_Z 14
_cell_length_a 10.911886
_cell_length_b 5.205329
_cell_length_c 14.840554
_cell_angle_alpha 74.361910
_cell_angle_beta 39.568622
_cell_angle_gamma 75.074568
_cell_volume 515.375388
_symmetry_space_group_name_H-M "P -1"
_symmetry_group_IT_number 2
_symmetry_cell_setting 'triclinic'
loop_
_space_group_symop_operation_xyz
x,y,z
-x,-y,-z
loop_
_atom_site_type_symbol
_atom_site_label
_atom_site_fract_x
_atom_site_fract_y
_atom_site_fract_z
Si Si1 0.249522 0.713688 0.888810
Si Si2 0.823188 0.826524 0.368688
Si Si3 0.908707 0.656260 0.667091
Si Si4 0.538943 0.276235 0.828634
Si Si5 0.220283 0.027289 0.133968
Si Si6 0.751934 0.972479 0.574695
Si Si7 0.813525 0.684503 0.192528
O O1 0.425288 0.565163 0.857135
O O2 0.254516 0.557271 0.804868
O O3 0.248611 0.027990 0.843723
O O4 0.047538 0.657364 0.055848
O O5 0.940368 0.589884 0.379242
O O6 0.677597 0.946007 0.516967
O O7 0.749470 0.705532 0.330424
O O8 0.002096 0.004923 0.225287
O O9 0.799587 0.700408 0.630733
O O10 0.043483 0.906798 0.569902
O O11 0.779355 0.721203 0.821912
O O12 0.691684 0.218615 0.829355
O O13 0.636025 0.172419 0.690187
O O14 0.369774 0.082166 0.966959
#
# Coordination Sequence:
#
# PCOD9110390 Si02
#       7
#     2   2   2   2   2   2   2
#     4  10  23  44  65  93 127 171 217 272 314 383
#     4  11  21  37  65  93 122 168 217 266 305 393
#     4   9  18  37  59  87 125 170 210 255 311 392
#     4  10  20  42  60  93 135 163 205 268 331 380
#     4   9  21  37  62  96 126 163 209 263 329 381
#     4   9  20  36  58  90 129 167 205 255 328 387
#     4  10  24  41  69  92 123 172 227 261 317 376
#
# _framework density 27.164667999999999
#
# number of rings (size 3 to 8) (size 9 to 14) (size 15 to 20)
#    0.000    2.286    0.000    2.143   10.000    0.000 
#    7.714    5.714    0.000    0.000    0.000    0.000 
#    0.000    0.000    0.000    0.000    0.000    0.000 
#
# Total GULP energy -78412.895645 kJ/mol
# GULP energy per Si atom -5600.921117 kJ/mol
# Density = 2.710284 g / cm^3
# Si number density = 27.164668 Si / 1000 Ang^3
#
#
#
# Elastic Constant Matrix: (Units=GPa)
#
#
# Indices 1 2 3 4 5 6 
#
# 1 95.2663 30.6732 51.9369 9.1269 18.6747 1.3259
# 2 30.6732 90.1405 12.8629 24.5238 2.6998 -20.2510
# 3 51.9369 12.8629 125.0826 22.8214 34.8148 -0.4434
# 4 9.1269 24.5238 22.8214 33.9297 8.1610 0.1855
# 5 18.6747 2.6998 34.8148 8.1610 52.7898 18.5625
# 6 1.3259 -20.2510 -0.4434 0.1855 18.5625 41.1116
#
#
#
# Elastic Compliance Matrix: (Units=1/GPa)
#
#
# Indices 1 2 3 4 5 6 
#
# 1 0.016008 -0.006753 -0.006852 0.005269 -0.000271 -0.003818
# 2 -0.006753 0.019314 0.004383 -0.014373 -0.003244 0.011309
# 3 -0.006852 0.004383 0.014288 -0.009045 -0.008001 0.006187
# 4 0.005269 -0.014373 -0.009045 0.044391 0.000746 -0.007885
# 5 -0.000271 -0.003244 -0.008001 0.000746 0.029666 -0.015074
# 6 -0.003818 0.011309 0.006187 -0.007885 -0.015074 0.036926
#
#
# Mechanical properties :
#
#
# Convention : Reuss Voigt Hill
#
# Bulk Modulus (GPa) = 32.08502 55.71503 43.90003
# Shear Modulus (GPa) = 26.39551 39.90065 33.14808
#
# Velocity S-wave (km/s) = 3.12057 3.83671 3.49702
# Velocity P-wave (km/s) = 4.98206 6.33891 5.70099
#
# Compressibility (1/GPa) = 0.03116719
#
# Stress axis : x y z
#
# Youngs Moduli (GPa) = 62.46863 51.77493 69.98851
#
# Poissons Ratio (x) = 0.34962 0.47956
# Poissons Ratio (y) = 0.42183 -0.30677
# Poissons Ratio (z) = 0.42804 -0.22694
#
# Static dielectric constant tensor:
#      x y z
#    x 2.168500 0.062990 -0.010070 
#    y 0.062990 2.163630 -0.059210 
#    z -0.010070 -0.059210 2.099460 
# 
# From -- ./inp_files/107934.got.cif
#   From: 2010.05.17/outbox.cif.g08.bks.cpg/sg2_54_cif.got.tgz:107934.got - 2010.06.03 11:33:40.
