data_PCOD9110642
_publ_section_title
;
Structure prediction by ZEFSAII (Michael W. Deem and Ramdas Pophale) SiO2 
 PCOD9110642
Probable space group: P -1
;
_chemical_formula_sum "Si O2"
_cell_formula_units_Z 15
_cell_length_a 13.554874
_cell_length_b 17.511157
_cell_length_c 11.899782
_cell_angle_alpha 32.176525
_cell_angle_beta 31.139946
_cell_angle_gamma 30.654384
_cell_volume 676.678280
_symmetry_space_group_name_H-M "P -1"
_symmetry_group_IT_number 2
_symmetry_cell_setting 'triclinic'
loop_
_space_group_symop_operation_xyz
x,y,z
-x,-y,-z
loop_
_atom_site_type_symbol
_atom_site_label
_atom_site_fract_x
_atom_site_fract_y
_atom_site_fract_z
Si Si1 0.706164 0.717317 0.737150
Si Si2 0.500000 0.500000 0.500000
Si Si3 0.069840 0.573197 0.944103
Si Si4 0.754691 0.530461 0.706022
Si Si5 0.957722 0.884068 0.769867
Si Si6 0.664266 0.158274 0.882405
Si Si7 0.324495 0.740759 0.773064
Si Si8 0.927088 0.930190 0.262147
O O1 0.644155 0.650076 0.771997
O O2 0.832990 0.813751 0.461084
O O3 0.861698 0.556139 0.859996
O O4 0.499070 0.834039 0.870719
O O5 0.272234 0.591620 0.679285
O O6 0.533556 0.321257 0.733802
O O7 0.900446 0.756896 0.922012
O O8 0.000000 0.500000 0.000000
O O9 0.587125 0.627216 0.647869
O O10 0.000000 0.500000 0.500000
O O11 0.750882 0.363321 0.943851
O O12 0.182224 0.776752 0.754955
O O13 0.774923 0.997232 0.898040
O O14 0.000000 0.000000 0.500000
O O15 0.863225 0.166569 0.740878
O O16 0.250682 0.916071 0.683509
O O17 0.000000 0.000000 0.000000
#
# Coordination Sequence:
#
# PCOD9110642 Si02
#       8
#     2   1   2   2   2   2   2   2
#     4  11  24  42  67 103 133 181 231 284 341 414
#     4  10  20  42  64  98 132 182 220 278 340 406
#     4  11  23  43  68 100 137 177 235 285 341 418
#     4  11  23  44  68 100 137 181 227 283 347 410
#     4  11  22  45  72 101 139 188 228 286 349 411
#     4  10  23  41  70  95 142 178 229 280 345 402
#     4  10  24  42  65  99 136 175 229 279 340 414
#     4  11  23  42  67  97 134 179 222 283 343 402
#
# _framework density 22.167107999999999
#
# number of rings (size 3 to 8) (size 9 to 14) (size 15 to 20)
#    0.000    1.333    2.667    2.400    1.867    5.333 
#    2.400    4.000    0.000    0.000    0.000    0.000 
#    0.000    0.000    0.000    0.000    0.000    0.000 
#
# Total GULP energy -83622.215654 kJ/mol
# GULP energy per Si atom -5574.814377 kJ/mol
# Density = 2.211665 g / cm^3
# Si number density = 22.167108 Si / 1000 Ang^3
#
#
#
# Elastic Constant Matrix: (Units=GPa)
#
#
# Indices 1 2 3 4 5 6 
#
# 1 68.6265 37.5858 5.9242 -14.5519 2.3570 7.6394
# 2 37.5858 91.2837 18.9177 11.7563 -8.9518 11.4855
# 3 5.9242 18.9177 87.9640 1.5871 -6.5740 -0.2022
# 4 -14.5519 11.7563 1.5871 31.1745 5.7758 -3.0808
# 5 2.3570 -8.9518 -6.5740 5.7758 23.1967 -2.0852
# 6 7.6394 11.4855 -0.2022 -3.0808 -2.0852 42.8557
#
#
#
# Elastic Compliance Matrix: (Units=1/GPa)
#
#
# Indices 1 2 3 4 5 6 
#
# 1 0.028514 -0.016029 0.000041 0.022058 -0.014555 0.000091
# 2 -0.016029 0.022291 -0.002348 -0.018717 0.013885 -0.003798
# 3 0.000041 -0.002348 0.012069 -0.000115 0.002610 0.000798
# 4 0.022058 -0.018717 -0.000115 0.054007 -0.022597 0.003867
# 5 -0.014555 0.013885 0.002610 -0.022597 0.056313 0.000001
# 6 0.000091 -0.003798 0.000798 0.003867 0.000001 0.024618
#
#
# Mechanical properties :
#
#
# Convention : Reuss Voigt Hill
#
# Bulk Modulus (GPa) = 38.16231 41.41439 39.78835
# Shear Modulus (GPa) = 20.55774 31.80848 26.18311
#
# Velocity S-wave (km/s) = 3.04863 3.79217 3.44054
# Velocity P-wave (km/s) = 5.44475 6.15609 5.81131
#
# Compressibility (1/GPa) = 0.02620387
#
# Stress axis : x y z
#
# Youngs Moduli (GPa) = 35.07058 44.86084 82.85382
#
# Poissons Ratio (x) = 0.71906 -0.00342
# Poissons Ratio (y) = 0.56214 0.19453
# Poissons Ratio (z) = -0.00145 0.10533
#
# Static dielectric constant tensor:
#      x y z
#    x 1.861040 -0.006970 0.016350 
#    y -0.006970 1.882470 0.041680 
#    z 0.016350 0.041680 1.773570 
# 
# From -- ./inp_files/294260.got.cif
#   From: 2010.05.17/outbox.cif.g08.bks.cpg/sg2_148_cif.got.tgz:294260.got - 2010.06.03 11:33:40.
