data_PCOD9110831
_publ_section_title
;
Structure prediction by ZEFSAII (Michael W. Deem and Ramdas Pophale) SiO2 
 PCOD9110831
Probable space group: P -1
;
_chemical_formula_sum "Si O2"
_cell_formula_units_Z 16
_cell_length_a 22.985282
_cell_length_b 16.607137
_cell_length_c 14.822046
_cell_angle_alpha 35.453158
_cell_angle_beta 21.418249
_cell_angle_gamma 23.296808
_cell_volume 784.430148
_symmetry_space_group_name_H-M "P -1"
_symmetry_group_IT_number 2
_symmetry_cell_setting 'triclinic'
loop_
_space_group_symop_operation_xyz
x,y,z
-x,-y,-z
loop_
_atom_site_type_symbol
_atom_site_label
_atom_site_fract_x
_atom_site_fract_y
_atom_site_fract_z
Si Si1 0.109258 0.079761 0.767554
Si Si2 0.746752 0.280899 0.461052
Si Si3 0.823729 0.791829 0.626403
Si Si4 0.460717 0.103520 0.586923
Si Si5 0.038694 0.308899 0.125285
Si Si6 0.153437 0.362133 0.635111
Si Si7 0.299840 0.003547 0.189118
Si Si8 0.186206 0.644240 0.884800
O O1 0.108017 0.158875 0.602272
O O2 0.388255 0.898917 0.562305
O O3 0.953606 0.254627 0.911355
O O4 0.000000 0.000000 0.000000
O O5 0.464219 0.481156 0.659016
O O6 0.878746 0.209817 0.237147
O O7 0.835504 0.342335 0.344805
O O8 0.764124 0.115051 0.626372
O O9 0.747902 0.930478 0.697225
O O10 0.056673 0.546176 0.542769
O O11 0.582459 0.857280 0.894145
O O12 0.304216 0.297714 0.565792
O O13 0.656586 0.871883 0.469785
O O14 0.274751 0.129835 0.884927
O O15 0.123195 0.210824 0.192418
O O16 0.000000 0.500000 0.000000
O O17 0.903252 0.444477 0.945036
#
# Coordination Sequence:
#
# PCOD9110831 Si02
#       8
#     2   2   2   2   2   2   2   2
#     4  11  24  42  65  94 133 172 224 274 328 395
#     4  11  23  41  66  99 136 169 222 272 332 392
#     4  11  23  42  69  97 133 175 221 277 330 391
#     4  10  22  40  66  94 129 173 218 270 329 395
#     4  12  25  41  68  95 134 177 222 275 331 397
#     4  10  20  42  66  95 129 173 220 270 331 394
#     4  11  24  41  66  98 137 172 223 276 330 391
#     4  10  22  38  68  95 127 176 214 268 329 399
#
# _framework density 20.396972999999999
#
# number of rings (size 3 to 8) (size 9 to 14) (size 15 to 20)
#    0.000    1.250    3.750    1.875    1.750    4.000 
#    0.000    0.625    0.000    0.000    0.000    0.000 
#    0.000    0.000    0.000    0.000    0.000    0.000 
#
# Total GULP energy -89205.514308 kJ/mol
# GULP energy per Si atom -5575.344644 kJ/mol
# Density = 2.035055 g / cm^3
# Si number density = 20.396973 Si / 1000 Ang^3
#
#
#
# Elastic Constant Matrix: (Units=GPa)
#
#
# Indices 1 2 3 4 5 6 
#
# 1 95.5377 57.1097 52.3479 -13.6728 -1.8203 -28.4407
# 2 57.1097 97.7879 46.6500 -19.9008 -6.8355 -21.0402
# 3 52.3479 46.6500 110.8988 -17.9624 -0.6577 -16.3374
# 4 -13.6728 -19.9008 -17.9624 39.1838 -3.0265 2.0335
# 5 -1.8203 -6.8355 -0.6577 -3.0265 45.5249 -6.2276
# 6 -28.4407 -21.0402 -16.3374 2.0335 -6.2276 24.8585
#
#
#
# Elastic Compliance Matrix: (Units=1/GPa)
#
#
# Indices 1 2 3 4 5 6 
#
# 1 0.022641 -0.006566 -0.005096 0.001504 0.002334 0.017459
# 2 -0.006566 0.018139 -0.002622 0.005664 0.003700 0.006581
# 3 -0.005096 -0.002622 0.013016 0.002831 -0.000190 0.000226
# 4 0.001504 0.005664 0.002831 0.030163 0.003898 0.006884
# 5 0.002334 0.003700 -0.000190 0.003898 0.024442 0.011481
# 6 0.017459 0.006581 0.000226 0.006884 0.011481 0.068234
#
#
# Mechanical properties :
#
#
# Convention : Reuss Voigt Hill
#
# Bulk Modulus (GPa) = 39.63800 68.49329 54.06564
# Shear Modulus (GPa) = 23.40671 31.78788 27.59729
#
# Velocity S-wave (km/s) = 3.39124 3.95202 3.68232
# Velocity P-wave (km/s) = 5.89995 7.38090 6.68158
#
# Compressibility (1/GPa) = 0.02522832
#
# Stress axis : x y z
#
# Youngs Moduli (GPa) = 44.16669 55.12994 76.82707
#
# Poissons Ratio (x) = 0.36199 0.39151
# Poissons Ratio (y) = 0.29001 0.20144
# Poissons Ratio (z) = 0.22507 0.14455
#
# Static dielectric constant tensor:
#      x y z
#    x 1.240860 -0.308120 0.014600 
#    y -0.308120 1.556810 0.019080 
#    z 0.014600 0.019080 1.752670 
# 
# From -- ./inp_files/543146.got.cif
#   From: 2010.05.17/outbox.cif.g08.bks.cpg/sg2_272_cif.got.tgz:543146.got - 2010.06.03 11:33:40.
