data_PCOD9110712
_publ_section_title
;
Structure prediction by ZEFSAII (Michael W. Deem and Ramdas Pophale) SiO2 
 PCOD9110712
Probable space group: P -1
;
_chemical_formula_sum "Si O2"
_cell_formula_units_Z 16
_cell_length_a 8.777320
_cell_length_b 9.448192
_cell_length_c 27.203758
_cell_angle_alpha 45.965693
_cell_angle_beta 142.165959
_cell_angle_gamma 106.058387
_cell_volume 782.401608
_symmetry_space_group_name_H-M "P -1"
_symmetry_group_IT_number 2
_symmetry_cell_setting 'triclinic'
loop_
_space_group_symop_operation_xyz
x,y,z
-x,-y,-z
loop_
_atom_site_type_symbol
_atom_site_label
_atom_site_fract_x
_atom_site_fract_y
_atom_site_fract_z
Si Si1 0.408188 0.825876 0.035255
Si Si2 0.369048 0.592659 0.889323
Si Si3 0.318160 0.949615 0.721120
Si Si4 0.634835 0.252439 0.848146
Si Si5 0.424285 0.705826 0.545368
Si Si6 0.656305 0.173547 0.764234
Si Si7 0.355444 0.808711 0.658030
Si Si8 0.385442 0.059897 0.382119
O O1 0.531663 0.618937 0.074452
O O2 0.514977 0.744146 0.139217
O O3 0.500000 0.000000 0.000000
O O4 0.033102 0.970866 0.908170
O O5 0.460818 0.759789 0.849193
O O6 0.990109 0.768884 0.751546
O O7 0.500000 0.500000 0.000000
O O8 0.342605 0.803468 0.714383
O O9 0.492286 0.065823 0.725074
O O10 0.946835 0.159746 0.584264
O O11 0.514252 0.239445 0.767687
O O12 0.564580 0.520413 0.763923
O O13 0.000000 0.000000 0.000000
O O14 0.590601 0.417775 0.665125
O O15 0.492560 0.823183 0.579507
O O16 0.519619 0.789322 0.502296
O O17 0.517718 0.925891 0.650796
O O18 0.000000 0.000000 0.500000
#
# Coordination Sequence:
#
# PCOD9110712 Si02
#       8
#     2   2   2   2   2   2   2   2
#     4  11  25  42  64  93 127 174 226 261 322 403
#     4  11  26  43  64  95 133 174 214 273 332 393
#     4  11  24  41  66  97 132 167 218 274 335 394
#     4  10  23  42  63  95 132 179 222 268 330 396
#     4  10  20  42  65  96 126 173 211 270 337 397
#     4  11  23  41  66  95 133 170 212 278 334 390
#     4  12  22  41  69 101 126 175 232 274 322 402
#     4  10  22  39  70  90 130 168 221 267 332 383
#
# _framework density 20.449857000000002
#
# number of rings (size 3 to 8) (size 9 to 14) (size 15 to 20)
#    0.000    1.250    3.750    1.125    5.250    2.500 
#    0.000    0.625    0.000    0.000    0.000    0.000 
#    0.000    0.000    0.000    0.000    0.000    0.000 
#
# Total GULP energy -89246.283069 kJ/mol
# GULP energy per Si atom -5577.892692 kJ/mol
# Density = 2.040331 g / cm^3
# Si number density = 20.449857 Si / 1000 Ang^3
#
#
#
# Elastic Constant Matrix: (Units=GPa)
#
#
# Indices 1 2 3 4 5 6 
#
# 1 107.5740 19.3286 32.7190 -3.8478 -25.3033 -1.7390
# 2 19.3286 67.5286 28.1925 -6.3132 -6.4577 6.3901
# 3 32.7190 28.1925 86.1487 -8.6755 -20.9252 -2.2063
# 4 -3.8478 -6.3132 -8.6755 23.5248 1.3488 -1.8666
# 5 -25.3033 -6.4577 -20.9252 1.3488 37.8259 1.8069
# 6 -1.7390 6.3901 -2.2063 -1.8666 1.8069 43.0739
#
#
#
# Elastic Compliance Matrix: (Units=1/GPa)
#
#
# Indices 1 2 3 4 5 6 
#
# 1 0.011826 -0.001821 -0.002334 0.000254 0.006281 0.000376
# 2 -0.001821 0.017920 -0.005249 0.002407 -0.001012 -0.002854
# 3 -0.002334 -0.005249 0.016169 0.003925 0.006279 0.001419
# 4 0.000254 0.002407 0.003925 0.044720 0.001074 0.001747
# 5 0.006281 -0.001012 0.006279 0.001074 0.033932 -0.000651
# 6 0.000376 -0.002854 0.001419 0.001747 -0.000651 0.023830
#
#
# Mechanical properties :
#
#
# Convention : Reuss Voigt Hill
#
# Bulk Modulus (GPa) = 36.89402 46.85908 41.87655
# Shear Modulus (GPa) = 28.37004 32.95234 30.66119
#
# Velocity S-wave (km/s) = 3.72869 4.01855 3.87633
# Velocity P-wave (km/s) = 6.05127 6.67049 6.36841
#
# Compressibility (1/GPa) = 0.02710467
#
# Stress axis : x y z
#
# Youngs Moduli (GPa) = 84.56026 55.80479 61.84654
#
# Poissons Ratio (x) = 0.10164 0.14437
# Poissons Ratio (y) = 0.15402 0.32464
# Poissons Ratio (z) = 0.19740 0.29293
#
# Static dielectric constant tensor:
#      x y z
#    x 1.759910 -0.017880 -0.029760 
#    y -0.017880 1.726040 -0.015860 
#    z -0.029760 -0.015860 1.755700 
# 
# From -- ./inp_files/299290.got.cif
#   From: 2010.05.17/outbox.cif.g08.bks.cpg/sg2_150_cif.got.tgz:299290.got - 2010.06.03 11:33:40.
