data_PCOD9110376
_publ_section_title
;
Structure prediction by ZEFSAII (Michael W. Deem and Ramdas Pophale) SiO2 
 PCOD9110376
Probable space group: P -1
;
_chemical_formula_sum "Si O2"
_cell_formula_units_Z 15
_cell_length_a 10.985595
_cell_length_b 10.358348
_cell_length_c 13.759492
_cell_angle_alpha 134.755782
_cell_angle_beta 29.715956
_cell_angle_gamma 128.314770
_cell_volume 550.982611
_symmetry_space_group_name_H-M "P -1"
_symmetry_group_IT_number 2
_symmetry_cell_setting 'triclinic'
loop_
_space_group_symop_operation_xyz
x,y,z
-x,-y,-z
loop_
_atom_site_type_symbol
_atom_site_label
_atom_site_fract_x
_atom_site_fract_y
_atom_site_fract_z
Si Si1 0.500000 0.500000 0.000000
Si Si2 0.719003 0.247066 0.219388
Si Si3 0.545090 0.304728 0.662397
Si Si4 0.472201 0.318401 0.222828
Si Si5 0.540793 0.204737 0.908878
Si Si6 0.010458 0.394798 0.703809
Si Si7 0.871791 0.001504 0.235084
Si Si8 0.785347 0.889127 0.452922
O O1 0.613384 0.381493 0.760364
O O2 0.336487 0.304804 0.044366
O O3 0.633445 0.271000 0.179387
O O4 0.883364 0.418759 0.228695
O O5 0.465915 0.231569 0.446112
O O6 0.874359 0.065670 0.020354
O O7 0.457009 0.479335 0.756127
O O8 0.335214 0.147342 0.733796
O O9 0.768086 0.201110 0.401031
O O10 0.194103 0.327997 0.459065
O O11 0.484409 0.188477 0.052017
O O12 0.728139 0.389533 0.863018
O O13 0.689100 0.043935 0.674647
O O14 0.023319 0.241056 0.697188
O O15 0.879096 0.968237 0.329313
#
# Coordination Sequence:
#
# PCOD9110376 Si02
#       8
#     1   2   2   2   2   2   2   2
#     4  10  20  42  60  86 128 168 210 250 316 372
#     4  11  23  40  66  96 126 165 213 264 317 379
#     4  10  21  40  65  91 129 170 210 265 312 381
#     4  10  22  41  63  91 129 163 213 261 318 380
#     4  11  23  40  63  91 126 170 207 264 317 377
#     4  11  23  40  65  94 125 168 212 260 322 378
#     4  11  22  40  65  95 128 166 215 259 321 374
#     4  11  23  41  65  95 129 161 212 268 315 376
#
# _framework density 27.22409
#
# number of rings (size 3 to 8) (size 9 to 14) (size 15 to 20)
#    0.000    1.333    1.333    6.000    0.000    4.800 
#    2.400    4.667    0.000    0.000    0.000    0.000 
#    0.000    0.000    0.000    0.000    0.000    0.000 
#
# Total GULP energy -83955.735321 kJ/mol
# GULP energy per Si atom -5597.049021 kJ/mol
# Density = 2.716213 g / cm^3
# Si number density = 27.224090 Si / 1000 Ang^3
#
#
#
# Elastic Constant Matrix: (Units=GPa)
#
#
# Indices 1 2 3 4 5 6 
#
# 1 122.1830 29.0702 39.9140 11.8474 -1.4878 -11.4826
# 2 29.0702 81.1690 1.2353 27.1143 -9.0941 -0.8128
# 3 39.9140 1.2353 113.4719 21.0400 -6.8808 6.4972
# 4 11.8474 27.1143 21.0400 50.5264 0.0236 -6.5989
# 5 -1.4878 -9.0941 -6.8808 0.0236 56.6388 5.9342
# 6 -11.4826 -0.8128 6.4972 -6.5989 5.9342 26.7646
#
#
#
# Elastic Compliance Matrix: (Units=1/GPa)
#
#
# Indices 1 2 3 4 5 6 
#
# 1 0.011429 -0.005218 -0.005079 0.003175 -0.001909 0.007184
# 2 -0.005218 0.018249 0.004322 -0.011205 0.003991 -0.006381
# 3 -0.005079 0.004322 0.012516 -0.007325 0.002873 -0.007529
# 4 0.003175 -0.011205 -0.007325 0.029538 -0.003762 0.010916
# 5 -0.001909 0.003991 0.002873 -0.003762 0.019288 -0.006599
# 6 0.007184 -0.006381 -0.007529 0.010916 -0.006599 0.046233
#
#
# Mechanical properties :
#
#
# Convention : Reuss Voigt Hill
#
# Bulk Modulus (GPa) = 33.06558 50.80700 41.93629
# Shear Modulus (GPa) = 31.39004 43.22625 37.30815
#
# Velocity S-wave (km/s) = 3.39931 3.98904 3.70592
# Velocity P-wave (km/s) = 5.25158 6.31819 5.80942
#
# Compressibility (1/GPa) = 0.03024293
#
# Stress axis : x y z
#
# Youngs Moduli (GPa) = 87.49423 54.79665 79.89914
#
# Poissons Ratio (x) = 0.28595 0.40582
# Poissons Ratio (y) = 0.45658 -0.34531
# Poissons Ratio (z) = 0.44440 -0.23682
#
# Static dielectric constant tensor:
#      x y z
#    x 2.263050 0.018960 -0.003410 
#    y 0.018960 2.229060 -0.013960 
#    z -0.003410 -0.013960 2.067000 
# 
# From -- ./inp_files/175828.got.cif
#   From: 2010.05.17/outbox.cif.g08.bks.cpg/sg2_88_cif.got.tgz:175828.got - 2010.06.03 11:33:40.
