data_PCOD9110750
_publ_section_title
;
Structure prediction by ZEFSAII (Michael W. Deem and Ramdas Pophale) SiO2 
 PCOD9110750
Probable space group: P -1
;
_chemical_formula_sum "Si O2"
_cell_formula_units_Z 15
_cell_length_a 8.892894
_cell_length_b 11.657019
_cell_length_c 8.715751
_cell_angle_alpha 130.583524
_cell_angle_beta 106.276564
_cell_angle_gamma 75.816672
_cell_volume 656.240021
_symmetry_space_group_name_H-M "P -1"
_symmetry_group_IT_number 2
_symmetry_cell_setting 'triclinic'
loop_
_space_group_symop_operation_xyz
x,y,z
-x,-y,-z
loop_
_atom_site_type_symbol
_atom_site_label
_atom_site_fract_x
_atom_site_fract_y
_atom_site_fract_z
Si Si1 0.064658 0.708315 0.785386
Si Si2 0.588138 0.719722 0.217108
Si Si3 0.307536 0.582206 0.192165
Si Si4 0.259910 0.027955 0.657114
Si Si5 0.223082 0.380296 0.528160
Si Si6 0.066865 0.815769 0.208847
Si Si7 0.500000 0.500000 0.500000
Si Si8 0.322752 0.750167 0.652359
O O1 0.117124 0.531690 0.683575
O O2 0.167018 0.753802 0.710073
O O3 0.884798 0.715673 0.690498
O O4 0.095381 0.802922 0.025687
O O5 0.424572 0.680625 0.212609
O O6 0.599862 0.880730 0.283763
O O7 0.709695 0.709748 0.384639
O O8 0.649203 0.584831 0.001998
O O9 0.134267 0.658294 0.171723
O O10 0.335224 0.605551 0.404466
O O11 0.117491 0.141992 0.780289
O O12 0.168876 0.939283 0.423584
O O13 0.321842 0.900546 0.685812
O O14 0.362698 0.443276 0.528659
O O15 0.471211 0.680933 0.726656
#
# Coordination Sequence:
#
# PCOD9110750 Si02
#       8
#     2   2   2   2   2   2   1   2
#     4  10  22  40  66  91 132 164 230 252 330 378
#     4  11  22  40  66 100 127 169 221 270 318 386
#     4  10  22  41  69  93 129 171 223 259 323 373
#     4  10  25  41  64  97 135 163 220 264 333 368
#     4  10  21  38  64  99 120 177 211 281 305 386
#     4  10  22  44  62  95 126 181 205 268 317 386
#     4  10  20  42  66  86 138 160 222 252 334 372
#     4  10  22  41  66  95 128 175 201 277 315 389
#
# _framework density 22.857489000000001
#
# number of rings (size 3 to 8) (size 9 to 14) (size 15 to 20)
#    0.000    1.867    2.667    0.000    5.600    6.400 
#    0.000    0.000    0.000    4.800    0.000    0.000 
#    0.000    0.000    0.000    0.000    0.000    0.000 
#
# Total GULP energy -83661.344628 kJ/mol
# GULP energy per Si atom -5577.422975 kJ/mol
# Density = 2.280546 g / cm^3
# Si number density = 22.857489 Si / 1000 Ang^3
#
#
#
# Elastic Constant Matrix: (Units=GPa)
#
#
# Indices 1 2 3 4 5 6 
#
# 1 48.8441 29.3037 29.0828 -7.0328 -8.6395 -12.5287
# 2 29.3037 129.0184 18.4149 -5.3602 7.7993 4.7685
# 3 29.0828 18.4149 56.3636 -18.2795 -18.7367 9.2382
# 4 -7.0328 -5.3602 -18.2795 16.6062 1.8422 -1.3069
# 5 -8.6395 7.7993 -18.7367 1.8422 23.3471 1.0672
# 6 -12.5287 4.7685 9.2382 -1.3069 1.0672 35.2680
#
#
#
# Elastic Compliance Matrix: (Units=1/GPa)
#
#
# Indices 1 2 3 4 5 6 
#
# 1 0.049571 -0.007350 -0.036416 -0.018369 -0.008243 0.027711
# 2 -0.007350 0.010203 -0.001883 -0.001335 -0.007382 -0.003324
# 3 -0.036416 -0.001883 0.077955 0.062111 0.046286 -0.032201
# 4 -0.018369 -0.001335 0.062111 0.114932 0.035314 -0.019424
# 5 -0.008243 -0.007382 0.046286 0.035314 0.077296 -0.015085
# 6 0.027711 -0.003324 -0.032201 -0.019424 -0.015085 0.046819
#
#
# Mechanical properties :
#
#
# Convention : Reuss Voigt Hill
#
# Bulk Modulus (GPa) = 21.53767 43.09209 32.31488
# Shear Modulus (GPa) = 10.34013 25.53924 17.93968
#
# Velocity S-wave (km/s) = 2.12922 3.34627 2.80456
# Velocity P-wave (km/s) = 3.93545 5.81579 4.96544
#
# Compressibility (1/GPa) = 0.04643028
#
# Stress axis : x y z
#
# Youngs Moduli (GPa) = 20.17293 98.01345 12.82785
#
# Poissons Ratio (x) = 0.72044 0.46714
# Poissons Ratio (y) = 0.14828 0.02415
# Poissons Ratio (z) = 0.73462 0.18455
#
# Static dielectric constant tensor:
#      x y z
#    x 3.022190 -1.875000 0.634500 
#    y -1.875000 4.708580 -0.989060 
#    z 0.634500 -0.989060 2.241450 
# 
# From -- ./inp_files/190886.got.cif
#   From: 2010.05.17/outbox.cif.g08.bks.cpg/sg2_96_cif.got.tgz:190886.got - 2010.06.03 11:33:40.
