data_PCOD9110515
_publ_section_title
;
Structure prediction by ZEFSAII (Michael W. Deem and Ramdas Pophale) SiO2 
 PCOD9110515
Probable space group: P -1
;
_chemical_formula_sum "Si O2"
_cell_formula_units_Z 15
_cell_length_a 7.533152
_cell_length_b 15.390406
_cell_length_c 7.290310
_cell_angle_alpha 70.461095
_cell_angle_beta 124.672548
_cell_angle_gamma 85.073990
_cell_volume 612.112653
_symmetry_space_group_name_H-M "P -1"
_symmetry_group_IT_number 2
_symmetry_cell_setting 'triclinic'
loop_
_space_group_symop_operation_xyz
x,y,z
-x,-y,-z
loop_
_atom_site_type_symbol
_atom_site_label
_atom_site_fract_x
_atom_site_fract_y
_atom_site_fract_z
Si Si1 0.508531 0.544927 0.176701
Si Si2 0.000000 0.000000 0.500000
Si Si3 0.857054 0.347055 0.666293
Si Si4 0.718734 0.029439 0.591802
Si Si5 0.285206 0.096988 0.839797
Si Si6 0.087591 0.865476 0.087576
Si Si7 0.243354 0.309412 0.636305
Si Si8 0.985210 0.610884 0.917765
O O1 0.639742 0.447626 0.446497
O O2 0.644322 0.619709 0.246064
O O3 0.500000 0.500000 0.000000
O O4 0.243887 0.604684 0.028950
O O5 0.738862 0.069347 0.377536
O O6 0.894311 0.916669 0.403703
O O7 0.806070 0.251441 0.772171
O O8 0.989835 0.331343 0.562541
O O9 0.048298 0.352434 0.920677
O O10 0.500000 0.000000 0.500000
O O11 0.978216 0.937746 0.797839
O O12 0.744479 0.094268 0.729110
O O13 0.145673 0.108703 0.943058
O O14 0.356433 0.192365 0.796351
O O15 0.500000 0.000000 0.000000
O O16 0.200532 0.333764 0.379740
O O17 0.000000 0.500000 0.000000
#
# Coordination Sequence:
#
# PCOD9110515 Si02
#       8
#     2   1   2   2   2   2   2   2
#     4  12  24  46  72  99 138 183 225 284 347 414
#     4  10  22  38  66  94 126 178 224 276 344 398
#     4  11  23  46  69  99 140 178 223 286 348 407
#     4  10  20  42  63  91 132 175 225 277 340 405
#     4  10  22  43  67  97 136 176 226 286 341 413
#     4   9  22  42  62  94 135 170 222 282 336 404
#     4  11  25  46  69 104 138 181 232 286 348 412
#     4  12  25  44  69  98 140 181 226 284 343 414
#
# _framework density 24.505291
#
# number of rings (size 3 to 8) (size 9 to 14) (size 15 to 20)
#    0.000    1.333    2.667    2.400    1.867    1.067 
#   16.800    0.000    0.000    0.000    0.000    0.000 
#    0.000    0.000    0.000    0.000    0.000    0.000 
#
# Total GULP energy -83602.620047 kJ/mol
# GULP energy per Si atom -5573.508003 kJ/mol
# Density = 2.444952 g / cm^3
# Si number density = 24.505291 Si / 1000 Ang^3
#
#
#
# Elastic Constant Matrix: (Units=GPa)
#
#
# Indices 1 2 3 4 5 6 
#
# 1 53.2555 10.7391 14.4186 2.4848 16.4476 -4.8364
# 2 10.7391 199.2906 78.1756 -3.3636 6.1790 23.1626
# 3 14.4186 78.1756 126.3873 16.4671 -8.3929 6.3329
# 4 2.4848 -3.3636 16.4671 41.6259 -3.1454 0.4876
# 5 16.4476 6.1790 -8.3929 -3.1454 34.6893 10.2783
# 6 -4.8364 23.1626 6.3329 0.4876 10.2783 39.1692
#
#
#
# Elastic Compliance Matrix: (Units=1/GPa)
#
#
# Indices 1 2 3 4 5 6 
#
# 1 0.025495 -0.000275 -0.004012 -0.001223 -0.015504 0.008043
# 2 -0.000275 0.007360 -0.004745 0.002444 -0.001112 -0.003358
# 3 -0.004012 -0.004745 0.012332 -0.004583 0.005643 -0.001107
# 4 -0.001223 0.002444 -0.004583 0.026272 0.001917 -0.001685
# 5 -0.015504 -0.001112 0.005643 0.001917 0.041817 -0.013166
# 6 0.008043 -0.003358 -0.001107 -0.001685 -0.013166 0.032164
#
#
# Mechanical properties :
#
#
# Convention : Reuss Voigt Hill
#
# Bulk Modulus (GPa) = 36.86829 65.06666 50.96747
# Shear Modulus (GPa) = 28.97829 41.47021 35.22425
#
# Velocity S-wave (km/s) = 3.44253 4.11822 3.79544
# Velocity P-wave (km/s) = 5.55689 7.01589 6.32857
#
# Compressibility (1/GPa) = 0.02712358
#
# Stress axis : x y z
#
# Youngs Moduli (GPa) = 39.22396 135.87147 81.08848
#
# Poissons Ratio (x) = 0.03734 0.32530
# Poissons Ratio (y) = 0.01078 0.38477
# Poissons Ratio (z) = 0.15735 0.64471
#
# Static dielectric constant tensor:
#      x y z
#    x 1.891340 -0.004960 0.201040 
#    y -0.004960 1.932940 -0.000450 
#    z 0.201040 -0.000450 1.644690 
# 
# From -- ./inp_files/201188.got.cif
#   From: 2010.05.17/outbox.cif.g08.bks.cpg/sg2_101_cif.got.tgz:201188.got - 2010.06.03 11:33:40.
