data_PCOD9110704
_publ_section_title
;
Structure prediction by ZEFSAII (Michael W. Deem and Ramdas Pophale) SiO2 
 PCOD9110704
Probable space group: P -1
;
_chemical_formula_sum "Si O2"
_cell_formula_units_Z 16
_cell_length_a 12.067410
_cell_length_b 8.766772
_cell_length_c 14.093681
_cell_angle_alpha 70.462513
_cell_angle_beta 91.913938
_cell_angle_gamma 37.774238
_cell_volume 737.417883
_symmetry_space_group_name_H-M "P -1"
_symmetry_group_IT_number 2
_symmetry_cell_setting 'triclinic'
loop_
_space_group_symop_operation_xyz
x,y,z
-x,-y,-z
loop_
_atom_site_type_symbol
_atom_site_label
_atom_site_fract_x
_atom_site_fract_y
_atom_site_fract_z
Si Si1 0.843118 0.691574 0.365655
Si Si2 0.780413 0.310843 0.980934
Si Si3 0.004502 0.315331 0.076832
Si Si4 0.432714 0.577679 0.218907
Si Si5 0.896809 0.790290 0.685698
Si Si6 0.176394 0.912210 0.776172
Si Si7 0.725585 0.340039 0.610110
Si Si8 0.502067 0.923243 0.410309
O O1 0.618040 0.905205 0.349581
O O2 0.000000 0.500000 0.500000
O O3 0.944811 0.442721 0.345487
O O4 0.838380 0.877197 0.283730
O O5 0.753837 0.224758 0.087629
O O6 0.819886 0.438231 0.998976
O O7 0.615509 0.484145 0.856993
O O8 0.000000 0.000000 0.000000
O O9 0.984798 0.343412 0.183419
O O10 0.235331 0.947303 0.139713
O O11 0.000000 0.500000 0.000000
O O12 0.659732 0.362269 0.239689
O O13 0.428369 0.499464 0.337740
O O14 0.768769 0.117579 0.604870
O O15 0.729484 0.850015 0.672002
O O16 0.945842 0.123862 0.708051
O O17 0.642231 0.586460 0.491023
O O18 0.500000 0.000000 0.500000
#
# Coordination Sequence:
#
# PCOD9110704 Si02
#       8
#     2   2   2   2   2   2   2   2
#     4  12  26  42  65  99 129 176 221 280 324 385
#     4  10  20  42  65  94 129 174 216 268 328 391
#     4  10  23  43  69  95 135 172 213 276 334 386
#     4  10  23  40  70  98 127 175 224 261 333 396
#     4  11  25  44  65  98 136 173 223 271 341 392
#     4  12  22  42  69  94 135 168 227 266 328 395
#     4  11  23  43  67  98 136 178 212 282 327 393
#     4  12  24  44  69  97 133 175 231 269 329 397
#
# _framework density 21.697330000000001
#
# number of rings (size 3 to 8) (size 9 to 14) (size 15 to 20)
#    0.000    1.000    6.250    1.500    3.500    4.500 
#    0.000    0.625    0.000    0.000    0.000    0.000 
#    0.000    0.000    0.000    0.000    0.000    0.000 
#
# Total GULP energy -89481.585444 kJ/mol
# GULP energy per Si atom -5592.599090 kJ/mol
# Density = 2.164795 g / cm^3
# Si number density = 21.697330 Si / 1000 Ang^3
#
#
#
# Elastic Constant Matrix: (Units=GPa)
#
#
# Indices 1 2 3 4 5 6 
#
# 1 105.6333 32.1238 27.3013 17.9335 -20.1619 12.0856
# 2 32.1238 106.8408 27.8441 33.2507 -10.5860 -3.2721
# 3 27.3013 27.8441 63.9458 11.4979 -15.0215 15.5484
# 4 17.9335 33.2507 11.4979 30.1647 3.3159 -2.1404
# 5 -20.1619 -10.5860 -15.0215 3.3159 47.7168 -0.0575
# 6 12.0856 -3.2721 15.5484 -2.1404 -0.0575 44.5714
#
#
#
# Elastic Compliance Matrix: (Units=1/GPa)
#
#
# Indices 1 2 3 4 5 6 
#
# 1 0.012661 -0.000840 -0.001898 -0.006653 0.005024 -0.003146
# 2 -0.000840 0.015792 -0.003354 -0.015854 0.003197 0.001800
# 3 -0.001898 -0.003354 0.021936 -0.004699 0.005677 -0.007602
# 4 -0.006653 -0.015854 -0.004699 0.058033 -0.011834 0.005051
# 5 0.005024 0.003197 0.005677 -0.011834 0.026394 -0.003642
# 6 -0.003146 0.001800 -0.007602 0.005051 -0.003642 0.026311
#
#
# Mechanical properties :
#
#
# Convention : Reuss Voigt Hill
#
# Bulk Modulus (GPa) = 26.17480 50.10648 38.14064
# Shear Modulus (GPa) = 26.87495 37.10063 31.98779
#
# Velocity S-wave (km/s) = 3.52323 4.13960 3.84379
# Velocity P-wave (km/s) = 5.35170 6.78173 6.10871
#
# Compressibility (1/GPa) = 0.03820469
#
# Stress axis : x y z
#
# Youngs Moduli (GPa) = 78.98134 63.32279 45.58696
#
# Poissons Ratio (x) = 0.05319 0.08655
# Poissons Ratio (y) = 0.06634 0.15290
# Poissons Ratio (z) = 0.14994 0.21238
#
# Static dielectric constant tensor:
#      x y z
#    x 1.845440 0.006440 0.004130 
#    y 0.006440 1.810430 -0.052240 
#    z 0.004130 -0.052240 1.833990 
# 
# From -- ./inp_files/515381.got.cif
#   From: 2010.05.17/outbox.cif.g08.bks.cpg/sg2_258_cif.got.tgz:515381.got - 2010.06.03 11:33:40.
