data_PCOD9110736
_publ_section_title
;
Structure prediction by ZEFSAII (Michael W. Deem and Ramdas Pophale) SiO2 
 PCOD9110736
Probable space group: P -1
;
_chemical_formula_sum "Si O2"
_cell_formula_units_Z 15
_cell_length_a 8.213076
_cell_length_b 11.560864
_cell_length_c 7.399848
_cell_angle_alpha 82.112559
_cell_angle_beta 56.399443
_cell_angle_gamma 73.000655
_cell_volume 559.385582
_symmetry_space_group_name_H-M "P -1"
_symmetry_group_IT_number 2
_symmetry_cell_setting 'triclinic'
loop_
_space_group_symop_operation_xyz
x,y,z
-x,-y,-z
loop_
_atom_site_type_symbol
_atom_site_label
_atom_site_fract_x
_atom_site_fract_y
_atom_site_fract_z
Si Si1 0.625254 0.865189 0.738347
Si Si2 0.613790 0.703727 0.114166
Si Si3 0.992636 0.261259 0.983435
Si Si4 0.064988 0.698211 0.389904
Si Si5 0.417084 0.505089 0.343717
Si Si6 0.000000 0.000000 0.000000
Si Si7 0.569692 0.246878 0.385749
Si Si8 0.802073 0.066058 0.721246
O O1 0.470499 0.865678 0.670553
O O2 0.648416 0.996347 0.745245
O O3 0.841531 0.772948 0.570262
O O4 0.558620 0.803310 0.969679
O O5 0.550328 0.580038 0.139399
O O6 0.520149 0.744017 0.362302
O O7 0.852273 0.687029 0.008851
O O8 0.803807 0.246169 0.224213
O O9 0.931655 0.332751 0.818704
O O10 0.077318 0.124309 0.890439
O O11 0.184707 0.578841 0.448599
O O12 0.200116 0.793239 0.318694
O O13 0.500000 0.500000 0.500000
O O14 0.455956 0.364199 0.312979
O O15 0.860487 0.026598 0.897567
O O16 0.000000 0.000000 0.500000
#
# Coordination Sequence:
#
# PCOD9110736 Si02
#       8
#     2   2   2   2   2   1   2   2
#     4  11  22  42  72 104 140 180 231 276 350 418
#     4  11  24  44  69 103 135 178 235 277 344 414
#     4  11  23  45  73  96 145 180 221 289 345 404
#     4  10  22  44  71 101 139 185 225 289 344 401
#     4  10  25  46  67  99 139 178 240 289 335 410
#     4  10  20  42  66 104 134 176 222 280 338 404
#     4  11  26  47  65 103 139 179 237 286 337 407
#     4   9  20  36  69 100 136 176 223 274 341 409
#
# _framework density 26.815135999999999
#
# number of rings (size 3 to 8) (size 9 to 14) (size 15 to 20)
#    0.000    1.600    2.667    0.800    3.733    3.200 
#    4.800    2.667    0.000    0.000    0.000    0.000 
#    0.000    0.000    0.000    0.000    0.000    0.000 
#
# Total GULP energy -83785.438952 kJ/mol
# GULP energy per Si atom -5585.695930 kJ/mol
# Density = 2.675410 g / cm^3
# Si number density = 26.815136 Si / 1000 Ang^3
#
#
#
# Elastic Constant Matrix: (Units=GPa)
#
#
# Indices 1 2 3 4 5 6 
#
# 1 75.5783 31.5521 30.1128 0.7012 5.4693 2.2236
# 2 31.5521 84.1627 6.2613 -9.9335 3.4371 12.2629
# 3 30.1128 6.2613 125.6455 -6.1242 -19.7037 7.6807
# 4 0.7012 -9.9335 -6.1242 34.7964 -4.8414 -0.7586
# 5 5.4693 3.4371 -19.7037 -4.8414 51.3585 -11.6133
# 6 2.2236 12.2629 7.6807 -0.7586 -11.6133 47.7205
#
#
#
# Elastic Compliance Matrix: (Units=1/GPa)
#
#
# Indices 1 2 3 4 5 6 
#
# 1 0.018297 -0.006904 -0.004816 -0.003657 -0.003501 0.000787
# 2 -0.006904 0.015495 0.001310 0.004677 -0.000229 -0.003853
# 3 -0.004816 0.001310 0.009904 0.002807 0.004353 -0.000602
# 4 -0.003657 0.004677 0.002807 0.031212 0.004098 0.000010
# 5 -0.003501 -0.000229 0.004353 0.004098 0.023093 0.005206
# 6 0.000787 -0.003853 -0.000602 0.000010 0.005206 0.023273
#
#
# Mechanical properties :
#
#
# Convention : Reuss Voigt Hill
#
# Bulk Modulus (GPa) = 43.71576 46.80435 45.26006
# Shear Modulus (GPa) = 33.39546 41.27244 37.33395
#
# Velocity S-wave (km/s) = 3.53285 3.92745 3.73536
# Velocity P-wave (km/s) = 5.74277 6.16919 5.95979
#
# Compressibility (1/GPa) = 0.02287504
#
# Stress axis : x y z
#
# Youngs Moduli (GPa) = 54.65400 64.53502 100.96646
#
# Poissons Ratio (x) = 0.44558 0.48630
# Poissons Ratio (y) = 0.37735 -0.13227
# Poissons Ratio (z) = 0.26324 -0.08455
#
# Static dielectric constant tensor:
#      x y z
#    x 2.112920 -0.070050 -0.099620 
#    y -0.070050 2.185950 0.109710 
#    z -0.099620 0.109710 2.199250 
# 
# From -- ./inp_files/177241.got.cif
#   From: 2010.05.17/outbox.cif.g08.bks.cpg/sg2_89_cif.got.tgz:177241.got - 2010.06.03 11:33:40.
