data_PCOD9110261
_publ_section_title
;
Structure prediction by ZEFSAII (Michael W. Deem and Ramdas Pophale) SiO2 
 PCOD9110261
Probable space group: P -1
;
_chemical_formula_sum "Si O2"
_cell_formula_units_Z 12
_cell_length_a 7.937890
_cell_length_b 10.093629
_cell_length_c 6.999340
_cell_angle_alpha 94.292055
_cell_angle_beta 92.045073
_cell_angle_gamma 61.563394
_cell_volume 491.755113
_symmetry_space_group_name_H-M "P -1"
_symmetry_group_IT_number 2
_symmetry_cell_setting 'triclinic'
loop_
_space_group_symop_operation_xyz
x,y,z
-x,-y,-z
loop_
_atom_site_type_symbol
_atom_site_label
_atom_site_fract_x
_atom_site_fract_y
_atom_site_fract_z
Si Si1 0.077068 0.292211 0.131920
Si Si2 0.876153 0.110047 0.177608
Si Si3 0.441635 0.310982 0.043279
Si Si4 0.212278 0.391417 0.673193
Si Si5 0.683862 0.453038 0.629280
Si Si6 0.954707 0.814809 0.308717
O O1 0.990039 0.202531 0.242281
O O2 0.948167 0.468632 0.195498
O O3 0.000000 0.000000 0.000000
O O4 0.040624 0.250156 0.912592
O O5 0.661565 0.213815 0.103065
O O6 0.873356 0.992610 0.319156
O O7 0.370054 0.473025 0.157487
O O8 0.394923 0.327935 0.817333
O O9 0.300624 0.251065 0.124382
O O10 0.220640 0.466561 0.484160
O O11 0.169013 0.255043 0.607148
O O12 0.500000 0.500000 0.500000
O O13 0.825901 0.277009 0.627713
#
# Coordination Sequence:
#
# PCOD9110261 Si02
#       6
#     2   2   2   2   2   2
#     4  10  20  41  71  98 129 176 213 276 326 383
#     4  10  24  40  69  98 135 175 212 273 333 389
#     4  11  23  45  69  99 130 171 230 259 329 399
#     4  11  22  41  75  93 129 177 214 280 322 379
#     4  12  25  39  69 101 128 170 226 272 320 389
#     4  10  21  43  63  98 132 169 220 267 329 384
#
# _framework density 24.402388999999999
#
# number of rings (size 3 to 8) (size 9 to 14) (size 15 to 20)
#    0.000    1.333    3.333    2.500    4.667    7.333 
#    0.000    4.167    0.000    0.000    0.000    0.000 
#    0.000    0.000    0.000    0.000    0.000    0.000 
#
# Total GULP energy -67073.868392 kJ/mol
# GULP energy per Si atom -5589.489033 kJ/mol
# Density = 2.434685 g / cm^3
# Si number density = 24.402389 Si / 1000 Ang^3
#
#
#
# Elastic Constant Matrix: (Units=GPa)
#
#
# Indices 1 2 3 4 5 6 
#
# 1 110.1308 43.1103 7.5627 -3.2391 13.1104 4.8277
# 2 43.1103 117.1898 7.0983 -13.4880 5.6713 7.1662
# 3 7.5627 7.0983 77.0636 7.6469 19.9809 -7.8747
# 4 -3.2391 -13.4880 7.6469 26.2502 -1.9871 -0.4498
# 5 13.1104 5.6713 19.9809 -1.9871 44.1499 -6.6659
# 6 4.8277 7.1662 -7.8747 -0.4498 -6.6659 52.3587
#
#
#
# Elastic Compliance Matrix: (Units=1/GPa)
#
#
# Indices 1 2 3 4 5 6 
#
# 1 0.010986 -0.003958 0.000057 -0.000932 -0.002950 -0.000846
# 2 -0.003958 0.010752 -0.001394 0.005459 0.000488 -0.001207
# 3 0.000057 -0.001394 0.015631 -0.005759 -0.006929 0.001605
# 4 -0.000932 0.005459 -0.005759 0.042755 0.004009 -0.000650
# 5 -0.002950 0.000488 -0.006929 0.004009 0.027181 0.002658
# 6 -0.000846 -0.001207 0.001605 -0.000650 0.002658 0.019916
#
#
# Mechanical properties :
#
#
# Convention : Reuss Voigt Hill
#
# Bulk Modulus (GPa) = 37.33973 46.65851 41.99912
# Shear Modulus (GPa) = 34.07466 40.99261 37.53363
#
# Velocity S-wave (km/s) = 3.74085 4.10306 3.92613
# Velocity P-wave (km/s) = 5.83040 6.45048 6.14826
#
# Compressibility (1/GPa) = 0.02678113
#
# Stress axis : x y z
#
# Youngs Moduli (GPa) = 91.02293 93.00628 63.97506
#
# Poissons Ratio (x) = 0.36810 -0.00366
# Poissons Ratio (y) = 0.36025 0.08915
# Poissons Ratio (z) = -0.00521 0.12961
#
# Static dielectric constant tensor:
#      x y z
#    x 2.172380 0.084690 -0.071210 
#    y 0.084690 1.904940 -0.065600 
#    z -0.071210 -0.065600 2.015590 
# 
# From -- ./inp_files/180431.got.cif
#   From: 2010.05.17/outbox.cif.g08.bks.cpg/sg2_91_cif.got.tgz:180431.got - 2010.06.03 11:33:40.
