data_PCOD9110562
_publ_section_title
;
Structure prediction by ZEFSAII (Michael W. Deem and Ramdas Pophale) SiO2 
 PCOD9110562
Probable space group: P -1
;
_chemical_formula_sum "Si O2"
_cell_formula_units_Z 15
_cell_length_a 6.999505
_cell_length_b 7.551821
_cell_length_c 15.998770
_cell_angle_alpha 47.245020
_cell_angle_beta 64.230116
_cell_angle_gamma 75.776741
_cell_volume 557.630813
_symmetry_space_group_name_H-M "P -1"
_symmetry_group_IT_number 2
_symmetry_cell_setting 'triclinic'
loop_
_space_group_symop_operation_xyz
x,y,z
-x,-y,-z
loop_
_atom_site_type_symbol
_atom_site_label
_atom_site_fract_x
_atom_site_fract_y
_atom_site_fract_z
Si Si1 0.495315 0.397068 0.725481
Si Si2 0.265388 0.802271 0.574888
Si Si3 0.706092 0.257390 0.102885
Si Si4 0.000000 0.500000 0.500000
Si Si5 0.169774 0.277843 0.370334
Si Si6 0.174606 0.261024 0.963448
Si Si7 0.715442 0.949162 0.827353
Si Si8 0.187436 0.057643 0.671573
O O1 0.421440 0.590353 0.612130
O O2 0.623642 0.541371 0.729423
O O3 0.294843 0.262902 0.852251
O O4 0.661946 0.214501 0.719681
O O5 0.023567 0.683882 0.665455
O O6 0.309557 0.951685 0.604194
O O7 0.240993 0.004525 0.443842
O O8 0.755874 0.493050 0.076199
O O9 0.479402 0.230751 0.108305
O O10 0.704305 0.025206 0.238534
O O11 0.919352 0.247784 0.009599
O O12 0.075873 0.328940 0.463719
O O13 0.861700 0.664482 0.409475
O O14 0.256425 0.057874 0.075520
O O15 0.951242 0.915034 0.762598
#
# Coordination Sequence:
#
# PCOD9110562 Si02
#       8
#     2   2   2   1   2   2   2   2
#     4  12  23  40  63  97 121 160 206 258 298 368
#     4  10  23  40  65  90 125 165 204 242 312 361
#     4  10  22  42  63  89 123 165 206 249 304 367
#     4  10  20  42  64  88 130 154 190 262 304 350
#     4  10  23  42  64  91 127 162 200 254 303 365
#     4  10  23  41  61  88 127 159 206 259 300 357
#     4  11  24  38  64  93 122 163 207 248 313 357
#     4  10  21  41  62  91 124 163 200 253 300 365
#
# _framework density 26.899518
#
# number of rings (size 3 to 8) (size 9 to 14) (size 15 to 20)
#    0.000    1.600    2.667    1.200    3.733    1.600 
#    0.000    1.333    0.000    0.000    0.000    0.000 
#    0.000    0.000    0.000    0.000    0.000    0.000 
#
# Total GULP energy -83727.649271 kJ/mol
# GULP energy per Si atom -5581.843285 kJ/mol
# Density = 2.683829 g / cm^3
# Si number density = 26.899518 Si / 1000 Ang^3
#
#
#
# Elastic Constant Matrix: (Units=GPa)
#
#
# Indices 1 2 3 4 5 6 
#
# 1 144.3791 22.9386 25.2626 -8.5746 -13.3614 -7.0027
# 2 22.9386 55.1608 13.5883 7.0245 -1.5749 -11.2013
# 3 25.2626 13.5883 57.6785 -15.1116 12.5171 -8.6741
# 4 -8.5746 7.0245 -15.1116 47.3222 -14.0080 -6.4829
# 5 -13.3614 -1.5749 12.5171 -14.0080 53.1326 -13.6210
# 6 -7.0027 -11.2013 -8.6741 -6.4829 -13.6210 35.7176
#
#
#
# Elastic Compliance Matrix: (Units=1/GPa)
#
#
# Indices 1 2 3 4 5 6 
#
# 1 0.008465 -0.002551 -0.003023 0.002390 0.003922 0.002055
# 2 -0.002551 0.021913 -0.004661 -0.004138 0.001292 0.004982
# 3 -0.003023 -0.004661 0.022837 0.006824 -0.003620 0.003350
# 4 0.002390 -0.004138 0.006824 0.028194 0.008676 0.009254
# 5 0.003922 0.001292 -0.003620 0.008676 0.026008 0.011788
# 6 0.002055 0.004982 0.003350 0.009254 0.011788 0.036951
#
#
# Mechanical properties :
#
#
# Convention : Reuss Voigt Hill
#
# Bulk Modulus (GPa) = 30.53740 42.31082 36.42411
# Shear Modulus (GPa) = 28.44933 40.26306 34.35619
#
# Velocity S-wave (km/s) = 3.25563 3.87304 3.57768
# Velocity P-wave (km/s) = 5.05066 5.98030 5.53503
#
# Compressibility (1/GPa) = 0.03274673
#
# Stress axis : x y z
#
# Youngs Moduli (GPa) = 118.13515 45.63470 43.78930
#
# Poissons Ratio (x) = 0.11639 0.13236
# Poissons Ratio (y) = 0.30131 0.20409
# Poissons Ratio (z) = 0.35708 0.21269
#
# Static dielectric constant tensor:
#      x y z
#    x 2.116900 0.054310 -0.129430 
#    y 0.054310 2.053220 -0.046880 
#    z -0.129430 -0.046880 2.356810 
# 
# From -- ./inp_files/581785.got.cif
#   From: 2010.05.17/outbox.cif.g08.bks.cpg/sg2_291_cif.got.tgz:581785.got - 2010.06.03 11:33:40.
