data_PCOD9110379
_publ_section_title
;
Structure prediction by ZEFSAII (Michael W. Deem and Ramdas Pophale) SiO2 
 PCOD9110379
Probable space group: P -1
;
_chemical_formula_sum "Si O2"
_cell_formula_units_Z 14
_cell_length_a 15.837524
_cell_length_b 13.483727
_cell_length_c 4.862432
_cell_angle_alpha 73.200430
_cell_angle_beta 80.354035
_cell_angle_gamma 33.004425
_cell_volume 535.860059
_symmetry_space_group_name_H-M "P -1"
_symmetry_group_IT_number 2
_symmetry_cell_setting 'triclinic'
loop_
_space_group_symop_operation_xyz
x,y,z
-x,-y,-z
loop_
_atom_site_type_symbol
_atom_site_label
_atom_site_fract_x
_atom_site_fract_y
_atom_site_fract_z
Si Si1 0.794510 0.693802 0.204907
Si Si2 0.468567 0.750304 0.137633
Si Si3 0.286342 0.675057 0.597206
Si Si4 0.122470 0.262357 0.350975
Si Si5 0.137001 0.735403 0.126113
Si Si6 0.200629 0.963208 0.712624
Si Si7 0.624848 0.688396 0.603184
O O1 0.853309 0.719352 0.370290
O O2 0.669937 0.750648 0.389290
O O3 0.941503 0.472023 0.216084
O O4 0.762067 0.790570 0.869541
O O5 0.556839 0.746583 0.899168
O O6 0.306241 0.895160 0.961460
O O7 0.560865 0.546977 0.238525
O O8 0.498518 0.760334 0.418870
O O9 0.241741 0.706557 0.279327
O O10 0.285965 0.790529 0.620430
O O11 0.154234 0.748707 0.789316
O O12 0.153090 0.110955 0.443183
O O13 0.218233 0.541738 0.289741
O O14 0.961053 0.916600 0.175965
#
# Coordination Sequence:
#
# PCOD9110379 Si02
#       7
#     2   2   2   2   2   2   2
#     4  10  20  42  60  88 119 156 199 249 306 353
#     4  10  24  38  63  90 126 163 198 236 313 359
#     4  10  23  41  62  88 126 164 197 241 308 362
#     4  10  23  35  64  92 115 153 203 253 301 344
#     4  10  22  39  64  91 116 162 207 246 298 355
#     4  12  23  42  60  97 123 156 204 261 286 357
#     4  10  20  43  62  86 121 169 197 243 300 370
#
# _framework density 26.126221999999999
#
# number of rings (size 3 to 8) (size 9 to 14) (size 15 to 20)
#    0.000    1.714    1.429    2.143    0.000    5.714 
#    0.000    8.571    0.000    0.000    0.000    0.000 
#    0.000    0.000    0.000    0.000    0.000    0.000 
#
# Total GULP energy -78530.931308 kJ/mol
# GULP energy per Si atom -5609.352236 kJ/mol
# Density = 2.606676 g / cm^3
# Si number density = 26.126222 Si / 1000 Ang^3
#
#
#
# Elastic Constant Matrix: (Units=GPa)
#
#
# Indices 1 2 3 4 5 6 
#
# 1 70.4353 14.1330 6.9266 -14.0887 -23.8708 -1.6603
# 2 14.1330 58.9855 21.9777 -6.4256 -11.5563 -6.6633
# 3 6.9266 21.9777 103.3272 8.5494 -13.9222 9.2623
# 4 -14.0887 -6.4256 8.5494 37.3626 5.3748 -1.3810
# 5 -23.8708 -11.5563 -13.9222 5.3748 39.0895 -7.3917
# 6 -1.6603 -6.6633 9.2623 -1.3810 -7.3917 36.8517
#
#
#
# Elastic Compliance Matrix: (Units=1/GPa)
#
#
# Indices 1 2 3 4 5 6 
#
# 1 0.019521 -0.001410 -0.000248 0.005676 0.011231 0.003152
# 2 -0.001410 0.020918 -0.004613 0.003723 0.004279 0.005876
# 3 -0.000248 -0.004613 0.011660 -0.004048 0.002549 -0.003416
# 4 0.005676 0.003723 -0.004048 0.030657 -0.000525 0.002990
# 5 0.011231 0.004279 0.002549 -0.000525 0.036175 0.007876
# 6 0.003152 0.005876 -0.003416 0.002990 0.007876 0.030891
#
#
# Mechanical properties :
#
#
# Convention : Reuss Voigt Hill
#
# Bulk Modulus (GPa) = 25.27962 35.42473 30.35218
# Shear Modulus (GPa) = 28.48214 35.30814 31.89514
#
# Velocity S-wave (km/s) = 3.30536 3.68019 3.49780
# Velocity P-wave (km/s) = 4.92587 5.62556 5.28730
#
# Compressibility (1/GPa) = 0.03955755
#
# Stress axis : x y z
#
# Youngs Moduli (GPa) = 51.22784 47.80669 85.76125
#
# Poissons Ratio (x) = 0.06741 0.02123
# Poissons Ratio (y) = 0.07224 0.39560
# Poissons Ratio (z) = 0.01268 0.22052
#
# Static dielectric constant tensor:
#      x y z
#    x 2.027540 -0.025050 -0.077660 
#    y -0.025050 2.053250 -0.001170 
#    z -0.077660 -0.001170 1.987140 
# 
# From -- ./inp_files/110714.got.cif
#   From: 2010.05.17/outbox.cif.g08.bks.cpg/sg2_56_cif.got.tgz:110714.got - 2010.06.03 11:33:40.
