data_PCOD9110207
_publ_section_title
;
Structure prediction by ZEFSAII (Michael W. Deem and Ramdas Pophale) SiO2 
 PCOD9110207
Probable space group: P -1
;
_chemical_formula_sum "Si O2"
_cell_formula_units_Z 10
_cell_length_a 9.139751
_cell_length_b 9.237679
_cell_length_c 14.550525
_cell_angle_alpha 43.731786
_cell_angle_beta 29.132481
_cell_angle_gamma 52.679344
_cell_volume 412.304431
_symmetry_space_group_name_H-M "P -1"
_symmetry_group_IT_number 2
_symmetry_cell_setting 'triclinic'
loop_
_space_group_symop_operation_xyz
x,y,z
-x,-y,-z
loop_
_atom_site_type_symbol
_atom_site_label
_atom_site_fract_x
_atom_site_fract_y
_atom_site_fract_z
Si Si1 0.355042 0.349575 0.360134
Si Si2 0.393601 0.231667 0.960038
Si Si3 0.222294 0.211161 0.700794
Si Si4 0.129423 0.955985 0.548334
Si Si5 0.025584 0.251335 0.978812
O O1 0.354694 0.594235 0.222856
O O2 0.280035 0.316303 0.523025
O O3 0.457719 0.868571 0.405587
O O4 0.704214 0.305597 0.169157
O O5 0.166310 0.175146 0.484107
O O6 0.280764 0.305004 0.888933
O O7 0.101994 0.205547 0.197129
O O8 0.095011 0.335094 0.799755
O O9 0.002201 0.002421 0.899198
O O10 0.000000 0.000000 0.500000
O O11 0.500000 0.000000 0.000000
#
# Coordination Sequence:
#
# PCOD9110207 Si02
#       5
#     2   2   2   2   2
#     4  11  23  45  71  94 133 179 220 272 329 391
#     4  12  25  42  65 100 137 173 224 276 329 389
#     4  10  20  41  73  98 127 176 223 268 329 396
#     4  11  23  44  66  99 139 171 216 280 332 391
#     4  10  20  41  70  99 130 169 226 269 322 406
#
# _framework density 24.253924000000001
#
# number of rings (size 3 to 8) (size 9 to 14) (size 15 to 20)
#    0.000    1.200    4.000    3.000    0.000    2.400 
#    3.600    0.000    0.000    0.000    0.000    0.000 
#    0.000    0.000    0.000    0.000    0.000    0.000 
#
# Total GULP energy -56028.057140 kJ/mol
# GULP energy per Si atom -5602.805714 kJ/mol
# Density = 2.419872 g / cm^3
# Si number density = 24.253924 Si / 1000 Ang^3
#
#
#
# Elastic Constant Matrix: (Units=GPa)
#
#
# Indices 1 2 3 4 5 6 
#
# 1 126.4102 36.5731 52.7244 5.6022 3.5603 30.8657
# 2 36.5731 78.8585 59.1244 -5.0294 17.7576 13.2994
# 3 52.7244 59.1244 146.0525 4.8672 18.0433 35.9660
# 4 5.6022 -5.0294 4.8672 53.9562 7.7441 -4.2887
# 5 3.5603 17.7576 18.0433 7.7441 28.3851 13.1868
# 6 30.8657 13.2994 35.9660 -4.2887 13.1868 29.1629
#
#
#
# Elastic Compliance Matrix: (Units=1/GPa)
#
#
# Indices 1 2 3 4 5 6 
#
# 1 0.014356 -0.007680 0.001511 -0.005836 0.013079 -0.020328
# 2 -0.007680 0.025633 -0.010161 0.008476 -0.019840 0.019188
# 3 0.001511 -0.010161 0.014246 -0.004855 0.006988 -0.018409
# 4 -0.005836 0.008476 -0.004855 0.024418 -0.017305 0.019715
# 5 0.013079 -0.019840 0.006988 -0.017305 0.067973 -0.046694
# 6 -0.020328 0.019188 -0.018409 0.019715 -0.046694 0.093772
#
#
# Mechanical properties :
#
#
# Convention : Reuss Voigt Hill
#
# Bulk Modulus (GPa) = 46.34729 72.01833 59.18281
# Shear Modulus (GPa) = 17.84117 35.82747 26.83432
#
# Velocity S-wave (km/s) = 2.71514 3.84758 3.32985
# Velocity P-wave (km/s) = 5.38330 7.03537 6.26404
#
# Compressibility (1/GPa) = 0.02157624
#
# Stress axis : x y z
#
# Youngs Moduli (GPa) = 69.65563 39.01196 70.19307
#
# Poissons Ratio (x) = 0.29962 -0.10606
# Poissons Ratio (y) = 0.53497 0.71320
# Poissons Ratio (z) = -0.10525 0.39639
#
# Static dielectric constant tensor:
#      x y z
#    x 1.898570 -0.025440 -0.005400 
#    y -0.025440 1.993240 0.008070 
#    z -0.005400 0.008070 1.947580 
# 
# From -- ./inp_files/303296.got.cif
#   From: 2010.05.17/outbox.cif.g08.bks.cpg/sg2_152_cif.got.tgz:303296.got - 2010.06.03 11:33:40.
