data_PCOD9110118
_publ_section_title
;
Structure prediction by ZEFSAII (Michael W. Deem and Ramdas Pophale) SiO2 
 PCOD9110118
Probable space group: P -1
;
_chemical_formula_sum "Si O2"
_cell_formula_units_Z 12
_cell_length_a 9.321940
_cell_length_b 12.532375
_cell_length_c 7.685396
_cell_angle_alpha 130.792425
_cell_angle_beta 66.150244
_cell_angle_gamma 130.624542
_cell_volume 515.578467
_symmetry_space_group_name_H-M "P -1"
_symmetry_group_IT_number 2
_symmetry_cell_setting 'triclinic'
loop_
_space_group_symop_operation_xyz
x,y,z
-x,-y,-z
loop_
_atom_site_type_symbol
_atom_site_label
_atom_site_fract_x
_atom_site_fract_y
_atom_site_fract_z
Si Si1 0.169192 0.672697 0.183386
Si Si2 0.767385 0.796258 0.875213
Si Si3 0.537048 0.973332 0.657667
Si Si4 0.797415 0.852061 0.512667
Si Si5 0.392297 0.516248 0.913751
Si Si6 0.860752 0.146286 0.283659
O O1 0.105235 0.745939 0.444740
O O2 0.303343 0.831845 0.159636
O O3 0.301447 0.614879 0.128140
O O4 0.000000 0.500000 0.000000
O O5 0.797227 0.857902 0.727526
O O6 0.557096 0.633987 0.821743
O O7 0.796559 0.951858 0.140308
O O8 0.933975 0.770293 0.816032
O O9 0.326926 0.882633 0.744232
O O10 0.500000 0.000000 0.500000
O O11 0.634587 0.873351 0.539713
O O12 0.754423 0.670199 0.285932
O O13 0.000000 0.000000 0.500000
O O14 0.500000 0.500000 0.000000
#
# Coordination Sequence:
#
# PCOD9110118 Si02
#       6
#     2   2   2   2   2   2
#     4  11  22  42  68 103 139 180 230 293 346 416
#     4  11  25  45  72 103 142 185 240 289 345 419
#     4  10  20  41  69  98 135 180 230 279 348 416
#     4  12  26  44  75 105 140 186 237 289 353 419
#     4  12  26  45  72 104 140 185 234 289 353 416
#     4  10  22  43  72  94 142 182 232 282 354 406
#
# _framework density 23.274829
#
# number of rings (size 3 to 8) (size 9 to 14) (size 15 to 20)
#    0.000    1.000    1.667    6.500    7.000    0.667 
#    0.000    3.333    0.000    0.000    0.000    0.000 
#    0.000    0.000    0.000    0.000    0.000    0.000 
#
# Total GULP energy -67073.190251 kJ/mol
# GULP energy per Si atom -5589.432521 kJ/mol
# Density = 2.322185 g / cm^3
# Si number density = 23.274829 Si / 1000 Ang^3
#
#
#
# Elastic Constant Matrix: (Units=GPa)
#
#
# Indices 1 2 3 4 5 6 
#
# 1 116.9121 19.5814 41.1327 -6.4278 -28.0962 9.4645
# 2 19.5814 106.3363 59.5451 15.8982 7.4440 18.8647
# 3 41.1327 59.5451 140.7442 27.0746 -16.6197 8.3057
# 4 -6.4278 15.8982 27.0746 42.3460 0.8463 7.6961
# 5 -28.0962 7.4440 -16.6197 0.8463 45.8917 4.4048
# 6 9.4645 18.8647 8.3057 7.6961 4.4048 42.6873
#
#
#
# Elastic Compliance Matrix: (Units=1/GPa)
#
#
# Indices 1 2 3 4 5 6 
#
# 1 0.011840 -0.001167 -0.002871 0.004492 0.006608 -0.003042
# 2 -0.001167 0.014025 -0.005713 -0.000937 -0.004640 -0.004180
# 3 -0.002871 -0.005713 0.011871 -0.006245 0.003428 0.001624
# 4 0.004492 -0.000937 -0.006245 0.029492 0.000552 -0.004741
# 5 0.006608 -0.004640 0.003428 0.000552 0.028116 -0.003082
# 6 -0.003042 -0.004180 0.001624 -0.004741 -0.003082 0.026805
#
#
# Mechanical properties :
#
#
# Convention : Reuss Voigt Hill
#
# Bulk Modulus (GPa) = 54.84319 67.16788 61.00553
# Shear Modulus (GPa) = 33.84573 42.43389 38.13981
#
# Velocity S-wave (km/s) = 3.81750 4.27449 4.05244
# Velocity P-wave (km/s) = 6.56091 7.29951 6.94005
#
# Compressibility (1/GPa) = 0.01823380
#
# Stress axis : x y z
#
# Youngs Moduli (GPa) = 84.45828 71.30199 84.23566
#
# Poissons Ratio (x) = 0.08322 0.24182
# Poissons Ratio (y) = 0.09858 0.48127
# Poissons Ratio (z) = 0.24246 0.40738
#
# Static dielectric constant tensor:
#      x y z
#    x 1.899310 -0.038760 0.004060 
#    y -0.038760 1.592600 -0.030130 
#    z 0.004060 -0.030130 1.912230 
# 
# From -- ./inp_files/166021.got.cif
#   From: 2010.05.17/outbox.cif.g08.bks.cpg/sg2_84_cif.got.tgz:166021.got - 2010.06.03 11:33:40.
