data_PCOD9110053
_publ_section_title
;
Structure prediction by ZEFSAII (Michael W. Deem and Ramdas Pophale) SiO2 
 PCOD9110053
Probable space group: P -1
;
_chemical_formula_sum "Si O2"
_cell_formula_units_Z 16
_cell_length_a 14.120093
_cell_length_b 11.272782
_cell_length_c 18.996346
_cell_angle_alpha 49.655660
_cell_angle_beta 29.669943
_cell_angle_gamma 29.703258
_cell_volume 666.854052
_symmetry_space_group_name_H-M "P -1"
_symmetry_group_IT_number 2
_symmetry_cell_setting 'triclinic'
loop_
_space_group_symop_operation_xyz
x,y,z
-x,-y,-z
loop_
_atom_site_type_symbol
_atom_site_label
_atom_site_fract_x
_atom_site_fract_y
_atom_site_fract_z
Si Si1 0.860088 0.636292 0.134730
Si Si2 0.954945 0.525098 0.780597
Si Si3 0.539126 0.691216 0.737102
Si Si4 0.406541 0.640328 0.081125
Si Si5 0.870423 0.204365 0.145690
Si Si6 0.528122 0.113475 0.849243
Si Si7 0.050512 0.389817 0.405124
Si Si8 0.167830 0.798877 0.404061
O O1 0.776037 0.663039 0.259973
O O2 0.613310 0.749715 0.189578
O O3 0.965713 0.743131 0.005836
O O4 0.196772 0.315847 0.029279
O O5 0.047210 0.472253 0.659529
O O6 0.740862 0.821550 0.814421
O O7 0.720943 0.532540 0.941537
O O8 0.667091 0.444209 0.782162
O O9 0.211171 0.854624 0.845871
O O10 0.607603 0.763706 0.729263
O O11 0.764722 0.611775 0.560185
O O12 0.500000 0.500000 0.000000
O O13 0.110200 0.952982 0.138059
O O14 0.525524 0.477598 0.300555
O O15 0.744025 0.115042 0.737066
O O16 0.056578 0.199269 0.470574
O O17 0.000000 0.000000 0.500000
#
# Coordination Sequence:
#
# PCOD9110053 Si02
#       8
#     2   2   2   2   2   2   2   2
#     4  10  21  38  63  99 132 170 214 276 347 392
#     4  12  21  39  65  99 132 172 221 279 332 398
#     4  10  22  45  67  92 136 185 216 278 339 388
#     4  12  24  41  67 102 132 168 228 282 330 399
#     4  10  22  41  68  98 133 173 220 278 336 398
#     4  10  21  39  63  94 135 169 218 275 332 402
#     4  10  22  42  66  91 136 181 223 268 333 399
#     4  10  20  41  69  89 130 181 214 271 328 394
#
# _framework density 23.993255000000001
#
# number of rings (size 3 to 8) (size 9 to 14) (size 15 to 20)
#    0.000    1.500    5.000    0.375    0.000    0.500 
#    2.250    8.750    0.000    0.000    0.000    0.000 
#    0.000    0.000    0.000    0.000    0.000    0.000 
#
# Total GULP energy -89353.870152 kJ/mol
# GULP energy per Si atom -5584.616884 kJ/mol
# Density = 2.393864 g / cm^3
# Si number density = 23.993255 Si / 1000 Ang^3
#
#
#
# Elastic Constant Matrix: (Units=GPa)
#
#
# Indices 1 2 3 4 5 6 
#
# 1 125.7214 18.3355 25.8759 -21.4511 -3.7049 -13.6573
# 2 18.3355 79.1919 19.5979 -6.7557 9.2880 -6.4695
# 3 25.8759 19.5979 70.7817 -13.0169 11.4045 -1.2311
# 4 -21.4511 -6.7557 -13.0169 34.0896 10.4742 1.5631
# 5 -3.7049 9.2880 11.4045 10.4742 47.6279 -20.9228
# 6 -13.6573 -6.4695 -1.2311 1.5631 -20.9228 43.3333
#
#
#
# Elastic Compliance Matrix: (Units=1/GPa)
#
#
# Indices 1 2 3 4 5 6 
#
# 1 0.009905 -0.001219 -0.002915 0.003900 0.002591 0.003967
# 2 -0.001219 0.014044 -0.002750 0.001667 -0.002348 0.000440
# 3 -0.002915 -0.002750 0.018483 0.007317 -0.007862 -0.004864
# 4 0.003900 0.001667 0.007317 0.039196 -0.013040 -0.006024
# 5 0.002591 -0.002348 -0.007862 -0.013040 0.033912 0.017087
# 6 0.003967 0.000440 -0.004864 -0.006024 0.017087 0.032722
#
#
# Mechanical properties :
#
#
# Convention : Reuss Voigt Hill
#
# Bulk Modulus (GPa) = 34.88759 44.81263 39.85011
# Shear Modulus (GPa) = 29.14030 39.13587 34.13809
#
# Velocity S-wave (km/s) = 3.48878 4.04309 3.77612
# Velocity P-wave (km/s) = 5.54986 6.36500 5.97135
#
# Compressibility (1/GPa) = 0.02866349
#
# Stress axis : x y z
#
# Youngs Moduli (GPa) = 100.96414 71.20460 54.10472
#
# Poissons Ratio (x) = 0.08680 0.15769
# Poissons Ratio (y) = 0.12308 0.14880
# Poissons Ratio (z) = 0.29427 0.19583
#
# Static dielectric constant tensor:
#      x y z
#    x 2.016040 0.050620 0.025850 
#    y 0.050620 1.873710 0.026970 
#    z 0.025850 0.026970 1.971940 
# 
# From -- ./inp_files/597826.got.cif
#   From: 2010.05.17/outbox.cif.g08.bks.cpg/sg2_299_cif.got.tgz:597826.got - 2010.06.03 11:33:40.
