data_PCOD9110272
_publ_section_title
;
Structure prediction by ZEFSAII (Michael W. Deem and Ramdas Pophale) SiO2 
 PCOD9110272
Probable space group: P -1
;
_chemical_formula_sum "Si O2"
_cell_formula_units_Z 16
_cell_length_a 5.647692
_cell_length_b 8.630830
_cell_length_c 17.314338
_cell_angle_alpha 88.542679
_cell_angle_beta 87.074251
_cell_angle_gamma 125.769587
_cell_volume 682.294206
_symmetry_space_group_name_H-M "P -1"
_symmetry_group_IT_number 2
_symmetry_cell_setting 'triclinic'
loop_
_space_group_symop_operation_xyz
x,y,z
-x,-y,-z
loop_
_atom_site_type_symbol
_atom_site_label
_atom_site_fract_x
_atom_site_fract_y
_atom_site_fract_z
Si Si1 0.730659 0.445738 0.590902
Si Si2 0.680856 0.123288 0.817326
Si Si3 0.849951 0.109321 0.981490
Si Si4 0.164227 0.057587 0.617128
Si Si5 0.907145 0.200085 0.504549
Si Si6 0.078814 0.537277 0.735847
Si Si7 0.293249 0.188282 0.250743
Si Si8 0.954851 0.212696 0.136738
O O1 0.419660 0.274559 0.632919
O O2 0.793419 0.318917 0.537855
O O3 0.780628 0.623345 0.540224
O O4 0.964653 0.546040 0.654644
O O5 0.873552 0.157612 0.890092
O O6 0.845485 0.322711 0.769920
O O7 0.669171 0.979368 0.758617
O O8 0.338932 0.006475 0.848470
O O9 0.984210 0.266754 0.045819
O O10 0.500000 0.000000 0.000000
O O11 0.000000 0.000000 0.000000
O O12 0.950712 0.088145 0.571109
O O13 0.255824 0.952865 0.559652
O O14 0.995320 0.912087 0.691558
O O15 0.419992 0.622391 0.722013
O O16 0.079376 0.659975 0.804776
O O17 0.231282 0.228324 0.165795
#
# Coordination Sequence:
#
# PCOD9110272 Si02
#       8
#     2   2   2   2   2   2   2   2
#     4  11  23  42  63  88 127 162 209 264 328 386
#     4  10  22  41  65  91 128 171 216 263 334 388
#     4  10  20  41  72 100 134 182 229 279 339 402
#     4  11  23  40  65  90 119 165 213 258 331 386
#     4  10  24  40  62  92 120 158 211 270 319 393
#     4  11  25  40  60  96 126 167 214 268 322 396
#     4  11  23  40  61  90 128 164 211 271 318 397
#     4  10  22  41  65  90 131 167 218 265 330 386
#
# _framework density 23.450295000000001
#
# number of rings (size 3 to 8) (size 9 to 14) (size 15 to 20)
#    0.000    1.500    1.250    3.000    0.000   12.500 
#    0.000    0.625    0.000    0.000    0.000    0.000 
#    0.000    0.000    0.000    0.000    0.000    0.000 
#
# Total GULP energy -89247.268994 kJ/mol
# GULP energy per Si atom -5577.954312 kJ/mol
# Density = 2.339692 g / cm^3
# Si number density = 23.450295 Si / 1000 Ang^3
#
#
#
# Elastic Constant Matrix: (Units=GPa)
#
#
# Indices 1 2 3 4 5 6 
#
# 1 38.0705 11.9513 0.7730 5.0389 3.4067 4.4604
# 2 11.9513 99.5780 4.5683 11.2659 2.4927 2.2393
# 3 0.7730 4.5683 77.2273 16.3737 7.3373 0.2069
# 4 5.0389 11.2659 16.3737 35.2494 -2.0106 5.4631
# 5 3.4067 2.4927 7.3373 -2.0106 35.3767 10.2044
# 6 4.4604 2.2393 0.2069 5.4631 10.2044 36.9159
#
#
#
# Elastic Compliance Matrix: (Units=1/GPa)
#
#
# Indices 1 2 3 4 5 6 
#
# 1 0.028049 -0.002933 0.000798 -0.003242 -0.002233 -0.002119
# 2 -0.002933 0.010760 0.000145 -0.003194 -0.000801 0.000395
# 3 0.000798 0.000145 0.014957 -0.007678 -0.004237 0.002118
# 4 -0.003242 -0.003194 -0.007678 0.034705 0.005870 -0.006130
# 5 -0.002233 -0.000801 -0.004237 0.005870 0.032494 -0.009509
# 6 -0.002119 0.000395 0.002118 -0.006130 -0.009509 0.030844
#
#
# Mechanical properties :
#
#
# Convention : Reuss Voigt Hill
#
# Bulk Modulus (GPa) = 20.08570 27.71788 23.90179
# Shear Modulus (GPa) = 29.00505 34.68061 31.84283
#
# Velocity S-wave (km/s) = 3.52074 3.84982 3.68895
# Velocity P-wave (km/s) = 5.01111 5.62201 5.32533
#
# Compressibility (1/GPa) = 0.04978666
#
# Stress axis : x y z
#
# Youngs Moduli (GPa) = 35.65234 92.93458 66.85850
#
# Poissons Ratio (x) = 0.27255 -0.05335
# Poissons Ratio (y) = 0.10456 -0.00970
# Poissons Ratio (z) = -0.02845 -0.01349
#
# Static dielectric constant tensor:
#      x y z
#    x 2.048740 0.033090 -0.067320 
#    y 0.033090 1.863260 0.005380 
#    z -0.067320 0.005380 1.914850 
# 
# From -- ./inp_files/14563.got.cif
#   From: 2010.05.17/outbox.cif.g08.bks.cpg/sg2_8_cif.got.tgz:14563.got - 2010.06.03 11:33:40.
