data_PCOD9110809
_publ_section_title
;
Structure prediction by ZEFSAII (Michael W. Deem and Ramdas Pophale) SiO2 
 PCOD9110809
Probable space group: P -1
;
_chemical_formula_sum "Si O2"
_cell_formula_units_Z 16
_cell_length_a 7.999119
_cell_length_b 14.760808
_cell_length_c 7.821963
_cell_angle_alpha 71.147700
_cell_angle_beta 127.700891
_cell_angle_gamma 111.256021
_cell_volume 674.553359
_symmetry_space_group_name_H-M "P -1"
_symmetry_group_IT_number 2
_symmetry_cell_setting 'triclinic'
loop_
_space_group_symop_operation_xyz
x,y,z
-x,-y,-z
loop_
_atom_site_type_symbol
_atom_site_label
_atom_site_fract_x
_atom_site_fract_y
_atom_site_fract_z
Si Si1 0.577444 0.296691 0.986619
Si Si2 0.853048 0.290371 0.455178
Si Si3 0.313238 0.532993 0.621339
Si Si4 0.495965 0.887955 0.517416
Si Si5 0.105703 0.209055 0.187991
Si Si6 0.728669 0.614401 0.014199
Si Si7 0.274758 0.345729 0.529693
Si Si8 0.390318 0.890948 0.051309
O O1 0.437312 0.332346 0.023536
O O2 0.517709 0.347047 0.746580
O O3 0.522146 0.183298 0.972171
O O4 0.807894 0.317760 0.211709
O O5 0.782779 0.370836 0.483944
O O6 0.699619 0.186540 0.464941
O O7 0.105493 0.292820 0.604138
O O8 0.231756 0.469225 0.781866
O O9 0.254113 0.458456 0.472183
O O10 0.573611 0.562849 0.793506
O O11 0.719647 0.854026 0.718187
O O12 0.451104 0.876341 0.294035
O O13 0.500000 0.000000 0.500000
O O14 0.213658 0.273401 0.378042
O O15 0.086132 0.296791 0.990976
O O16 0.870862 0.139869 0.111323
O O17 0.500000 0.000000 0.000000
#
# Coordination Sequence:
#
# PCOD9110809 Si02
#       8
#     2   2   2   2   2   2   2   2
#     4  10  20  42  66  93 139 172 219 284 334 395
#     4  11  22  44  69 100 141 181 228 278 336 403
#     4   9  19  39  68  98 141 182 227 269 337 400
#     4  12  28  47  73 102 131 176 233 284 340 417
#     4  12  25  46  70 101 140 177 229 284 337 408
#     4   9  20  40  68  97 138 185 222 275 336 400
#     4  11  23  38  71 100 137 186 221 274 340 397
#     4  12  28  46  70 100 134 177 229 292 346 396
#
# _framework density 23.719397000000001
#
# number of rings (size 3 to 8) (size 9 to 14) (size 15 to 20)
#    0.000    1.250    5.000    1.875    3.500    2.500 
#    0.000    0.625    0.000    0.000    0.000    0.000 
#    0.000    0.000    0.000    0.000    0.000    0.000 
#
# Total GULP energy -89324.408071 kJ/mol
# GULP energy per Si atom -5582.775504 kJ/mol
# Density = 2.366541 g / cm^3
# Si number density = 23.719397 Si / 1000 Ang^3
#
#
#
# Elastic Constant Matrix: (Units=GPa)
#
#
# Indices 1 2 3 4 5 6 
#
# 1 61.3415 57.6446 11.1448 0.2049 2.2895 12.1457
# 2 57.6446 199.3920 24.6023 11.3600 6.2949 -6.3677
# 3 11.1448 24.6023 85.6271 9.2784 6.2094 5.2447
# 4 0.2049 11.3600 9.2784 35.6302 -2.4763 -3.3208
# 5 2.2895 6.2949 6.2094 -2.4763 25.1227 11.6878
# 6 12.1457 -6.3677 5.2447 -3.3208 11.6878 51.8977
#
#
#
# Elastic Compliance Matrix: (Units=1/GPa)
#
#
# Indices 1 2 3 4 5 6 
#
# 1 0.024872 -0.007516 -0.001113 0.002107 0.003487 -0.007281
# 2 -0.007516 0.007615 -0.000997 -0.002007 -0.002697 0.003273
# 3 -0.001113 -0.000997 0.012707 -0.003245 -0.002770 -0.000730
# 4 0.002107 -0.002007 -0.003245 0.029861 0.003752 0.000654
# 5 0.003487 -0.002697 -0.002770 0.003752 0.046367 -0.011069
# 6 -0.007281 0.003273 -0.000730 0.000654 -0.011069 0.023983
#
#
# Mechanical properties :
#
#
# Convention : Reuss Voigt Hill
#
# Bulk Modulus (GPa) = 38.54706 59.23823 48.89264
# Shear Modulus (GPa) = 28.85117 39.39472 34.12295
#
# Velocity S-wave (km/s) = 3.49141 4.07979 3.79702
# Velocity P-wave (km/s) = 5.70437 6.87181 6.31512
#
# Compressibility (1/GPa) = 0.02594232
#
# Stress axis : x y z
#
# Youngs Moduli (GPa) = 40.20655 131.31730 78.69617
#
# Poissons Ratio (x) = 0.98694 0.08758
# Poissons Ratio (y) = 0.30218 0.07847
# Poissons Ratio (z) = 0.04475 0.13094
#
# Static dielectric constant tensor:
#      x y z
#    x 1.919830 0.017430 -0.038450 
#    y 0.017430 1.851630 -0.011600 
#    z -0.038450 -0.011600 2.056610 
# 
# From -- ./inp_files/207220.got.cif
#   From: 2010.05.17/outbox.cif.g08.bks.cpg/sg2_104_cif.got.tgz:207220.got - 2010.06.03 11:33:40.
