data_PCOD9110495
_publ_section_title
;
Structure prediction by ZEFSAII (Michael W. Deem and Ramdas Pophale) SiO2 
 PCOD9110495
Probable space group: P -1
;
_chemical_formula_sum "Si O2"
_cell_formula_units_Z 16
_cell_length_a 6.657863
_cell_length_b 9.102289
_cell_length_c 16.712735
_cell_angle_alpha 112.421185
_cell_angle_beta 61.968754
_cell_angle_gamma 128.014817
_cell_volume 698.157805
_symmetry_space_group_name_H-M "P -1"
_symmetry_group_IT_number 2
_symmetry_cell_setting 'triclinic'
loop_
_space_group_symop_operation_xyz
x,y,z
-x,-y,-z
loop_
_atom_site_type_symbol
_atom_site_label
_atom_site_fract_x
_atom_site_fract_y
_atom_site_fract_z
Si Si1 0.703584 0.839408 0.895389
Si Si2 0.786885 0.051169 0.486828
Si Si3 0.739960 0.689043 0.457001
Si Si4 0.157978 0.777147 0.008940
Si Si5 0.691123 0.516730 0.265256
Si Si6 0.726863 0.241505 0.830064
Si Si7 0.210837 0.098180 0.284252
Si Si8 0.571115 0.565492 0.117199
O O1 0.865702 0.901099 0.794867
O O2 0.661332 0.651123 0.901757
O O3 0.813691 0.023020 0.966799
O O4 0.392293 0.774939 0.916892
O O5 0.967054 0.239720 0.545232
O O6 0.978707 0.072021 0.381175
O O7 0.500000 0.000000 0.500000
O O8 0.721285 0.869816 0.513473
O O9 0.500000 0.500000 0.500000
O O10 0.712965 0.651584 0.360159
O O11 0.248494 0.782130 0.085093
O O12 0.846899 0.614536 0.032133
O O13 0.474538 0.305805 0.288474
O O14 0.613289 0.567162 0.205586
O O15 0.995041 0.570309 0.209112
O O16 0.497576 0.281176 0.861132
O O17 0.720489 0.063555 0.755013
#
# Coordination Sequence:
#
# PCOD9110495 Si02
#       8
#     2   2   2   2   2   2   2   2
#     4   9  19  37  60  87 122 165 203 253 308 363
#     4  11  25  44  67  95 125 164 209 262 318 381
#     4  11  23  45  65  93 125 160 206 264 319 379
#     4   9  19  38  59  85 128 163 201 257 306 358
#     4  10  21  41  61  87 126 161 206 252 310 374
#     4  10  21  38  61  90 125 165 207 256 306 369
#     4  10  20  42  63  87 128 165 204 258 317 368
#     4  10  21  36  61  90 119 165 208 252 304 365
#
# _framework density 22.917452999999998
#
# number of rings (size 3 to 8) (size 9 to 14) (size 15 to 20)
#    0.000    2.000    2.500    0.375    0.000    3.000 
#    4.500    5.625    0.000    0.000    0.000    0.000 
#    0.000    0.000    0.000    0.000    0.000    0.000 
#
# Total GULP energy -89373.391798 kJ/mol
# GULP energy per Si atom -5585.836987 kJ/mol
# Density = 2.286529 g / cm^3
# Si number density = 22.917453 Si / 1000 Ang^3
#
#
#
# Elastic Constant Matrix: (Units=GPa)
#
#
# Indices 1 2 3 4 5 6 
#
# 1 94.6004 41.2255 30.4729 -1.3485 -4.8840 -2.0546
# 2 41.2255 150.1467 28.6016 -9.7404 -7.8148 11.3139
# 3 30.4729 28.6016 96.1727 -8.0436 3.0138 -0.0399
# 4 -1.3485 -9.7404 -8.0436 39.8464 6.6902 -2.6152
# 5 -4.8840 -7.8148 3.0138 6.6902 27.0525 2.2138
# 6 -2.0546 11.3139 -0.0399 -2.6152 2.2138 26.1399
#
#
#
# Elastic Compliance Matrix: (Units=1/GPa)
#
#
# Indices 1 2 3 4 5 6 
#
# 1 0.013146 -0.003091 -0.003407 -0.001196 0.001986 0.002078
# 2 -0.003091 0.008252 -0.001456 0.001019 0.002054 -0.003889
# 3 -0.003407 -0.001456 0.012224 0.002578 -0.003109 0.000902
# 4 -0.001196 0.001019 0.002578 0.027212 -0.007167 0.002799
# 5 0.001986 0.002054 -0.003109 -0.007167 0.040435 -0.004879
# 6 0.002078 -0.003889 0.000902 0.002799 -0.004879 0.040797
#
#
# Mechanical properties :
#
#
# Convention : Reuss Voigt Hill
#
# Bulk Modulus (GPa) = 56.45312 60.16886 58.31099
# Shear Modulus (GPa) = 30.51020 34.64910 32.57965
#
# Velocity S-wave (km/s) = 3.65267 3.89255 3.77451
# Velocity P-wave (km/s) = 6.51736 6.82013 6.67046
#
# Compressibility (1/GPa) = 0.01771381
#
# Stress axis : x y z
#
# Youngs Moduli (GPa) = 76.06807 121.17970 81.80717
#
# Poissons Ratio (x) = 0.37459 0.27875
# Poissons Ratio (y) = 0.23514 0.11907
# Poissons Ratio (z) = 0.25920 0.17638
#
# Static dielectric constant tensor:
#      x y z
#    x 1.888090 0.024750 0.027210 
#    y 0.024750 1.909330 0.007580 
#    z 0.027210 0.007580 1.901580 
# 
# From -- ./inp_files/548208.got.cif
#   From: 2010.05.17/outbox.cif.g08.bks.cpg/sg2_275_cif.got.tgz:548208.got - 2010.06.03 11:33:40.
