data_PCOD9110279
_publ_section_title
;
Structure prediction by ZEFSAII (Michael W. Deem and Ramdas Pophale) SiO2 
 PCOD9110279
Probable space group: P -1
;
_chemical_formula_sum "Si O2"
_cell_formula_units_Z 14
_cell_length_a 8.223970
_cell_length_b 18.275370
_cell_length_c 9.479974
_cell_angle_alpha 27.988937
_cell_angle_beta 72.768273
_cell_angle_gamma 62.375125
_cell_volume 570.053876
_symmetry_space_group_name_H-M "P -1"
_symmetry_group_IT_number 2
_symmetry_cell_setting 'triclinic'
loop_
_space_group_symop_operation_xyz
x,y,z
-x,-y,-z
loop_
_atom_site_type_symbol
_atom_site_label
_atom_site_fract_x
_atom_site_fract_y
_atom_site_fract_z
Si Si1 0.421434 0.351071 0.619769
Si Si2 0.993888 0.278172 0.401704
Si Si3 0.932646 0.061190 0.178628
Si Si4 0.749389 0.439967 0.444439
Si Si5 0.700377 0.441300 0.962304
Si Si6 0.417767 0.041226 0.789320
Si Si7 0.731691 0.081980 0.457092
O O1 0.544700 0.458219 0.417923
O O2 0.281405 0.412526 0.684846
O O3 0.320766 0.408601 0.397326
O O4 0.563103 0.148265 0.933980
O O5 0.208543 0.193579 0.550024
O O6 0.866893 0.417308 0.313226
O O7 0.889490 0.380261 0.112484
O O8 0.974084 0.097847 0.685431
O O9 0.776709 0.035890 0.359684
O O10 0.851012 0.250712 0.812341
O O11 0.092060 0.046762 0.274125
O O12 0.725240 0.270115 0.162329
O O13 0.500000 0.500000 0.000000
O O14 0.552360 0.079759 0.582031
O O15 0.500000 0.000000 0.000000
#
# Coordination Sequence:
#
# PCOD9110279 Si02
#       7
#     2   2   2   2   2   2   2
#     4  11  24  42  71 103 141 176 232 290 350 398
#     4  11  24  41  74 101 138 182 240 279 343 419
#     4  10  20  41  72 102 125 187 242 276 328 429
#     4  11  21  41  72 104 132 181 239 283 337 412
#     4  11  21  43  72 101 133 185 237 285 332 416
#     4  12  26  46  68 106 144 185 222 293 354 411
#     4  10  23  41  70  98 143 177 231 284 349 410
#
# _framework density 24.559083000000001
#
# number of rings (size 3 to 8) (size 9 to 14) (size 15 to 20)
#    0.000    1.143    4.286    2.143    2.000    0.571 
#    0.000    5.714    6.286    0.000    0.000    0.000 
#    0.000    0.000    0.000    0.000    0.000    0.000 
#
# Total GULP energy -78234.292621 kJ/mol
# GULP energy per Si atom -5588.163759 kJ/mol
# Density = 2.450318 g / cm^3
# Si number density = 24.559083 Si / 1000 Ang^3
#
#
#
# Elastic Constant Matrix: (Units=GPa)
#
#
# Indices 1 2 3 4 5 6 
#
# 1 83.3017 25.7398 32.4254 9.1697 29.0887 5.3480
# 2 25.7398 113.7945 9.2610 -9.7558 2.0934 0.6945
# 3 32.4254 9.2610 82.8957 -3.6584 35.8412 14.0247
# 4 9.1697 -9.7558 -3.6584 29.3108 -2.3180 6.5966
# 5 29.0887 2.0934 35.8412 -2.3180 45.4111 4.3175
# 6 5.3480 0.6945 14.0247 6.5966 4.3175 24.0526
#
#
#
# Elastic Compliance Matrix: (Units=1/GPa)
#
#
# Indices 1 2 3 4 5 6 
#
# 1 0.019169 -0.004682 -0.003411 -0.009273 -0.010054 0.002210
# 2 -0.004682 0.010274 -0.000216 0.005360 0.003079 -0.001152
# 3 -0.003411 -0.000216 0.021152 0.004963 -0.013243 -0.010553
# 4 -0.009273 0.005360 0.004963 0.042923 0.005270 -0.013705
# 5 -0.010054 0.003079 -0.013243 0.005270 0.038904 0.001440
# 6 0.002210 -0.001152 -0.010553 -0.013705 0.001440 0.050771
#
#
# Mechanical properties :
#
#
# Convention : Reuss Voigt Hill
#
# Bulk Modulus (GPa) = 29.43213 46.09381 37.76297
# Shear Modulus (GPa) = 23.68139 33.92594 28.80367
#
# Velocity S-wave (km/s) = 3.10863 3.72075 3.42838
# Velocity P-wave (km/s) = 4.98949 6.10475 5.57507
#
# Compressibility (1/GPa) = 0.03397647
#
# Stress axis : x y z
#
# Youngs Moduli (GPa) = 52.16804 97.32998 47.27714
#
# Poissons Ratio (x) = 0.45569 0.16127
# Poissons Ratio (y) = 0.24424 0.01023
# Poissons Ratio (z) = 0.17795 0.02106
#
# Static dielectric constant tensor:
#      x y z
#    x 2.015370 -0.010460 -0.010460 
#    y -0.010460 2.011420 0.034310 
#    z -0.010460 0.034310 1.914360 
# 
# From -- ./inp_files/216317.got.cif
#   From: 2010.05.17/outbox.cif.g08.bks.cpg/sg2_109_cif.got.tgz:216317.got - 2010.06.03 11:33:40.
