data_PCOD9110935
_publ_section_title
;
Structure prediction by ZEFSAII (Michael W. Deem and Ramdas Pophale) SiO2 
 PCOD9110935
Probable space group: P -1
;
_chemical_formula_sum "Si O2"
_cell_formula_units_Z 16
_cell_length_a 15.544215
_cell_length_b 13.071235
_cell_length_c 15.368564
_cell_angle_alpha 28.448248
_cell_angle_beta 146.639479
_cell_angle_gamma 145.843878
_cell_volume 764.536069
_symmetry_space_group_name_H-M "P -1"
_symmetry_group_IT_number 2
_symmetry_cell_setting 'triclinic'
loop_
_space_group_symop_operation_xyz
x,y,z
-x,-y,-z
loop_
_atom_site_type_symbol
_atom_site_label
_atom_site_fract_x
_atom_site_fract_y
_atom_site_fract_z
Si Si1 0.975951 0.761931 0.609274
Si Si2 0.999697 0.000329 0.728363
Si Si3 0.654433 0.963181 0.923664
Si Si4 0.381235 0.548482 0.935515
Si Si5 0.197225 0.039528 0.143288
Si Si6 0.152713 0.725853 0.486858
Si Si7 0.638897 0.390756 0.681839
Si Si8 0.152924 0.524215 0.046169
O O1 0.985690 0.829503 0.466890
O O2 0.800043 0.575509 0.631567
O O3 0.000000 0.000000 0.500000
O O4 0.119082 0.662298 0.833009
O O5 0.927548 0.101193 0.670274
O O6 0.185407 0.007970 0.902158
O O7 0.876407 0.739819 0.801892
O O8 0.500215 0.721327 0.976506
O O9 0.727435 0.974862 0.878127
O O10 0.591426 0.165261 0.750492
O O11 0.268801 0.664936 0.700702
O O12 0.500000 0.500000 0.000000
O O13 0.273453 0.290695 0.064238
O O14 0.237824 0.852175 0.376487
O O15 0.000000 0.000000 0.000000
O O16 0.000000 0.500000 0.500000
O O17 0.500000 0.500000 0.500000
O O18 0.691310 0.348488 0.856053
O O19 0.000000 0.500000 0.000000
#
# Coordination Sequence:
#
# PCOD9110935 Si02
#       8
#     2   2   2   2   2   2   2   2
#     4  11  21  41  73  93 124 180 224 269 330 391
#     4  12  23  41  69 100 129 175 228 273 333 390
#     4  11  23  44  67  97 141 175 214 286 338 392
#     4  10  24  44  63  96 139 169 219 279 336 398
#     4  11  22  45  71  99 130 175 225 275 336 392
#     4  12  25  41  71 101 131 173 230 275 323 411
#     4  11  24  43  65  98 139 173 220 276 334 396
#     4  10  20  42  67  94 131 169 223 278 313 393
#
# _framework density 20.927724999999999
#
# number of rings (size 3 to 8) (size 9 to 14) (size 15 to 20)
#    0.000    1.000    7.500    0.750    3.500    3.000 
#    2.250    3.750    0.000    0.000    0.000    0.000 
#    0.000    0.000    0.000    0.000    0.000    0.000 
#
# Total GULP energy -89316.288254 kJ/mol
# GULP energy per Si atom -5582.268016 kJ/mol
# Density = 2.088009 g / cm^3
# Si number density = 20.927725 Si / 1000 Ang^3
#
#
#
# Elastic Constant Matrix: (Units=GPa)
#
#
# Indices 1 2 3 4 5 6 
#
# 1 55.7441 22.7922 26.9097 -5.4831 1.9536 -13.8145
# 2 22.7922 115.7049 12.1292 -34.9468 5.4330 -11.3190
# 3 26.9097 12.1292 92.8920 -7.6410 -8.1096 -6.8306
# 4 -5.4831 -34.9468 -7.6410 42.2617 -4.7976 3.1727
# 5 1.9536 5.4330 -8.1096 -4.7976 52.4543 -4.0478
# 6 -13.8145 -11.3190 -6.8306 3.1727 -4.0478 27.0345
#
#
#
# Elastic Compliance Matrix: (Units=1/GPa)
#
#
# Indices 1 2 3 4 5 6 
#
# 1 0.024697 -0.003808 -0.006190 -0.001885 -0.000918 0.009545
# 2 -0.003808 0.012518 0.000436 0.009764 -0.000020 0.002256
# 3 -0.006190 0.000436 0.012916 0.002137 0.002408 0.000393
# 4 -0.001885 0.009764 0.002137 0.032126 0.002346 0.000246
# 5 -0.000918 -0.000020 0.002408 0.002346 0.019906 0.002836
# 6 0.009545 0.002256 0.000393 0.000246 0.002836 0.043307
#
#
# Mechanical properties :
#
#
# Convention : Reuss Voigt Hill
#
# Bulk Modulus (GPa) = 32.25227 43.11149 37.68188
# Shear Modulus (GPa) = 28.58264 37.85075 33.21670
#
# Velocity S-wave (km/s) = 3.69965 4.25743 3.98830
# Velocity P-wave (km/s) = 5.80471 6.69421 6.26527
#
# Compressibility (1/GPa) = 0.03100557
#
# Stress axis : x y z
#
# Youngs Moduli (GPa) = 40.49093 79.88489 77.42094
#
# Poissons Ratio (x) = 0.30424 0.47927
# Poissons Ratio (y) = 0.15421 -0.03376
# Poissons Ratio (z) = 0.25066 -0.03484
#
# Static dielectric constant tensor:
#      x y z
#    x 1.786080 -0.032790 -0.032140 
#    y -0.032790 1.772810 0.052520 
#    z -0.032140 0.052520 1.750320 
# 
# From -- ./inp_files/343022.got.cif
#   From: 2010.05.17/outbox.cif.g08.bks.cpg/sg2_172_cif.got.tgz:343022.got - 2010.06.03 11:33:40.
