data_PCOD9110672
_publ_section_title
;
Structure prediction by ZEFSAII (Michael W. Deem and Ramdas Pophale) SiO2 
 PCOD9110672
Probable space group: P -1
;
_chemical_formula_sum "Si O2"
_cell_formula_units_Z 16
_cell_length_a 8.215847
_cell_length_b 16.422301
_cell_length_c 8.490824
_cell_angle_alpha 126.740813
_cell_angle_beta 43.261170
_cell_angle_gamma 108.246580
_cell_volume 613.293942
_symmetry_space_group_name_H-M "P -1"
_symmetry_group_IT_number 2
_symmetry_cell_setting 'triclinic'
loop_
_space_group_symop_operation_xyz
x,y,z
-x,-y,-z
loop_
_atom_site_type_symbol
_atom_site_label
_atom_site_fract_x
_atom_site_fract_y
_atom_site_fract_z
Si Si1 0.374789 0.009615 0.271910
Si Si2 0.442220 0.344465 0.684134
Si Si3 0.808067 0.150400 0.583524
Si Si4 0.465792 0.468306 0.309787
Si Si5 0.292857 0.309053 0.074656
Si Si6 0.033474 0.677735 0.184223
Si Si7 0.986124 0.812591 0.096941
Si Si8 0.253946 0.895976 0.765294
O O1 0.211048 0.122012 0.567625
O O2 0.598739 0.013345 0.234299
O O3 0.229099 0.925144 0.335212
O O4 0.500000 0.000000 0.000000
O O5 0.601144 0.424796 0.615519
O O6 0.587264 0.224681 0.464536
O O7 0.216668 0.349899 0.727691
O O8 0.336607 0.374911 0.966565
O O9 0.994200 0.224669 0.566408
O O10 0.866658 0.099572 0.313706
O O11 0.538738 0.224507 0.843919
O O12 0.500000 0.500000 0.500000
O O13 0.280252 0.392675 0.321247
O O14 0.745274 0.408799 0.001919
O O15 0.113319 0.242611 0.046900
O O16 0.132724 0.722987 0.004570
O O17 0.105956 0.898043 0.031905
#
# Coordination Sequence:
#
# PCOD9110672 Si02
#       8
#     2   2   2   2   2   2   2   2
#     4  12  25  44  69  95 133 176 220 272 329 393
#     4  10  20  42  65  88 131 177 214 264 330 387
#     4  10  22  42  67  96 131 170 226 267 332 386
#     4  11  22  36  64 100 129 168 220 270 324 390
#     4   9  21  43  63  90 132 172 214 271 324 392
#     4  10  21  41  63  94 136 170 219 269 325 395
#     4  11  23  45  66  95 136 174 223 264 335 392
#     4  11  23  43  67  95 132 177 215 279 324 385
#
# _framework density 26.088632
#
# number of rings (size 3 to 8) (size 9 to 14) (size 15 to 20)
#    0.000    1.500    3.750    2.625    0.000    4.500 
#    2.250    6.875    0.000    0.000    0.000    0.000 
#    0.000    0.000    0.000    0.000    0.000    0.000 
#
# Total GULP energy -89275.185872 kJ/mol
# GULP energy per Si atom -5579.699117 kJ/mol
# Density = 2.602925 g / cm^3
# Si number density = 26.088632 Si / 1000 Ang^3
#
#
#
# Elastic Constant Matrix: (Units=GPa)
#
#
# Indices 1 2 3 4 5 6 
#
# 1 104.7625 10.1627 20.5083 22.2590 22.7076 13.1653
# 2 10.1627 103.4466 12.7782 10.3617 1.5606 -0.0712
# 3 20.5083 12.7782 93.0839 0.6563 21.4616 3.3262
# 4 22.2590 10.3617 0.6563 28.9965 -5.5558 7.9358
# 5 22.7076 1.5606 21.4616 -5.5558 42.3424 6.6557
# 6 13.1653 -0.0712 3.3262 7.9358 6.6557 33.0850
#
#
#
# Elastic Compliance Matrix: (Units=1/GPa)
#
#
# Indices 1 2 3 4 5 6 
#
# 1 0.014387 0.000098 -0.001063 -0.012477 -0.008679 -0.000879
# 2 0.000098 0.010243 -0.001329 -0.004129 -0.000487 0.001205
# 3 -0.001063 -0.001329 0.012484 -0.000206 -0.005795 0.000380
# 4 -0.012477 -0.004129 -0.000206 0.051332 0.015321 -0.010418
# 5 -0.008679 -0.000487 -0.005795 0.015321 0.034264 -0.006533
# 6 -0.000879 0.001205 0.000380 -0.010418 -0.006533 0.034352
#
#
# Mechanical properties :
#
#
# Convention : Reuss Voigt Hill
#
# Bulk Modulus (GPa) = 30.74493 43.13237 36.93865
# Shear Modulus (GPa) = 28.98696 38.07437 33.53067
#
# Velocity S-wave (km/s) = 3.33693 3.82439 3.58894
# Velocity P-wave (km/s) = 5.16306 6.00584 5.60033
#
# Compressibility (1/GPa) = 0.03252569
#
# Stress axis : x y z
#
# Youngs Moduli (GPa) = 69.50856 97.62648 80.10466
#
# Poissons Ratio (x) = -0.00957 0.08512
# Poissons Ratio (y) = -0.00681 0.10648
# Poissons Ratio (z) = 0.07386 0.12977
#
# Static dielectric constant tensor:
#      x y z
#    x 2.081820 0.008800 -0.029600 
#    y 0.008800 2.000700 0.013890 
#    z -0.029600 0.013890 2.199430 
# 
# From -- ./inp_files/218481.got.cif
#   From: 2010.05.17/outbox.cif.g08.bks.cpg/sg2_110_cif.got.tgz:218481.got - 2010.06.03 11:33:40.
