data_PCOD9110856
_publ_section_title
;
Structure prediction by ZEFSAII (Michael W. Deem and Ramdas Pophale) SiO2 
 PCOD9110856
Probable space group: P -1
;
_chemical_formula_sum "Si O2"
_cell_formula_units_Z 16
_cell_length_a 12.616262
_cell_length_b 17.446537
_cell_length_c 9.426521
_cell_angle_alpha 149.704133
_cell_angle_beta 49.012324
_cell_angle_gamma 128.723249
_cell_volume 780.484556
_symmetry_space_group_name_H-M "P -1"
_symmetry_group_IT_number 2
_symmetry_cell_setting 'triclinic'
loop_
_space_group_symop_operation_xyz
x,y,z
-x,-y,-z
loop_
_atom_site_type_symbol
_atom_site_label
_atom_site_fract_x
_atom_site_fract_y
_atom_site_fract_z
Si Si1 0.984406 0.138381 0.845385
Si Si2 0.264339 0.347248 0.058753
Si Si3 0.337940 0.887725 0.416674
Si Si4 0.687679 0.677357 0.683665
Si Si5 0.718133 0.296511 0.337363
Si Si6 0.374071 0.675482 0.845258
Si Si7 0.518561 0.180253 0.566612
Si Si8 0.131587 0.027322 0.032346
O O1 0.867230 0.246034 0.079634
O O2 0.000000 0.000000 0.500000
O O3 0.132597 0.243464 0.930120
O O4 0.916948 0.062984 0.928722
O O5 0.275746 0.315212 0.167746
O O6 0.260013 0.529349 0.340688
O O7 0.408314 0.289556 0.788268
O O8 0.398333 0.767450 0.278189
O O9 0.435387 0.019271 0.446979
O O10 0.252809 0.973226 0.740170
O O11 0.270104 0.777561 0.176219
O O12 0.534163 0.716804 0.833012
O O13 0.680699 0.502374 0.365145
O O14 0.810030 0.797920 0.700122
O O15 0.624778 0.297075 0.278973
O O16 0.631094 0.181674 0.344214
O O17 0.000000 0.000000 0.000000
#
# Coordination Sequence:
#
# PCOD9110856 Si02
#       8
#     2   2   2   2   2   2   2   2
#     4  12  28  47  65  99 137 174 230 283 337 404
#     4  11  22  46  68  93 140 184 220 276 340 408
#     4  11  21  40  69  97 134 169 226 278 324 400
#     4  10  20  42  66  98 129 174 217 271 330 394
#     4  11  26  42  68 100 140 180 218 276 350 403
#     4  10  23  39  66 100 137 163 218 279 328 390
#     4  11  21  40  70 101 130 178 226 271 339 401
#     4  12  23  44  72  91 128 186 229 270 335 407
#
# _framework density 20.500084000000001
#
# number of rings (size 3 to 8) (size 9 to 14) (size 15 to 20)
#    0.000    1.000    5.000    1.500    3.500    1.500 
#    2.250    0.625    0.000    0.000    0.000    0.000 
#    0.000    0.000    0.000    0.000    0.000    0.000 
#
# Total GULP energy -89104.104538 kJ/mol
# GULP energy per Si atom -5569.006534 kJ/mol
# Density = 2.045343 g / cm^3
# Si number density = 20.500084 Si / 1000 Ang^3
#
#
#
# Elastic Constant Matrix: (Units=GPa)
#
#
# Indices 1 2 3 4 5 6 
#
# 1 96.3766 34.5717 39.2749 6.6805 -0.2493 9.7575
# 2 34.5717 81.0341 39.1990 -3.2434 3.5099 -2.2433
# 3 39.2749 39.1990 111.8242 -3.5431 4.2598 2.9004
# 4 6.6805 -3.2434 -3.5431 18.5946 2.2647 -1.3832
# 5 -0.2493 3.5099 4.2598 2.2647 32.1487 -0.2205
# 6 9.7575 -2.2433 2.9004 -1.3832 -0.2205 27.7807
#
#
#
# Elastic Compliance Matrix: (Units=1/GPa)
#
#
# Indices 1 2 3 4 5 6 
#
# 1 0.014734 -0.005096 -0.003543 -0.007471 0.001628 -0.005576
# 2 -0.005096 0.016801 -0.003993 0.004480 -0.001634 0.003774
# 3 -0.003543 -0.003993 0.011737 0.002965 -0.001357 -0.000167
# 4 -0.007471 0.004480 0.002965 0.058838 -0.005047 0.005566
# 5 0.001628 -0.001634 -0.001357 -0.005047 0.031828 -0.000561
# 6 -0.005576 0.003774 -0.000167 0.005566 -0.000561 0.038549
#
#
# Mechanical properties :
#
#
# Convention : Reuss Voigt Hill
#
# Bulk Modulus (GPa) = 55.53194 57.25845 56.39520
# Shear Modulus (GPa) = 24.53935 27.45075 25.99505
#
# Velocity S-wave (km/s) = 3.46358 3.66328 3.56483
# Velocity P-wave (km/s) = 6.56830 6.77380 6.67184
#
# Compressibility (1/GPa) = 0.01800765
#
# Stress axis : x y z
#
# Youngs Moduli (GPa) = 67.86874 59.52042 85.20374
#
# Poissons Ratio (x) = 0.30334 0.30184
# Poissons Ratio (y) = 0.34588 0.34023
# Poissons Ratio (z) = 0.24043 0.23767
#
# Static dielectric constant tensor:
#      x y z
#    x 1.770920 0.024390 -0.082980 
#    y 0.024390 1.725350 -0.018670 
#    z -0.082980 -0.018670 1.746830 
# 
# From -- ./inp_files/280216.got.cif
#   From: 2010.05.17/outbox.cif.g08.bks.cpg/sg2_141_cif.got.tgz:280216.got - 2010.06.03 11:33:40.
