data_PCOD9110017
_publ_section_title
;
Structure prediction by ZEFSAII (Michael W. Deem and Ramdas Pophale) SiO2 
 PCOD9110017
Probable space group: P -1
;
_chemical_formula_sum "Si O2"
_cell_formula_units_Z 16
_cell_length_a 8.735701
_cell_length_b 13.735059
_cell_length_c 9.432606
_cell_angle_alpha 72.083338
_cell_angle_beta 42.683314
_cell_angle_gamma 83.369620
_cell_volume 719.245478
_symmetry_space_group_name_H-M "P -1"
_symmetry_group_IT_number 2
_symmetry_cell_setting 'triclinic'
loop_
_space_group_symop_operation_xyz
x,y,z
-x,-y,-z
loop_
_atom_site_type_symbol
_atom_site_label
_atom_site_fract_x
_atom_site_fract_y
_atom_site_fract_z
Si Si1 0.732872 0.790517 0.840618
Si Si2 0.770753 0.200874 0.414749
Si Si3 0.981039 0.594599 0.571818
Si Si4 0.484712 0.674697 0.295733
Si Si5 0.225912 0.492866 0.944107
Si Si6 0.421014 0.305786 0.285549
Si Si7 0.565318 0.986068 0.801201
Si Si8 0.607414 0.107732 0.304322
O O1 0.563952 0.714591 0.885693
O O2 0.744874 0.906182 0.722850
O O3 0.984849 0.763855 0.694701
O O4 0.626716 0.773523 0.075427
O O5 0.600695 0.284384 0.514994
O O6 0.806053 0.167426 0.243148
O O7 0.662288 0.094941 0.615036
O O8 0.829176 0.663718 0.556110
O O9 0.000000 0.500000 0.500000
O O10 0.240882 0.644968 0.400504
O O11 0.858463 0.552430 0.822894
O O12 0.628929 0.582089 0.209753
O O13 0.391780 0.601507 0.821450
O O14 0.000000 0.500000 0.000000
O O15 0.438897 0.192746 0.384186
O O16 0.365133 0.924970 0.862221
O O17 0.500000 0.000000 0.000000
O O18 0.500000 0.000000 0.500000
#
# Coordination Sequence:
#
# PCOD9110017 Si02
#       8
#     2   2   2   2   2   2   2   2
#     4  11  22  40  68 101 132 182 234 288 342 414
#     4  11  22  41  70  95 141 181 226 296 349 406
#     4  12  24  44  70  99 137 185 237 287 339 416
#     4  12  23  40  71  96 137 175 239 279 349 407
#     4  12  28  45  68 103 146 182 230 293 350 417
#     4  11  22  42  71  96 140 185 231 286 345 407
#     4  10  20  41  69 100 135 181 233 284 346 419
#     4   9  23  42  68 103 140 177 228 290 352 412
#
# _framework density 22.245536999999999
#
# number of rings (size 3 to 8) (size 9 to 14) (size 15 to 20)
#    0.000    1.000    5.000    1.500    3.500    1.500 
#    0.000    0.625    5.500    0.000    0.000    0.000 
#    0.000    0.000    0.000    0.000    0.000    0.000 
#
# Total GULP energy -89132.506854 kJ/mol
# GULP energy per Si atom -5570.781678 kJ/mol
# Density = 2.219490 g / cm^3
# Si number density = 22.245537 Si / 1000 Ang^3
#
#
#
# Elastic Constant Matrix: (Units=GPa)
#
#
# Indices 1 2 3 4 5 6 
#
# 1 136.8633 71.7569 41.3347 7.9585 -5.5667 10.6510
# 2 71.7569 146.3577 47.6811 7.8196 -3.8627 -1.3091
# 3 41.3347 47.6811 65.4737 11.9647 -4.1384 3.5493
# 4 7.9585 7.8196 11.9647 29.0223 5.3259 6.4539
# 5 -5.5667 -3.8627 -4.1384 5.3259 34.5367 10.4372
# 6 10.6510 -1.3091 3.5493 6.4539 10.4372 51.4155
#
#
#
# Elastic Compliance Matrix: (Units=1/GPa)
#
#
# Indices 1 2 3 4 5 6 
#
# 1 0.010796 -0.004101 -0.003571 -0.000143 0.001601 -0.002401
# 2 -0.004101 0.010540 -0.005250 0.000212 -0.000621 0.001580
# 3 -0.003571 -0.005250 0.022934 -0.007457 0.002927 -0.000635
# 4 -0.000143 0.000212 -0.007457 0.039318 -0.005999 -0.003168
# 5 0.001601 -0.000621 0.002927 -0.005999 0.032342 -0.006362
# 6 -0.002401 0.001580 -0.000635 -0.003168 -0.006362 0.021720
#
#
# Mechanical properties :
#
#
# Convention : Reuss Voigt Hill
#
# Bulk Modulus (GPa) = 54.27794 74.47112 64.37453
# Shear Modulus (GPa) = 29.47489 35.52303 32.49896
#
# Velocity S-wave (km/s) = 3.64398 4.00041 3.82635
# Velocity P-wave (km/s) = 6.49286 7.40859 6.96579
#
# Compressibility (1/GPa) = 0.01842369
#
# Stress axis : x y z
#
# Youngs Moduli (GPa) = 92.63002 94.87511 43.60389
#
# Poissons Ratio (x) = 0.38908 0.15573
# Poissons Ratio (y) = 0.37988 0.22894
# Poissons Ratio (z) = 0.33082 0.49814
#
# Static dielectric constant tensor:
#      x y z
#    x 1.919040 0.028110 0.044680 
#    y 0.028110 1.908200 0.047880 
#    z 0.044680 0.047880 1.810450 
# 
# From -- ./inp_files/206651.got.cif
#   From: 2010.05.17/outbox.cif.g08.bks.cpg/sg2_104_cif.got.tgz:206651.got - 2010.06.03 11:33:40.
