data_PCOD9110680
_publ_section_title
;
Structure prediction by ZEFSAII (Michael W. Deem and Ramdas Pophale) SiO2 
 PCOD9110680
Probable space group: P -1
;
_chemical_formula_sum "Si O2"
_cell_formula_units_Z 16
_cell_length_a 18.017333
_cell_length_b 5.618419
_cell_length_c 9.757005
_cell_angle_alpha 56.668345
_cell_angle_beta 120.520528
_cell_angle_gamma 116.190427
_cell_volume 692.573261
_symmetry_space_group_name_H-M "P -1"
_symmetry_group_IT_number 2
_symmetry_cell_setting 'triclinic'
loop_
_space_group_symop_operation_xyz
x,y,z
-x,-y,-z
loop_
_atom_site_type_symbol
_atom_site_label
_atom_site_fract_x
_atom_site_fract_y
_atom_site_fract_z
Si Si1 0.554297 0.436692 0.703219
Si Si2 0.269863 0.597302 0.235474
Si Si3 0.119730 0.807882 0.933451
Si Si4 0.491344 0.752372 0.806624
Si Si5 0.134494 0.198761 0.582477
Si Si6 0.968934 0.359859 0.803462
Si Si7 0.703321 0.317349 0.459431
Si Si8 0.855272 0.993487 0.619122
O O1 0.500000 0.500000 0.500000
O O2 0.658819 0.523206 0.744867
O O3 0.529199 0.632651 0.740666
O O4 0.533817 0.078339 0.801821
O O5 0.313075 0.717209 0.382243
O O6 0.186577 0.343619 0.283135
O O7 0.223705 0.814834 0.040552
O O8 0.065424 0.528851 0.885241
O O9 0.109717 0.083828 0.746319
O O10 0.081792 0.767559 0.064290
O O11 0.388940 0.752608 0.681580
O O12 0.500000 0.500000 0.000000
O O13 0.075843 0.406692 0.394638
O O14 0.238155 0.358710 0.620134
O O15 0.123440 0.944241 0.539341
O O16 0.943041 0.093868 0.758302
O O17 0.774130 0.133176 0.541336
#
# Coordination Sequence:
#
# PCOD9110680 Si02
#       8
#     2   2   2   2   2   2   2   2
#     4  12  26  46  74 102 137 189 240 288 356 428
#     4  11  23  41  67  96 128 172 230 281 337 412
#     4  11  22  41  65  94 131 171 223 276 336 415
#     4  12  28  46  70 105 145 185 233 300 358 422
#     4  10  22  41  63  94 131 173 219 276 338 409
#     4  10  22  43  62  93 133 173 216 278 341 400
#     4  10  22  43  66  90 136 177 212 283 349 407
#     4  10  20  42  65  89 134 171 218 275 348 399
#
# _framework density 23.102252
#
# number of rings (size 3 to 8) (size 9 to 14) (size 15 to 20)
#    0.000    1.250    5.000    1.875    5.250    2.000 
#    4.500    0.000    0.000    0.000    0.000    0.000 
#    0.000    0.000    0.000    0.000    0.000    0.000 
#
# Total GULP energy -89339.401065 kJ/mol
# GULP energy per Si atom -5583.712567 kJ/mol
# Density = 2.304967 g / cm^3
# Si number density = 23.102252 Si / 1000 Ang^3
#
#
#
# Elastic Constant Matrix: (Units=GPa)
#
#
# Indices 1 2 3 4 5 6 
#
# 1 94.7019 3.8236 34.5133 -0.6235 6.2121 -2.9821
# 2 3.8236 66.8333 9.5448 -0.4287 -11.2413 5.7298
# 3 34.5133 9.5448 117.4332 -12.3194 -4.4201 5.9528
# 4 -0.6235 -0.4287 -12.3194 31.6633 2.5227 9.3103
# 5 6.2121 -11.2413 -4.4201 2.5227 35.7957 1.9302
# 6 -2.9821 5.7298 5.9528 9.3103 1.9302 33.7151
#
#
#
# Elastic Compliance Matrix: (Units=1/GPa)
#
#
# Indices 1 2 3 4 5 6 
#
# 1 0.012307 -0.000861 -0.003984 -0.001857 -0.002908 0.002618
# 2 -0.000861 0.016274 -0.000663 0.000449 0.005317 -0.003153
# 3 -0.003984 -0.000663 0.010496 0.004908 0.001624 -0.003541
# 4 -0.001857 0.000449 0.004908 0.036836 -0.000921 -0.011227
# 5 -0.002908 0.005317 0.001624 -0.000921 0.030535 -0.002941
# 6 0.002618 -0.003153 -0.003541 -0.011227 -0.002941 0.034322
#
#
# Mechanical properties :
#
#
# Convention : Reuss Voigt Hill
#
# Bulk Modulus (GPa) = 35.63536 41.63685 38.63610
# Shear Modulus (GPa) = 31.02934 35.64062 33.33498
#
# Velocity S-wave (km/s) = 3.66885 3.93203 3.80272
# Velocity P-wave (km/s) = 5.77978 6.21904 6.00343
#
# Compressibility (1/GPa) = 0.02806201
#
# Stress axis : x y z
#
# Youngs Moduli (GPa) = 81.25368 61.44795 95.27628
#
# Poissons Ratio (x) = 0.05288 0.37959
# Poissons Ratio (y) = 0.06993 0.06314
# Poissons Ratio (z) = 0.32372 0.04072
#
# Static dielectric constant tensor:
#      x y z
#    x 1.858750 -0.021060 -0.009320 
#    y -0.021060 2.023550 -0.041320 
#    z -0.009320 -0.041320 1.870090 
# 
# From -- ./inp_files/52157.got.cif
#   From: 2010.05.17/outbox.cif.g08.bks.cpg/sg2_27_cif.got.tgz:52157.got - 2010.06.03 11:33:40.
