data_PCOD9110310
_publ_section_title
;
Structure prediction by ZEFSAII (Michael W. Deem and Ramdas Pophale) SiO2 
 PCOD9110310
Probable space group: P -1
;
_chemical_formula_sum "Si O2"
_cell_formula_units_Z 12
_cell_length_a 24.674800
_cell_length_b 10.346887
_cell_length_c 15.754622
_cell_angle_alpha 25.364271
_cell_angle_beta 162.746312
_cell_angle_gamma 154.889501
_cell_volume 481.545545
_symmetry_space_group_name_H-M "P -1"
_symmetry_group_IT_number 2
_symmetry_cell_setting 'triclinic'
loop_
_space_group_symop_operation_xyz
x,y,z
-x,-y,-z
loop_
_atom_site_type_symbol
_atom_site_label
_atom_site_fract_x
_atom_site_fract_y
_atom_site_fract_z
Si Si1 0.250921 0.636024 0.710536
Si Si2 0.777505 0.378241 0.846313
Si Si3 0.841991 0.705482 0.567581
Si Si4 0.220870 0.198353 0.238394
Si Si5 0.784719 0.303087 0.187664
Si Si6 0.499112 0.285072 0.208106
O O1 0.290779 0.765403 0.789085
O O2 0.019390 0.463739 0.453921
O O3 0.312666 0.932984 0.561379
O O4 0.356912 0.381400 0.003152
O O5 0.834073 0.604534 0.714080
O O6 0.779429 0.587994 0.806495
O O7 0.582085 0.087892 0.710278
O O8 0.943773 0.211999 0.197938
O O9 0.708990 0.408314 0.491030
O O10 0.758708 0.997037 0.271082
O O11 0.298461 0.447612 0.130461
O O12 0.000000 0.000000 0.000000
O O13 0.500000 0.500000 0.000000
#
# Coordination Sequence:
#
# PCOD9110310 Si02
#       6
#     2   2   2   2   2   2
#     4  10  22  44  66 103 140 173 236 282 344 414
#     4  11  24  47  69 101 144 179 241 284 342 423
#     4  11  24  43  74 101 138 192 226 290 352 404
#     4  10  22  39  73 101 130 185 230 283 346 411
#     4  10  20  41  72  99 134 186 225 286 348 399
#     4  12  27  44  69 104 142 184 232 286 349 419
#
# _framework density 24.91976
#
# number of rings (size 3 to 8) (size 9 to 14) (size 15 to 20)
#    0.000    1.333    3.333    1.500    4.667    2.000 
#    3.000    1.667    0.000    0.000    0.000    0.000 
#    0.000    0.000    0.000    0.000    0.000    0.000 
#
# Total GULP energy -67263.171135 kJ/mol
# GULP energy per Si atom -5605.264261 kJ/mol
# Density = 2.486304 g / cm^3
# Si number density = 24.919760 Si / 1000 Ang^3
#
#
#
# Elastic Constant Matrix: (Units=GPa)
#
#
# Indices 1 2 3 4 5 6 
#
# 1 51.6326 9.7210 16.2363 3.4210 -6.8607 -6.0198
# 2 9.7210 140.2215 23.7140 4.3620 8.0844 -28.7887
# 3 16.2363 23.7140 61.2592 -6.2089 -1.1939 -0.3132
# 4 3.4210 4.3620 -6.2089 42.5171 -2.1964 -9.6450
# 5 -6.8607 8.0844 -1.1939 -2.1964 32.0684 -5.7529
# 6 -6.0198 -28.7887 -0.3132 -9.6450 -5.7529 33.9834
#
#
#
# Elastic Compliance Matrix: (Units=1/GPa)
#
#
# Indices 1 2 3 4 5 6 
#
# 1 0.022572 0.000131 -0.006050 -0.001408 0.005291 0.004550
# 2 0.000131 0.009399 -0.003632 0.000218 -0.001056 0.007835
# 3 -0.006050 -0.003632 0.019624 0.003020 0.000001 -0.003110
# 4 -0.001408 0.000218 0.003020 0.025981 0.002941 0.007835
# 5 0.005291 -0.001056 0.000001 0.002941 0.033972 0.006628
# 6 0.004550 0.007835 -0.003110 0.007835 0.006628 0.040187
#
#
# Mechanical properties :
#
#
# Convention : Reuss Voigt Hill
#
# Bulk Modulus (GPa) = 30.77453 39.16178 34.96815
# Shear Modulus (GPa) = 27.52292 35.27659 31.39975
#
# Velocity S-wave (km/s) = 3.32695 3.76654 3.55355
# Velocity P-wave (km/s) = 5.20907 5.88770 5.55875
#
# Compressibility (1/GPa) = 0.03249440
#
# Stress axis : x y z
#
# Youngs Moduli (GPa) = 44.30279 106.38869 50.95914
#
# Poissons Ratio (x) = -0.01395 0.30828
# Poissons Ratio (y) = -0.00581 0.18508
# Poissons Ratio (z) = 0.26801 0.38639
#
# Static dielectric constant tensor:
#      x y z
#    x 1.928360 0.006010 0.003910 
#    y 0.006010 2.073080 -0.001610 
#    z 0.003910 -0.001610 1.935370 
# 
# From -- ./inp_files/181389.got.cif
#   From: 2010.05.17/outbox.cif.g08.bks.cpg/sg2_91_cif.got.tgz:181389.got - 2010.06.03 11:33:40.
