data_PCOD9110112
_publ_section_title
;
Structure prediction by ZEFSAII (Michael W. Deem and Ramdas Pophale) SiO2 
 PCOD9110112
Probable space group: P -1
;
_chemical_formula_sum "Si O2"
_cell_formula_units_Z 16
_cell_length_a 5.766010
_cell_length_b 17.679231
_cell_length_c 8.251750
_cell_angle_alpha 63.888724
_cell_angle_beta 87.550009
_cell_angle_gamma 104.642536
_cell_volume 719.217944
_symmetry_space_group_name_H-M "P -1"
_symmetry_group_IT_number 2
_symmetry_cell_setting 'triclinic'
loop_
_space_group_symop_operation_xyz
x,y,z
-x,-y,-z
loop_
_atom_site_type_symbol
_atom_site_label
_atom_site_fract_x
_atom_site_fract_y
_atom_site_fract_z
Si Si1 0.178448 0.883122 0.052941
Si Si2 0.222368 0.465963 0.963373
Si Si3 0.425593 0.566244 0.555957
Si Si4 0.857139 0.683868 0.667474
Si Si5 0.271711 0.725370 0.365753
Si Si6 0.490899 0.914269 0.683368
Si Si7 0.662815 0.840008 0.469032
Si Si8 0.098504 0.003060 0.189287
O O1 0.322829 0.895763 0.865961
O O2 0.147698 0.783441 0.203942
O O3 0.262942 0.948023 0.148213
O O4 0.951935 0.920710 0.991549
O O5 0.244784 0.500139 0.747815
O O6 0.500000 0.500000 0.000000
O O7 0.150139 0.363929 0.115835
O O8 0.000000 0.500000 0.000000
O O9 0.500000 0.500000 0.500000
O O10 0.644325 0.625173 0.608699
O O11 0.327303 0.636427 0.393127
O O12 0.816698 0.778528 0.588355
O O13 0.104495 0.692656 0.558117
O O14 0.519377 0.795057 0.356196
O O15 0.469634 0.842271 0.612786
O O16 0.500000 0.000000 0.500000
O O17 0.761636 0.940356 0.720413
O O18 0.851220 0.933451 0.326287
#
# Coordination Sequence:
#
# PCOD9110112 Si02
#       8
#     2   2   2   2   2   2   2   2
#     4  11  25  38  64  92 127 171 216 259 320 391
#     4  10  20  41  69  98 127 174 217 263 334 410
#     4  10  23  42  69  98 130 163 217 275 331 401
#     4  10  22  41  67  92 129 170 210 265 331 399
#     4  11  23  42  65  94 129 172 214 260 336 395
#     4  12  25  40  62  92 124 169 223 273 318 375
#     4  11  24  40  65  92 127 166 218 273 316 384
#     4  11  24  41  64  89 126 176 215 261 321 385
#
# _framework density 22.246385
#
# number of rings (size 3 to 8) (size 9 to 14) (size 15 to 20)
#    0.000    1.250    3.750    1.500    3.500    1.500 
#    0.000    1.250    0.000    0.000    0.000    0.000 
#    0.000    0.000    0.000    0.000    0.000    0.000 
#
# Total GULP energy -89138.886746 kJ/mol
# GULP energy per Si atom -5571.180422 kJ/mol
# Density = 2.219575 g / cm^3
# Si number density = 22.246385 Si / 1000 Ang^3
#
#
#
# Elastic Constant Matrix: (Units=GPa)
#
#
# Indices 1 2 3 4 5 6 
#
# 1 46.9569 13.5860 24.4195 -14.0737 -5.6525 -22.2307
# 2 13.5860 92.6235 51.2050 -9.3758 5.6298 -44.1941
# 3 24.4195 51.2050 137.9737 -19.5049 -8.8804 -15.8029
# 4 -14.0737 -9.3758 -19.5049 41.3597 -21.4974 0.6015
# 5 -5.6525 5.6298 -8.8804 -21.4974 45.7632 -2.0380
# 6 -22.2307 -44.1941 -15.8029 0.6015 -2.0380 34.0616
#
#
#
# Elastic Compliance Matrix: (Units=1/GPa)
#
#
# Indices 1 2 3 4 5 6 
#
# 1 0.105271 0.071626 -0.016462 0.061055 0.036585 0.155113
# 2 0.071626 0.085266 -0.019762 0.043415 0.021541 0.148732
# 3 -0.016462 -0.019762 0.013644 -0.003072 0.000267 -0.029984
# 4 0.061055 0.043415 -0.003072 0.072774 0.040059 0.095865
# 5 0.036585 0.021541 0.000267 0.040059 0.044992 0.053935
# 6 0.155113 0.148732 -0.029984 0.095865 0.053935 0.311195
#
#
# Mechanical properties :
#
#
# Convention : Reuss Voigt Hill
#
# Bulk Modulus (GPa) = 3.63654 50.66391 27.15023
# Shear Modulus (GPa) = 7.64526 36.79314 22.21920
#
# Velocity S-wave (km/s) = 1.85583 4.07122 3.16377
# Velocity P-wave (km/s) = 2.49606 6.70248 5.05735
#
# Compressibility (1/GPa) = 0.27498688
#
# Stress axis : x y z
#
# Youngs Moduli (GPa) = 9.49925 11.72794 73.29244
#
# Poissons Ratio (x) = -0.84003 1.20652
# Poissons Ratio (y) = -0.68040 1.44841
# Poissons Ratio (z) = 0.15637 0.23177
#
# Static dielectric constant tensor:
#      x y z
#    x 1.919780 0.005750 0.004430 
#    y 0.005750 1.746520 -0.063920 
#    z 0.004430 -0.063920 1.762320 
# 
# From -- ./inp_files/122936.got.cif
#   From: 2010.05.17/outbox.cif.g08.bks.cpg/sg2_62_cif.got.tgz:122936.got - 2010.06.03 11:33:40.
