data_PCOD9110438
_publ_section_title
;
Structure prediction by ZEFSAII (Michael W. Deem and Ramdas Pophale) SiO2 
 PCOD9110438
Probable space group: P -1
;
_chemical_formula_sum "Si O2"
_cell_formula_units_Z 16
_cell_length_a 11.256350
_cell_length_b 14.901911
_cell_length_c 15.175549
_cell_angle_alpha 141.013903
_cell_angle_beta 155.336232
_cell_angle_gamma 39.069601
_cell_volume 644.102797
_symmetry_space_group_name_H-M "P -1"
_symmetry_group_IT_number 2
_symmetry_cell_setting 'triclinic'
loop_
_space_group_symop_operation_xyz
x,y,z
-x,-y,-z
loop_
_atom_site_type_symbol
_atom_site_label
_atom_site_fract_x
_atom_site_fract_y
_atom_site_fract_z
Si Si1 0.350582 0.261823 0.504199
Si Si2 0.409402 0.336797 0.412815
Si Si3 0.616547 0.636282 0.779890
Si Si4 0.845335 0.034511 0.830216
Si Si5 0.076523 0.202110 0.768290
Si Si6 0.972527 0.071078 0.760839
Si Si7 0.058502 0.204637 0.559103
Si Si8 0.607782 0.637508 0.211417
O O1 0.242131 0.311491 0.369694
O O2 0.706238 0.219889 0.700928
O O3 0.270802 0.377622 0.618282
O O4 0.280373 0.110649 0.375286
O O5 0.528117 0.483037 0.610915
O O6 0.260297 0.348070 0.224230
O O7 0.726967 0.214401 0.530668
O O8 0.295814 0.753965 0.655043
O O9 0.820108 0.661914 0.016374
O O10 0.064781 0.034315 0.895269
O O11 0.634544 0.201400 0.824543
O O12 0.000000 0.000000 0.000000
O O13 0.180071 0.178120 0.719826
O O14 0.175114 0.089341 0.829882
O O15 0.829357 0.942545 0.534059
O O16 0.156504 0.336741 0.680266
O O17 0.500000 0.500000 0.000000
#
# Coordination Sequence:
#
# PCOD9110438 Si02
#       8
#     2   2   2   2   2   2   2   2
#     4  10  20  43  68  85 124 173 211 261 323 386
#     4   9  21  40  61  89 124 168 211 259 320 381
#     4  10  22  39  59  93 129 163 209 268 314 383
#     4  11  23  41  68  96 124 172 221 266 322 394
#     4  10  22  37  65  88 121 169 211 260 320 378
#     4  10  20  42  62  87 122 168 210 256 318 383
#     4  11  22  41  61  91 131 164 204 267 325 375
#     4  11  24  44  66  94 130 171 215 268 331 387
#
# _framework density 24.840754
#
# number of rings (size 3 to 8) (size 9 to 14) (size 15 to 20)
#    0.000    1.750    2.500    1.500    3.500    2.500 
#    9.000    1.250    0.000    0.000    0.000    0.000 
#    0.000    0.000    0.000    0.000    0.000    0.000 
#
# Total GULP energy -89263.054352 kJ/mol
# GULP energy per Si atom -5578.940897 kJ/mol
# Density = 2.478421 g / cm^3
# Si number density = 24.840754 Si / 1000 Ang^3
#
#
#
# Elastic Constant Matrix: (Units=GPa)
#
#
# Indices 1 2 3 4 5 6 
#
# 1 164.7990 32.7779 40.3090 3.0193 -42.1380 30.5060
# 2 32.7779 77.9025 25.3802 7.9540 -6.6879 9.2129
# 3 40.3090 25.3802 100.0243 13.6576 -24.8951 -8.2449
# 4 3.0193 7.9540 13.6576 39.7439 9.0005 -0.4605
# 5 -42.1380 -6.6879 -24.8951 9.0005 48.5806 0.9588
# 6 30.5060 9.2129 -8.2449 -0.4605 0.9588 21.7105
#
#
#
# Elastic Compliance Matrix: (Units=1/GPa)
#
#
# Indices 1 2 3 4 5 6 
#
# 1 0.014023 -0.000839 -0.004266 -0.002098 0.010674 -0.021484
# 2 -0.000839 0.015458 -0.003966 -0.001707 -0.000179 -0.006915
# 3 -0.004266 -0.003966 0.015622 -0.005102 0.004442 0.013306
# 4 -0.002098 -0.001707 -0.005102 0.029767 -0.010240 0.002818
# 5 0.010674 -0.000179 0.004442 -0.010240 0.034287 -0.014967
# 6 -0.021484 -0.006915 0.013306 0.002818 -0.014967 0.084957
#
#
# Mechanical properties :
#
#
# Convention : Reuss Voigt Hill
#
# Bulk Modulus (GPa) = 37.08996 59.96223 48.52609
# Shear Modulus (GPa) = 22.59951 38.29091 30.44521
#
# Velocity S-wave (km/s) = 3.01952 3.93040 3.50468
# Velocity P-wave (km/s) = 5.20770 6.69241 5.99619
#
# Compressibility (1/GPa) = 0.02696148
#
# Stress axis : x y z
#
# Youngs Moduli (GPa) = 71.31097 64.69014 64.01205
#
# Poissons Ratio (x) = 0.05428 0.27308
# Poissons Ratio (y) = 0.05984 0.25386
# Poissons Ratio (z) = 0.30421 0.25655
#
# Static dielectric constant tensor:
#      x y z
#    x 2.050440 -0.010580 0.028890 
#    y -0.010580 2.091720 -0.023090 
#    z 0.028890 -0.023090 2.040680 
# 
# From -- ./inp_files/521807.got.cif
#   From: 2010.05.17/outbox.cif.g08.bks.cpg/sg2_261_cif.got.tgz:521807.got - 2010.06.03 11:33:40.
