data_PCOD9110537
_publ_section_title
;
Structure prediction by ZEFSAII (Michael W. Deem and Ramdas Pophale) SiO2 
 PCOD9110537
Probable space group: P -1
;
_chemical_formula_sum "Si O2"
_cell_formula_units_Z 15
_cell_length_a 14.789056
_cell_length_b 11.482298
_cell_length_c 6.278636
_cell_angle_alpha 66.101616
_cell_angle_beta 102.550075
_cell_angle_gamma 144.036893
_cell_volume 560.175388
_symmetry_space_group_name_H-M "P -1"
_symmetry_group_IT_number 2
_symmetry_cell_setting 'triclinic'
loop_
_space_group_symop_operation_xyz
x,y,z
-x,-y,-z
loop_
_atom_site_type_symbol
_atom_site_label
_atom_site_fract_x
_atom_site_fract_y
_atom_site_fract_z
Si Si1 0.297829 0.676085 0.204046
Si Si2 0.793480 0.155104 0.783150
Si Si3 0.568116 0.589082 0.729937
Si Si4 0.548770 0.917008 0.491054
Si Si5 0.305616 0.512556 0.955799
Si Si6 0.741539 0.851550 0.263412
Si Si7 0.000000 0.000000 0.000000
Si Si8 0.051233 0.280165 0.677542
O O1 0.245758 0.761324 0.169345
O O2 0.470550 0.839045 0.273217
O O3 0.167672 0.447859 0.430745
O O4 0.285692 0.621737 0.994190
O O5 0.975027 0.318559 0.716546
O O6 0.719367 0.088603 0.558284
O O7 0.727750 0.963943 0.030575
O O8 0.684384 0.817127 0.501964
O O9 0.399074 0.401811 0.670322
O O10 0.500000 0.500000 0.000000
O O11 0.658218 0.552941 0.804490
O O12 0.443702 0.695632 0.725460
O O13 0.500000 0.000000 0.500000
O O14 0.152802 0.308473 0.884499
O O15 0.897714 0.954213 0.195489
O O16 0.924786 0.029692 0.777325
#
# Coordination Sequence:
#
# PCOD9110537 Si02
#       8
#     2   2   2   2   2   2   1   2
#     4  10  22  40  67  93 134 178 212 280 336 406
#     4  10  20  42  63  99 134 170 228 272 333 404
#     4  11  23  42  64  92 133 178 227 279 339 405
#     4   9  20  39  61  92 126 171 216 269 322 392
#     4  11  22  41  63  94 126 172 225 264 343 399
#     4  10  22  41  65  96 131 173 228 281 334 403
#     4  10  20  42  68  94 134 174 224 288 332 398
#     4  10  22  40  66  93 134 172 217 275 338 405
#
# _framework density 26.777329000000002
#
# number of rings (size 3 to 8) (size 9 to 14) (size 15 to 20)
#    0.000    1.867    1.333    2.000    0.000    5.867 
#    2.400   16.000    0.000    0.000    0.000    0.000 
#    0.000    0.000    0.000    0.000    0.000    0.000 
#
# Total GULP energy -83553.913991 kJ/mol
# GULP energy per Si atom -5570.260933 kJ/mol
# Density = 2.671638 g / cm^3
# Si number density = 26.777329 Si / 1000 Ang^3
#
#
#
# Elastic Constant Matrix: (Units=GPa)
#
#
# Indices 1 2 3 4 5 6 
#
# 1 127.7442 10.2439 48.5598 1.2969 -6.4977 -15.3842
# 2 10.2439 49.9510 24.1132 5.5464 -8.2415 -8.7201
# 3 48.5598 24.1132 117.0547 -19.8721 -7.5857 10.2752
# 4 1.2969 5.5464 -19.8721 49.0114 6.6065 -1.6824
# 5 -6.4977 -8.2415 -7.5857 6.6065 59.8433 -5.0775
# 6 -15.3842 -8.7201 10.2752 -1.6824 -5.0775 46.3491
#
#
#
# Elastic Compliance Matrix: (Units=1/GPa)
#
#
# Indices 1 2 3 4 5 6 
#
# 1 0.010528 0.002007 -0.005616 -0.002802 0.001456 0.005175
# 2 0.002007 0.026016 -0.007667 -0.006411 0.004172 0.007485
# 3 -0.005616 -0.007667 0.014061 0.006656 -0.001153 -0.006309
# 4 -0.002802 -0.006411 0.006656 0.024238 -0.003281 -0.003091
# 5 0.001456 0.004172 -0.001153 -0.003281 0.017945 0.003371
# 6 0.005175 0.007485 -0.006309 -0.003091 0.003371 0.026357
#
#
# Mechanical properties :
#
#
# Convention : Reuss Voigt Hill
#
# Bulk Modulus (GPa) = 35.64750 51.17595 43.41173
# Shear Modulus (GPa) = 33.10184 45.16296 39.13240
#
# Velocity S-wave (km/s) = 3.51976 4.11129 3.82697
# Velocity P-wave (km/s) = 5.46441 6.45679 5.98122
#
# Compressibility (1/GPa) = 0.02805246
#
# Stress axis : x y z
#
# Youngs Moduli (GPa) = 94.98573 38.43787 71.11653
#
# Poissons Ratio (x) = -0.07714 0.39942
# Poissons Ratio (y) = -0.19062 0.54524
# Poissons Ratio (z) = 0.53348 0.29470
#
# Static dielectric constant tensor:
#      x y z
#    x 2.253750 -0.111490 -0.106710 
#    y -0.111490 2.428410 0.128570 
#    z -0.106710 0.128570 2.585680 
# 
# From -- ./inp_files/78425.got.cif
#   From: 2010.05.17/outbox.cif.g08.bks.cpg/sg2_40_cif.got.tgz:78425.got - 2010.06.03 11:33:40.
