data_PCOD9110117
_publ_section_title
;
Structure prediction by ZEFSAII (Michael W. Deem and Ramdas Pophale) SiO2 
 PCOD9110117
Probable space group: P -1
;
_chemical_formula_sum "Si O2"
_cell_formula_units_Z 16
_cell_length_a 15.966766
_cell_length_b 8.604371
_cell_length_c 12.340597
_cell_angle_alpha 74.877897
_cell_angle_beta 155.714311
_cell_angle_gamma 97.033720
_cell_volume 644.122186
_symmetry_space_group_name_H-M "P -1"
_symmetry_group_IT_number 2
_symmetry_cell_setting 'triclinic'
loop_
_space_group_symop_operation_xyz
x,y,z
-x,-y,-z
loop_
_atom_site_type_symbol
_atom_site_label
_atom_site_fract_x
_atom_site_fract_y
_atom_site_fract_z
Si Si1 0.881635 0.902257 0.262462
Si Si2 0.094197 0.226146 0.082237
Si Si3 0.537974 0.644084 0.437816
Si Si4 0.559741 0.585390 0.798855
Si Si5 0.356858 0.882675 0.890670
Si Si6 0.677015 0.634395 0.170542
Si Si7 0.011879 0.355141 0.740489
Si Si8 0.713425 0.122730 0.731044
O O1 0.886985 0.825688 0.163700
O O2 0.117536 0.919870 0.554456
O O3 0.703051 0.067371 0.064049
O O4 0.826567 0.756271 0.298177
O O5 0.228377 0.333466 0.278273
O O6 0.253309 0.064574 0.239334
O O7 0.953584 0.329382 0.799104
O O8 0.944367 0.155923 0.994574
O O9 0.500000 0.500000 0.500000
O O10 0.505738 0.572870 0.295709
O O11 0.386195 0.812381 0.282585
O O12 0.566962 0.618942 0.928968
O O13 0.428878 0.751739 0.549644
O O14 0.804447 0.553907 0.056518
O O15 0.499359 0.711555 0.036938
O O16 0.500000 0.000000 0.000000
O O17 0.170547 0.537573 0.571784
#
# Coordination Sequence:
#
# PCOD9110117 Si02
#       8
#     2   2   2   2   2   2   2   2
#     4   9  19  38  65  91 130 180 218 276 322 397
#     4  11  23  43  70 100 130 178 226 283 343 396
#     4  10  20  41  69  98 134 166 226 291 336 394
#     4  10  21  41  71  99 131 180 222 282 339 396
#     4   9  19  39  65  89 131 179 226 268 321 396
#     4  10  22  41  67  97 142 174 221 269 337 415
#     4  11  22  41  68  96 141 177 220 277 338 413
#     4  10  23  42  71  97 129 178 232 280 336 404
#
# _framework density 24.840007
#
# number of rings (size 3 to 8) (size 9 to 14) (size 15 to 20)
#    0.000    2.000    2.500    1.875    1.750    2.500 
#    2.250    6.250   16.500    0.000    0.000    0.000 
#    0.000    0.000    0.000    0.000    0.000    0.000 
#
# Total GULP energy -89437.721143 kJ/mol
# GULP energy per Si atom -5589.857571 kJ/mol
# Density = 2.478347 g / cm^3
# Si number density = 24.840007 Si / 1000 Ang^3
#
#
#
# Elastic Constant Matrix: (Units=GPa)
#
#
# Indices 1 2 3 4 5 6 
#
# 1 115.9661 46.6460 61.4155 7.2999 -8.8627 -27.4021
# 2 46.6460 125.3028 68.8115 8.6402 -16.4742 -17.1791
# 3 61.4155 68.8115 113.7209 21.6732 5.3734 -17.5457
# 4 7.2999 8.6402 21.6732 61.1717 0.2332 6.6846
# 5 -8.8627 -16.4742 5.3734 0.2332 45.6144 1.1976
# 6 -27.4021 -17.1791 -17.5457 6.6846 1.1976 40.2106
#
#
#
# Elastic Compliance Matrix: (Units=1/GPa)
#
#
# Indices 1 2 3 4 5 6 
#
# 1 0.013964 -0.000326 -0.006491 -0.000038 0.003191 0.006455
# 2 -0.000326 0.013516 -0.008170 0.000819 0.005732 0.001680
# 3 -0.006491 -0.008170 0.018644 -0.004785 -0.006416 0.001208
# 4 -0.000038 0.000819 -0.004785 0.018459 0.000885 -0.004859
# 5 0.003191 0.005732 -0.006416 0.000885 0.025340 0.000922
# 6 0.006455 0.001680 0.001208 -0.004859 0.000922 0.031293
#
#
# Mechanical properties :
#
#
# Convention : Reuss Voigt Hill
#
# Bulk Modulus (GPa) = 61.92424 78.74842 70.33633
# Shear Modulus (GPa) = 31.93351 41.27377 36.60364
#
# Velocity S-wave (km/s) = 3.58937 4.08068 3.84288
# Velocity P-wave (km/s) = 6.49319 7.34668 6.93308
#
# Compressibility (1/GPa) = 0.01614876
#
# Stress axis : x y z
#
# Youngs Moduli (GPa) = 71.61339 73.98395 53.63617
#
# Poissons Ratio (x) = 0.02414 0.34817
# Poissons Ratio (y) = 0.02337 0.43822
# Poissons Ratio (z) = 0.46487 0.60446
#
# Static dielectric constant tensor:
#      x y z
#    x 1.961750 -0.001200 0.003560 
#    y -0.001200 1.999410 -0.005550 
#    z 0.003560 -0.005550 1.951090 
# 
# From -- ./inp_files/476072.got.cif
#   From: 2010.05.17/outbox.cif.g08.bks.cpg/sg2_239_cif.got.tgz:476072.got - 2010.06.03 11:33:40.
