data_PCOD9110392
_publ_section_title
;
Structure prediction by ZEFSAII (Michael W. Deem and Ramdas Pophale) SiO2 
 PCOD9110392
Probable space group: P -1
;
_chemical_formula_sum "Si O2"
_cell_formula_units_Z 15
_cell_length_a 5.272367
_cell_length_b 28.838444
_cell_length_c 11.441564
_cell_angle_alpha 158.865888
_cell_angle_beta 106.688671
_cell_angle_gamma 80.855340
_cell_volume 570.150153
_symmetry_space_group_name_H-M "P -1"
_symmetry_group_IT_number 2
_symmetry_cell_setting 'triclinic'
loop_
_space_group_symop_operation_xyz
x,y,z
-x,-y,-z
loop_
_atom_site_type_symbol
_atom_site_label
_atom_site_fract_x
_atom_site_fract_y
_atom_site_fract_z
Si Si1 0.449289 0.575838 0.880842
Si Si2 0.667012 0.410974 0.680199
Si Si3 0.020188 0.738371 0.234256
Si Si4 0.173435 0.787577 0.624816
Si Si5 0.500000 0.500000 0.500000
Si Si6 0.045123 0.124186 0.690457
Si Si7 0.780512 0.845325 0.900810
Si Si8 0.686785 0.280124 0.134321
O O1 0.708396 0.626852 0.937753
O O2 0.263919 0.670297 0.099015
O O3 0.586963 0.542983 0.939956
O O4 0.307160 0.448544 0.481547
O O5 0.840288 0.369256 0.710716
O O6 0.362680 0.303225 0.413528
O O7 0.775144 0.360017 0.456189
O O8 0.049731 0.800325 0.512861
O O9 0.018345 0.833762 0.352119
O O10 0.502848 0.866491 0.856415
O O11 0.010089 0.840117 0.825048
O O12 0.326490 0.610278 0.705476
O O13 0.880569 0.195830 0.919696
O O14 0.378016 0.174073 0.861782
O O15 0.906069 0.962565 0.285330
#
# Coordination Sequence:
#
# PCOD9110392 Si02
#       8
#     2   2   2   2   1   2   2   2
#     4  11  24  39  67  94 131 166 202 267 314 384
#     4   9  26  43  63  94 129 172 210 252 327 370
#     4  12  24  42  65  99 126 163 217 261 318 369
#     4  10  24  44  63  93 126 172 215 256 315 371
#     4  10  20  42  60  94 130 158 202 242 326 374
#     4  12  24  42  65  99 126 163 217 261 318 369
#     4  10  24  44  63  93 126 172 215 256 315 371
#     4  11  24  39  67  94 131 166 202 267 314 384
#
# _framework density 26.308859000000002
#
# number of rings (size 3 to 8) (size 9 to 14) (size 15 to 20)
#    0.800    0.533    2.667    1.600    3.733    7.467 
#    0.000    0.000    0.000    0.000    0.000    0.000 
#    0.000    0.000    0.000    0.000    0.000    0.000 
#
# Total GULP energy -83825.189991 kJ/mol
# GULP energy per Si atom -5588.345999 kJ/mol
# Density = 2.624898 g / cm^3
# Si number density = 26.308859 Si / 1000 Ang^3
#
#
#
# Elastic Constant Matrix: (Units=GPa)
#
#
# Indices 1 2 3 4 5 6 
#
# 1 150.2297 22.5809 30.9305 18.1904 -24.1320 -15.5202
# 2 22.5809 109.7639 5.2691 1.7564 -5.2434 -21.9589
# 3 30.9305 5.2691 33.7349 2.5027 -24.0710 0.2589
# 4 18.1904 1.7564 2.5027 42.2714 5.0388 1.6872
# 5 -24.1320 -5.2434 -24.0710 5.0388 41.7090 -9.0556
# 6 -15.5202 -21.9589 0.2589 1.6872 -9.0556 33.2470
#
#
#
# Elastic Compliance Matrix: (Units=1/GPa)
#
#
# Indices 1 2 3 4 5 6 
#
# 1 0.009646 -0.000310 -0.005572 -0.004525 0.004108 0.005690
# 2 -0.000310 0.010958 0.001412 -0.001203 0.003942 0.008217
# 3 -0.005572 0.001412 0.058221 -0.005291 0.032726 0.007060
# 4 -0.004525 -0.001203 -0.005291 0.027530 -0.010707 -0.007179
# 5 0.004108 0.003942 0.032726 -0.010707 0.051094 0.018727
# 6 0.005690 0.008217 0.007060 -0.007179 0.018727 0.043571
#
#
# Mechanical properties :
#
#
# Convention : Reuss Voigt Hill
#
# Bulk Modulus (GPa) = 14.30944 45.69882 30.00413
# Shear Modulus (GPa) = 21.43575 39.10867 30.27221
#
# Velocity S-wave (km/s) = 2.85752 3.85973 3.39580
# Velocity P-wave (km/s) = 4.04204 6.10501 5.17732
#
# Compressibility (1/GPa) = 0.06988395
#
# Stress axis : x y z
#
# Youngs Moduli (GPa) = 103.66992 91.25911 17.17599
#
# Poissons Ratio (x) = 0.02828 0.09571
# Poissons Ratio (y) = 0.03213 -0.02425
# Poissons Ratio (z) = 0.57769 -0.12885
#
# Static dielectric constant tensor:
#      x y z
#    x 2.097210 -0.024930 0.097370 
#    y -0.024930 2.162830 -0.032200 
#    z 0.097370 -0.032200 2.150570 
# 
# From -- ./inp_files/371620.got.cif
#   From: 2010.05.17/outbox.cif.g08.bks.cpg/sg2_186_cif.got.tgz:371620.got - 2010.06.03 11:33:40.
