data_PCOD9110361
_publ_section_title
;
Structure prediction by ZEFSAII (Michael W. Deem and Ramdas Pophale) SiO2 
 PCOD9110361
Probable space group: P -1
;
_chemical_formula_sum "Si O2"
_cell_formula_units_Z 15
_cell_length_a 5.205947
_cell_length_b 9.366721
_cell_length_c 14.078932
_cell_angle_alpha 98.559637
_cell_angle_beta 115.907152
_cell_angle_gamma 98.099001
_cell_volume 594.065865
_symmetry_space_group_name_H-M "P -1"
_symmetry_group_IT_number 2
_symmetry_cell_setting 'triclinic'
loop_
_space_group_symop_operation_xyz
x,y,z
-x,-y,-z
loop_
_atom_site_type_symbol
_atom_site_label
_atom_site_fract_x
_atom_site_fract_y
_atom_site_fract_z
Si Si1 0.584149 0.207137 0.221728
Si Si2 0.435829 0.638416 0.445820
Si Si3 0.929875 0.488645 0.214026
Si Si4 0.099695 0.242240 0.875108
Si Si5 0.980156 0.830026 0.451251
Si Si6 0.029522 0.244838 0.075952
Si Si7 0.597901 0.899503 0.232063
Si Si8 0.500000 0.000000 0.000000
O O1 0.773490 0.373810 0.258650
O O2 0.255989 0.219019 0.191026
O O3 0.663529 0.075814 0.281800
O O4 0.559887 0.132541 0.106340
O O5 0.500000 0.500000 0.500000
O O6 0.241516 0.569680 0.316510
O O7 0.750313 0.732460 0.475395
O O8 0.253376 0.751261 0.474966
O O9 0.795385 0.618815 0.163418
O O10 0.936015 0.388058 0.113364
O O11 0.745208 0.172850 0.807878
O O12 0.291470 0.124873 0.861774
O O13 0.164344 0.288798 0.998220
O O14 0.812639 0.828721 0.323284
O O15 0.000000 0.000000 0.500000
O O16 0.803491 0.090712 0.007298
#
# Coordination Sequence:
#
# PCOD9110361 Si02
#       8
#     2   2   2   2   2   2   2   1
#     4  11  25  39  71 101 149 194 257 297 364 436
#     4  12  28  53  82 114 155 196 248 325 393 460
#     4  11  27  46  69 110 150 194 248 307 378 447
#     4  12  26  47  73 102 155 200 249 300 376 427
#     4  12  27  53  82 114 150 196 257 315 391 466
#     4  11  25  41  73 105 152 203 258 300 365 440
#     4  12  26  46  75 105 151 198 241 313 366 449
#     4  10  20  42  58 106 142 196 252 312 344 426
#
# _framework density 25.249728999999999
#
# number of rings (size 3 to 8) (size 9 to 14) (size 15 to 20)
#    0.000    0.533    4.000    2.400   11.200    1.600 
#    0.000    0.000    0.000    0.000    0.000    0.000 
#    0.000    0.000    0.000    0.000    0.000    0.000 
#
# Total GULP energy -83644.814022 kJ/mol
# GULP energy per Si atom -5576.320935 kJ/mol
# Density = 2.519226 g / cm^3
# Si number density = 25.249729 Si / 1000 Ang^3
#
#
#
# Elastic Constant Matrix: (Units=GPa)
#
#
# Indices 1 2 3 4 5 6 
#
# 1 83.4037 34.4223 16.7775 11.3780 -12.7881 -10.3269
# 2 34.4223 177.2653 28.2644 -3.6988 -16.5213 -4.2585
# 3 16.7775 28.2644 40.6703 1.6434 -2.0424 -6.8827
# 4 11.3780 -3.6988 1.6434 44.4040 -9.2643 0.6480
# 5 -12.7881 -16.5213 -2.0424 -9.2643 16.8282 -0.8874
# 6 -10.3269 -4.2585 -6.8827 0.6480 -0.8874 41.7341
#
#
#
# Elastic Compliance Matrix: (Units=1/GPa)
#
#
# Indices 1 2 3 4 5 6 
#
# 1 0.015500 -0.001472 -0.004302 -0.002146 0.008799 0.003196
# 2 -0.001472 0.007303 -0.004260 0.002597 0.006953 -0.000214
# 3 -0.004302 -0.004260 0.029719 -0.001318 -0.004395 0.003329
# 4 -0.002146 0.002597 -0.001318 0.026545 0.015342 -0.000569
# 5 0.008799 0.006953 -0.004395 0.015342 0.081042 0.003647
# 6 0.003196 -0.000214 0.003329 -0.000569 0.003647 0.025366
#
#
# Mechanical properties :
#
#
# Convention : Reuss Voigt Hill
#
# Bulk Modulus (GPa) = 30.81211 51.14087 40.97649
# Shear Modulus (GPa) = 23.10935 35.38493 29.24714
#
# Velocity S-wave (km/s) = 3.02856 3.74759 3.40709
# Velocity P-wave (km/s) = 4.94561 6.24691 5.63395
#
# Compressibility (1/GPa) = 0.03245478
#
# Stress axis : x y z
#
# Youngs Moduli (GPa) = 64.51455 136.92083 33.64803
#
# Poissons Ratio (x) = 0.20154 0.14475
# Poissons Ratio (y) = 0.09496 0.14336
# Poissons Ratio (z) = 0.27753 0.58334
#
# Static dielectric constant tensor:
#      x y z
#    x 2.073000 0.033570 -0.045640 
#    y 0.033570 1.983220 0.029360 
#    z -0.045640 0.029360 1.947640 
# 
# From -- ./inp_files/546613.got.cif
#   From: 2010.05.17/outbox.cif.g08.bks.cpg/sg2_274_cif.got.tgz:546613.got - 2010.06.03 11:33:40.
