data_PCOD9110800
_publ_section_title
;
Structure prediction by ZEFSAII (Michael W. Deem and Ramdas Pophale) SiO2 
 PCOD9110800
Probable space group: P -1
;
_chemical_formula_sum "Si O2"
_cell_formula_units_Z 16
_cell_length_a 9.649658
_cell_length_b 19.832845
_cell_length_c 10.703995
_cell_angle_alpha 147.946245
_cell_angle_beta 93.196285
_cell_angle_gamma 111.629190
_cell_volume 672.739932
_symmetry_space_group_name_H-M "P -1"
_symmetry_group_IT_number 2
_symmetry_cell_setting 'triclinic'
loop_
_space_group_symop_operation_xyz
x,y,z
-x,-y,-z
loop_
_atom_site_type_symbol
_atom_site_label
_atom_site_fract_x
_atom_site_fract_y
_atom_site_fract_z
Si Si1 0.269241 0.711603 0.488236
Si Si2 0.993721 0.850233 0.309026
Si Si3 0.806328 0.720465 0.508841
Si Si4 0.509436 0.432696 0.523990
Si Si5 0.743870 0.944411 0.794792
Si Si6 0.696125 0.316726 0.276677
Si Si7 0.154086 0.801050 0.029110
Si Si8 0.997774 0.697709 0.299535
O O1 0.511551 0.833386 0.656818
O O2 0.247118 0.713920 0.638564
O O3 0.207979 0.790761 0.529045
O O4 0.091736 0.476603 0.069770
O O5 0.035255 0.847608 0.451224
O O6 0.744215 0.623869 0.906217
O O7 0.000000 0.000000 0.500000
O O8 0.159797 0.882182 0.285418
O O9 0.672085 0.642744 0.508083
O O10 0.727717 0.781886 0.516769
O O11 0.805071 0.592067 0.225681
O O12 0.066051 0.913297 0.865579
O O13 0.500000 0.500000 0.500000
O O14 0.506345 0.282032 0.248861
O O15 0.821215 0.077274 0.886943
O O16 0.673214 0.190102 0.974084
O O17 0.909923 0.557582 0.627421
#
# Coordination Sequence:
#
# PCOD9110800 Si02
#       8
#     2   2   2   2   2   2   2   2
#     4  11  23  45  68  96 138 177 227 280 341 402
#     4  11  23  45  68 100 144 175 223 285 341 406
#     4  11  23  40  67  98 136 173 232 274 344 397
#     4  11  23  44  67 100 130 182 232 277 341 401
#     4  11  23  42  65 101 130 172 232 287 322 395
#     4  10  20  42  66  92 133 176 224 279 330 401
#     4  10  21  38  67  92 129 177 221 271 340 387
#     4  11  24  42  70  97 135 184 220 272 349 417
#
# _framework density 23.783335999999998
#
# number of rings (size 3 to 8) (size 9 to 14) (size 15 to 20)
#    0.000    1.250    3.750    3.000    0.000    7.000 
#    2.250    0.625    0.000    0.000    0.000    0.000 
#    0.000    0.000    0.000    0.000    0.000    0.000 
#
# Total GULP energy -89488.180658 kJ/mol
# GULP energy per Si atom -5593.011291 kJ/mol
# Density = 2.372920 g / cm^3
# Si number density = 23.783336 Si / 1000 Ang^3
#
#
#
# Elastic Constant Matrix: (Units=GPa)
#
#
# Indices 1 2 3 4 5 6 
#
# 1 165.8259 70.0025 24.8091 -11.1384 -8.6187 8.1890
# 2 70.0025 140.6501 -0.2798 11.0466 0.4123 -7.0669
# 3 24.8091 -0.2798 32.0373 -0.4431 3.3507 2.8745
# 4 -11.1384 11.0466 -0.4431 21.1230 5.5304 -11.9301
# 5 -8.6187 0.4123 3.3507 5.5304 40.3869 -10.0465
# 6 8.1890 -7.0669 2.8745 -11.9301 -10.0465 53.7090
#
#
#
# Elastic Compliance Matrix: (Units=1/GPa)
#
#
# Indices 1 2 3 4 5 6 
#
# 1 0.010294 -0.005754 -0.008131 0.007891 0.001904 0.000217
# 2 -0.005754 0.010642 0.004483 -0.008312 -0.000548 0.000089
# 3 -0.008131 0.004483 0.038180 -0.005960 -0.004735 -0.002423
# 4 0.007891 -0.008312 -0.005960 0.063074 -0.003545 0.011369
# 5 0.001904 -0.000548 -0.004735 -0.003545 0.027088 0.004170
# 6 0.000217 0.000089 -0.002423 0.011369 0.004170 0.022033
#
#
# Mechanical properties :
#
#
# Convention : Reuss Voigt Hill
#
# Bulk Modulus (GPa) = 24.80712 58.61964 41.71338
# Shear Modulus (GPa) = 24.56371 39.30922 31.93646
#
# Velocity S-wave (km/s) = 3.21723 4.06988 3.66841
# Velocity P-wave (km/s) = 4.92482 6.84004 5.95986
#
# Compressibility (1/GPa) = 0.04031101
#
# Stress axis : x y z
#
# Youngs Moduli (GPa) = 97.14111 93.97171 26.19183
#
# Poissons Ratio (x) = 0.54073 0.21298
# Poissons Ratio (y) = 0.55896 -0.11742
# Poissons Ratio (z) = 0.78990 -0.42130
#
# Static dielectric constant tensor:
#      x y z
#    x 1.922980 0.023560 -0.040700 
#    y 0.023560 1.898330 0.017040 
#    z -0.040700 0.017040 1.966770 
# 
# From -- ./inp_files/392384.got.cif
#   From: 2010.05.17/outbox.cif.g08.bks.cpg/sg2_197_cif.got.tgz:392384.got - 2010.06.03 11:33:40.
