data_PCOD9110880
_publ_section_title
;
Structure prediction by ZEFSAII (Michael W. Deem and Ramdas Pophale) SiO2 
 PCOD9110880
Probable space group: P -1
;
_chemical_formula_sum "Si O2"
_cell_formula_units_Z 15
_cell_length_a 8.523270
_cell_length_b 10.857930
_cell_length_c 15.541153
_cell_angle_alpha 51.028810
_cell_angle_beta 93.964973
_cell_angle_gamma 51.623938
_cell_volume 575.755048
_symmetry_space_group_name_H-M "P -1"
_symmetry_group_IT_number 2
_symmetry_cell_setting 'triclinic'
loop_
_space_group_symop_operation_xyz
x,y,z
-x,-y,-z
loop_
_atom_site_type_symbol
_atom_site_label
_atom_site_fract_x
_atom_site_fract_y
_atom_site_fract_z
Si Si1 0.728481 0.169715 0.972212
Si Si2 0.794329 0.260636 0.498049
Si Si3 0.431437 0.724619 0.673795
Si Si4 0.500000 0.000000 0.500000
Si Si5 0.905801 0.872985 0.790439
Si Si6 0.290794 0.201078 0.583628
Si Si7 0.433579 0.869336 0.180539
Si Si8 0.471866 0.850643 0.887871
O O1 0.535789 0.492959 0.840132
O O2 0.562059 0.191702 0.890414
O O3 0.778032 0.032408 0.121226
O O4 0.000000 0.000000 0.000000
O O5 0.570080 0.351701 0.388529
O O6 0.641659 0.561738 0.375150
O O7 0.880521 0.069581 0.662840
O O8 0.081235 0.051832 0.540877
O O9 0.598060 0.746759 0.660416
O O10 0.244394 0.243768 0.461398
O O11 0.605419 0.033644 0.676931
O O12 0.882169 0.885828 0.887242
O O13 0.208155 0.518016 0.929423
O O14 0.000000 0.500000 0.500000
O O15 0.384638 0.953646 0.740444
O O16 0.503354 0.993447 0.141037
#
# Coordination Sequence:
#
# PCOD9110880 Si02
#       8
#     2   2   2   1   2   2   2   2
#     4  11  25  44  67 104 151 184 239 303 368 433
#     4  10  20  42  67 102 136 179 247 289 345 429
#     4  10  23  40  67 102 133 189 236 292 355 435
#     4  12  26  46  72  98 150 192 234 298 384 418
#     4  11  22  47  72 103 148 183 250 304 357 442
#     4  11  27  46  72 112 146 189 249 308 363 440
#     4  10  23  39  72 102 133 198 237 288 362 437
#     4  11  25  49  73 103 148 189 247 300 363 451
#
# _framework density 26.052745000000002
#
# number of rings (size 3 to 8) (size 9 to 14) (size 15 to 20)
#    0.000    1.333    2.667    2.400    5.600    2.133 
#    2.400    1.333    0.000    0.000    0.000    0.000 
#    0.000    0.000    0.000    0.000    0.000    0.000 
#
# Total GULP energy -83581.498645 kJ/mol
# GULP energy per Si atom -5572.099910 kJ/mol
# Density = 2.599345 g / cm^3
# Si number density = 26.052745 Si / 1000 Ang^3
#
#
#
# Elastic Constant Matrix: (Units=GPa)
#
#
# Indices 1 2 3 4 5 6 
#
# 1 96.9961 53.0853 57.6679 10.8443 -32.3429 -11.9244
# 2 53.0853 107.3103 45.8698 -3.9179 -27.0353 -32.4259
# 3 57.6679 45.8698 113.7600 -3.1163 -40.3970 -14.1550
# 4 10.8443 -3.9179 -3.1163 56.2936 -14.4111 -11.5288
# 5 -32.3429 -27.0353 -40.3970 -14.4111 55.8364 7.7455
# 6 -11.9244 -32.4259 -14.1550 -11.5288 7.7455 50.2318
#
#
#
# Elastic Compliance Matrix: (Units=1/GPa)
#
#
# Indices 1 2 3 4 5 6 
#
# 1 0.018941 -0.007296 -0.006510 -0.004711 0.001990 -0.003436
# 2 -0.007296 0.017360 -0.000531 0.005624 0.003857 0.010021
# 3 -0.006510 -0.000531 0.015612 0.004641 0.008144 0.002321
# 4 -0.004711 0.005624 0.004641 0.023027 0.008208 0.007839
# 5 0.001990 0.003857 0.008144 0.008208 0.028560 0.002737
# 6 -0.003436 0.010021 0.002321 0.007839 0.002737 0.027592
#
#
# Mechanical properties :
#
#
# Convention : Reuss Voigt Hill
#
# Bulk Modulus (GPa) = 43.03011 70.14583 56.58797
# Shear Modulus (GPa) = 29.84870 43.23525 36.54197
#
# Velocity S-wave (km/s) = 3.38850 4.07815 3.74921
# Velocity P-wave (km/s) = 5.64461 7.01128 6.36473
#
# Compressibility (1/GPa) = 0.02323954
#
# Stress axis : x y z
#
# Youngs Moduli (GPa) = 52.79558 57.60377 64.05265
#
# Poissons Ratio (x) = 0.42030 0.41697
# Poissons Ratio (y) = 0.38522 0.03399
# Poissons Ratio (z) = 0.34369 0.03057
#
# Static dielectric constant tensor:
#      x y z
#    x 2.136910 0.136830 0.096070 
#    y 0.136830 2.154750 -0.014950 
#    z 0.096070 -0.014950 2.111090 
# 
# From -- ./inp_files/558952.got.cif
#   From: 2010.05.17/outbox.cif.g08.bks.cpg/sg2_280_cif.got.tgz:558952.got - 2010.06.03 11:33:40.
